data_PCOD8165338
_publ_section_title
;
Structure prediction by ZEFSAII (Michael W. Deem and Ramdas Pophale) SiO2 
 PCOD8165338
Probable space group: I 21 21 21
;
_chemical_formula_sum "Si O2"
_cell_formula_units_Z 48
_cell_length_a 16.861495
_cell_length_b 14.128743
_cell_length_c 8.990973
_cell_angle_alpha 90.000000
_cell_angle_beta 90.000000
_cell_angle_gamma 90.000000
_cell_volume 2141.935047
_symmetry_space_group_name_H-M "I 21 21 21"
_symmetry_group_IT_number 24
_symmetry_cell_setting 'orthorhombic'
loop_
_space_group_symop_operation_xyz
x,y,z
-x,1/2-y,z
x,-y,1/2-z
1/2-x,y,-z
1/2+x,1/2+y,1/2+z
1/2-x,-y,1/2+z
1/2+x,1/2-y,-z
-x,1/2+y,1/2-z
loop_
_atom_site_type_symbol
_atom_site_label
_atom_site_fract_x
_atom_site_fract_y
_atom_site_fract_z
Si Si1 0.796434 0.824878 0.641207
Si Si2 0.500000 0.750000 0.977522
Si Si3 0.929117 0.680943 0.582296
Si Si4 0.470612 0.000000 0.250000
Si Si5 0.398542 0.394184 0.382245
Si Si6 0.332128 0.597074 0.810279
Si Si7 0.487723 0.892336 0.731930
O O1 0.750000 0.868703 0.500000
O O2 0.842180 0.729370 0.593727
O O3 0.860733 0.896325 0.716037
O O4 0.727614 0.815924 0.768570
O O5 0.460412 0.831561 0.874536
O O6 0.429516 0.711923 0.081669
O O7 0.000000 0.750000 0.639534
O O8 0.920773 0.588041 0.686751
O O9 0.948479 0.652657 0.413656
O O10 0.526661 0.964937 0.114062
O O11 0.337681 0.418714 0.512760
O O12 0.293710 0.500000 0.750000
O O13 0.416289 0.614864 0.728180
O O14 0.458852 0.000000 0.750000
#
# Coordination Sequence:
#
# PCOD8165338 Si02
#       7
#     8   4   8   4   8   8   8
#     4  12  27  40  65  97 143 188 225 275 358 425
#     4  10  20  40  70 100 136 168 234 296 348 410
#     4  12  23  43  70 105 141 185 235 291 348 422
#     4  12  24  42  74 104 140 176 242 298 342 412
#     4  11  24  41  68 104 135 181 228 293 362 410
#     4  10  23  41  65 101 141 178 225 293 365 426
#     4  10  21  41  73 107 135 179 235 300 359 405
#
# _framework density 22.409642999999999
#
# number of rings (size 3 to 8) (size 9 to 14) (size 15 to 20)
#    0.000    1.000    2.500    5.500    5.833    0.000 
#    0.000    0.000    1.833    0.000    0.000    0.000 
#    0.000    0.000    0.000    0.000    0.000    0.000 
#
# Total GULP energy -297375.422445 kJ/mol
# GULP energy per Si atom -12390.642602 kJ/mol
# Density = 2.235864 g / cm^3
# Si number density = 22.409643 Si / 1000 Ang^3
#
#
#
# Elastic Constant Matrix: (Units=GPa)
#
#
# Indices 1 2 3 4 5 6 
#
# 1 85.4252 38.4418 41.9126 0.0000 0.0000 0.0000
# 2 38.4418 103.0259 36.4383 0.0000 0.0000 0.0000
# 3 41.9126 36.4383 126.8243 0.0000 0.0000 0.0000
# 4 0.0000 0.0000 0.0000 39.2819 0.0000 0.0000
# 5 0.0000 0.0000 0.0000 0.0000 37.2908 0.0000
# 6 0.0000 0.0000 0.0000 0.0000 0.0000 36.3600
#
#
#
# Elastic Compliance Matrix: (Units=1/GPa)
#
#
# Indices 1 2 3 4 5 6 
#
# 1 0.015614 -0.004454 -0.003881 0.000000 0.000000 0.000000
# 2 -0.004454 0.012074 -0.001997 0.000000 0.000000 0.000000
# 3 -0.003881 -0.001997 0.009741 0.000000 0.000000 0.000000
# 4 0.000000 0.000000 0.000000 0.025457 0.000000 0.000000
# 5 0.000000 0.000000 0.000000 0.000000 0.026816 0.000000
# 6 0.000000 0.000000 0.000000 0.000000 0.000000 0.027503
#
#
# Mechanical properties :
#
#
# Convention : Reuss Voigt Hill
#
# Bulk Modulus (GPa) = 59.64135 60.98455 60.31295
# Shear Modulus (GPa) = 34.85341 35.81874 35.33607
#
# Velocity S-wave (km/s) = 3.94799 4.00229 3.97523
# Velocity P-wave (km/s) = 6.88869 6.97355 6.93125
#
# Compressibility (1/GPa) = 0.01676689
#
# Stress axis : x y z
#
# Youngs Moduli (GPa) = 64.04408 82.81923 102.65651
#
# Poissons Ratio (x) = 0.36885 0.39837
# Poissons Ratio (y) = 0.28523 0.20504
# Poissons Ratio (z) = 0.24853 0.16542
#
# Static dielectric constant tensor:
#      x y z
#    x 3.903570 0.000000 0.000000 
#    y 0.000000 4.297350 0.000000 
#    z 0.000000 0.000000 4.228760 
# 
# 
# High freq. dielectric constant tensor:
#      x y z
#    x 1.850390 0.000000 0.000000 
#    y 0.000000 1.873840 0.000000 
#    z 0.000000 0.000000 1.906200 
# 
# From -- ./inp_files/14235.got.cif
#   From: 2010.03.12/outbox.cif.g09.slc.cpg/sg24_8_cif.got.tgz:14235.got - 2010.04.14 03:06:53.
