data_PCOD8165502
_publ_section_title
;
Structure prediction by ZEFSAII (Michael W. Deem and Ramdas Pophale) SiO2 
 PCOD8165502
Probable space group: I 21 21 21
;
_chemical_formula_sum "Si O2"
_cell_formula_units_Z 48
_cell_length_a 9.198569
_cell_length_b 18.170610
_cell_length_c 14.140599
_cell_angle_alpha 90.000000
_cell_angle_beta 90.000000
_cell_angle_gamma 90.000000
_cell_volume 2363.510762
_symmetry_space_group_name_H-M "I 21 21 21"
_symmetry_group_IT_number 24
_symmetry_cell_setting 'orthorhombic'
loop_
_space_group_symop_operation_xyz
x,y,z
-x,1/2-y,z
x,-y,1/2-z
1/2-x,y,-z
1/2+x,1/2+y,1/2+z
1/2-x,-y,1/2+z
1/2+x,1/2-y,-z
-x,1/2+y,1/2-z
loop_
_atom_site_type_symbol
_atom_site_label
_atom_site_fract_x
_atom_site_fract_y
_atom_site_fract_z
Si Si1 0.295386 0.267654 0.322996
Si Si2 0.500000 0.750000 0.912086
Si Si3 0.450577 0.988206 0.356166
Si Si4 0.972144 0.650738 0.919311
Si Si5 0.032371 0.671310 0.445083
Si Si6 0.826423 0.857284 0.635833
Si Si7 0.250000 0.911637 0.500000
O O1 0.124770 0.273155 0.339246
O O2 0.361250 0.185116 0.340035
O O3 0.366255 0.319138 0.402505
O O4 0.341598 0.300726 0.222085
O O5 0.562379 0.681018 0.974707
O O6 0.593227 0.935893 0.350638
O O7 0.316382 0.956790 0.414025
O O8 0.395490 0.000000 0.250000
O O9 0.483927 0.063540 0.411353
O O10 0.097672 0.684589 0.549358
O O11 0.154455 0.627254 0.384349
O O12 0.000000 0.750000 0.397575
O O13 0.877579 0.632268 0.448247
#
# Coordination Sequence:
#
# PCOD8165502 Si02
#       7
#     8   4   8   8   8   8   4
#     4  10  21  39  64  94 125 163 222 266 316 388
#     4  10  22  40  60 104 126 156 228 266 336 370
#     4  11  23  43  65  92 132 176 217 259 338 399
#     4  10  21  40  66  87 128 174 206 261 325 399
#     4  10  22  41  65  89 126 163 217 268 332 379
#     4  10  22  41  60  96 125 169 212 269 321 397
#     4  10  24  42  62  96 128 168 214 274 328 388
#
# _framework density 20.308772000000001
#
# number of rings (size 3 to 8) (size 9 to 14) (size 15 to 20)
#    0.000    2.000    1.667    3.000    5.833    1.333 
#   12.000    0.833    0.000    0.000    0.000    0.000 
#    0.000    0.000    0.000    0.000    0.000    0.000 
#
# Total GULP energy -297388.142280 kJ/mol
# GULP energy per Si atom -12391.172595 kJ/mol
# Density = 2.026255 g / cm^3
# Si number density = 20.308772 Si / 1000 Ang^3
#
#
#
# Elastic Constant Matrix: (Units=GPa)
#
#
# Indices 1 2 3 4 5 6 
#
# 1 156.2261 62.9058 39.7918 0.0000 0.0000 0.0000
# 2 62.9058 121.5888 37.6427 0.0001 0.0000 0.0000
# 3 39.7918 37.6427 83.9440 0.0003 0.0000 0.0000
# 4 0.0000 0.0001 0.0003 21.0216 0.0000 0.0000
# 5 0.0000 0.0000 0.0000 0.0000 29.2031 0.0000
# 6 0.0000 0.0000 0.0000 0.0000 0.0000 14.6772
#
#
#
# Elastic Compliance Matrix: (Units=1/GPa)
#
#
# Indices 1 2 3 4 5 6 
#
# 1 0.008477 -0.003648 -0.002382 0.000000 0.000000 0.000000
# 2 -0.003648 0.011120 -0.003257 0.000000 0.000000 0.000000
# 3 -0.002382 -0.003257 0.014503 0.000000 0.000000 0.000000
# 4 0.000000 0.000000 0.000000 0.047570 0.000000 0.000000
# 5 0.000000 0.000000 0.000000 0.000000 0.034243 0.000000
# 6 0.000000 0.000000 0.000000 0.000000 0.000000 0.068133
#
#
# Mechanical properties :
#
#
# Convention : Reuss Voigt Hill
#
# Bulk Modulus (GPa) = 64.41538 71.38216 67.89877
# Shear Modulus (GPa) = 24.06211 27.74161 25.90186
#
# Velocity S-wave (km/s) = 3.44585 3.69994 3.57515
# Velocity P-wave (km/s) = 6.90063 7.31283 7.10972
#
# Compressibility (1/GPa) = 0.01552424
#
# Stress axis : x y z
#
# Youngs Moduli (GPa) = 117.97090 89.92614 68.95275
#
# Poissons Ratio (x) = 0.32805 0.16427
# Poissons Ratio (y) = 0.43036 0.22460
# Poissons Ratio (z) = 0.28104 0.29292
#
# Static dielectric constant tensor:
#      x y z
#    x 3.807970 0.000000 0.000000 
#    y 0.000000 3.645030 0.000000 
#    z 0.000000 0.000000 3.780500 
# 
# 
# High freq. dielectric constant tensor:
#      x y z
#    x 1.803000 0.000000 0.000000 
#    y 0.000000 1.777300 0.000000 
#    z 0.000000 0.000000 1.791140 
# 
# From -- ./inp_files/24847.got.cif
#   From: 2010.03.12/outbox.cif.g09.slc.cpg/sg24_13_cif.got.tgz:24847.got - 2010.04.14 03:06:53.
