data_PCOD8165650
_publ_section_title
;
Structure prediction by ZEFSAII (Michael W. Deem and Ramdas Pophale) SiO2 
 PCOD8165650
Probable space group: I 21 21 21
;
_chemical_formula_sum "Si O2"
_cell_formula_units_Z 64
_cell_length_a 9.053633
_cell_length_b 16.051698
_cell_length_c 22.109569
_cell_angle_alpha 90.000000
_cell_angle_beta 90.000000
_cell_angle_gamma 90.000000
_cell_volume 3213.099264
_symmetry_space_group_name_H-M "I 21 21 21"
_symmetry_group_IT_number 24
_symmetry_cell_setting 'orthorhombic'
loop_
_space_group_symop_operation_xyz
x,y,z
-x,1/2-y,z
x,-y,1/2-z
1/2-x,y,-z
1/2+x,1/2+y,1/2+z
1/2-x,-y,1/2+z
1/2+x,1/2-y,-z
-x,1/2+y,1/2-z
loop_
_atom_site_type_symbol
_atom_site_label
_atom_site_fract_x
_atom_site_fract_y
_atom_site_fract_z
Si Si1 0.411849 0.172083 0.293679
Si Si2 0.592569 0.985866 0.870475
Si Si3 0.590730 0.675896 0.473480
Si Si4 0.933139 0.971539 0.865753
Si Si5 0.539744 0.656627 0.668272
Si Si6 0.084228 0.486366 0.997421
Si Si7 0.433475 0.164992 0.692872
Si Si8 0.619214 0.364779 0.157709
O O1 0.500000 0.250000 0.320415
O O2 0.493016 0.096081 0.324086
O O3 0.242162 0.171246 0.313462
O O4 0.427680 0.175772 0.221038
O O5 0.760892 0.975944 0.848447
O O6 0.487703 0.921073 0.836395
O O7 0.560079 0.084094 0.860618
O O8 0.563297 0.962174 0.940793
O O9 0.500000 0.750000 0.504153
O O10 0.750000 0.683525 0.500000
O O11 0.529719 0.588415 0.495413
O O12 0.582821 0.689967 0.401085
O O13 0.942830 0.955228 0.938428
O O14 0.025732 0.052035 0.848469
O O15 0.500000 0.750000 0.642045
O O16 0.507829 0.659806 0.739182
O O17 0.704753 0.624175 0.656340
O O18 0.250000 0.448969 0.000000
O O19 0.500000 0.250000 0.663126
#
# Coordination Sequence:
#
# PCOD8165650 Si02
#       8
#     8   8   8   8   8   8   8   8
#     4  11  22  38  60  85 116 147 187 242 295 347
#     4  11  21  38  62  84 115 154 193 239 291 348
#     4  11  22  35  54  80 113 152 194 235 280 335
#     4  10  22  38  59  85 113 150 192 237 294 349
#     4  10  22  37  57  86 119 155 195 237 286 346
#     4   9  21  39  56  78 109 147 190 234 282 344
#     4  10  22  39  59  86 116 149 192 239 290 348
#     4  10  22  38  56  82 117 154 192 235 286 343
#
# _framework density 19.918462000000002
#
# number of rings (size 3 to 8) (size 9 to 14) (size 15 to 20)
#    0.000    1.750    0.000    3.750    0.000   13.000 
#    0.000    0.625    0.000    0.000    0.000    0.000 
#    0.000    0.000    0.000    0.000    0.000    0.000 
#
# Total GULP energy -396525.810217 kJ/mol
# GULP energy per Si atom -12391.431569 kJ/mol
# Density = 1.987313 g / cm^3
# Si number density = 19.918462 Si / 1000 Ang^3
#
#
#
# Elastic Constant Matrix: (Units=GPa)
#
#
# Indices 1 2 3 4 5 6 
#
# 1 138.2992 57.6068 59.3804 0.0000 0.0000 0.0000
# 2 57.6068 91.1518 37.9861 0.0000 0.0000 0.0000
# 3 59.3804 37.9861 63.4734 0.0000 0.0000 0.0000
# 4 0.0000 0.0000 0.0000 34.0046 0.0000 0.0000
# 5 0.0000 0.0000 0.0000 0.0000 27.1908 0.0000
# 6 0.0000 0.0000 0.0000 0.0000 0.0000 -21.0030
#
#
#
# Elastic Compliance Matrix: (Units=1/GPa)
#
#
# Indices 1 2 3 4 5 6 
#
# 1 0.013223 -0.004265 -0.009817 0.000000 0.000000 0.000000
# 2 -0.004265 0.015992 -0.005580 0.000000 0.000000 0.000000
# 3 -0.009817 -0.005580 0.028278 0.000000 0.000000 0.000000
# 4 0.000000 0.000000 0.000000 0.029408 0.000000 0.000000
# 5 0.000000 0.000000 0.000000 0.000000 0.036777 0.000000
# 6 0.000000 0.000000 0.000000 0.000000 0.000000 -0.047612
#
#
# Mechanical properties :
#
#
# Convention : Reuss Voigt Hill
#
# Bulk Modulus (GPa) = 55.04433 66.98568 61.01500
# Shear Modulus (GPa) = 41.17047 17.23523 29.20285
#
# Velocity S-wave (km/s) = 4.55130 2.94477 3.83315
# Velocity P-wave (km/s) = 7.43734 6.72794 7.09152
#
# Compressibility (1/GPa) = 0.01816718
#
# Stress axis : x y z
#
# Youngs Moduli (GPa) = 75.62865 62.53222 35.36279
#
# Poissons Ratio (x) = 0.26672 0.34717
# Poissons Ratio (y) = 0.32258 0.19733
# Poissons Ratio (z) = 0.74247 0.34894
#
# Static dielectric constant tensor:
#      x y z
#    x 3.684850 0.000000 0.000000 
#    y 0.000000 3.424620 0.000000 
#    z 0.000000 0.000000 4.126480 
# 
# 
# High freq. dielectric constant tensor:
#      x y z
#    x 1.794120 0.000000 0.000000 
#    y 0.000000 1.763280 0.000000 
#    z 0.000000 0.000000 1.782470 
# 
# From -- ./inp_files/29817.got.cif
#   From: 2010.03.12/outbox.cif.g09.slc.cpg/sg24_15_cif.got.tgz:29817.got - 2010.04.14 03:06:53.
