data_PCOD8165681
_publ_section_title
;
Structure prediction by ZEFSAII (Michael W. Deem and Ramdas Pophale) SiO2 
 PCOD8165681
Probable space group: I 21 21 21
;
_chemical_formula_sum "Si O2"
_cell_formula_units_Z 48
_cell_length_a 8.607234
_cell_length_b 29.257793
_cell_length_c 9.715442
_cell_angle_alpha 90.000000
_cell_angle_beta 90.000000
_cell_angle_gamma 90.000000
_cell_volume 2446.626844
_symmetry_space_group_name_H-M "I 21 21 21"
_symmetry_group_IT_number 24
_symmetry_cell_setting 'orthorhombic'
loop_
_space_group_symop_operation_xyz
x,y,z
-x,1/2-y,z
x,-y,1/2-z
1/2-x,y,-z
1/2+x,1/2+y,1/2+z
1/2-x,-y,1/2+z
1/2+x,1/2-y,-z
-x,1/2+y,1/2-z
loop_
_atom_site_type_symbol
_atom_site_label
_atom_site_fract_x
_atom_site_fract_y
_atom_site_fract_z
Si Si1 0.173177 0.768813 0.863168
Si Si2 0.444162 0.621836 0.674133
Si Si3 0.646586 0.778939 0.627548
Si Si4 0.205751 0.459834 0.851725
Si Si5 0.242127 0.126031 0.347063
Si Si6 0.896585 0.583044 0.585967
O O1 0.265299 0.753106 0.731608
O O2 0.191732 0.823123 0.864882
O O3 0.000000 0.750000 0.854555
O O4 0.250000 0.747672 0.000000
O O5 0.389102 0.673173 0.698964
O O6 0.301691 0.586101 0.688949
O O7 0.567229 0.616176 0.796899
O O8 0.520905 0.617954 0.521637
O O9 0.500000 0.750000 0.575434
O O10 0.750000 0.791763 0.500000
O O11 0.251769 0.500000 0.750000
O O12 0.020074 0.453827 0.860875
O O13 0.250000 0.478282 0.000000
O O14 0.250000 0.102873 0.500000
O O15 0.351417 0.106079 0.228839
O O16 0.750000 0.561554 0.500000
#
# Coordination Sequence:
#
# PCOD8165681 Si02
#       6
#     8   8   8   8   8   8
#     4  11  25  40  57  83 128 173 211 265 320 374
#     4  10  22  41  62  89 130 162 208 268 319 370
#     4  12  24  37  60  95 123 168 224 264 306 378
#     4  10  22  42  67  96 124 163 210 263 324 385
#     4  10  22  39  60  87 125 168 214 256 313 380
#     4   9  20  40  64  88 125 166 196 264 323 373
#
# _framework density 19.618846999999999
#
# number of rings (size 3 to 8) (size 9 to 14) (size 15 to 20)
#    0.000    1.667    1.667    2.500    9.333    1.333 
#    0.000    9.167    0.000    0.000    0.000    0.000 
#    0.000    0.000    0.000    0.000    0.000    0.000 
#
# Total GULP energy -297379.829759 kJ/mol
# GULP energy per Si atom -12390.826240 kJ/mol
# Density = 1.957419 g / cm^3
# Si number density = 19.618847 Si / 1000 Ang^3
#
#
#
# Elastic Constant Matrix: (Units=GPa)
#
#
# Indices 1 2 3 4 5 6 
#
# 1 130.0739 40.4720 41.0000 0.0007 0.0000 -0.0007
# 2 40.4720 82.6093 27.5484 0.0019 -0.0003 -0.0009
# 3 41.0000 27.5484 124.8754 -0.0026 -0.0032 0.0029
# 4 0.0007 0.0019 -0.0026 28.3249 0.0007 0.0059
# 5 0.0000 -0.0003 -0.0032 0.0007 18.3608 -0.0049
# 6 -0.0007 -0.0009 0.0029 0.0059 -0.0049 -12.5064
#
#
#
# Elastic Compliance Matrix: (Units=1/GPa)
#
#
# Indices 1 2 3 4 5 6 
#
# 1 0.009643 -0.003960 -0.002292 0.000000 0.000000 -0.000001
# 2 -0.003960 0.014692 -0.001941 -0.000001 0.000000 -0.000001
# 3 -0.002292 -0.001941 0.009189 0.000001 0.000002 0.000002
# 4 0.000000 -0.000001 0.000001 0.035305 -0.000001 0.000017
# 5 0.000000 0.000000 0.000002 -0.000001 0.054464 -0.000021
# 6 -0.000001 -0.000001 0.000002 0.000017 -0.000021 -0.079959
#
#
# Mechanical properties :
#
#
# Convention : Reuss Voigt Hill
#
# Bulk Modulus (GPa) = 58.35187 61.73330 60.04258
# Shear Modulus (GPa) = 76.41542 22.07175 49.24359
#
# Velocity S-wave (km/s) = 6.24776 3.35778 5.01544
# Velocity P-wave (km/s) = 9.04729 6.82404 8.01315
#
# Compressibility (1/GPa) = 0.01713741
#
# Stress axis : x y z
#
# Youngs Moduli (GPa) = 103.70723 68.06231 108.82722
#
# Poissons Ratio (x) = 0.26950 0.24947
# Poissons Ratio (y) = 0.41064 0.21126
# Poissons Ratio (z) = 0.23774 0.13212
#
# Static dielectric constant tensor:
#      x y z
#    x 3.658210 0.000000 0.000000 
#    y 0.000000 3.242770 0.000000 
#    z 0.000000 0.000000 3.908100 
# 
# 
# High freq. dielectric constant tensor:
#      x y z
#    x 1.781000 0.000000 0.000000 
#    y 0.000000 1.737400 0.000000 
#    z 0.000000 0.000000 1.779660 
# 
# From -- ./inp_files/9739.got.cif
#   From: 2010.03.12/outbox.cif.g09.slc.cpg/sg24_5_cif.got.tgz:9739.got - 2010.04.14 03:06:53.
