data_PCOD8165351
_publ_section_title
;
Structure prediction by ZEFSAII (Michael W. Deem and Ramdas Pophale) SiO2 
 PCOD8165351
Probable space group: I 21 21 21
;
_chemical_formula_sum "Si O2"
_cell_formula_units_Z 48
_cell_length_a 16.347486
_cell_length_b 10.220976
_cell_length_c 14.654054
_cell_angle_alpha 90.000000
_cell_angle_beta 90.000000
_cell_angle_gamma 90.000000
_cell_volume 2448.505761
_symmetry_space_group_name_H-M "I 21 21 21"
_symmetry_group_IT_number 24
_symmetry_cell_setting 'orthorhombic'
loop_
_space_group_symop_operation_xyz
x,y,z
-x,1/2-y,z
x,-y,1/2-z
1/2-x,y,-z
1/2+x,1/2+y,1/2+z
1/2-x,-y,1/2+z
1/2+x,1/2-y,-z
-x,1/2+y,1/2-z
loop_
_atom_site_type_symbol
_atom_site_label
_atom_site_fract_x
_atom_site_fract_y
_atom_site_fract_z
Si Si1 0.061857 0.868661 0.449097
Si Si2 0.637776 0.983380 0.147567
Si Si3 0.821570 0.105597 0.325964
Si Si4 0.813925 0.357764 0.211009
Si Si5 0.546654 0.884632 0.982092
Si Si6 0.313863 0.248311 0.074930
O O1 0.107085 0.861861 0.352653
O O2 0.126508 0.859580 0.531714
O O3 0.000000 0.750000 0.454344
O O4 0.018757 0.005925 0.458836
O O5 0.728393 0.923361 0.147132
O O6 0.603186 0.000000 0.250000
O O7 0.634301 0.126873 0.104328
O O8 0.578583 0.892427 0.086586
O O9 0.831119 0.253014 0.290055
O O10 0.876595 0.094243 0.415442
O O11 0.850787 0.000000 0.250000
O O12 0.796606 0.500000 0.250000
O O13 0.731489 0.315142 0.160233
O O14 0.500000 0.750000 0.965937
O O15 0.250000 0.299166 0.000000
#
# Coordination Sequence:
#
# PCOD8165351 Si02
#       6
#     8   8   8   8   8   8
#     4  11  23  40  65  90 128 174 203 247 315 380
#     4  11  22  43  68  90 115 167 225 258 297 366
#     4  11  22  40  70  95 122 169 213 252 305 373
#     4  11  23  39  63  98 128 159 208 262 311 367
#     4  12  26  42  61  97 136 161 199 264 324 367
#     4  10  20  41  67  89 120 167 216 253 299 374
#
# _framework density 19.603794000000001
#
# number of rings (size 3 to 8) (size 9 to 14) (size 15 to 20)
#    0.000    1.000    5.000    3.500    0.000    5.333 
#    3.000    3.333    0.000    0.000    0.000    0.000 
#    0.000    0.000    0.000    0.000    0.000    0.000 
#
# Total GULP energy -297694.195679 kJ/mol
# GULP energy per Si atom -12403.924820 kJ/mol
# Density = 1.955917 g / cm^3
# Si number density = 19.603794 Si / 1000 Ang^3
#
#
#
# Elastic Constant Matrix: (Units=GPa)
#
#
# Indices 1 2 3 4 5 6 
#
# 1 61.2259 18.9941 23.4796 0.0000 0.0000 0.0000
# 2 18.9941 124.5970 22.0169 0.0000 0.0000 0.0000
# 3 23.4796 22.0169 86.7638 0.0000 0.0000 0.0000
# 4 0.0000 0.0000 0.0000 7.1006 0.0000 0.0000
# 5 0.0000 0.0000 0.0000 0.0000 5.2204 0.0000
# 6 0.0000 0.0000 0.0000 0.0000 0.0000 -10.0923
#
#
#
# Elastic Compliance Matrix: (Units=1/GPa)
#
#
# Indices 1 2 3 4 5 6 
#
# 1 0.018711 -0.002050 -0.004543 0.000000 0.000000 0.000000
# 2 -0.002050 0.008627 -0.001635 0.000000 0.000000 0.000000
# 3 -0.004543 -0.001635 0.013170 0.000000 0.000000 0.000000
# 4 0.000000 0.000000 0.000000 0.140832 0.000000 0.000000
# 5 0.000000 0.000000 0.000000 0.000000 0.191555 0.000000
# 6 0.000000 0.000000 0.000000 0.000000 0.000000 -0.099085
#
#
# Mechanical properties :
#
#
# Convention : Reuss Voigt Hill
#
# Bulk Modulus (GPa) = 41.57475 44.61865 43.09670
# Shear Modulus (GPa) = 16.76258 14.31881 15.54070
#
# Velocity S-wave (km/s) = 2.92733 2.70554 2.81862
# Velocity P-wave (km/s) = 5.71657 5.70698 5.71178
#
# Compressibility (1/GPa) = 0.02405306
#
# Stress axis : x y z
#
# Youngs Moduli (GPa) = 53.44400 115.91307 75.93101
#
# Poissons Ratio (x) = 0.23757 0.34499
# Poissons Ratio (y) = 0.10954 0.12411
# Poissons Ratio (z) = 0.24282 0.18947
#
# Static dielectric constant tensor:
#      x y z
#    x 3.669940 0.000000 0.000000 
#    y 0.000000 3.553990 0.000000 
#    z 0.000000 0.000000 3.583990 
# 
# 
# High freq. dielectric constant tensor:
#      x y z
#    x 1.762970 0.000000 0.000000 
#    y 0.000000 1.768120 0.000000 
#    z 0.000000 0.000000 1.773850 
# 
# From -- ./inp_files/12832.got.cif
#   From: 2010.03.12/outbox.cif.g09.slc.cpg/sg24_7_cif.got.tgz:12832.got - 2010.04.14 03:06:53.
