data_PCOD8165177
_publ_section_title
;
Structure prediction by ZEFSAII (Michael W. Deem and Ramdas Pophale) SiO2 
 PCOD8165177
Probable space group: I 21 21 21
;
_chemical_formula_sum "Si O2"
_cell_formula_units_Z 48
_cell_length_a 15.489979
_cell_length_b 10.491542
_cell_length_c 13.528128
_cell_angle_alpha 90.000000
_cell_angle_beta 90.000000
_cell_angle_gamma 90.000000
_cell_volume 2198.507018
_symmetry_space_group_name_H-M "I 21 21 21"
_symmetry_group_IT_number 24
_symmetry_cell_setting 'orthorhombic'
loop_
_space_group_symop_operation_xyz
x,y,z
-x,1/2-y,z
x,-y,1/2-z
1/2-x,y,-z
1/2+x,1/2+y,1/2+z
1/2-x,-y,1/2+z
1/2+x,1/2-y,-z
-x,1/2+y,1/2-z
loop_
_atom_site_type_symbol
_atom_site_label
_atom_site_fract_x
_atom_site_fract_y
_atom_site_fract_z
Si Si1 0.635192 0.969103 0.638857
Si Si2 0.816693 0.693159 0.309562
Si Si3 0.358596 0.923528 0.377126
Si Si4 0.037769 0.883578 0.432214
Si Si5 0.591501 0.702186 0.194105
Si Si6 0.255650 0.709710 0.890090
O O1 0.682374 0.831829 0.636845
O O2 0.544754 0.976815 0.578259
O O3 0.609785 0.000000 0.750000
O O4 0.700824 0.072216 0.594260
O O5 0.742218 0.608828 0.361081
O O6 0.909440 0.627153 0.328772
O O7 0.807567 0.703786 0.189927
O O8 0.390335 0.922874 0.488819
O O9 0.411373 0.817870 0.312696
O O10 0.376321 0.067504 0.345843
O O11 0.000000 0.750000 0.466086
O O12 0.500000 0.750000 0.153874
O O13 0.660222 0.808049 0.157376
O O14 0.250000 0.773964 0.000000
#
# Coordination Sequence:
#
# PCOD8165177 Si02
#       6
#     8   8   8   8   8   8
#     4   9  20  40  60  95 128 164 211 264 322 367
#     4   9  20  41  62  91 128 164 215 270 310 375
#     4  10  21  40  64  89 122 168 212 257 324 367
#     4  10  20  36  65  95 123 160 218 263 310 373
#     4  10  23  43  59  91 129 163 210 260 317 385
#     4  10  22  40  63  90 130 171 208 254 329 388
#
# _framework density 21.832999000000001
#
# number of rings (size 3 to 8) (size 9 to 14) (size 15 to 20)
#    0.000    2.333    0.000    1.000    2.333    4.000 
#   24.000    0.833    0.000    0.000    0.000    0.000 
#    0.000    0.000    0.000    0.000    0.000    0.000 
#
# Total GULP energy -297354.515905 kJ/mol
# GULP energy per Si atom -12389.771496 kJ/mol
# Density = 2.178331 g / cm^3
# Si number density = 21.832999 Si / 1000 Ang^3
#
#
#
# Elastic Constant Matrix: (Units=GPa)
#
#
# Indices 1 2 3 4 5 6 
#
# 1 155.2844 74.7832 48.5901 0.0000 0.0000 0.0000
# 2 74.7832 81.6333 22.8768 0.0000 0.0000 0.0000
# 3 48.5901 22.8768 119.7271 0.0000 0.0000 0.0000
# 4 0.0000 0.0000 0.0000 13.3091 0.0000 0.0000
# 5 0.0000 0.0000 0.0000 0.0000 23.9512 0.0000
# 6 0.0000 0.0000 0.0000 0.0000 0.0000 38.3120
#
#
#
# Elastic Compliance Matrix: (Units=1/GPa)
#
#
# Indices 1 2 3 4 5 6 
#
# 1 0.012494 -0.010592 -0.003047 0.000000 0.000000 0.000000
# 2 -0.010592 0.021922 0.000110 0.000000 0.000000 0.000000
# 3 -0.003047 0.000110 0.009568 0.000000 0.000000 0.000000
# 4 0.000000 0.000000 0.000000 0.075137 0.000000 0.000000
# 5 0.000000 0.000000 0.000000 0.000000 0.041752 0.000000
# 6 0.000000 0.000000 0.000000 0.000000 0.000000 0.026101
#
#
# Mechanical properties :
#
#
# Convention : Reuss Voigt Hill
#
# Bulk Modulus (GPa) = 59.07890 72.12723 65.60307
# Shear Modulus (GPa) = 22.76107 29.14079 25.95093
#
# Velocity S-wave (km/s) = 3.23229 3.65734 3.45136
# Velocity P-wave (km/s) = 6.40691 7.13739 6.78199
#
# Compressibility (1/GPa) = 0.01692652
#
# Stress axis : x y z
#
# Youngs Moduli (GPa) = 80.03811 45.61602 104.51676
#
# Poissons Ratio (x) = 0.48316 0.31844
# Poissons Ratio (y) = 0.84775 -0.01148
# Poissons Ratio (z) = 0.24386 -0.00501
#
# Static dielectric constant tensor:
#      x y z
#    x 4.074980 0.000000 0.000000 
#    y 0.000000 3.836230 0.000000 
#    z 0.000000 0.000000 4.005250 
# 
# 
# High freq. dielectric constant tensor:
#      x y z
#    x 1.864200 0.000000 0.000000 
#    y 0.000000 1.841080 0.000000 
#    z 0.000000 0.000000 1.854840 
# 
# From -- ./inp_files/26444.got.cif
#   From: 2010.03.12/outbox.cif.g09.slc.cpg/sg24_14_cif.got.tgz:26444.got - 2010.04.14 03:06:53.
