data_PCOD8165595
_publ_section_title
;
Structure prediction by ZEFSAII (Michael W. Deem and Ramdas Pophale) SiO2 
 PCOD8165595
Probable space group: I 21 21 21
;
_chemical_formula_sum "Si O2"
_cell_formula_units_Z 48
_cell_length_a 27.336810
_cell_length_b 5.360573
_cell_length_c 14.690184
_cell_angle_alpha 90.000000
_cell_angle_beta 90.000000
_cell_angle_gamma 90.000000
_cell_volume 2152.713748
_symmetry_space_group_name_H-M "I 21 21 21"
_symmetry_group_IT_number 24
_symmetry_cell_setting 'orthorhombic'
loop_
_space_group_symop_operation_xyz
x,y,z
-x,1/2-y,z
x,-y,1/2-z
1/2-x,y,-z
1/2+x,1/2+y,1/2+z
1/2-x,-y,1/2+z
1/2+x,1/2-y,-z
-x,1/2+y,1/2-z
loop_
_atom_site_type_symbol
_atom_site_label
_atom_site_fract_x
_atom_site_fract_y
_atom_site_fract_z
Si Si1 0.156571 0.000000 0.750000
Si Si2 0.896508 0.241636 0.591661
Si Si3 0.500000 0.750000 0.587541
Si Si4 0.682917 0.863960 0.386026
Si Si5 0.500000 0.750000 0.027519
Si Si6 0.663153 0.510581 0.543763
Si Si7 0.750000 0.795410 0.000000
Si Si8 0.400000 0.251518 0.807373
O O1 0.121074 0.063009 0.666732
O O2 0.189946 0.234827 0.785213
O O3 0.881849 0.337229 0.489983
O O4 0.954379 0.204814 0.594051
O O5 0.871555 0.977897 0.612004
O O6 0.509194 0.499876 0.530365
O O7 0.452062 0.694946 0.646994
O O8 0.686467 0.650778 0.459412
O O9 0.723602 0.061137 0.416638
O O10 0.710800 0.344476 0.565996
O O11 0.644294 0.699169 0.621613
O O12 0.385657 0.500000 0.750000
O O13 0.405009 0.000000 0.750000
#
# Coordination Sequence:
#
# PCOD8165595 Si02
#       8
#     4   8   4   8   4   8   4   8
#     4  10  22  42  66 106 136 184 240 298 374 430
#     4  10  22  41  68  99 141 185 236 297 360 430
#     4  12  24  45  69 110 138 194 256 280 359 433
#     4  10  21  42  74  97 137 186 238 299 362 442
#     4  12  24  41  73 106 138 194 244 294 345 449
#     4  10  22  43  70 102 132 188 241 292 365 429
#     4  10  22  40  80  98 134 192 246 296 366 446
#     4  12  26  43  72 105 151 189 235 305 360 426
#
# _framework density 22.297440000000002
#
# number of rings (size 3 to 8) (size 9 to 14) (size 15 to 20)
#    0.000    1.333    1.667    3.500    7.000    0.000 
#    3.000    0.000   44.000    0.000    0.000    0.000 
#    0.000    0.000    0.000    0.000    0.000    0.000 
#
# Total GULP energy -297364.995233 kJ/mol
# GULP energy per Si atom -12390.208135 kJ/mol
# Density = 2.224669 g / cm^3
# Si number density = 22.297440 Si / 1000 Ang^3
#
#
#
# Elastic Constant Matrix: (Units=GPa)
#
#
# Indices 1 2 3 4 5 6 
#
# 1 161.5094 48.6407 56.5994 0.0000 0.0000 0.0000
# 2 48.6407 136.7617 48.0567 0.0000 0.0000 0.0000
# 3 56.5994 48.0567 99.2048 0.0000 0.0000 0.0000
# 4 0.0000 0.0000 0.0000 44.0192 0.0000 0.0000
# 5 0.0000 0.0000 0.0000 0.0000 20.4877 0.0000
# 6 0.0000 0.0000 0.0000 0.0000 0.0000 21.8218
#
#
#
# Elastic Compliance Matrix: (Units=1/GPa)
#
#
# Indices 1 2 3 4 5 6 
#
# 1 0.007984 -0.001493 -0.003832 0.000000 0.000000 0.000000
# 2 -0.001493 0.009091 -0.003552 0.000000 0.000000 0.000000
# 3 -0.003832 -0.003552 0.013987 0.000000 0.000000 0.000000
# 4 0.000000 0.000000 0.000000 0.022717 0.000000 0.000000
# 5 0.000000 0.000000 0.000000 0.000000 0.048810 0.000000
# 6 0.000000 0.000000 0.000000 0.000000 0.000000 0.045826
#
#
# Mechanical properties :
#
#
# Convention : Reuss Voigt Hill
#
# Bulk Modulus (GPa) = 75.14171 78.22996 76.68583
# Shear Modulus (GPa) = 29.30741 33.54436 31.42588
#
# Velocity S-wave (km/s) = 3.62938 3.88287 3.75826
# Velocity P-wave (km/s) = 7.16492 7.43392 7.30066
#
# Compressibility (1/GPa) = 0.01330819
#
# Stress axis : x y z
#
# Youngs Moduli (GPa) = 125.24871 109.99651 71.49475
#
# Poissons Ratio (x) = 0.16424 0.27396
# Poissons Ratio (y) = 0.18702 0.25395
# Poissons Ratio (z) = 0.47994 0.39071
#
# Static dielectric constant tensor:
#      x y z
#    x 3.978450 0.000000 0.000000 
#    y 0.000000 4.426940 0.000000 
#    z 0.000000 0.000000 4.180170 
# 
# 
# High freq. dielectric constant tensor:
#      x y z
#    x 1.872780 0.000000 0.000000 
#    y 0.000000 1.902730 0.000000 
#    z 0.000000 0.000000 1.863020 
# 
# From -- ./inp_files/28071.got.cif
#   From: 2010.03.12/outbox.cif.g09.slc.cpg/sg24_15_cif.got.tgz:28071.got - 2010.04.14 03:06:53.
