data_PCOD8165787
_publ_section_title
;
Structure prediction by ZEFSAII (Michael W. Deem and Ramdas Pophale) SiO2 
 PCOD8165787
Probable space group: I 21 21 21
;
_chemical_formula_sum "Si O2"
_cell_formula_units_Z 40
_cell_length_a 8.193818
_cell_length_b 23.633219
_cell_length_c 9.024466
_cell_angle_alpha 90.000000
_cell_angle_beta 90.000000
_cell_angle_gamma 90.000000
_cell_volume 1747.554407
_symmetry_space_group_name_H-M "I 21 21 21"
_symmetry_group_IT_number 24
_symmetry_cell_setting 'orthorhombic'
loop_
_space_group_symop_operation_xyz
x,y,z
-x,1/2-y,z
x,-y,1/2-z
1/2-x,y,-z
1/2+x,1/2+y,1/2+z
1/2-x,-y,1/2+z
1/2+x,1/2-y,-z
-x,1/2+y,1/2-z
loop_
_atom_site_type_symbol
_atom_site_label
_atom_site_fract_x
_atom_site_fract_y
_atom_site_fract_z
Si Si1 0.750000 0.190931 0.500000
Si Si2 0.323635 0.779096 0.217331
Si Si3 0.087160 0.998382 0.070551
Si Si4 0.923619 0.902341 0.561813
Si Si5 0.978861 0.385474 0.606866
Si Si6 0.250000 0.832902 0.500000
O O1 0.712729 0.233702 0.634156
O O2 0.596687 0.150976 0.493623
O O3 0.500000 0.750000 0.237175
O O4 0.332079 0.842281 0.144603
O O5 0.231746 0.788822 0.368402
O O6 0.096401 0.000000 0.250000
O O7 0.250000 0.026553 0.000000
O O8 0.078304 0.936239 0.998258
O O9 0.935545 0.035272 0.012318
O O10 0.750000 0.877419 0.500000
O O11 0.929860 0.905968 0.741404
O O12 0.080865 0.867630 0.506462
#
# Coordination Sequence:
#
# PCOD8165787 Si02
#       6
#     4   8   8   8   8   4
#     4  10  22  44  67  98 141 194 242 302 358 420
#     4   9  21  45  69 101 138 191 245 295 358 431
#     4  12  27  45  76 109 144 196 240 297 377 443
#     4  11  25  46  75 110 149 189 246 298 369 444
#     4  10  24  45  69 100 149 188 242 308 354 441
#     4  10  22  48  75 104 151 192 234 308 364 430
#
# _framework density 22.889130999999999
#
# number of rings (size 3 to 8) (size 9 to 14) (size 15 to 20)
#    0.000    1.600    1.000    1.800    8.400    0.000 
#   23.400    0.000    0.000    0.000    0.000    0.000 
#    0.000    0.000    0.000    0.000    0.000    0.000 
#
# Total GULP energy -247763.896892 kJ/mol
# GULP energy per Si atom -12388.194845 kJ/mol
# Density = 2.283703 g / cm^3
# Si number density = 22.889131 Si / 1000 Ang^3
#
#
#
# Elastic Constant Matrix: (Units=GPa)
#
#
# Indices 1 2 3 4 5 6 
#
# 1 102.6117 41.7570 65.0371 -0.0002 0.0000 -0.0003
# 2 41.7570 109.5160 71.3635 -0.0008 0.0001 0.0003
# 3 65.0371 71.3635 175.2986 -0.0022 0.0002 0.0084
# 4 -0.0002 -0.0008 -0.0022 41.3698 0.0002 0.0018
# 5 0.0000 0.0001 0.0002 0.0002 35.1263 0.0000
# 6 -0.0003 0.0003 0.0084 0.0018 0.0000 22.3039
#
#
#
# Elastic Compliance Matrix: (Units=1/GPa)
#
#
# Indices 1 2 3 4 5 6 
#
# 1 0.013231 -0.002513 -0.003886 0.000000 0.000000 0.000002
# 2 -0.002513 0.012905 -0.004321 0.000000 0.000000 0.000001
# 3 -0.003886 -0.004321 0.008905 0.000000 0.000000 -0.000003
# 4 0.000000 0.000000 0.000000 0.024172 0.000000 -0.000002
# 5 0.000000 0.000000 0.000000 0.000000 0.028469 0.000000
# 6 0.000002 0.000001 -0.000003 -0.000002 0.000000 0.044835
#
#
# Mechanical properties :
#
#
# Convention : Reuss Voigt Hill
#
# Bulk Modulus (GPa) = 73.52070 82.63794 78.07932
# Shear Modulus (GPa) = 31.54749 33.71125 32.62937
#
# Velocity S-wave (km/s) = 3.71654 3.84188 3.77973
# Velocity P-wave (km/s) = 7.11386 7.47409 7.29620
#
# Compressibility (1/GPa) = 0.01360161
#
# Stress axis : x y z
#
# Youngs Moduli (GPa) = 75.58056 77.48905 112.29047
#
# Poissons Ratio (x) = 0.19470 0.43635
# Poissons Ratio (y) = 0.18991 0.48525
# Poissons Ratio (z) = 0.29370 0.33486
#
# Static dielectric constant tensor:
#      x y z
#    x 3.958610 0.000000 0.000000 
#    y 0.000000 4.333550 0.000000 
#    z 0.000000 0.000000 4.326550 
# 
# 
# High freq. dielectric constant tensor:
#      x y z
#    x 1.891300 0.000000 0.000000 
#    y 0.000000 1.918550 0.000000 
#    z 0.000000 0.000000 1.911640 
# 
# From -- ./inp_files/9306.got.cif
#   From: 2010.03.12/outbox.cif.g09.slc.cpg/sg24_5_cif.got.tgz:9306.got - 2010.04.14 03:06:53.
