data_PCOD8165864
_publ_section_title
;
Structure prediction by ZEFSAII (Michael W. Deem and Ramdas Pophale) SiO2 
 PCOD8165864
Probable space group: I 21 21 21
;
_chemical_formula_sum "Si O2"
_cell_formula_units_Z 48
_cell_length_a 9.556851
_cell_length_b 28.140732
_cell_length_c 7.509614
_cell_angle_alpha 90.000000
_cell_angle_beta 90.000000
_cell_angle_gamma 90.000000
_cell_volume 2019.611429
_symmetry_space_group_name_H-M "I 21 21 21"
_symmetry_group_IT_number 24
_symmetry_cell_setting 'orthorhombic'
loop_
_space_group_symop_operation_xyz
x,y,z
-x,1/2-y,z
x,-y,1/2-z
1/2-x,y,-z
1/2+x,1/2+y,1/2+z
1/2-x,-y,1/2+z
1/2+x,1/2-y,-z
-x,1/2+y,1/2-z
loop_
_atom_site_type_symbol
_atom_site_label
_atom_site_fract_x
_atom_site_fract_y
_atom_site_fract_z
Si Si1 0.596419 0.197216 0.984642
Si Si2 0.359423 0.263480 0.626150
Si Si3 0.672527 0.313286 0.176410
Si Si4 0.596467 0.088559 0.001614
Si Si5 0.083257 0.053234 0.301804
Si Si6 0.109425 0.915448 0.800493
O O1 0.567165 0.203267 0.775075
O O2 0.616368 0.143735 0.048387
O O3 0.750000 0.224254 0.000000
O O4 0.462712 0.216508 0.098529
O O5 0.500000 0.250000 0.512967
O O6 0.250000 0.292228 0.500000
O O7 0.269039 0.219203 0.699440
O O8 0.625422 0.358280 0.295804
O O9 0.750000 0.333566 0.000000
O O10 0.519732 0.086265 0.812320
O O11 0.750000 0.064103 0.000000
O O12 0.502863 0.065242 0.157226
O O13 0.058041 0.066739 0.507082
O O14 0.243665 0.061008 0.247968
O O15 0.040001 0.000000 0.250000
#
# Coordination Sequence:
#
# PCOD8165864 Si02
#       6
#     8   8   8   8   8   8
#     4  10  23  44  68  94 132 189 232 289 356 424
#     4  12  28  41  64 102 141 184 241 309 360 430
#     4  11  22  45  72  96 139 193 244 292 366 428
#     4  10  23  47  69  99 143 188 234 285 363 430
#     4  11  25  43  71 108 139 181 231 300 362 429
#     4  10  24  42  75 105 137 184 236 295 353 441
#
# _framework density 23.766947999999999
#
# number of rings (size 3 to 8) (size 9 to 14) (size 15 to 20)
#    0.000    1.333    1.667    3.000    9.333    0.667 
#    9.000    0.000    0.000    0.000    0.000    0.000 
#    0.000    0.000    0.000    0.000    0.000    0.000 
#
# Total GULP energy -297398.461926 kJ/mol
# GULP energy per Si atom -12391.602580 kJ/mol
# Density = 2.371285 g / cm^3
# Si number density = 23.766948 Si / 1000 Ang^3
#
#
#
# Elastic Constant Matrix: (Units=GPa)
#
#
# Indices 1 2 3 4 5 6 
#
# 1 201.3988 8.7848 73.8891 0.0055 0.0028 0.0013
# 2 8.7848 49.0054 28.7404 0.0038 -0.0061 -0.0011
# 3 73.8891 28.7404 130.5583 0.0004 -0.0026 0.0078
# 4 0.0055 0.0038 0.0004 31.0815 -0.0023 -0.0012
# 5 0.0028 -0.0061 -0.0026 -0.0023 35.3705 0.0004
# 6 0.0013 -0.0011 0.0078 -0.0012 0.0004 19.7514
#
#
#
# Elastic Compliance Matrix: (Units=1/GPa)
#
#
# Indices 1 2 3 4 5 6 
#
# 1 0.006318 0.001107 -0.003820 -0.000001 -0.000001 0.000001
# 2 0.001107 0.023625 -0.005827 -0.000003 0.000004 0.000004
# 3 -0.003820 -0.005827 0.011104 0.000001 0.000000 -0.000004
# 4 -0.000001 -0.000003 0.000001 0.032173 0.000002 0.000002
# 5 -0.000001 0.000004 0.000000 0.000002 0.028272 -0.000001
# 6 0.000001 0.000004 -0.000004 0.000002 -0.000001 0.050629
#
#
# Mechanical properties :
#
#
# Convention : Reuss Voigt Hill
#
# Bulk Modulus (GPa) = 41.72217 67.08792 54.40505
# Shear Modulus (GPa) = 28.21817 35.21057 31.71437
#
# Velocity S-wave (km/s) = 3.44944 3.85319 3.65689
# Velocity P-wave (km/s) = 5.78426 6.93432 6.38524
#
# Compressibility (1/GPa) = 0.02396807
#
# Stress axis : x y z
#
# Youngs Moduli (GPa) = 158.27026 42.32796 90.05807
#
# Poissons Ratio (x) = -0.04688 0.34399
# Poissons Ratio (y) = -0.17528 0.52481
# Poissons Ratio (z) = 0.60453 0.24667
#
# Static dielectric constant tensor:
#      x y z
#    x 5.077310 -0.000030 -0.000050 
#    y -0.000030 3.924280 -0.000020 
#    z -0.000050 -0.000020 4.423370 
# 
# 
# High freq. dielectric constant tensor:
#      x y z
#    x 1.967740 0.000000 0.000000 
#    y 0.000000 1.916620 0.000000 
#    z 0.000000 0.000000 1.940100 
# 
# From -- ./inp_files/9711.got.cif
#   From: 2010.03.12/outbox.cif.g09.slc.cpg/sg24_5_cif.got.tgz:9711.got - 2010.04.14 03:06:53.
