data_PCOD8165674
_publ_section_title
;
Structure prediction by ZEFSAII (Michael W. Deem and Ramdas Pophale) SiO2 
 PCOD8165674
Probable space group: I 21 21 21
;
_chemical_formula_sum "Si O2"
_cell_formula_units_Z 32
_cell_length_a 7.750273
_cell_length_b 18.629982
_cell_length_c 10.244217
_cell_angle_alpha 90.000000
_cell_angle_beta 90.000000
_cell_angle_gamma 90.000000
_cell_volume 1479.136334
_symmetry_space_group_name_H-M "I 21 21 21"
_symmetry_group_IT_number 24
_symmetry_cell_setting 'orthorhombic'
loop_
_space_group_symop_operation_xyz
x,y,z
-x,1/2-y,z
x,-y,1/2-z
1/2-x,y,-z
1/2+x,1/2+y,1/2+z
1/2-x,-y,1/2+z
1/2+x,1/2-y,-z
-x,1/2+y,1/2-z
loop_
_atom_site_type_symbol
_atom_site_label
_atom_site_fract_x
_atom_site_fract_y
_atom_site_fract_z
Si Si1 0.603486 0.102238 0.356422
Si Si2 0.017386 0.665778 0.107673
Si Si3 0.898776 0.567486 0.320638
Si Si4 0.513945 0.444579 0.099288
O O1 0.472451 0.142509 0.458119
O O2 0.792109 0.135429 0.368475
O O3 0.551893 0.113875 0.204958
O O4 0.595774 0.017707 0.390635
O O5 0.000000 0.750000 0.121466
O O6 0.891846 0.633054 0.218419
O O7 0.991984 0.500000 0.250000
O O8 0.711693 0.539911 0.364116
O O9 0.004292 0.587625 0.452839
#
# Coordination Sequence:
#
# PCOD8165674 Si02
#       4
#     8   8   8   8
#     4  10  22  41  62  95 130 159 218 271 315 383
#     4  11  26  42  62  93 133 181 212 258 333 391
#     4  11  21  40  67  95 132 166 217 269 317 386
#     4  10  22  38  67 103 121 164 217 276 323 356
#
# _framework density 21.634246999999998
#
# number of rings (size 3 to 8) (size 9 to 14) (size 15 to 20)
#    0.000    1.500    5.000    0.000    3.500    6.000 
#    0.000    6.250    0.000    0.000    0.000    0.000 
#    0.000    0.000    0.000    0.000    0.000    0.000 
#
# Total GULP energy -198244.929561 kJ/mol
# GULP energy per Si atom -12390.308098 kJ/mol
# Density = 2.158501 g / cm^3
# Si number density = 21.634247 Si / 1000 Ang^3
#
#
#
# Elastic Constant Matrix: (Units=GPa)
#
#
# Indices 1 2 3 4 5 6 
#
# 1 54.6445 31.0855 36.2340 -0.0001 0.0000 0.0000
# 2 31.0855 140.3974 76.2248 -0.0002 0.0000 -0.0001
# 3 36.2340 76.2248 214.5510 -0.0001 -0.0001 0.0001
# 4 -0.0001 -0.0002 -0.0001 29.7445 0.0000 -0.0001
# 5 0.0000 0.0000 -0.0001 0.0000 30.8081 0.0000
# 6 0.0000 -0.0001 0.0001 -0.0001 0.0000 -4.0020
#
#
#
# Elastic Compliance Matrix: (Units=1/GPa)
#
#
# Indices 1 2 3 4 5 6 
#
# 1 0.021931 -0.003525 -0.002451 0.000000 0.000000 0.000000
# 2 -0.003525 0.009391 -0.002741 0.000000 0.000000 0.000000
# 3 -0.002451 -0.002741 0.006049 0.000000 0.000000 0.000000
# 4 0.000000 0.000000 0.000000 0.033620 0.000000 0.000000
# 5 0.000000 0.000000 0.000000 0.000000 0.032459 0.000000
# 6 0.000000 0.000000 0.000000 0.000000 0.000000 -0.249875
#
#
# Mechanical properties :
#
#
# Convention : Reuss Voigt Hill
#
# Bulk Modulus (GPa) = 50.16063 77.40906 63.78485
# Shear Modulus (GPa) = -40.86783 29.04669 -5.91057
#
# Velocity S-wave (km/s) = -4.35102 3.66816 -1.65468
# Velocity P-wave (km/s) = 1.41623 7.33478 5.08887
#
# Compressibility (1/GPa) = 0.01993595
#
# Stress axis : x y z
#
# Youngs Moduli (GPa) = 45.59810 106.48107 165.32186
#
# Poissons Ratio (x) = 0.37532 0.40528
# Poissons Ratio (y) = 0.16072 0.45319
# Poissons Ratio (z) = 0.11178 0.29189
#
# Static dielectric constant tensor:
#      x y z
#    x 3.688270 0.000000 0.000000 
#    y 0.000000 3.453100 0.000000 
#    z 0.000000 0.000000 5.218650 
# 
# 
# High freq. dielectric constant tensor:
#      x y z
#    x 1.837690 0.000000 0.000000 
#    y 0.000000 1.798510 0.000000 
#    z 0.000000 0.000000 1.888490 
# 
# From -- ./inp_files/13769.got.cif
#   From: 2010.03.12/outbox.cif.g09.slc.cpg/sg24_7_cif.got.tgz:13769.got - 2010.04.14 03:06:53.
