data_PCOD8165966
_publ_section_title
;
Structure prediction by ZEFSAII (Michael W. Deem and Ramdas Pophale) SiO2 
 PCOD8165966
Probable space group: I 21 21 21
;
_chemical_formula_sum "Si O2"
_cell_formula_units_Z 56
_cell_length_a 9.381909
_cell_length_b 21.016624
_cell_length_c 13.496609
_cell_angle_alpha 90.000000
_cell_angle_beta 90.000000
_cell_angle_gamma 90.000000
_cell_volume 2661.208103
_symmetry_space_group_name_H-M "I 21 21 21"
_symmetry_group_IT_number 24
_symmetry_cell_setting 'orthorhombic'
loop_
_space_group_symop_operation_xyz
x,y,z
-x,1/2-y,z
x,-y,1/2-z
1/2-x,y,-z
1/2+x,1/2+y,1/2+z
1/2-x,-y,1/2+z
1/2+x,1/2-y,-z
-x,1/2+y,1/2-z
loop_
_atom_site_type_symbol
_atom_site_label
_atom_site_fract_x
_atom_site_fract_y
_atom_site_fract_z
Si Si1 0.019112 0.176604 0.265310
Si Si2 0.907594 0.688892 0.457482
Si Si3 0.103222 0.589872 0.558996
Si Si4 0.151845 0.745322 0.911999
Si Si5 0.242847 0.883893 0.886255
Si Si6 0.298925 0.638212 0.231400
Si Si7 0.475875 0.535238 0.150447
O O1 0.103210 0.125229 0.334287
O O2 0.000000 0.250000 0.308327
O O3 0.870023 0.140077 0.252036
O O4 0.100915 0.182708 0.161174
O O5 0.750000 0.697942 0.500000
O O6 0.000000 0.750000 0.488465
O O7 0.978709 0.626059 0.501666
O O8 0.250000 0.593110 0.500000
O O9 0.123022 0.623198 0.665557
O O10 0.048046 0.516564 0.563729
O O11 0.181024 0.814693 0.872600
O O12 0.154229 0.706069 0.810826
O O13 0.000000 0.750000 0.964371
O O14 0.250000 0.718507 0.000000
O O15 0.135579 0.935848 0.840407
O O16 0.250000 0.904244 0.000000
O O17 0.352506 0.589233 0.145601
O O18 0.441720 0.500000 0.250000
#
# Coordination Sequence:
#
# PCOD8165966 Si02
#       7
#     8   8   8   8   8   8   8
#     4  11  24  42  68 108 141 171 223 287 352 411
#     4  11  26  43  72 107 139 177 225 288 355 419
#     4  11  24  47  71 100 136 181 240 282 339 422
#     4  11  24  39  67 100 135 175 217 277 347 402
#     4  11  25  42  64 100 138 177 226 280 336 412
#     4  11  23  43  69  98 137 176 223 285 346 407
#     4  10  25  46  66  93 133 184 234 274 335 406
#
# _framework density 21.043075000000002
#
# number of rings (size 3 to 8) (size 9 to 14) (size 15 to 20)
#    0.000    1.143    4.286    0.429   10.000    2.857 
#    0.000    2.143    0.000    0.000    0.000    0.000 
#    0.000    0.000    0.000    0.000    0.000    0.000 
#
# Total GULP energy -346971.765431 kJ/mol
# GULP energy per Si atom -12391.848765 kJ/mol
# Density = 2.099518 g / cm^3
# Si number density = 21.043075 Si / 1000 Ang^3
#
#
#
# Elastic Constant Matrix: (Units=GPa)
#
#
# Indices 1 2 3 4 5 6 
#
# 1 137.2707 29.7809 33.5793 0.0000 0.0000 0.0000
# 2 29.7809 70.4191 13.4045 -0.0002 0.0000 0.0000
# 3 33.5793 13.4045 71.9174 -0.0003 0.0000 0.0000
# 4 0.0000 -0.0002 -0.0003 27.7324 0.0000 0.0000
# 5 0.0000 0.0000 0.0000 0.0000 25.5581 0.0000
# 6 0.0000 0.0000 0.0000 0.0000 0.0000 34.9046
#
#
#
# Elastic Compliance Matrix: (Units=1/GPa)
#
#
# Indices 1 2 3 4 5 6 
#
# 1 0.008815 -0.003053 -0.003547 0.000000 0.000000 0.000000
# 2 -0.003053 0.015780 -0.001516 0.000000 0.000000 0.000000
# 3 -0.003547 -0.001516 0.015843 0.000000 0.000000 0.000000
# 4 0.000000 0.000000 0.000000 0.036059 0.000000 0.000000
# 5 0.000000 0.000000 0.000000 0.000000 0.039126 0.000000
# 6 0.000000 0.000000 0.000000 0.000000 0.000000 0.028650
#
#
# Mechanical properties :
#
#
# Convention : Reuss Voigt Hill
#
# Bulk Modulus (GPa) = 41.30909 48.12627 44.71768
# Shear Modulus (GPa) = 29.66067 31.16185 30.41126
#
# Velocity S-wave (km/s) = 3.75843 3.85237 3.80569
# Velocity P-wave (km/s) = 6.20546 6.53511 6.37242
#
# Compressibility (1/GPa) = 0.02420775
#
# Stress axis : x y z
#
# Youngs Moduli (GPa) = 113.44592 63.37029 63.11766
#
# Poissons Ratio (x) = 0.19345 0.22386
# Poissons Ratio (y) = 0.34632 0.09568
# Poissons Ratio (z) = 0.40237 0.09606
#
# Static dielectric constant tensor:
#      x y z
#    x 3.680300 0.000000 0.000000 
#    y 0.000000 4.152670 0.000000 
#    z 0.000000 0.000000 3.847130 
# 
# 
# High freq. dielectric constant tensor:
#      x y z
#    x 1.834310 0.000000 0.000000 
#    y 0.000000 1.824250 0.000000 
#    z 0.000000 0.000000 1.821950 
# 
# From -- ./inp_files/25070.got.cif
#   From: 2010.03.12/outbox.cif.g09.slc.cpg/sg24_13_cif.got.tgz:25070.got - 2010.04.14 03:06:53.
