data_PCOD8165364
_publ_section_title
;
Structure prediction by ZEFSAII (Michael W. Deem and Ramdas Pophale) SiO2 
 PCOD8165364
Probable space group: I 21 21 21
;
_chemical_formula_sum "Si O2"
_cell_formula_units_Z 48
_cell_length_a 16.003872
_cell_length_b 16.523112
_cell_length_c 8.293787
_cell_angle_alpha 90.000000
_cell_angle_beta 90.000000
_cell_angle_gamma 90.000000
_cell_volume 2193.157360
_symmetry_space_group_name_H-M "I 21 21 21"
_symmetry_group_IT_number 24
_symmetry_cell_setting 'orthorhombic'
loop_
_space_group_symop_operation_xyz
x,y,z
-x,1/2-y,z
x,-y,1/2-z
1/2-x,y,-z
1/2+x,1/2+y,1/2+z
1/2-x,-y,1/2+z
1/2+x,1/2-y,-z
-x,1/2+y,1/2-z
loop_
_atom_site_type_symbol
_atom_site_label
_atom_site_fract_x
_atom_site_fract_y
_atom_site_fract_z
Si Si1 0.582932 0.955235 0.582116
Si Si2 0.500000 0.750000 0.164862
Si Si3 0.201684 0.919813 0.836591
Si Si4 0.529277 0.408090 0.497227
Si Si5 0.250000 0.365993 0.000000
Si Si6 0.343648 0.219792 0.119525
Si Si7 0.045285 0.169383 0.169933
O O1 0.677819 0.927430 0.555091
O O2 0.524084 0.876850 0.563021
O O3 0.580314 0.000000 0.750000
O O4 0.541493 0.023287 0.468224
O O5 0.422921 0.764067 0.276632
O O6 0.482538 0.673183 0.054208
O O7 0.212541 0.848583 0.705244
O O8 0.237105 0.000000 0.750000
O O9 0.250000 0.897749 0.000000
O O10 0.105131 0.933049 0.882498
O O11 0.565995 0.390452 0.679017
O O12 0.210668 0.302458 0.872518
O O13 0.372982 0.190371 0.939502
O O14 0.000000 0.250000 0.234075
#
# Coordination Sequence:
#
# PCOD8165364 Si02
#       7
#     8   4   8   8   4   8   8
#     4  10  23  40  63  98 131 179 227 280 341 409
#     4  10  20  42  64  96 130 182 234 280 346 426
#     4  11  27  44  66 102 138 174 232 297 365 420
#     4  10  23  42  69  97 133 180 232 288 351 415
#     4  12  24  40  64 102 140 182 232 278 354 420
#     4  11  24  40  68 100 136 182 230 288 352 427
#     4  11  19  40  71  94 131 183 234 280 338 424
#
# _framework density 21.886253
#
# number of rings (size 3 to 8) (size 9 to 14) (size 15 to 20)
#    0.000    1.333    3.333    1.000    3.500    4.667 
#    3.000    0.000    0.000    0.000    0.000    0.000 
#    0.000    0.000    0.000    0.000    0.000    0.000 
#
# Total GULP energy -297330.415406 kJ/mol
# GULP energy per Si atom -12388.767309 kJ/mol
# Density = 2.183644 g / cm^3
# Si number density = 21.886253 Si / 1000 Ang^3
#
#
#
# Elastic Constant Matrix: (Units=GPa)
#
#
# Indices 1 2 3 4 5 6 
#
# 1 77.5638 46.7656 14.8076 0.0000 0.0000 0.0000
# 2 46.7656 137.8947 20.0196 0.0000 0.0000 0.0000
# 3 14.8076 20.0196 66.2167 0.0000 0.0000 0.0000
# 4 0.0000 0.0000 0.0000 25.7230 0.0000 0.0000
# 5 0.0000 0.0000 0.0000 0.0000 30.9498 0.0000
# 6 0.0000 0.0000 0.0000 0.0000 0.0000 29.7071
#
#
#
# Elastic Compliance Matrix: (Units=1/GPa)
#
#
# Indices 1 2 3 4 5 6 
#
# 1 0.016478 -0.005285 -0.002087 0.000000 0.000000 0.000000
# 2 -0.005285 0.009280 -0.001624 0.000000 0.000000 0.000000
# 3 -0.002087 -0.001624 0.016060 0.000000 0.000000 0.000000
# 4 0.000000 0.000000 0.000000 0.038876 0.000000 0.000000
# 5 0.000000 0.000000 0.000000 0.000000 0.032310 0.000000
# 6 0.000000 0.000000 0.000000 0.000000 0.000000 0.033662
#
#
# Mechanical properties :
#
#
# Convention : Reuss Voigt Hill
#
# Bulk Modulus (GPa) = 41.97194 49.42899 45.70047
# Shear Modulus (GPa) = 28.96888 30.61480 29.79184
#
# Velocity S-wave (km/s) = 3.64209 3.74413 3.69346
# Velocity P-wave (km/s) = 6.07498 6.42844 6.25421
#
# Compressibility (1/GPa) = 0.02382544
#
# Stress axis : x y z
#
# Youngs Moduli (GPa) = 60.68820 107.75748 62.26833
#
# Poissons Ratio (x) = 0.56953 0.12995
# Poissons Ratio (y) = 0.32075 0.10111
# Poissons Ratio (z) = 0.12665 0.17498
#
# Static dielectric constant tensor:
#      x y z
#    x 3.889310 0.000000 0.000000 
#    y 0.000000 4.337250 0.000000 
#    z 0.000000 0.000000 4.177100 
# 
# 
# High freq. dielectric constant tensor:
#      x y z
#    x 1.856060 0.000000 0.000000 
#    y 0.000000 1.878640 0.000000 
#    z 0.000000 0.000000 1.850910 
# 
# From -- ./inp_files/12850.got.cif
#   From: 2010.03.12/outbox.cif.g09.slc.cpg/sg24_7_cif.got.tgz:12850.got - 2010.04.14 03:06:53.
