data_PCOD8165965
_publ_section_title
;
Structure prediction by ZEFSAII (Michael W. Deem and Ramdas Pophale) SiO2 
 PCOD8165965
Probable space group: I 21 21 21
;
_chemical_formula_sum "Si O2"
_cell_formula_units_Z 32
_cell_length_a 8.116420
_cell_length_b 12.034814
_cell_length_c 14.682462
_cell_angle_alpha 90.000000
_cell_angle_beta 90.000000
_cell_angle_gamma 90.000000
_cell_volume 1434.177089
_symmetry_space_group_name_H-M "I 21 21 21"
_symmetry_group_IT_number 24
_symmetry_cell_setting 'orthorhombic'
loop_
_space_group_symop_operation_xyz
x,y,z
-x,1/2-y,z
x,-y,1/2-z
1/2-x,y,-z
1/2+x,1/2+y,1/2+z
1/2-x,-y,1/2+z
1/2+x,1/2-y,-z
-x,1/2+y,1/2-z
loop_
_atom_site_type_symbol
_atom_site_label
_atom_site_fract_x
_atom_site_fract_y
_atom_site_fract_z
Si Si1 0.406685 0.595174 0.052999
Si Si2 0.250000 0.617826 0.500000
Si Si3 0.748799 0.599973 0.317058
Si Si4 0.000000 0.750000 0.379392
Si Si5 0.500000 0.750000 0.214943
Si Si6 0.750000 0.469541 0.500000
O O1 0.421000 0.654357 0.150842
O O2 0.581937 0.606204 0.996549
O O3 0.250000 0.651138 0.000000
O O4 0.365203 0.462911 0.063159
O O5 0.354984 0.699658 0.560948
O O6 0.741788 0.500000 0.250000
O O7 0.930457 0.652639 0.315792
O O8 0.627759 0.696526 0.284515
O O9 0.715017 0.550897 0.416212
#
# Coordination Sequence:
#
# PCOD8165965 Si02
#       6
#     8   4   8   4   4   4
#     4  10  25  47  76 111 152 202 261 319 391 472
#     4  10  25  45  74 106 144 198 261 317 382 488
#     4  12  28  46  73 112 154 198 265 330 392 483
#     4  12  26  41  75 106 144 208 254 319 407 468
#     4  12  28  45  77 116 154 206 258 335 397 470
#     4  12  23  51  78 102 164 200 247 329 392 456
#
# _framework density 22.312446000000001
#
# number of rings (size 3 to 8) (size 9 to 14) (size 15 to 20)
#    0.750    0.000    5.000    0.750    5.250    5.000 
#    0.000    0.000    0.000    0.000    0.000    0.000 
#    0.000    0.000    0.000    0.000    0.000    0.000 
#
# Total GULP energy -198222.957566 kJ/mol
# GULP energy per Si atom -12388.934848 kJ/mol
# Density = 2.226166 g / cm^3
# Si number density = 22.312446 Si / 1000 Ang^3
#
#
#
# Elastic Constant Matrix: (Units=GPa)
#
#
# Indices 1 2 3 4 5 6 
#
# 1 179.0213 43.6771 53.1146 0.0000 0.0000 0.0000
# 2 43.6771 81.0348 35.1815 0.0000 0.0000 0.0000
# 3 53.1146 35.1815 123.4629 0.0000 0.0000 0.0000
# 4 0.0000 0.0000 0.0000 46.6387 0.0000 0.0000
# 5 0.0000 0.0000 0.0000 0.0000 16.5085 0.0000
# 6 0.0000 0.0000 0.0000 0.0000 0.0000 50.7825
#
#
#
# Elastic Compliance Matrix: (Units=1/GPa)
#
#
# Indices 1 2 3 4 5 6 
#
# 1 0.006911 -0.002778 -0.002182 0.000000 0.000000 0.000000
# 2 -0.002778 0.015199 -0.003136 0.000000 0.000000 0.000000
# 3 -0.002182 -0.003136 0.009932 0.000000 0.000000 0.000000
# 4 0.000000 0.000000 0.000000 0.021441 0.000000 0.000000
# 5 0.000000 0.000000 0.000000 0.000000 0.060575 0.000000
# 6 0.000000 0.000000 0.000000 0.000000 0.000000 0.019692
#
#
# Mechanical properties :
#
#
# Convention : Reuss Voigt Hill
#
# Bulk Modulus (GPa) = 63.08768 71.94059 67.51413
# Shear Modulus (GPa) = 32.21145 39.55568 35.88356
#
# Velocity S-wave (km/s) = 3.80367 4.21504 4.01463
# Velocity P-wave (km/s) = 6.90120 7.48339 7.19818
#
# Compressibility (1/GPa) = 0.01585096
#
# Stress axis : x y z
#
# Youngs Moduli (GPa) = 144.69893 65.79331 100.68707
#
# Poissons Ratio (x) = 0.18276 0.21966
# Poissons Ratio (y) = 0.40194 0.31576
# Poissons Ratio (z) = 0.31567 0.20633
#
# Static dielectric constant tensor:
#      x y z
#    x 4.469060 0.000000 0.000000 
#    y 0.000000 4.303380 0.000000 
#    z 0.000000 0.000000 3.706120 
# 
# 
# High freq. dielectric constant tensor:
#      x y z
#    x 1.896150 0.000000 0.000000 
#    y 0.000000 1.893530 0.000000 
#    z 0.000000 0.000000 1.858400 
# 
# From -- ./inp_files/10349.got.cif
#   From: 2010.03.12/outbox.cif.g09.slc.cpg/sg24_6_cif.got.tgz:10349.got - 2010.04.14 03:06:53.
