data_PCOD8165299
_publ_section_title
;
Structure prediction by ZEFSAII (Michael W. Deem and Ramdas Pophale) SiO2 
 PCOD8165299
Probable space group: I 21 21 21
;
_chemical_formula_sum "Si O2"
_cell_formula_units_Z 40
_cell_length_a 10.088230
_cell_length_b 21.609491
_cell_length_c 9.282688
_cell_angle_alpha 90.000000
_cell_angle_beta 90.000000
_cell_angle_gamma 90.000000
_cell_volume 2023.640051
_symmetry_space_group_name_H-M "I 21 21 21"
_symmetry_group_IT_number 24
_symmetry_cell_setting 'orthorhombic'
loop_
_space_group_symop_operation_xyz
x,y,z
-x,1/2-y,z
x,-y,1/2-z
1/2-x,y,-z
1/2+x,1/2+y,1/2+z
1/2-x,-y,1/2+z
1/2+x,1/2-y,-z
-x,1/2+y,1/2-z
loop_
_atom_site_type_symbol
_atom_site_label
_atom_site_fract_x
_atom_site_fract_y
_atom_site_fract_z
Si Si1 0.153537 0.552550 0.639498
Si Si2 0.765953 0.148864 0.327320
Si Si3 0.902041 0.484571 0.028451
Si Si4 0.542976 0.596931 0.799803
Si Si5 0.142724 0.774860 0.119513
O O1 0.204630 0.500000 0.750000
O O2 0.250000 0.554320 0.500000
O O3 0.150547 0.618195 0.728907
O O4 0.001288 0.538600 0.596443
O O5 0.750000 0.147665 0.500000
O O6 0.793924 0.220295 0.281038
O O7 0.887682 0.105820 0.288358
O O8 0.926438 0.557762 0.055556
O O9 0.920961 0.443381 0.166220
O O10 0.750000 0.473262 0.000000
O O11 0.620171 0.662218 0.793069
O O12 0.000000 0.750000 0.056332
O O13 0.250000 0.791427 0.000000
#
# Coordination Sequence:
#
# PCOD8165299 Si02
#       5
#     8   8   8   8   8
#     4  12  23  38  63  93 126 160 206 260 315 374
#     4  10  20  39  65  95 120 158 211 258 308 372
#     4  11  24  38  57  89 122 164 202 253 318 372
#     4  10  20  40  61  85 126 158 205 258 311 369
#     4   9  19  37  63  89 119 160 207 257 307 364
#
# _framework density 19.766361
#
# number of rings (size 3 to 8) (size 9 to 14) (size 15 to 20)
#    0.000    1.600    2.000    3.600    2.800    0.000 
#   10.800    1.000    0.000    0.000    0.000    0.000 
#    0.000    0.000    0.000    0.000    0.000    0.000 
#
# Total GULP energy -247777.866639 kJ/mol
# GULP energy per Si atom -12388.893332 kJ/mol
# Density = 1.972137 g / cm^3
# Si number density = 19.766361 Si / 1000 Ang^3
#
#
#
# Elastic Constant Matrix: (Units=GPa)
#
#
# Indices 1 2 3 4 5 6 
#
# 1 78.3777 47.1747 25.1827 -0.0005 0.0000 0.0001
# 2 47.1747 158.3385 51.5172 0.0001 0.0001 0.0001
# 3 25.1827 51.5172 76.3450 -0.0001 0.0001 0.0004
# 4 -0.0005 0.0001 -0.0001 11.9931 0.0001 0.0002
# 5 0.0000 0.0001 0.0001 0.0001 24.1980 0.0000
# 6 0.0001 0.0001 0.0004 0.0002 0.0000 28.4069
#
#
#
# Elastic Compliance Matrix: (Units=1/GPa)
#
#
# Indices 1 2 3 4 5 6 
#
# 1 0.015949 -0.003895 -0.002632 0.000001 0.000000 0.000000
# 2 -0.003895 0.009044 -0.004818 0.000000 0.000000 0.000000
# 3 -0.002632 -0.004818 0.017218 0.000000 0.000000 0.000000
# 4 0.000001 0.000000 0.000000 0.083381 0.000000 -0.000001
# 5 0.000000 0.000000 0.000000 0.000000 0.041326 0.000000
# 6 0.000000 0.000000 0.000000 -0.000001 0.000000 0.035203
#
#
# Mechanical properties :
#
#
# Convention : Reuss Voigt Hill
#
# Bulk Modulus (GPa) = 51.23035 62.31225 56.77130
# Shear Modulus (GPa) = 21.61530 25.53203 23.57366
#
# Velocity S-wave (km/s) = 3.31046 3.59791 3.45717
# Velocity P-wave (km/s) = 6.37075 6.98948 6.68727
#
# Compressibility (1/GPa) = 0.01951968
#
# Stress axis : x y z
#
# Youngs Moduli (GPa) = 62.69960 110.57495 58.07986
#
# Poissons Ratio (x) = 0.43073 0.15288
# Poissons Ratio (y) = 0.24424 0.27981
# Poissons Ratio (z) = 0.16504 0.53272
#
# Static dielectric constant tensor:
#      x y z
#    x 3.457410 0.000000 0.000000 
#    y 0.000000 4.257240 0.000000 
#    z 0.000000 0.000000 3.520480 
# 
# 
# High freq. dielectric constant tensor:
#      x y z
#    x 1.775820 0.000000 0.000000 
#    y 0.000000 1.787060 0.000000 
#    z 0.000000 0.000000 1.744400 
# 
# From -- ./inp_files/9298.got.cif
#   From: 2010.03.12/outbox.cif.g09.slc.cpg/sg24_5_cif.got.tgz:9298.got - 2010.04.14 03:06:53.
