data_PCOD8165196
_publ_section_title
;
Structure prediction by ZEFSAII (Michael W. Deem and Ramdas Pophale) SiO2 
 PCOD8165196
Probable space group: I 21 21 21
;
_chemical_formula_sum "Si O2"
_cell_formula_units_Z 52
_cell_length_a 18.376243
_cell_length_b 5.025284
_cell_length_c 29.054687
_cell_angle_alpha 90.000000
_cell_angle_beta 90.000000
_cell_angle_gamma 90.000000
_cell_volume 2683.079475
_symmetry_space_group_name_H-M "I 21 21 21"
_symmetry_group_IT_number 24
_symmetry_cell_setting 'orthorhombic'
loop_
_space_group_symop_operation_xyz
x,y,z
-x,1/2-y,z
x,-y,1/2-z
1/2-x,y,-z
1/2+x,1/2+y,1/2+z
1/2-x,-y,1/2+z
1/2+x,1/2-y,-z
-x,1/2+y,1/2-z
loop_
_atom_site_type_symbol
_atom_site_label
_atom_site_fract_x
_atom_site_fract_y
_atom_site_fract_z
Si Si1 0.000000 0.250000 0.778347
Si Si2 0.451570 0.508018 0.578763
Si Si3 0.048750 0.494083 0.973250
Si Si4 0.128730 0.006431 0.836642
Si Si5 0.215785 0.042851 0.198041
Si Si6 0.844983 0.987941 0.893105
Si Si7 0.311709 0.444087 0.640245
O O1 0.034419 0.500000 0.750000
O O2 0.939191 0.392758 0.808193
O O3 0.500000 0.750000 0.596546
O O4 0.427613 0.549704 0.525920
O O5 0.379345 0.506395 0.608450
O O6 0.500000 0.250000 0.585715
O O7 0.122686 0.530639 0.944309
O O8 0.000000 0.750000 0.967107
O O9 0.000000 0.250000 0.954818
O O10 0.144539 0.210058 0.877584
O O11 0.197893 0.985375 0.802995
O O12 0.112912 0.717094 0.859023
O O13 0.174150 0.836201 0.165085
O O14 0.187975 0.000000 0.250000
O O15 0.198421 0.338172 0.180343
O O16 0.759139 0.921285 0.892703
#
# Coordination Sequence:
#
# PCOD8165196 Si02
#       7
#     4   8   8   8   8   8   8
#     4  12  24  36  50  74 108 152 202 240 290 330
#     4  10  21  39  61  86 114 146 181 223 287 348
#     4  10  21  35  56  83 115 154 189 225 272 336
#     4  10  22  35  53  78 109 150 189 241 280 321
#     4  10  20  37  59  81 110 145 188 232 278 339
#     4  10  21  36  54  83 112 146 194 231 278 320
#     4  10  21  37  60  86 110 146 188 230 282 335
#
# _framework density 19.380714000000001
#
# number of rings (size 3 to 8) (size 9 to 14) (size 15 to 20)
#    0.000    1.846    0.000    3.692    3.231    3.077 
#    0.000    0.000    0.000   20.308    0.000    0.000 
#    0.000    0.000    0.000    0.000    0.000    0.000 
#
# Total GULP energy -322439.228466 kJ/mol
# GULP energy per Si atom -12401.508787 kJ/mol
# Density = 1.933660 g / cm^3
# Si number density = 19.380714 Si / 1000 Ang^3
#
#
#
# Elastic Constant Matrix: (Units=GPa)
#
#
# Indices 1 2 3 4 5 6 
#
# 1 105.0290 26.1410 65.6879 0.0000 0.0000 0.0000
# 2 26.1410 100.8472 16.6578 0.0000 0.0000 0.0000
# 3 65.6879 16.6578 90.9077 0.0000 0.0000 0.0000
# 4 0.0000 0.0000 0.0000 28.7227 0.0000 0.0000
# 5 0.0000 0.0000 0.0000 0.0000 23.9380 0.0000
# 6 0.0000 0.0000 0.0000 0.0000 0.0000 24.9234
#
#
#
# Elastic Compliance Matrix: (Units=1/GPa)
#
#
# Indices 1 2 3 4 5 6 
#
# 1 0.018008 -0.002597 -0.012536 0.000000 0.000000 0.000000
# 2 -0.002597 0.010600 -0.000066 0.000000 0.000000 0.000000
# 3 -0.012536 -0.000066 0.020071 0.000000 0.000000 0.000000
# 4 0.000000 0.000000 0.000000 0.034816 0.000000 0.000000
# 5 0.000000 0.000000 0.000000 0.000000 0.041775 0.000000
# 6 0.000000 0.000000 0.000000 0.000000 0.000000 0.040123
#
#
# Mechanical properties :
#
#
# Convention : Reuss Voigt Hill
#
# Bulk Modulus (GPa) = 54.70331 57.08417 55.89374
# Shear Modulus (GPa) = 24.76666 28.06998 26.41832
#
# Velocity S-wave (km/s) = 3.57865 3.80984 3.69606
# Velocity P-wave (km/s) = 6.73518 6.99080 6.86418
#
# Compressibility (1/GPa) = 0.01828043
#
# Stress axis : x y z
#
# Youngs Moduli (GPa) = 55.53013 94.33897 49.82373
#
# Poissons Ratio (x) = 0.24502 0.62461
# Poissons Ratio (y) = 0.14422 0.00327
# Poissons Ratio (z) = 0.69615 0.00619
#
# Static dielectric constant tensor:
#      x y z
#    x 3.301290 0.000000 0.000000 
#    y 0.000000 4.245620 0.000000 
#    z 0.000000 0.000000 3.412630 
# 
# 
# High freq. dielectric constant tensor:
#      x y z
#    x 1.734330 0.000000 0.000000 
#    y 0.000000 1.780650 0.000000 
#    z 0.000000 0.000000 1.745170 
# 
# From -- ./inp_files/37505.got.cif
#   From: 2010.03.12/outbox.cif.g09.slc.cpg/sg24_19_cif.got.tgz:37505.got - 2010.04.14 03:06:53.
