data_PCOD8165846
_publ_section_title
;
Structure prediction by ZEFSAII (Michael W. Deem and Ramdas Pophale) SiO2 
 PCOD8165846
Probable space group: I 21 21 21
;
_chemical_formula_sum "Si O2"
_cell_formula_units_Z 64
_cell_length_a 9.352705
_cell_length_b 10.640527
_cell_length_c 30.423321
_cell_angle_alpha 90.000000
_cell_angle_beta 90.000000
_cell_angle_gamma 90.000000
_cell_volume 3027.659239
_symmetry_space_group_name_H-M "I 21 21 21"
_symmetry_group_IT_number 24
_symmetry_cell_setting 'orthorhombic'
loop_
_space_group_symop_operation_xyz
x,y,z
-x,1/2-y,z
x,-y,1/2-z
1/2-x,y,-z
1/2+x,1/2+y,1/2+z
1/2-x,-y,1/2+z
1/2+x,1/2-y,-z
-x,1/2+y,1/2-z
loop_
_atom_site_type_symbol
_atom_site_label
_atom_site_fract_x
_atom_site_fract_y
_atom_site_fract_z
Si Si1 0.624584 0.855923 0.736890
Si Si2 0.226891 0.889520 0.885591
Si Si3 0.253969 0.563148 0.647311
Si Si4 0.581646 0.367737 0.995728
Si Si5 0.473242 0.459953 0.085932
Si Si6 0.838598 0.798310 0.812487
Si Si7 0.266328 0.323318 0.448330
Si Si8 0.982539 0.028123 0.416492
O O1 0.500000 0.750000 0.739429
O O2 0.694162 0.855991 0.688534
O O3 0.753489 0.809015 0.767218
O O4 0.573874 0.000000 0.750000
O O5 0.231063 0.808740 0.841792
O O6 0.187516 0.811599 0.929756
O O7 0.383636 0.945809 0.885928
O O8 0.107726 0.997059 0.884719
O O9 0.125206 0.625314 0.618680
O O10 0.183103 0.428939 0.661423
O O11 0.386820 0.561646 0.613762
O O12 0.500000 0.250000 0.974429
O O13 0.540023 0.479634 0.963361
O O14 0.750000 0.347360 0.000000
O O15 0.521632 0.380856 0.044553
O O16 0.379757 0.574797 0.067168
O O17 0.000000 0.750000 0.803325
O O18 0.250000 0.316801 0.500000
O O19 0.110337 0.349168 0.427556
#
# Coordination Sequence:
#
# PCOD8165846 Si02
#       8
#     8   8   8   8   8   8   8   8
#     4  10  25  47  75 105 140 178 230 293 366 442
#     4  12  22  36  62 104 137 175 217 267 342 419
#     4  10  23  43  67  98 137 177 227 282 347 419
#     4  12  28  46  64  88 128 183 239 288 333 390
#     4  11  22  42  63  93 132 176 225 271 332 402
#     4  11  21  41  70 103 136 179 216 276 361 434
#     4  11  22  32  59  92 137 176 203 268 331 400
#     4  11  24  39  63  96 131 176 227 273 330 404
#
# _framework density 21.138442999999999
#
# number of rings (size 3 to 8) (size 9 to 14) (size 15 to 20)
#    0.000    1.000    6.250    0.750    8.750    1.500 
#    0.000    3.750    0.000    0.000    0.000    0.000 
#    0.000    0.000    0.000    0.000    0.000    0.000 
#
# Total GULP energy -396537.151918 kJ/mol
# GULP energy per Si atom -12391.785997 kJ/mol
# Density = 2.109033 g / cm^3
# Si number density = 21.138443 Si / 1000 Ang^3
#
#
#
# Elastic Constant Matrix: (Units=GPa)
#
#
# Indices 1 2 3 4 5 6 
#
# 1 162.3542 42.2756 61.2623 0.0000 0.0000 0.0000
# 2 42.2756 51.2269 15.7947 0.0000 0.0000 0.0000
# 3 61.2623 15.7947 138.4676 0.0000 0.0000 0.0000
# 4 0.0000 0.0000 0.0000 28.3203 0.0000 0.0000
# 5 0.0000 0.0000 0.0000 0.0000 23.5598 0.0000
# 6 0.0000 0.0000 0.0000 0.0000 0.0000 20.3387
#
#
#
# Elastic Compliance Matrix: (Units=1/GPa)
#
#
# Indices 1 2 3 4 5 6 
#
# 1 0.009086 -0.006487 -0.003280 0.000000 0.000000 0.000000
# 2 -0.006487 0.024864 0.000034 0.000000 0.000000 0.000000
# 3 -0.003280 0.000034 0.008669 0.000000 0.000000 0.000000
# 4 0.000000 0.000000 0.000000 0.035310 0.000000 0.000000
# 5 0.000000 0.000000 0.000000 0.000000 0.042445 0.000000
# 6 0.000000 0.000000 0.000000 0.000000 0.000000 0.049167
#
#
# Mechanical properties :
#
#
# Convention : Reuss Voigt Hill
#
# Bulk Modulus (GPa) = 43.19097 65.63487 54.41292
# Shear Modulus (GPa) = 25.41595 29.95817 27.68706
#
# Velocity S-wave (km/s) = 3.47126 3.76870 3.62304
# Velocity P-wave (km/s) = 6.04508 7.07495 6.58019
#
# Compressibility (1/GPa) = 0.02315299
#
# Stress axis : x y z
#
# Youngs Moduli (GPa) = 110.05620 40.21856 115.35044
#
# Poissons Ratio (x) = 0.26091 0.37836
# Poissons Ratio (y) = 0.71396 -0.00391
# Poissons Ratio (z) = 0.36099 -0.00136
#
# Static dielectric constant tensor:
#      x y z
#    x 4.032520 0.000000 0.000000 
#    y 0.000000 3.601500 0.000000 
#    z 0.000000 0.000000 3.872710 
# 
# 
# High freq. dielectric constant tensor:
#      x y z
#    x 1.848590 0.000000 0.000000 
#    y 0.000000 1.799660 0.000000 
#    z 0.000000 0.000000 1.836840 
# 
# From -- ./inp_files/38416.got.cif
#   From: 2010.03.12/outbox.cif.g09.slc.cpg/sg24_20_cif.got.tgz:38416.got - 2010.04.14 03:06:53.
