data_PCOD8165723
_publ_section_title
;
Structure prediction by ZEFSAII (Michael W. Deem and Ramdas Pophale) SiO2 
 PCOD8165723
Probable space group: I 21 21 21
;
_chemical_formula_sum "Si O2"
_cell_formula_units_Z 60
_cell_length_a 20.277382
_cell_length_b 10.449664
_cell_length_c 13.447616
_cell_angle_alpha 90.000000
_cell_angle_beta 90.000000
_cell_angle_gamma 90.000000
_cell_volume 2849.439946
_symmetry_space_group_name_H-M "I 21 21 21"
_symmetry_group_IT_number 24
_symmetry_cell_setting 'orthorhombic'
loop_
_space_group_symop_operation_xyz
x,y,z
-x,1/2-y,z
x,-y,1/2-z
1/2-x,y,-z
1/2+x,1/2+y,1/2+z
1/2-x,-y,1/2+z
1/2+x,1/2-y,-z
-x,1/2+y,1/2-z
loop_
_atom_site_type_symbol
_atom_site_label
_atom_site_fract_x
_atom_site_fract_y
_atom_site_fract_z
Si Si1 0.375368 0.879090 0.815504
Si Si2 0.500000 0.750000 0.866298
Si Si3 0.951211 0.067095 0.848187
Si Si4 0.593371 0.646867 0.344550
Si Si5 0.105302 0.613799 0.000743
Si Si6 0.698440 0.876058 0.819711
Si Si7 0.672171 0.726934 0.157032
Si Si8 0.819472 0.491511 0.516460
O O1 0.453491 0.846699 0.803385
O O2 0.337525 0.751483 0.777958
O O3 0.355462 0.000000 0.750000
O O4 0.355809 0.915528 0.927782
O O5 0.452312 0.663626 0.930579
O O6 0.931375 0.211744 0.858373
O O7 0.030302 0.052861 0.836776
O O8 0.919353 0.000000 0.750000
O O9 0.921528 0.014065 0.950461
O O10 0.640365 0.649530 0.248610
O O11 0.632234 0.598547 0.440917
O O12 0.114991 0.712684 0.910488
O O13 0.170811 0.591769 0.068977
O O14 0.775988 0.840475 0.818859
O O15 0.686449 0.000000 0.750000
O O16 0.706172 0.614690 0.094970
O O17 0.750000 0.564322 0.500000
#
# Coordination Sequence:
#
# PCOD8165723 Si02
#       8
#     8   4   8   8   8   8   8   8
#     4  11  25  45  71 101 138 185 232 291 351 413
#     4  10  22  40  70 100 122 180 236 274 336 400
#     4  11  23  43  64 102 143 176 224 283 356 419
#     4  11  27  40  69 105 136 182 225 291 355 420
#     4  11  23  42  69  98 134 178 225 282 342 417
#     4  11  26  45  71 103 135 184 237 288 352 420
#     4  12  22  44  70 101 133 177 227 285 348 424
#     4  12  23  44  68 102 136 176 233 278 352 425
#
# _framework density 21.05677
#
# number of rings (size 3 to 8) (size 9 to 14) (size 15 to 20)
#    0.000    0.800    5.333    2.400    5.600    3.200 
#    0.000    1.333    0.000    0.000    0.000    0.000 
#    0.000    0.000    0.000    0.000    0.000    0.000 
#
# Total GULP energy -371787.271075 kJ/mol
# GULP energy per Si atom -12392.909036 kJ/mol
# Density = 2.100884 g / cm^3
# Si number density = 21.056770 Si / 1000 Ang^3
#
#
#
# Elastic Constant Matrix: (Units=GPa)
#
#
# Indices 1 2 3 4 5 6 
#
# 1 100.5646 35.3039 33.8628 0.0000 0.0000 0.0000
# 2 35.3039 100.1630 50.1637 0.0000 0.0000 0.0000
# 3 33.8628 50.1637 86.0724 0.0000 0.0000 0.0000
# 4 0.0000 0.0000 0.0000 46.2182 0.0000 0.0000
# 5 0.0000 0.0000 0.0000 0.0000 28.6622 0.0000
# 6 0.0000 0.0000 0.0000 0.0000 0.0000 24.5783
#
#
#
# Elastic Compliance Matrix: (Units=1/GPa)
#
#
# Indices 1 2 3 4 5 6 
#
# 1 0.011930 -0.002619 -0.003167 0.000000 0.000000 0.000000
# 2 -0.002619 0.014674 -0.007522 0.000000 0.000000 0.000000
# 3 -0.003167 -0.007522 0.017248 0.000000 0.000000 0.000000
# 4 0.000000 0.000000 0.000000 0.021637 0.000000 0.000000
# 5 0.000000 0.000000 0.000000 0.000000 0.034889 0.000000
# 6 0.000000 0.000000 0.000000 0.000000 0.000000 0.040686
#
#
# Mechanical properties :
#
#
# Convention : Reuss Voigt Hill
#
# Bulk Modulus (GPa) = 58.01765 58.38452 58.20109
# Shear Modulus (GPa) = 28.83111 31.05638 29.94374
#
# Velocity S-wave (km/s) = 3.70430 3.84459 3.77510
# Velocity P-wave (km/s) = 6.77558 6.89168 6.83388
#
# Compressibility (1/GPa) = 0.01723613
#
# Stress axis : x y z
#
# Youngs Moduli (GPa) = 83.82501 68.14903 57.97789
#
# Poissons Ratio (x) = 0.17845 0.18363
# Poissons Ratio (y) = 0.21950 0.43610
# Poissons Ratio (z) = 0.26550 0.51260
#
# Static dielectric constant tensor:
#      x y z
#    x 4.164660 0.000000 0.000000 
#    y 0.000000 3.807290 0.000000 
#    z 0.000000 0.000000 3.934060 
# 
# 
# High freq. dielectric constant tensor:
#      x y z
#    x 1.838590 0.000000 0.000000 
#    y 0.000000 1.828500 0.000000 
#    z 0.000000 0.000000 1.811510 
# 
# From -- ./inp_files/22258.got.cif
#   From: 2010.03.12/outbox.cif.g09.slc.cpg/sg24_12_cif.got.tgz:22258.got - 2010.04.14 03:06:53.
