data_PCOD8165903
_publ_section_title
;
Structure prediction by ZEFSAII (Michael W. Deem and Ramdas Pophale) SiO2 
 PCOD8165903
Probable space group: I 21 21 21
;
_chemical_formula_sum "Si O2"
_cell_formula_units_Z 48
_cell_length_a 8.085252
_cell_length_b 14.947057
_cell_length_c 18.458362
_cell_angle_alpha 90.000000
_cell_angle_beta 90.000000
_cell_angle_gamma 90.000000
_cell_volume 2230.706384
_symmetry_space_group_name_H-M "I 21 21 21"
_symmetry_group_IT_number 24
_symmetry_cell_setting 'orthorhombic'
loop_
_space_group_symop_operation_xyz
x,y,z
-x,1/2-y,z
x,-y,1/2-z
1/2-x,y,-z
1/2+x,1/2+y,1/2+z
1/2-x,-y,1/2+z
1/2+x,1/2-y,-z
-x,1/2+y,1/2-z
loop_
_atom_site_type_symbol
_atom_site_label
_atom_site_fract_x
_atom_site_fract_y
_atom_site_fract_z
Si Si1 0.823633 0.422508 0.696230
Si Si2 0.303251 0.241380 0.781104
Si Si3 0.795143 0.911194 0.791641
Si Si4 0.363478 0.821886 0.568642
Si Si5 0.380188 0.665074 0.936636
Si Si6 0.376388 0.016740 0.561840
O O1 0.764347 0.500000 0.750000
O O2 0.775456 0.325366 0.723736
O O3 0.721915 0.431970 0.623597
O O4 0.019071 0.429481 0.681609
O O5 0.500000 0.250000 0.771017
O O6 0.212849 0.335830 0.770126
O O7 0.258093 0.207478 0.861293
O O8 0.693759 0.873358 0.860936
O O9 0.724083 0.000000 0.750000
O O10 0.500000 0.750000 0.550814
O O11 0.250000 0.826187 0.500000
O O12 0.446005 0.919248 0.585986
O O13 0.500000 0.750000 0.921340
O O14 0.481220 0.581205 0.968464
O O15 0.250000 0.691879 0.000000
O O16 0.250000 0.993671 0.500000
#
# Coordination Sequence:
#
# PCOD8165903 Si02
#       6
#     8   8   8   8   8   8
#     4  11  22  42  65  96 135 177 221 275 331 406
#     4  11  23  41  66  96 130 177 217 271 336 396
#     4  11  26  42  67 104 137 175 229 282 341 406
#     4  10  24  42  63  95 128 172 216 268 331 403
#     4  12  27  47  71 104 137 185 231 289 342 407
#     4  11  23  43  69  96 133 177 222 270 338 400
#
# _framework density 21.517848000000001
#
# number of rings (size 3 to 8) (size 9 to 14) (size 15 to 20)
#    0.000    1.000    1.667    4.500    4.667    4.667 
#    3.000    0.000    0.000    0.000    0.000    0.000 
#    0.000    0.000    0.000    0.000    0.000    0.000 
#
# Total GULP energy -297513.794768 kJ/mol
# GULP energy per Si atom -12396.408115 kJ/mol
# Density = 2.146887 g / cm^3
# Si number density = 21.517848 Si / 1000 Ang^3
#
#
#
# Elastic Constant Matrix: (Units=GPa)
#
#
# Indices 1 2 3 4 5 6 
#
# 1 77.6927 40.5276 30.5942 0.0000 0.0000 0.0000
# 2 40.5276 186.4815 56.6750 0.0000 0.0000 0.0000
# 3 30.5942 56.6750 115.9730 0.0000 0.0000 0.0000
# 4 0.0000 0.0000 0.0000 29.7962 0.0000 0.0000
# 5 0.0000 0.0000 0.0000 0.0000 32.4324 0.0000
# 6 0.0000 0.0000 0.0000 0.0000 0.0000 33.5387
#
#
#
# Elastic Compliance Matrix: (Units=1/GPa)
#
#
# Indices 1 2 3 4 5 6 
#
# 1 0.015267 -0.002459 -0.002826 0.000000 0.000000 0.000000
# 2 -0.002459 0.006694 -0.002623 0.000000 0.000000 0.000000
# 3 -0.002826 -0.002623 0.010650 0.000000 0.000000 0.000000
# 4 0.000000 0.000000 0.000000 0.033561 0.000000 0.000000
# 5 0.000000 0.000000 0.000000 0.000000 0.030833 0.000000
# 6 0.000000 0.000000 0.000000 0.000000 0.000000 0.029816
#
#
# Mechanical properties :
#
#
# Convention : Reuss Voigt Hill
#
# Bulk Modulus (GPa) = 59.53899 70.63786 65.08843
# Shear Modulus (GPa) = 33.73033 35.97683 34.85358
#
# Velocity S-wave (km/s) = 3.96353 4.09339 4.02898
# Velocity P-wave (km/s) = 6.97680 7.43236 7.20818
#
# Compressibility (1/GPa) = 0.01679572
#
# Stress axis : x y z
#
# Youngs Moduli (GPa) = 65.50202 149.38902 93.89902
#
# Poissons Ratio (x) = 0.36736 0.26533
# Poissons Ratio (y) = 0.16108 0.24625
# Poissons Ratio (z) = 0.18509 0.39178
#
# Static dielectric constant tensor:
#      x y z
#    x 3.780370 0.000000 0.000000 
#    y 0.000000 4.424840 0.000000 
#    z 0.000000 0.000000 3.835030 
# 
# 
# High freq. dielectric constant tensor:
#      x y z
#    x 1.833210 0.000000 0.000000 
#    y 0.000000 1.873330 0.000000 
#    z 0.000000 0.000000 1.852710 
# 
# From -- ./inp_files/14151.got.cif
#   From: 2010.03.12/outbox.cif.g09.slc.cpg/sg24_8_cif.got.tgz:14151.got - 2010.04.14 03:06:53.
