data_PCOD8165444
_publ_section_title
;
Structure prediction by ZEFSAII (Michael W. Deem and Ramdas Pophale) SiO2 
 PCOD8165444
Probable space group: I 21 21 21
;
_chemical_formula_sum "Si O2"
_cell_formula_units_Z 56
_cell_length_a 23.053180
_cell_length_b 25.312822
_cell_length_c 5.043272
_cell_angle_alpha 90.000000
_cell_angle_beta 90.000000
_cell_angle_gamma 90.000000
_cell_volume 2942.956197
_symmetry_space_group_name_H-M "I 21 21 21"
_symmetry_group_IT_number 24
_symmetry_cell_setting 'orthorhombic'
loop_
_space_group_symop_operation_xyz
x,y,z
-x,1/2-y,z
x,-y,1/2-z
1/2-x,y,-z
1/2+x,1/2+y,1/2+z
1/2-x,-y,1/2+z
1/2+x,1/2-y,-z
-x,1/2+y,1/2-z
loop_
_atom_site_type_symbol
_atom_site_label
_atom_site_fract_x
_atom_site_fract_y
_atom_site_fract_z
Si Si1 0.750000 0.033104 0.500000
Si Si2 0.711593 0.500000 0.250000
Si Si3 0.211157 0.694087 0.741749
Si Si4 0.788797 0.314053 0.757029
Si Si5 0.441194 0.062098 0.760691
Si Si6 0.925739 0.939588 0.330304
Si Si7 0.125653 0.093771 0.732148
Si Si8 0.860938 0.098102 0.657228
O O1 0.800673 0.067994 0.622129
O O2 0.775006 0.000000 0.250000
O O3 0.750000 0.517034 0.500000
O O4 0.673299 0.549769 0.162770
O O5 0.250000 0.672997 0.500000
O O6 0.190499 0.754043 0.690500
O O7 0.153448 0.658418 0.764169
O O8 0.250000 0.689100 0.000000
O O9 0.750000 0.318090 0.500000
O O10 0.846251 0.348493 0.717810
O O11 0.750000 0.335326 0.000000
O O12 0.506771 0.074848 0.840960
O O13 0.426602 0.088585 0.478358
O O14 0.429948 0.000000 0.750000
O O15 0.398696 0.086987 0.974920
O O16 0.898796 0.930506 0.618726
O O17 0.915532 0.000000 0.250000
O O18 0.896143 0.901347 0.116406
#
# Coordination Sequence:
#
# PCOD8165444 Si02
#       8
#     4   4   8   8   8   8   8   8
#     4  12  24  34  54  86 124 150 178 228 302 366
#     4  12  22  32  52  88 122 144 172 222 296 348
#     4  10  21  38  59  83 113 153 192 225 280 354
#     4  10  21  38  59  86 117 149 190 231 280 349
#     4  11  22  40  58  81 111 157 203 231 277 340
#     4  11  24  39  58  82 115 152 199 239 277 339
#     4  12  21  37  60  83 117 153 189 237 283 338
#     4  12  22  38  58  84 116 152 187 238 288 340
#
# _framework density 19.028486999999998
#
# number of rings (size 3 to 8) (size 9 to 14) (size 15 to 20)
#    0.000    0.857    2.143    6.857    1.000    2.286 
#    0.000    0.000    0.000    5.143    0.000    0.000 
#    0.000    0.000    0.000    0.000    0.000    0.000 
#
# Total GULP energy -347395.643225 kJ/mol
# GULP energy per Si atom -12406.987258 kJ/mol
# Density = 1.898518 g / cm^3
# Si number density = 19.028487 Si / 1000 Ang^3
#
#
#
# Elastic Constant Matrix: (Units=GPa)
#
#
# Indices 1 2 3 4 5 6 
#
# 1 95.8939 42.4004 25.3967 0.0000 0.0000 0.0000
# 2 42.4004 87.0625 11.0505 0.0000 0.0000 0.0000
# 3 25.3967 11.0505 102.9014 0.0000 0.0000 0.0000
# 4 0.0000 0.0000 0.0000 29.7586 0.0000 0.0000
# 5 0.0000 0.0000 0.0000 0.0000 39.9589 0.0000
# 6 0.0000 0.0000 0.0000 0.0000 0.0000 34.8154
#
#
#
# Elastic Compliance Matrix: (Units=1/GPa)
#
#
# Indices 1 2 3 4 5 6 
#
# 1 0.014026 -0.006480 -0.002766 0.000000 0.000000 0.000000
# 2 -0.006480 0.014638 0.000027 0.000000 0.000000 0.000000
# 3 -0.002766 0.000027 0.010398 0.000000 0.000000 0.000000
# 4 0.000000 0.000000 0.000000 0.033604 0.000000 0.000000
# 5 0.000000 0.000000 0.000000 0.000000 0.025026 0.000000
# 6 0.000000 0.000000 0.000000 0.000000 0.000000 0.028723
#
#
# Mechanical properties :
#
#
# Convention : Reuss Voigt Hill
#
# Bulk Modulus (GPa) = 48.48425 49.28368 48.88397
# Shear Modulus (GPa) = 32.95425 34.70726 33.83075
#
# Velocity S-wave (km/s) = 4.16605 4.27542 4.22109
# Velocity P-wave (km/s) = 6.97685 7.09426 7.03580
#
# Compressibility (1/GPa) = 0.02062525
#
# Stress axis : x y z
#
# Youngs Moduli (GPa) = 71.29759 68.31438 96.17480
#
# Poissons Ratio (x) = 0.44265 0.26600
# Poissons Ratio (y) = 0.46198 -0.00262
# Poissons Ratio (z) = 0.19719 -0.00186
#
# Static dielectric constant tensor:
#      x y z
#    x 3.439140 0.000000 0.000000 
#    y 0.000000 3.553710 0.000000 
#    z 0.000000 0.000000 3.622090 
# 
# 
# High freq. dielectric constant tensor:
#      x y z
#    x 1.731700 0.000000 0.000000 
#    y 0.000000 1.725590 0.000000 
#    z 0.000000 0.000000 1.764800 
# 
# From -- ./inp_files/5833.got.cif
#   From: 2010.03.12/outbox.cif.g09.slc.cpg/sg24_3_cif.got.tgz:5833.got - 2010.04.14 03:06:53.
