data_PCOD8165382
_publ_section_title
;
Structure prediction by ZEFSAII (Michael W. Deem and Ramdas Pophale) SiO2 
 PCOD8165382
Probable space group: I 21 21 21
;
_chemical_formula_sum "Si O2"
_cell_formula_units_Z 52
_cell_length_a 15.908320
_cell_length_b 7.057055
_cell_length_c 24.915393
_cell_angle_alpha 90.000000
_cell_angle_beta 90.000000
_cell_angle_gamma 90.000000
_cell_volume 2797.148750
_symmetry_space_group_name_H-M "I 21 21 21"
_symmetry_group_IT_number 24
_symmetry_cell_setting 'orthorhombic'
loop_
_space_group_symop_operation_xyz
x,y,z
-x,1/2-y,z
x,-y,1/2-z
1/2-x,y,-z
1/2+x,1/2+y,1/2+z
1/2-x,-y,1/2+z
1/2+x,1/2-y,-z
-x,1/2+y,1/2-z
loop_
_atom_site_type_symbol
_atom_site_label
_atom_site_fract_x
_atom_site_fract_y
_atom_site_fract_z
Si Si1 0.408472 0.262725 0.465057
Si Si2 0.171001 0.056731 0.034588
Si Si3 0.691234 0.847944 0.784732
Si Si4 0.892907 0.500000 0.250000
Si Si5 0.609064 0.036650 0.939464
Si Si6 0.474213 0.463775 0.831947
Si Si7 0.753675 0.765940 0.102723
O O1 0.500000 0.250000 0.437655
O O2 0.389509 0.073600 0.498754
O O3 0.413283 0.445811 0.503704
O O4 0.340749 0.289602 0.418448
O O5 0.204126 0.930650 0.084146
O O6 0.250000 0.129463 0.000000
O O7 0.119727 0.236712 0.056068
O O8 0.666238 0.681940 0.743155
O O9 0.747120 0.765241 0.832956
O O10 0.745299 0.000000 0.750000
O O11 0.612028 0.971775 0.805279
O O12 0.947352 0.567407 0.197240
O O13 0.533646 0.998488 0.896173
O O14 0.696092 0.946452 0.919512
O O15 0.500000 0.250000 0.818092
#
# Coordination Sequence:
#
# PCOD8165382 Si02
#       7
#     8   8   8   4   8   8   8
#     4  10  21  36  53  81 109 139 183 235 275 324
#     4   9  18  35  54  77 111 144 180 219 263 325
#     4  11  22  37  54  75 104 146 188 223 266 325
#     4  12  22  38  52  74 116 148 178 226 262 314
#     4  10  21  33  55  79 111 153 183 212 266 331
#     4  11  21  33  48  76 116 146 175 211 257 313
#     4   9  21  37  54  77 107 146 187 222 276 328
#
# _framework density 18.590357999999998
#
# number of rings (size 3 to 8) (size 9 to 14) (size 15 to 20)
#    0.000    1.846    2.308    2.769    4.308    2.462 
#    0.000    0.000    0.000    0.000    2.000    0.000 
#    0.000    0.000    0.000    0.000    0.000    0.000 
#
# Total GULP energy -322221.740895 kJ/mol
# GULP energy per Si atom -12393.143881 kJ/mol
# Density = 1.854805 g / cm^3
# Si number density = 18.590358 Si / 1000 Ang^3
#
#
#
# Elastic Constant Matrix: (Units=GPa)
#
#
# Indices 1 2 3 4 5 6 
#
# 1 90.8977 29.6272 47.1542 0.0000 0.0000 0.0000
# 2 29.6272 105.9121 39.1529 0.0000 0.0000 0.0000
# 3 47.1542 39.1529 109.4336 0.0000 0.0000 0.0000
# 4 0.0000 0.0000 0.0000 24.2884 0.0000 0.0000
# 5 0.0000 0.0000 0.0000 0.0000 18.3534 0.0000
# 6 0.0000 0.0000 0.0000 0.0000 0.0000 13.8528
#
#
#
# Elastic Compliance Matrix: (Units=1/GPa)
#
#
# Indices 1 2 3 4 5 6 
#
# 1 0.014533 -0.002017 -0.005540 0.000000 0.000000 0.000000
# 2 -0.002017 0.011161 -0.003124 0.000000 0.000000 0.000000
# 3 -0.005540 -0.003124 0.012643 0.000000 0.000000 0.000000
# 4 0.000000 0.000000 0.000000 0.041172 0.000000 0.000000
# 5 0.000000 0.000000 0.000000 0.000000 0.054486 0.000000
# 6 0.000000 0.000000 0.000000 0.000000 0.000000 0.072188
#
#
# Mechanical properties :
#
#
# Convention : Reuss Voigt Hill
#
# Bulk Modulus (GPa) = 58.91463 59.79022 59.35243
# Shear Modulus (GPa) = 21.44050 23.98618 22.71334
#
# Velocity S-wave (km/s) = 3.39973 3.59590 3.49919
# Velocity P-wave (km/s) = 6.86809 7.03366 6.95137
#
# Compressibility (1/GPa) = 0.01697371
#
# Stress axis : x y z
#
# Youngs Moduli (GPa) = 68.80865 89.59850 79.09529
#
# Poissons Ratio (x) = 0.18074 0.43823
# Poissons Ratio (y) = 0.13880 0.24709
# Poissons Ratio (z) = 0.38123 0.27990
#
# Static dielectric constant tensor:
#      x y z
#    x 3.135170 0.000000 0.000000 
#    y 0.000000 3.492640 0.000000 
#    z 0.000000 0.000000 3.547420 
# 
# 
# High freq. dielectric constant tensor:
#      x y z
#    x 1.678870 0.000000 0.000000 
#    y 0.000000 1.738990 0.000000 
#    z 0.000000 0.000000 1.706270 
# 
# From -- ./inp_files/35794.got.cif
#   From: 2010.03.12/outbox.cif.g09.slc.cpg/sg24_18_cif.got.tgz:35794.got - 2010.04.14 03:06:53.
