data_PCOD8165798
_publ_section_title
;
Structure prediction by ZEFSAII (Michael W. Deem and Ramdas Pophale) SiO2 
 PCOD8165798
Probable space group: I 21 21 21
;
_chemical_formula_sum "Si O2"
_cell_formula_units_Z 32
_cell_length_a 12.998722
_cell_length_b 7.716708
_cell_length_c 12.055547
_cell_angle_alpha 90.000000
_cell_angle_beta 90.000000
_cell_angle_gamma 90.000000
_cell_volume 1209.259876
_symmetry_space_group_name_H-M "I 21 21 21"
_symmetry_group_IT_number 24
_symmetry_cell_setting 'orthorhombic'
loop_
_space_group_symop_operation_xyz
x,y,z
-x,1/2-y,z
x,-y,1/2-z
1/2-x,y,-z
1/2+x,1/2+y,1/2+z
1/2-x,-y,1/2+z
1/2+x,1/2-y,-z
-x,1/2+y,1/2-z
loop_
_atom_site_type_symbol
_atom_site_label
_atom_site_fract_x
_atom_site_fract_y
_atom_site_fract_z
Si Si1 0.250000 0.642785 0.500000
Si Si2 0.946579 0.000000 0.750000
Si Si3 0.092688 0.850577 0.168378
Si Si4 0.022672 0.556403 0.512167
Si Si5 0.290450 0.198959 0.236659
O O1 0.145776 0.523849 0.496310
O O2 0.255172 0.765025 0.390977
O O3 0.013557 0.967433 0.639477
O O4 0.881716 0.825946 0.770996
O O5 0.200337 0.746125 0.172540
O O6 0.000000 0.750000 0.228564
O O7 0.128227 0.000000 0.250000
O O8 0.047738 0.917940 0.052097
O O9 0.000000 0.750000 0.470679
O O10 0.327834 0.000000 0.250000
#
# Coordination Sequence:
#
# PCOD8165798 Si02
#       5
#     4   4   8   8   8
#     4  10  22  44  78 104 148 196 240 318 378 452
#     4  10  26  48  74 100 148 206 244 310 382 452
#     4  11  23  39  71 109 145 185 244 309 374 447
#     4  11  24  47  73 104 149 196 248 309 383 452
#     4  10  22  45  71 106 145 189 247 303 376 450
#
# _framework density 26.462467
#
# number of rings (size 3 to 8) (size 9 to 14) (size 15 to 20)
#    0.000    1.500    0.000    5.250    8.750    1.000 
#   27.000    0.000    0.000    0.000    0.000    0.000 
#    0.000    0.000    0.000    0.000    0.000    0.000 
#
# Total GULP energy -198235.271389 kJ/mol
# GULP energy per Si atom -12389.704462 kJ/mol
# Density = 2.640224 g / cm^3
# Si number density = 26.462467 Si / 1000 Ang^3
#
#
#
# Elastic Constant Matrix: (Units=GPa)
#
#
# Indices 1 2 3 4 5 6 
#
# 1 109.0717 -0.9034 45.1473 0.0000 0.0000 0.0000
# 2 -0.9034 66.4866 21.0815 0.0000 0.0000 0.0000
# 3 45.1473 21.0815 146.0949 0.0000 0.0000 0.0000
# 4 0.0000 0.0000 0.0000 38.1733 0.0000 0.0000
# 5 0.0000 0.0000 0.0000 0.0000 37.8787 0.0000
# 6 0.0000 0.0000 0.0000 0.0000 0.0000 27.9407
#
#
#
# Elastic Compliance Matrix: (Units=1/GPa)
#
#
# Indices 1 2 3 4 5 6 
#
# 1 0.010610 0.001241 -0.003458 0.000000 0.000000 0.000000
# 2 0.001241 0.015907 -0.002679 0.000000 0.000000 0.000000
# 3 -0.003458 -0.002679 0.008300 0.000000 0.000000 0.000000
# 4 0.000000 0.000000 0.000000 0.026196 0.000000 0.000000
# 5 0.000000 0.000000 0.000000 0.000000 0.026400 0.000000
# 6 0.000000 0.000000 0.000000 0.000000 0.000000 0.035790
#
#
# Mechanical properties :
#
#
# Convention : Reuss Voigt Hill
#
# Bulk Modulus (GPa) = 39.96040 50.25599 45.10820
# Shear Modulus (GPa) = 35.37658 37.88706 36.63182
#
# Velocity S-wave (km/s) = 3.66027 3.78792 3.72465
# Velocity P-wave (km/s) = 5.74431 6.17769 5.96493
#
# Compressibility (1/GPa) = 0.02502477
#
# Stress axis : x y z
#
# Youngs Moduli (GPa) = 94.25262 62.86599 120.48293
#
# Poissons Ratio (x) = -0.07799 0.41660
# Poissons Ratio (y) = -0.11692 0.32274
# Poissons Ratio (z) = 0.32590 0.16840
#
# Static dielectric constant tensor:
#      x y z
#    x 5.614570 0.000000 0.000000 
#    y 0.000000 4.893230 0.000000 
#    z 0.000000 0.000000 4.841450 
# 
# 
# High freq. dielectric constant tensor:
#      x y z
#    x 2.085780 0.000000 0.000000 
#    y 0.000000 2.056860 0.000000 
#    z 0.000000 0.000000 2.056510 
# 
# From -- ./inp_files/10437.got.cif
#   From: 2010.03.12/outbox.cif.g09.slc.cpg/sg24_6_cif.got.tgz:10437.got - 2010.04.14 03:06:53.
