data_PCOD8165276
_publ_section_title
;
Structure prediction by ZEFSAII (Michael W. Deem and Ramdas Pophale) SiO2 
 PCOD8165276
Probable space group: I 21 21 21
;
_chemical_formula_sum "Si O2"
_cell_formula_units_Z 60
_cell_length_a 8.799167
_cell_length_b 16.640500
_cell_length_c 19.118820
_cell_angle_alpha 90.000000
_cell_angle_beta 90.000000
_cell_angle_gamma 90.000000
_cell_volume 2799.426157
_symmetry_space_group_name_H-M "I 21 21 21"
_symmetry_group_IT_number 24
_symmetry_cell_setting 'orthorhombic'
loop_
_space_group_symop_operation_xyz
x,y,z
-x,1/2-y,z
x,-y,1/2-z
1/2-x,y,-z
1/2+x,1/2+y,1/2+z
1/2-x,-y,1/2+z
1/2+x,1/2-y,-z
-x,1/2+y,1/2-z
loop_
_atom_site_type_symbol
_atom_site_label
_atom_site_fract_x
_atom_site_fract_y
_atom_site_fract_z
Si Si1 0.723994 0.355335 0.839647
Si Si2 0.316702 0.603394 0.927547
Si Si3 0.500000 0.750000 0.904805
Si Si4 0.562117 0.101481 0.327546
Si Si5 0.769364 0.350042 0.317903
Si Si6 0.830621 0.784000 0.570924
Si Si7 0.052466 0.415690 0.833332
Si Si8 0.018835 0.001570 0.327988
O O1 0.728304 0.319645 0.761703
O O2 0.719373 0.281373 0.893239
O O3 0.579294 0.413824 0.851251
O O4 0.877243 0.404596 0.852461
O O5 0.431345 0.676076 0.949346
O O6 0.190606 0.642668 0.875692
O O7 0.401510 0.531713 0.886425
O O8 0.250000 0.568608 0.000000
O O9 0.363184 0.784141 0.858934
O O10 0.401421 0.141776 0.347687
O O11 0.590410 0.112544 0.245343
O O12 0.580256 0.008450 0.347650
O O13 0.838279 0.439153 0.322102
O O14 0.750000 0.809722 0.500000
O O15 0.837085 0.863705 0.618020
O O16 0.000000 0.750000 0.559627
O O17 0.941453 0.000000 0.250000
#
# Coordination Sequence:
#
# PCOD8165276 Si02
#       8
#     8   8   4   8   8   8   8   8
#     4   9  17  37  66  92 123 169 217 262 322 378
#     4  11  26  43  60  95 130 169 217 266 334 394
#     4  10  24  42  62  90 134 158 208 272 326 400
#     4  10  20  38  67  94 121 164 216 266 323 376
#     4   9  18  37  67  97 121 162 214 269 327 388
#     4  10  22  41  58  90 135 173 216 259 314 388
#     4   9  19  37  67  92 124 162 216 267 309 380
#     4   9  18  39  66  94 130 164 212 272 322 391
#
# _framework density 21.432964999999999
#
# number of rings (size 3 to 8) (size 9 to 14) (size 15 to 20)
#    0.000    2.400    1.333    0.000    3.733    2.133 
#    8.400    2.000    0.000    0.000    0.000    0.000 
#    0.000    0.000    0.000    0.000    0.000    0.000 
#
# Total GULP energy -371905.794713 kJ/mol
# GULP energy per Si atom -12396.859824 kJ/mol
# Density = 2.138418 g / cm^3
# Si number density = 21.432965 Si / 1000 Ang^3
#
#
#
# Elastic Constant Matrix: (Units=GPa)
#
#
# Indices 1 2 3 4 5 6 
#
# 1 104.3552 41.6595 59.7222 0.0000 0.0000 0.0000
# 2 41.6595 97.6666 55.5671 0.0000 0.0000 0.0000
# 3 59.7222 55.5671 123.8416 0.0000 0.0000 0.0000
# 4 0.0000 0.0000 0.0000 26.8689 0.0000 0.0000
# 5 0.0000 0.0000 0.0000 0.0000 35.4809 0.0000
# 6 0.0000 0.0000 0.0000 0.0000 0.0000 30.6391
#
#
#
# Elastic Compliance Matrix: (Units=1/GPa)
#
#
# Indices 1 2 3 4 5 6 
#
# 1 0.013790 -0.002818 -0.005386 0.000000 0.000000 0.000000
# 2 -0.002818 0.014325 -0.005068 0.000000 0.000000 0.000000
# 3 -0.005386 -0.005068 0.012946 0.000000 0.000000 0.000000
# 4 0.000000 0.000000 0.000000 0.037218 0.000000 0.000000
# 5 0.000000 0.000000 0.000000 0.000000 0.028184 0.000000
# 6 0.000000 0.000000 0.000000 0.000000 0.000000 0.032638
#
#
# Mechanical properties :
#
#
# Convention : Reuss Voigt Hill
#
# Bulk Modulus (GPa) = 68.88679 71.08455 69.98567
# Shear Modulus (GPa) = 29.32834 29.85874 29.59354
#
# Velocity S-wave (km/s) = 3.70317 3.73650 3.71987
# Velocity P-wave (km/s) = 7.10598 7.20092 7.15361
#
# Compressibility (1/GPa) = 0.01451657
#
# Stress axis : x y z
#
# Youngs Moduli (GPa) = 72.51736 69.81024 77.24220
#
# Poissons Ratio (x) = 0.19671 0.41601
# Poissons Ratio (y) = 0.20434 0.39150
# Poissons Ratio (z) = 0.39056 0.35383
#
# Static dielectric constant tensor:
#      x y z
#    x 3.895930 0.000000 0.000000 
#    y 0.000000 3.790750 0.000000 
#    z 0.000000 0.000000 3.608630 
# 
# 
# High freq. dielectric constant tensor:
#      x y z
#    x 1.846100 0.000000 0.000000 
#    y 0.000000 1.840210 0.000000 
#    z 0.000000 0.000000 1.818580 
# 
# From -- ./inp_files/29691.got.cif
#   From: 2010.03.12/outbox.cif.g09.slc.cpg/sg24_15_cif.got.tgz:29691.got - 2010.04.14 03:06:53.
