data_PCOD8165259
_publ_section_title
;
Structure prediction by ZEFSAII (Michael W. Deem and Ramdas Pophale) SiO2 
 PCOD8165259
Probable space group: I 21 21 21
;
_chemical_formula_sum "Si O2"
_cell_formula_units_Z 64
_cell_length_a 17.533225
_cell_length_b 19.790153
_cell_length_c 9.578944
_cell_angle_alpha 90.000000
_cell_angle_beta 90.000000
_cell_angle_gamma 90.000000
_cell_volume 3323.751851
_symmetry_space_group_name_H-M "I 21 21 21"
_symmetry_group_IT_number 24
_symmetry_cell_setting 'orthorhombic'
loop_
_space_group_symop_operation_xyz
x,y,z
-x,1/2-y,z
x,-y,1/2-z
1/2-x,y,-z
1/2+x,1/2+y,1/2+z
1/2-x,-y,1/2+z
1/2+x,1/2-y,-z
-x,1/2+y,1/2-z
loop_
_atom_site_type_symbol
_atom_site_label
_atom_site_fract_x
_atom_site_fract_y
_atom_site_fract_z
Si Si1 0.695053 0.302995 0.159739
Si Si2 0.926446 0.129661 0.983120
Si Si3 0.836394 0.146855 0.461122
Si Si4 0.652763 0.226695 0.816608
Si Si5 0.725123 0.437214 0.844906
Si Si6 0.404968 0.852662 0.597220
Si Si7 0.077660 0.289397 0.707792
Si Si8 0.173673 0.506229 0.418369
O O1 0.760340 0.246216 0.152280
O O2 0.729016 0.373282 0.218820
O O3 0.633479 0.272611 0.262165
O O4 0.657298 0.320795 0.011082
O O5 0.925334 0.148216 0.818861
O O6 0.877427 0.189582 0.046299
O O7 0.013435 0.131072 0.035517
O O8 0.891950 0.057595 0.029581
O O9 0.750000 0.166521 0.500000
O O10 0.854153 0.173704 0.307902
O O11 0.898116 0.178734 0.562581
O O12 0.850380 0.067151 0.470801
O O13 0.596479 0.291797 0.788387
O O14 0.744246 0.500000 0.750000
O O15 0.633867 0.420638 0.842828
O O16 0.750000 0.456620 0.000000
O O17 0.000000 0.250000 0.692191
O O18 0.185429 0.500000 0.250000
O O19 0.250000 0.529651 0.500000
#
# Coordination Sequence:
#
# PCOD8165259 Si02
#       8
#     8   8   8   8   8   8   8   8
#     4  10  20  38  64  93 122 160 213 262 305 381
#     4  12  24  38  70  91 127 174 212 264 317 390
#     4  11  25  43  62  92 136 163 210 275 322 376
#     4  11  20  38  67  93 122 167 210 267 320 366
#     4   9  20  40  64  88 125 163 210 264 307 380
#     4  10  21  39  64  99 125 158 220 260 317 386
#     4  12  24  41  66  99 130 163 212 266 327 385
#     4  11  27  45  64  95 127 175 226 265 320 391
#
# _framework density 19.255348000000001
#
# number of rings (size 3 to 8) (size 9 to 14) (size 15 to 20)
#    0.000    1.250    5.000    1.500    5.250    1.500 
#    4.500    2.500    0.000    0.000    0.000    0.000 
#    0.000    0.000    0.000    0.000    0.000    0.000 
#
# Total GULP energy -396559.276816 kJ/mol
# GULP energy per Si atom -12392.477400 kJ/mol
# Density = 1.921152 g / cm^3
# Si number density = 19.255348 Si / 1000 Ang^3
#
#
#
# Elastic Constant Matrix: (Units=GPa)
#
#
# Indices 1 2 3 4 5 6 
#
# 1 128.1928 52.2974 36.5973 0.0000 0.0000 0.0000
# 2 52.2974 100.4546 24.3516 0.0000 0.0000 0.0000
# 3 36.5973 24.3516 54.2883 0.0000 0.0000 0.0000
# 4 0.0000 0.0000 0.0000 27.8586 0.0000 0.0000
# 5 0.0000 0.0000 0.0000 0.0000 41.2975 0.0000
# 6 0.0000 0.0000 0.0000 0.0000 0.0000 -58.2621
#
#
#
# Elastic Compliance Matrix: (Units=1/GPa)
#
#
# Indices 1 2 3 4 5 6 
#
# 1 0.011218 -0.004496 -0.005546 0.000000 0.000000 0.000000
# 2 -0.004496 0.012971 -0.002788 0.000000 0.000000 0.000000
# 3 -0.005546 -0.002788 0.023409 0.000000 0.000000 0.000000
# 4 0.000000 0.000000 0.000000 0.035896 0.000000 0.000000
# 5 0.000000 0.000000 0.000000 0.000000 0.024215 0.000000
# 6 0.000000 0.000000 0.000000 0.000000 0.000000 -0.017164
#
#
# Mechanical properties :
#
#
# Convention : Reuss Voigt Hill
#
# Bulk Modulus (GPa) = 45.57892 56.60314 51.09103
# Shear Modulus (GPa) = 40.48052 13.49143 26.98598
#
# Velocity S-wave (km/s) = 4.59006 2.64987 3.74770
# Velocity P-wave (km/s) = 7.19817 6.23075 6.73186
#
# Compressibility (1/GPa) = 0.02193997
#
# Stress axis : x y z
#
# Youngs Moduli (GPa) = 89.14146 77.09472 42.71840
#
# Poissons Ratio (x) = 0.34661 0.23691
# Poissons Ratio (y) = 0.40077 0.11908
# Poissons Ratio (z) = 0.49436 0.21490
#
# Static dielectric constant tensor:
#      x y z
#    x 3.635350 0.000000 0.000000 
#    y 0.000000 3.645550 0.000000 
#    z 0.000000 0.000000 4.154310 
# 
# 
# High freq. dielectric constant tensor:
#      x y z
#    x 1.755120 0.000000 0.000000 
#    y 0.000000 1.757340 0.000000 
#    z 0.000000 0.000000 1.735150 
# 
# From -- ./inp_files/14611.got.cif
#   From: 2010.03.12/outbox.cif.g09.slc.cpg/sg24_8_cif.got.tgz:14611.got - 2010.04.14 03:06:53.
