data_PCOD8165772
_publ_section_title
;
Structure prediction by ZEFSAII (Michael W. Deem and Ramdas Pophale) SiO2 
 PCOD8165772
Probable space group: I 21 21 21
;
_chemical_formula_sum "Si O2"
_cell_formula_units_Z 48
_cell_length_a 14.374851
_cell_length_b 18.348658
_cell_length_c 8.627686
_cell_angle_alpha 90.000000
_cell_angle_beta 90.000000
_cell_angle_gamma 90.000000
_cell_volume 2275.631771
_symmetry_space_group_name_H-M "I 21 21 21"
_symmetry_group_IT_number 24
_symmetry_cell_setting 'orthorhombic'
loop_
_space_group_symop_operation_xyz
x,y,z
-x,1/2-y,z
x,-y,1/2-z
1/2-x,y,-z
1/2+x,1/2+y,1/2+z
1/2-x,-y,1/2+z
1/2+x,1/2-y,-z
-x,1/2+y,1/2-z
loop_
_atom_site_type_symbol
_atom_site_label
_atom_site_fract_x
_atom_site_fract_y
_atom_site_fract_z
Si Si1 0.656062 0.518692 0.924190
Si Si2 0.427599 0.160462 0.642366
Si Si3 0.943867 0.820473 0.422393
Si Si4 0.911853 0.709154 0.813321
Si Si5 0.964469 0.569288 0.644640
Si Si6 0.275801 0.230108 0.839967
O O1 0.681689 0.500000 0.750000
O O2 0.576020 0.579653 0.926394
O O3 0.750000 0.549207 0.000000
O O4 0.614518 0.451912 0.021267
O O5 0.519255 0.166165 0.747077
O O6 0.421864 0.216438 0.499104
O O7 0.336491 0.173093 0.745704
O O8 0.834947 0.802135 0.393382
O O9 0.000000 0.750000 0.488780
O O10 0.955567 0.888977 0.541608
O O11 0.913884 0.625026 0.760787
O O12 0.817884 0.749840 0.755776
O O13 0.000000 0.750000 0.738320
O O14 0.000746 0.500000 0.750000
O O15 0.250000 0.189361 0.000000
#
# Coordination Sequence:
#
# PCOD8165772 Si02
#       6
#     8   8   8   8   8   8
#     4  12  25  38  60  93 138 178 214 272 346 423
#     4  11  23  41  63  96 137 171 223 272 341 415
#     4  10  22  43  64  93 132 187 226 274 337 418
#     4  12  24  41  66 102 131 172 227 287 342 406
#     4  12  24  40  63  97 137 181 226 279 352 413
#     4  11  23  39  65  94 130 175 221 278 331 408
#
# _framework density 21.093043000000002
#
# number of rings (size 3 to 8) (size 9 to 14) (size 15 to 20)
#    0.000    0.667    3.333    7.000    2.333    0.000 
#    0.000    0.000    0.000    0.000   26.000    0.000 
#    0.000    0.000    0.000    0.000    0.000    0.000 
#
# Total GULP energy -297413.854879 kJ/mol
# GULP energy per Si atom -12392.243953 kJ/mol
# Density = 2.104503 g / cm^3
# Si number density = 21.093043 Si / 1000 Ang^3
#
#
#
# Elastic Constant Matrix: (Units=GPa)
#
#
# Indices 1 2 3 4 5 6 
#
# 1 118.9220 44.7297 44.0690 0.0000 0.0000 0.0000
# 2 44.7297 96.3007 45.7224 0.0000 0.0000 0.0000
# 3 44.0690 45.7224 164.0871 0.0000 0.0000 0.0000
# 4 0.0000 0.0000 0.0000 40.2255 0.0000 0.0000
# 5 0.0000 0.0000 0.0000 0.0000 26.6963 0.0000
# 6 0.0000 0.0000 0.0000 0.0000 0.0000 25.1436
#
#
#
# Elastic Compliance Matrix: (Units=1/GPa)
#
#
# Indices 1 2 3 4 5 6 
#
# 1 0.010584 -0.004110 -0.001697 0.000000 0.000000 0.000000
# 2 -0.004110 0.013564 -0.002676 0.000000 0.000000 0.000000
# 3 -0.001697 -0.002676 0.007296 0.000000 0.000000 0.000000
# 4 0.000000 0.000000 0.000000 0.024860 0.000000 0.000000
# 5 0.000000 0.000000 0.000000 0.000000 0.037458 0.000000
# 6 0.000000 0.000000 0.000000 0.000000 0.000000 0.039771
#
#
# Mechanical properties :
#
#
# Convention : Reuss Voigt Hill
#
# Bulk Modulus (GPa) = 69.07440 72.03911 70.55676
# Shear Modulus (GPa) = 32.19073 34.73233 33.46153
#
# Velocity S-wave (km/s) = 3.91081 4.06226 3.98726
# Velocity P-wave (km/s) = 7.29460 7.49865 7.39733
#
# Compressibility (1/GPa) = 0.01447714
#
# Stress axis : x y z
#
# Youngs Moduli (GPa) = 94.48463 73.72704 137.06721
#
# Poissons Ratio (x) = 0.30303 0.23263
# Poissons Ratio (y) = 0.38834 0.36673
# Poissons Ratio (z) = 0.16036 0.19726
#
# Static dielectric constant tensor:
#      x y z
#    x 3.641530 0.000000 0.000000 
#    y 0.000000 3.747750 0.000000 
#    z 0.000000 0.000000 4.218990 
# 
# 
# High freq. dielectric constant tensor:
#      x y z
#    x 1.797670 0.000000 0.000000 
#    y 0.000000 1.802840 0.000000 
#    z 0.000000 0.000000 1.870310 
# 
# From -- ./inp_files/12789.got.cif
#   From: 2010.03.12/outbox.cif.g09.slc.cpg/sg24_7_cif.got.tgz:12789.got - 2010.04.14 03:06:53.
