data_PCOD8165227
_publ_section_title
;
Structure prediction by ZEFSAII (Michael W. Deem and Ramdas Pophale) SiO2 
 PCOD8165227
Probable space group: I 21 21 21
;
_chemical_formula_sum "Si O2"
_cell_formula_units_Z 32
_cell_length_a 12.766113
_cell_length_b 8.365858
_cell_length_c 12.737338
_cell_angle_alpha 90.000000
_cell_angle_beta 90.000000
_cell_angle_gamma 90.000000
_cell_volume 1360.341184
_symmetry_space_group_name_H-M "I 21 21 21"
_symmetry_group_IT_number 24
_symmetry_cell_setting 'orthorhombic'
loop_
_space_group_symop_operation_xyz
x,y,z
-x,1/2-y,z
x,-y,1/2-z
1/2-x,y,-z
1/2+x,1/2+y,1/2+z
1/2-x,-y,1/2+z
1/2+x,1/2-y,-z
-x,1/2+y,1/2-z
loop_
_atom_site_type_symbol
_atom_site_label
_atom_site_fract_x
_atom_site_fract_y
_atom_site_fract_z
Si Si1 0.049398 0.422342 0.557724
Si Si2 0.416570 0.383844 0.665459
Si Si3 0.196523 0.262340 0.709511
Si Si4 0.166066 0.934472 0.591693
O O1 0.111303 0.459995 0.448933
O O2 0.127106 0.408383 0.659202
O O3 0.000000 0.250000 0.554050
O O4 0.956543 0.553429 0.560886
O O5 0.500000 0.250000 0.641118
O O6 0.470911 0.500000 0.750000
O O7 0.313455 0.322505 0.721931
O O8 0.200509 0.104649 0.637764
O O9 0.161553 0.212391 0.826157
O O10 0.250000 0.892981 0.500000
#
# Coordination Sequence:
#
# PCOD8165227 Si02
#       4
#     8   8   8   8
#     4   9  19  40  67  95 131 180 228 274 347 420
#     4  11  24  40  70  98 137 179 236 288 351 417
#     4  10  21  40  67  97 137 183 231 281 358 419
#     4  10  20  37  72 100 130 182 234 290 336 423
#
# _framework density 23.523510999999999
#
# number of rings (size 3 to 8) (size 9 to 14) (size 15 to 20)
#    0.000    2.000    0.000    5.250    7.000    0.000 
#   13.500    2.500   11.000    0.000    0.000    0.000 
#    0.000    0.000    0.000    0.000    0.000    0.000 
#
# Total GULP energy -198212.180144 kJ/mol
# GULP energy per Si atom -12388.261259 kJ/mol
# Density = 2.346997 g / cm^3
# Si number density = 23.523511 Si / 1000 Ang^3
#
#
#
# Elastic Constant Matrix: (Units=GPa)
#
#
# Indices 1 2 3 4 5 6 
#
# 1 128.3906 26.9852 48.5240 0.0000 0.0000 0.0000
# 2 26.9852 32.1393 34.4333 0.0000 0.0000 0.0000
# 3 48.5240 34.4333 163.0497 0.0000 0.0000 0.0000
# 4 0.0000 0.0000 0.0000 19.2400 0.0000 0.0000
# 5 0.0000 0.0000 0.0000 0.0000 65.1355 0.0000
# 6 0.0000 0.0000 0.0000 0.0000 0.0000 23.2345
#
#
#
# Elastic Compliance Matrix: (Units=1/GPa)
#
#
# Indices 1 2 3 4 5 6 
#
# 1 0.009739 -0.006555 -0.001514 0.000000 0.000000 0.000000
# 2 -0.006555 0.044625 -0.007473 0.000000 0.000000 0.000000
# 3 -0.001514 -0.007473 0.008162 0.000000 0.000000 0.000000
# 4 0.000000 0.000000 0.000000 0.051975 0.000000 0.000000
# 5 0.000000 0.000000 0.000000 0.000000 0.015353 0.000000
# 6 0.000000 0.000000 0.000000 0.000000 0.000000 0.043039
#
#
# Mechanical properties :
#
#
# Convention : Reuss Voigt Hill
#
# Bulk Modulus (GPa) = 31.80533 60.38496 46.09515
# Shear Modulus (GPa) = 23.31467 35.76446 29.53957
#
# Velocity S-wave (km/s) = 3.15162 3.90342 3.54750
# Velocity P-wave (km/s) = 5.17626 6.78538 6.03469
#
# Compressibility (1/GPa) = 0.03144127
#
# Stress axis : x y z
#
# Youngs Moduli (GPa) = 102.68391 22.40897 122.52056
#
# Poissons Ratio (x) = 0.14689 0.18549
# Poissons Ratio (y) = 0.67308 0.91563
# Poissons Ratio (z) = 0.15546 0.16747
#
# Static dielectric constant tensor:
#      x y z
#    x 4.420310 0.000000 0.000000 
#    y 0.000000 3.018130 0.000000 
#    z 0.000000 0.000000 4.937930 
# 
# 
# High freq. dielectric constant tensor:
#      x y z
#    x 1.930570 0.000000 0.000000 
#    y 0.000000 1.905130 0.000000 
#    z 0.000000 0.000000 1.945960 
# 
# From -- ./inp_files/10277.got.cif
#   From: 2010.03.12/outbox.cif.g09.slc.cpg/sg24_6_cif.got.tgz:10277.got - 2010.04.14 03:06:53.
