data_PCOD8165556
_publ_section_title
;
Structure prediction by ZEFSAII (Michael W. Deem and Ramdas Pophale) SiO2 
 PCOD8165556
Probable space group: I 21 21 21
;
_chemical_formula_sum "Si O2"
_cell_formula_units_Z 64
_cell_length_a 18.483450
_cell_length_b 18.830569
_cell_length_c 9.253093
_cell_angle_alpha 90.000000
_cell_angle_beta 90.000000
_cell_angle_gamma 90.000000
_cell_volume 3220.574926
_symmetry_space_group_name_H-M "I 21 21 21"
_symmetry_group_IT_number 24
_symmetry_cell_setting 'orthorhombic'
loop_
_space_group_symop_operation_xyz
x,y,z
-x,1/2-y,z
x,-y,1/2-z
1/2-x,y,-z
1/2+x,1/2+y,1/2+z
1/2-x,-y,1/2+z
1/2+x,1/2-y,-z
-x,1/2+y,1/2-z
loop_
_atom_site_type_symbol
_atom_site_label
_atom_site_fract_x
_atom_site_fract_y
_atom_site_fract_z
Si Si1 0.276812 0.340206 0.648190
Si Si2 0.046110 0.066738 0.830283
Si Si3 0.959607 0.677841 0.916211
Si Si4 0.702841 0.057796 0.130819
Si Si5 0.211016 0.063470 0.847710
Si Si6 0.293558 0.186431 0.371698
Si Si7 0.568576 0.104825 0.630516
Si Si8 0.068893 0.444813 0.048621
O O1 0.250000 0.376825 0.500000
O O2 0.250590 0.381947 0.790372
O O3 0.243550 0.261785 0.661655
O O4 0.363727 0.340931 0.627050
O O5 0.033493 0.134105 0.730414
O O6 0.127400 0.046845 0.873804
O O7 0.010079 0.000000 0.750000
O O8 0.007230 0.076193 0.981434
O O9 0.874620 0.693229 0.936012
O O10 0.000000 0.750000 0.884941
O O11 0.997495 0.638981 0.054139
O O12 0.681824 0.000000 0.250000
O O13 0.750000 0.024735 0.000000
O O14 0.630678 0.089171 0.055481
O O15 0.215401 0.139638 0.770778
O O16 0.244800 0.000000 0.750000
O O17 0.250000 0.067880 0.000000
O O18 0.250000 0.147680 0.500000
O O19 0.557767 0.091796 0.798770
O O20 0.585821 0.029070 0.556626
#
# Coordination Sequence:
#
# PCOD8165556 Si02
#       8
#     8   8   8   8   8   8   8   8
#     4  11  23  40  62  93 131 175 220 268 318 395
#     4  10  21  41  63  93 124 165 215 269 323 394
#     4  11  23  40  67  92 126 175 219 266 329 397
#     4  12  23  36  59  90 134 181 221 262 313 377
#     4  10  22  42  66  94 123 157 214 278 334 399
#     4  10  23  42  65  93 124 166 218 272 335 390
#     4  11  23  42  61  96 135 169 220 266 327 394
#     4  11  23  39  63  95 134 172 216 266 323 390
#
# _framework density 19.872226999999999
#
# number of rings (size 3 to 8) (size 9 to 14) (size 15 to 20)
#    0.000    1.250    2.500    4.125    3.500    1.500 
#    2.250    0.625    0.000    0.000    0.000    0.000 
#    0.000    0.000    0.000    0.000    0.000    0.000 
#
# Total GULP energy -396569.095704 kJ/mol
# GULP energy per Si atom -12392.784241 kJ/mol
# Density = 1.982700 g / cm^3
# Si number density = 19.872227 Si / 1000 Ang^3
#
#
#
# Elastic Constant Matrix: (Units=GPa)
#
#
# Indices 1 2 3 4 5 6 
#
# 1 130.3047 49.6089 74.2732 0.0000 0.0000 0.0000
# 2 49.6089 82.7590 38.8368 0.0000 0.0000 0.0000
# 3 74.2732 38.8368 140.2541 0.0000 0.0000 0.0000
# 4 0.0000 0.0000 0.0000 18.7256 0.0000 0.0000
# 5 0.0000 0.0000 0.0000 0.0000 28.4477 0.0000
# 6 0.0000 0.0000 0.0000 0.0000 0.0000 17.3499
#
#
#
# Elastic Compliance Matrix: (Units=1/GPa)
#
#
# Indices 1 2 3 4 5 6 
#
# 1 0.012617 -0.005089 -0.005272 0.000000 0.000000 0.000000
# 2 -0.005089 0.015940 -0.001719 0.000000 0.000000 0.000000
# 3 -0.005272 -0.001719 0.010398 0.000000 0.000000 0.000000
# 4 0.000000 0.000000 0.000000 0.053403 0.000000 0.000000
# 5 0.000000 0.000000 0.000000 0.000000 0.035152 0.000000
# 6 0.000000 0.000000 0.000000 0.000000 0.000000 0.057637
#
#
# Mechanical properties :
#
#
# Convention : Reuss Voigt Hill
#
# Bulk Modulus (GPa) = 67.59145 75.41731 71.50438
# Shear Modulus (GPa) = 23.33833 25.61124 24.47478
#
# Velocity S-wave (km/s) = 3.43070 3.59387 3.51323
# Velocity P-wave (km/s) = 7.05548 7.43335 7.24688
#
# Compressibility (1/GPa) = 0.01479477
#
# Stress axis : x y z
#
# Youngs Moduli (GPa) = 79.25850 62.73334 96.17281
#
# Poissons Ratio (x) = 0.31924 0.50705
# Poissons Ratio (y) = 0.40334 0.16533
# Poissons Ratio (z) = 0.41788 0.10784
#
# Static dielectric constant tensor:
#      x y z
#    x 3.771900 0.000000 0.000000 
#    y 0.000000 3.521950 0.000000 
#    z 0.000000 0.000000 3.756040 
# 
# 
# High freq. dielectric constant tensor:
#      x y z
#    x 1.783510 0.000000 0.000000 
#    y 0.000000 1.764370 0.000000 
#    z 0.000000 0.000000 1.785430 
# 
# From -- ./inp_files/14592.got.cif
#   From: 2010.03.12/outbox.cif.g09.slc.cpg/sg24_8_cif.got.tgz:14592.got - 2010.04.14 03:06:53.
