data_PCOD8165239
_publ_section_title
;
Structure prediction by ZEFSAII (Michael W. Deem and Ramdas Pophale) SiO2 
 PCOD8165239
Probable space group: I 21 21 21
;
_chemical_formula_sum "Si O2"
_cell_formula_units_Z 60
_cell_length_a 22.756316
_cell_length_b 14.827667
_cell_length_c 8.816144
_cell_angle_alpha 90.000000
_cell_angle_beta 90.000000
_cell_angle_gamma 90.000000
_cell_volume 2974.770425
_symmetry_space_group_name_H-M "I 21 21 21"
_symmetry_group_IT_number 24
_symmetry_cell_setting 'orthorhombic'
loop_
_space_group_symop_operation_xyz
x,y,z
-x,1/2-y,z
x,-y,1/2-z
1/2-x,y,-z
1/2+x,1/2+y,1/2+z
1/2-x,-y,1/2+z
1/2+x,1/2-y,-z
-x,1/2+y,1/2-z
loop_
_atom_site_type_symbol
_atom_site_label
_atom_site_fract_x
_atom_site_fract_y
_atom_site_fract_z
Si Si1 0.750000 0.488065 0.500000
Si Si2 0.248532 0.869898 0.732287
Si Si3 0.132264 0.219817 0.153540
Si Si4 0.538019 0.407658 0.325691
Si Si5 0.473441 0.846218 0.847522
Si Si6 0.583340 0.911198 0.669505
Si Si7 0.412876 0.589966 0.318318
Si Si8 0.368705 0.779122 0.304420
O O1 0.782307 0.558933 0.612700
O O2 0.779267 0.419977 0.377772
O O3 0.300112 0.809099 0.666760
O O4 0.193339 0.807385 0.770310
O O5 0.088555 0.163129 0.259959
O O6 0.126493 0.325803 0.194690
O O7 0.117193 0.199097 0.979306
O O8 0.562778 0.500000 0.250000
O O9 0.535255 0.412202 0.508702
O O10 0.474234 0.386920 0.260835
O O11 0.580561 0.325062 0.291516
O O12 0.500000 0.750000 0.900036
O O13 0.518709 0.892650 0.733704
O O14 0.575008 0.929445 0.493167
O O15 0.610779 0.000000 0.750000
O O16 0.383798 0.500000 0.250000
O O17 0.369019 0.671454 0.284207
#
# Coordination Sequence:
#
# PCOD8165239 Si02
#       8
#     4   8   8   8   8   8   8   8
#     4  10  24  42  64  82 122 152 196 232 278 340
#     4  11  23  43  61  89 117 154 191 236 285 341
#     4  10  22  39  60  84 117 156 192 239 294 340
#     4  11  23  35  56  87 121 155 195 240 292 349
#     4  10  21  37  58  84 117 155 196 241 290 345
#     4  10  20  38  60  85 115 152 195 241 289 346
#     4  10  21  39  59  86 117 155 194 241 296 346
#     4  11  22  38  62  85 120 155 194 242 290 348
#
# _framework density 20.169625
#
# number of rings (size 3 to 8) (size 9 to 14) (size 15 to 20)
#    0.000    1.600    1.333    3.600    3.733    3.200 
#    2.400    0.667    0.000    0.000    0.000    0.000 
#    0.000    0.000    0.000    0.000    0.000    0.000 
#
# Total GULP energy -371647.621280 kJ/mol
# GULP energy per Si atom -12388.254043 kJ/mol
# Density = 2.012372 g / cm^3
# Si number density = 20.169625 Si / 1000 Ang^3
#
#
#
# Elastic Constant Matrix: (Units=GPa)
#
#
# Indices 1 2 3 4 5 6 
#
# 1 68.8623 42.9006 30.0233 0.0000 0.0000 0.0000
# 2 42.9006 124.2448 62.3733 0.0000 0.0000 0.0000
# 3 30.0233 62.3733 124.1711 0.0000 0.0000 0.0000
# 4 0.0000 0.0000 0.0000 39.3431 0.0000 0.0000
# 5 0.0000 0.0000 0.0000 0.0000 19.5293 0.0000
# 6 0.0000 0.0000 0.0000 0.0000 0.0000 12.1106
#
#
#
# Elastic Compliance Matrix: (Units=1/GPa)
#
#
# Indices 1 2 3 4 5 6 
#
# 1 0.018771 -0.005620 -0.001715 0.000000 0.000000 0.000000
# 2 -0.005620 0.012445 -0.004893 0.000000 0.000000 0.000000
# 3 -0.001715 -0.004893 0.010926 0.000000 0.000000 0.000000
# 4 0.000000 0.000000 0.000000 0.025417 0.000000 0.000000
# 5 0.000000 0.000000 0.000000 0.000000 0.051205 0.000000
# 6 0.000000 0.000000 0.000000 0.000000 0.000000 0.082572
#
#
# Mechanical properties :
#
#
# Convention : Reuss Voigt Hill
#
# Bulk Modulus (GPa) = 56.54330 65.31918 60.93124
# Shear Modulus (GPa) = 21.58065 26.32868 23.95466
#
# Velocity S-wave (km/s) = 3.27457 3.61690 3.44998
# Velocity P-wave (km/s) = 6.51090 7.06384 6.79300
#
# Compressibility (1/GPa) = 0.01768556
#
# Stress axis : x y z
#
# Youngs Moduli (GPa) = 53.27349 80.35062 91.52609
#
# Poissons Ratio (x) = 0.45159 0.15701
# Poissons Ratio (y) = 0.29941 0.44780
# Poissons Ratio (z) = 0.09139 0.39313
#
# Static dielectric constant tensor:
#      x y z
#    x 3.213050 0.000000 0.000000 
#    y 0.000000 3.953190 0.000000 
#    z 0.000000 0.000000 3.932830 
# 
# 
# High freq. dielectric constant tensor:
#      x y z
#    x 1.747660 0.000000 0.000000 
#    y 0.000000 1.800000 0.000000 
#    z 0.000000 0.000000 1.805600 
# 
# From -- ./inp_files/16008.got.cif
#   From: 2010.03.12/outbox.cif.g09.slc.cpg/sg24_9_cif.got.tgz:16008.got - 2010.04.14 03:06:53.
