data_PCOD8165343
_publ_section_title
;
Structure prediction by ZEFSAII (Michael W. Deem and Ramdas Pophale) SiO2 
 PCOD8165343
Probable space group: I 21 21 21
;
_chemical_formula_sum "Si O2"
_cell_formula_units_Z 60
_cell_length_a 26.976413
_cell_length_b 12.606497
_cell_length_c 8.651647
_cell_angle_alpha 90.000000
_cell_angle_beta 90.000000
_cell_angle_gamma 90.000000
_cell_volume 2942.235410
_symmetry_space_group_name_H-M "I 21 21 21"
_symmetry_group_IT_number 24
_symmetry_cell_setting 'orthorhombic'
loop_
_space_group_symop_operation_xyz
x,y,z
-x,1/2-y,z
x,-y,1/2-z
1/2-x,y,-z
1/2+x,1/2+y,1/2+z
1/2-x,-y,1/2+z
1/2+x,1/2-y,-z
-x,1/2+y,1/2-z
loop_
_atom_site_type_symbol
_atom_site_label
_atom_site_fract_x
_atom_site_fract_y
_atom_site_fract_z
Si Si1 0.732977 0.385602 0.678515
Si Si2 0.909426 0.308905 0.881908
Si Si3 0.963073 0.832220 0.853775
Si Si4 0.135376 0.373528 0.461886
Si Si5 0.805233 0.920998 0.516835
Si Si6 0.184022 0.730582 0.776579
Si Si7 0.965549 0.500000 0.750000
Si Si8 0.350007 0.245144 0.823607
O O1 0.743605 0.500000 0.750000
O O2 0.750000 0.390967 0.500000
O O3 0.766511 0.295568 0.757154
O O4 0.676801 0.350239 0.726742
O O5 0.946891 0.217928 0.814655
O O6 0.860486 0.305623 0.777653
O O7 0.932313 0.425673 0.860490
O O8 0.894006 0.294958 0.062089
O O9 0.000000 0.750000 0.939903
O O10 0.997119 0.934483 0.853844
O O11 0.915271 0.866161 0.946401
O O12 0.154698 0.494199 0.457613
O O13 0.177107 0.299076 0.543009
O O14 0.124846 0.328273 0.293016
O O15 0.750000 0.968446 0.500000
O O16 0.815546 0.884970 0.693041
O O17 0.809566 0.811973 0.419822
#
# Coordination Sequence:
#
# PCOD8165343 Si02
#       8
#     8   8   8   8   8   8   4   8
#     4  12  27  42  63  91 128 187 230 276 320 385
#     4   9  22  39  66  94 123 168 210 283 329 395
#     4   9  21  43  67  93 122 166 221 276 328 412
#     4  11  23  39  65  95 132 174 214 265 338 408
#     4  11  23  36  64  95 136 181 218 261 324 397
#     4  10  22  40  60  89 130 172 231 264 315 388
#     4  10  20  40  72  98 118 160 238 270 338 402
#     4  11  24  43  59  98 143 168 215 275 335 389
#
# _framework density 20.392658999999998
#
# number of rings (size 3 to 8) (size 9 to 14) (size 15 to 20)
#    0.000    1.600    2.667    0.800   12.133    1.067 
#    2.400    2.000    0.000    0.000    0.000    0.000 
#    0.000    0.000    0.000    0.000    0.000    0.000 
#
# Total GULP energy -371730.977591 kJ/mol
# GULP energy per Si atom -12391.032586 kJ/mol
# Density = 2.034624 g / cm^3
# Si number density = 20.392659 Si / 1000 Ang^3
#
#
#
# Elastic Constant Matrix: (Units=GPa)
#
#
# Indices 1 2 3 4 5 6 
#
# 1 113.2923 56.7732 36.1272 0.0000 0.0000 0.0000
# 2 56.7732 124.2275 44.3535 0.0000 0.0000 0.0000
# 3 36.1272 44.3535 110.3608 0.0000 0.0000 0.0000
# 4 0.0000 0.0000 0.0000 15.9096 0.0000 0.0000
# 5 0.0000 0.0000 0.0000 0.0000 26.0238 0.0000
# 6 0.0000 0.0000 0.0000 0.0000 0.0000 39.9410
#
#
#
# Elastic Compliance Matrix: (Units=1/GPa)
#
#
# Indices 1 2 3 4 5 6 
#
# 1 0.011808 -0.004689 -0.001981 0.000000 0.000000 0.000000
# 2 -0.004689 0.011260 -0.002990 0.000000 0.000000 0.000000
# 3 -0.001981 -0.002990 0.010912 0.000000 0.000000 0.000000
# 4 0.000000 0.000000 0.000000 0.062855 0.000000 0.000000
# 5 0.000000 0.000000 0.000000 0.000000 0.038426 0.000000
# 6 0.000000 0.000000 0.000000 0.000000 0.000000 0.025037
#
#
# Mechanical properties :
#
#
# Convention : Reuss Voigt Hill
#
# Bulk Modulus (GPa) = 68.21755 69.15426 68.68591
# Shear Modulus (GPa) = 27.09934 30.41667 28.75801
#
# Velocity S-wave (km/s) = 3.64933 3.86625 3.75936
# Velocity P-wave (km/s) = 7.16111 7.34272 7.25248
#
# Compressibility (1/GPa) = 0.01465898
#
# Stress axis : x y z
#
# Youngs Moduli (GPa) = 84.68626 88.80611 91.64624
#
# Poissons Ratio (x) = 0.41643 0.18154
# Poissons Ratio (y) = 0.39711 0.27407
# Poissons Ratio (z) = 0.16776 0.26557
#
# Static dielectric constant tensor:
#      x y z
#    x 3.756710 0.000000 0.000000 
#    y 0.000000 3.599730 0.000000 
#    z 0.000000 0.000000 3.706380 
# 
# 
# High freq. dielectric constant tensor:
#      x y z
#    x 1.794780 0.000000 0.000000 
#    y 0.000000 1.802430 0.000000 
#    z 0.000000 0.000000 1.783400 
# 
# From -- ./inp_files/16439.got.cif
#   From: 2010.03.12/outbox.cif.g09.slc.cpg/sg24_9_cif.got.tgz:16439.got - 2010.04.14 03:06:53.
