data_PCOD8165445
_publ_section_title
;
Structure prediction by ZEFSAII (Michael W. Deem and Ramdas Pophale) SiO2 
 PCOD8165445
Probable space group: I 21 21 21
;
_chemical_formula_sum "Si O2"
_cell_formula_units_Z 64
_cell_length_a 27.369431
_cell_length_b 9.127621
_cell_length_c 13.194762
_cell_angle_alpha 90.000000
_cell_angle_beta 90.000000
_cell_angle_gamma 90.000000
_cell_volume 3296.286324
_symmetry_space_group_name_H-M "I 21 21 21"
_symmetry_group_IT_number 24
_symmetry_cell_setting 'orthorhombic'
loop_
_space_group_symop_operation_xyz
x,y,z
-x,1/2-y,z
x,-y,1/2-z
1/2-x,y,-z
1/2+x,1/2+y,1/2+z
1/2-x,-y,1/2+z
1/2+x,1/2-y,-z
-x,1/2+y,1/2-z
loop_
_atom_site_type_symbol
_atom_site_label
_atom_site_fract_x
_atom_site_fract_y
_atom_site_fract_z
Si Si1 0.128603 0.669499 0.633717
Si Si2 0.094471 0.326060 0.250000
Si Si3 0.271945 0.839989 0.107221
Si Si4 0.550326 0.172827 0.963053
Si Si5 0.550326 0.172827 0.536947
Si Si6 0.295689 0.326815 0.749999
Si Si7 0.728055 0.660011 0.392778
Si Si8 0.371397 0.669498 0.133717
O O1 0.087215 0.716160 0.553428
O O2 0.175192 0.767167 0.608993
O O3 0.110908 0.696131 0.750000
O O4 0.142877 0.500000 0.617838
O O5 0.095557 0.500000 0.250000
O O6 0.068422 0.269155 0.147248
O O7 0.068422 0.269155 0.352752
O O8 0.149434 0.263951 0.250000
O O9 0.232944 0.730397 0.153809
O O10 0.324808 0.767165 0.108992
O O11 0.275660 1.000000 0.161260
O O12 0.250000 0.869012 0.000000
O O13 0.500000 0.250000 0.990352
O O14 0.542201 0.000000 0.959498
O O15 0.500000 0.250000 0.509648
O O16 0.587215 0.216159 0.446573
O O17 0.296030 0.500000 0.750000
O O18 0.267056 0.269602 0.846190
O O19 0.750000 0.630992 0.500000
#
# Coordination Sequence:
#
# PCOD8165445 Si02
#       8
#     8   8   8   8   8   8   8   8
#     4  10  21  38  59  83 113 153 198 242 286 347
#     4   9  19  36  58  84 114 149 191 242 289 348
#     4  11  23  37  55  84 121 155 190 238 293 348
#     4  10  21  38  59  84 113 147 194 244 296 349
#     4  10  21  38  59  84 113 147 194 244 296 349
#     4  11  21  36  60  86 113 153 198 236 285 344
#     4  11  23  37  55  84 121 155 190 238 293 348
#     4  10  21  38  59  83 113 153 198 242 286 347
#
# _framework density 19.415789
#
# number of rings (size 3 to 8) (size 9 to 14) (size 15 to 20)
#    0.000    1.750    1.250    3.000    0.000    5.500 
#    0.000    2.500    0.000    0.000    0.000    0.000 
#    0.000    0.000    0.000    0.000    0.000    0.000 
#
# Total GULP energy -396624.865898 kJ/mol
# GULP energy per Si atom -12394.527059 kJ/mol
# Density = 1.937160 g / cm^3
# Si number density = 19.415789 Si / 1000 Ang^3
#
#
#
# Elastic Constant Matrix: (Units=GPa)
#
#
# Indices 1 2 3 4 5 6 
#
# 1 142.4494 48.3924 61.8833 0.0000 0.0000 0.0000
# 2 48.3924 67.3051 32.6322 0.0000 0.0000 0.0000
# 3 61.8833 32.6322 145.5663 0.0000 0.0000 0.0000
# 4 0.0000 0.0000 0.0000 -6.8027 0.0000 0.0000
# 5 0.0000 0.0000 0.0000 0.0000 29.2338 0.0000
# 6 0.0000 0.0000 0.0000 0.0000 0.0000 33.2028
#
#
#
# Elastic Compliance Matrix: (Units=1/GPa)
#
#
# Indices 1 2 3 4 5 6 
#
# 1 0.010387 -0.005977 -0.003076 0.000000 0.000000 0.000000
# 2 -0.005977 0.020109 -0.001967 0.000000 0.000000 0.000000
# 3 -0.003076 -0.001967 0.008618 0.000000 0.000000 0.000000
# 4 0.000000 0.000000 0.000000 -0.147000 0.000000 0.000000
# 5 0.000000 0.000000 0.000000 0.000000 0.034207 0.000000
# 6 0.000000 0.000000 0.000000 0.000000 0.000000 0.030118
#
#
# Mechanical properties :
#
#
# Convention : Reuss Voigt Hill
#
# Bulk Modulus (GPa) = 58.56667 71.23740 64.90203
# Shear Modulus (GPa) = -315.82915 25.28762 -145.27077
#
# Velocity S-wave (km/s) = -12.76790 3.61283 -8.65929
# Velocity P-wave (km/s) = 13.67951 7.36026 8.15339
#
# Compressibility (1/GPa) = 0.01707456
#
# Stress axis : x y z
#
# Youngs Moduli (GPa) = 96.27795 49.72979 116.03305
#
# Poissons Ratio (x) = 0.29722 0.35689
# Poissons Ratio (y) = 0.57543 0.22824
# Poissons Ratio (z) = 0.29613 0.09782
#
# Static dielectric constant tensor:
#      x y z
#    x 3.552280 0.000000 0.000000 
#    y 0.000000 3.471470 0.000000 
#    z 0.000000 0.000000 3.845170 
# 
# 
# High freq. dielectric constant tensor:
#      x y z
#    x 1.757300 0.000000 0.000000 
#    y 0.000000 1.747710 0.000000 
#    z 0.000000 0.000000 1.775280 
# 
# From -- ./inp_files/27902.got.cif
#   From: 2010.03.12/outbox.cif.g09.slc.cpg/sg24_14_cif.got.tgz:27902.got - 2010.04.14 03:06:53.
