data_PCOD8165400
_publ_section_title
;
Structure prediction by ZEFSAII (Michael W. Deem and Ramdas Pophale) SiO2 
 PCOD8165400
Probable space group: I 21 21 21
;
_chemical_formula_sum "Si O2"
_cell_formula_units_Z 32
_cell_length_a 8.003864
_cell_length_b 5.034305
_cell_length_c 35.240265
_cell_angle_alpha 90.000000
_cell_angle_beta 90.000000
_cell_angle_gamma 90.000000
_cell_volume 1419.967452
_symmetry_space_group_name_H-M "I 21 21 21"
_symmetry_group_IT_number 24
_symmetry_cell_setting 'orthorhombic'
loop_
_space_group_symop_operation_xyz
x,y,z
-x,1/2-y,z
x,-y,1/2-z
1/2-x,y,-z
1/2+x,1/2+y,1/2+z
1/2-x,-y,1/2+z
1/2+x,1/2-y,-z
-x,1/2+y,1/2-z
loop_
_atom_site_type_symbol
_atom_site_label
_atom_site_fract_x
_atom_site_fract_y
_atom_site_fract_z
Si Si1 0.807510 0.252117 0.729985
Si Si2 0.807658 0.237916 0.353095
Si Si3 0.306335 0.244304 0.901646
Si Si4 0.607324 0.013388 0.028709
O O1 0.717358 0.500000 0.750000
O O2 0.796983 0.277155 0.684755
O O3 0.000000 0.250000 0.741602
O O4 0.719540 0.000000 0.750000
O O5 0.760143 0.451019 0.386050
O O6 0.000000 0.250000 0.341848
O O7 0.769387 0.944293 0.367575
O O8 0.500000 0.250000 0.914911
O O9 0.186963 0.335334 0.935438
O O10 0.500000 0.250000 0.008925
O O11 0.500000 0.750000 0.039442
O O12 0.750000 0.913685 0.000000
#
# Coordination Sequence:
#
# PCOD8165400 Si02
#       4
#     8   8   8   8
#     4  10  21  36  54  80 116 157 200 251 309 367
#     4  10  21  37  60  88 118 158 204 255 313 372
#     4  10  22  41  63  90 126 162 204 259 318 377
#     4  12  26  44  68  98 130 169 215 263 322 384
#
# _framework density 22.535729
#
# number of rings (size 3 to 8) (size 9 to 14) (size 15 to 20)
#    0.000    1.500    0.000    4.500    0.000    7.000 
#    0.000    0.000    0.000    0.000    0.000    0.000 
#    0.000    0.000    0.000    0.000    0.000    0.000 
#
# Total GULP energy -198343.664421 kJ/mol
# GULP energy per Si atom -12396.479026 kJ/mol
# Density = 2.248444 g / cm^3
# Si number density = 22.535729 Si / 1000 Ang^3
#
#
#
# Elastic Constant Matrix: (Units=GPa)
#
#
# Indices 1 2 3 4 5 6 
#
# 1 63.3854 46.4670 36.4245 0.0000 0.0000 0.0000
# 2 46.4670 156.7015 30.2914 -0.0002 0.0000 0.0000
# 3 36.4245 30.2914 93.6810 -0.0001 0.0000 0.0000
# 4 0.0000 -0.0002 -0.0001 18.7691 0.0000 0.0000
# 5 0.0000 0.0000 0.0000 0.0000 25.3995 0.0000
# 6 0.0000 0.0000 0.0000 0.0000 0.0000 29.0474
#
#
#
# Elastic Compliance Matrix: (Units=1/GPa)
#
#
# Indices 1 2 3 4 5 6 
#
# 1 0.024371 -0.005755 -0.007615 0.000000 0.000000 0.000000
# 2 -0.005755 0.008166 -0.000403 0.000000 0.000000 0.000000
# 3 -0.007615 -0.000403 0.013766 0.000000 0.000000 0.000000
# 4 0.000000 0.000000 0.000000 0.053279 0.000000 0.000000
# 5 0.000000 0.000000 0.000000 0.000000 0.039371 0.000000
# 6 0.000000 0.000000 0.000000 0.000000 0.000000 0.034426
#
#
# Mechanical properties :
#
#
# Convention : Reuss Voigt Hill
#
# Bulk Modulus (GPa) = 53.31258 60.01483 56.66371
# Shear Modulus (GPa) = 24.13392 28.01554 26.07473
#
# Velocity S-wave (km/s) = 3.27604 3.52967 3.40522
# Velocity P-wave (km/s) = 6.16589 6.58029 6.37646
#
# Compressibility (1/GPa) = 0.01875730
#
# Stress axis : x y z
#
# Youngs Moduli (GPa) = 41.03180 122.46012 72.64453
#
# Poissons Ratio (x) = 0.70474 0.55320
# Poissons Ratio (y) = 0.23613 0.02927
# Poissons Ratio (z) = 0.31246 0.04933
#
# Static dielectric constant tensor:
#      x y z
#    x 4.097340 0.000000 0.000000 
#    y 0.000000 4.657690 0.000000 
#    z 0.000000 0.000000 3.712760 
# 
# 
# High freq. dielectric constant tensor:
#      x y z
#    x 1.878490 0.000000 0.000000 
#    y 0.000000 1.911790 0.000000 
#    z 0.000000 0.000000 1.882030 
# 
# From -- ./inp_files/1158.got.cif
#   From: 2010.03.12/outbox.cif.g09.slc.cpg/sg24_1_cif.got.tgz:1158.got - 2010.04.14 03:06:53.
