data_PCOD8165869
_publ_section_title
;
Structure prediction by ZEFSAII (Michael W. Deem and Ramdas Pophale) SiO2 
 PCOD8165869
Probable space group: I 21 21 21
;
_chemical_formula_sum "Si O2"
_cell_formula_units_Z 40
_cell_length_a 15.819461
_cell_length_b 7.659498
_cell_length_c 14.798000
_cell_angle_alpha 90.000000
_cell_angle_beta 90.000000
_cell_angle_gamma 90.000000
_cell_volume 1793.060784
_symmetry_space_group_name_H-M "I 21 21 21"
_symmetry_group_IT_number 24
_symmetry_cell_setting 'orthorhombic'
loop_
_space_group_symop_operation_xyz
x,y,z
-x,1/2-y,z
x,-y,1/2-z
1/2-x,y,-z
1/2+x,1/2+y,1/2+z
1/2-x,-y,1/2+z
1/2+x,1/2-y,-z
-x,1/2+y,1/2-z
loop_
_atom_site_type_symbol
_atom_site_label
_atom_site_fract_x
_atom_site_fract_y
_atom_site_fract_z
Si Si1 0.993041 0.048061 0.497332
Si Si2 0.244687 0.741713 0.393038
Si Si3 0.571233 0.366541 0.824650
Si Si4 0.624701 0.532791 0.151218
Si Si5 0.182522 0.395509 0.574632
O O1 0.052769 0.986792 0.579421
O O2 0.000000 0.250000 0.476188
O O3 0.896094 0.012067 0.523286
O O4 0.022277 0.947602 0.409402
O O5 0.250000 0.753433 0.500000
O O6 0.149483 0.753396 0.358306
O O7 0.278627 0.550014 0.363146
O O8 0.296464 0.902794 0.353216
O O9 0.500000 0.250000 0.775183
O O10 0.605448 0.500000 0.750000
O O11 0.584328 0.500000 0.250000
O O12 0.655922 0.732654 0.137106
O O13 0.250000 0.327864 0.500000
#
# Coordination Sequence:
#
# PCOD8165869 Si02
#       5
#     8   8   8   8   8
#     4  10  23  45  72 100 141 183 229 294 348 418
#     4  11  22  44  72  98 139 189 227 287 348 414
#     4  12  25  45  70 103 139 182 233 290 357 421
#     4  11  24  44  69 102 144 186 231 290 349 413
#     4  10  23  44  72 104 136 185 235 284 351 415
#
# _framework density 22.308223000000002
#
# number of rings (size 3 to 8) (size 9 to 14) (size 15 to 20)
#    0.000    1.200    2.000    4.200    2.800    0.800 
#   21.600    0.000    0.000    0.000    0.000    0.000 
#    0.000    0.000    0.000    0.000    0.000    0.000 
#
# Total GULP energy -247996.548077 kJ/mol
# GULP energy per Si atom -12399.827404 kJ/mol
# Density = 2.225745 g / cm^3
# Si number density = 22.308223 Si / 1000 Ang^3
#
#
#
# Elastic Constant Matrix: (Units=GPa)
#
#
# Indices 1 2 3 4 5 6 
#
# 1 140.6109 30.3964 34.9028 0.0000 0.0000 0.0000
# 2 30.3964 98.3571 42.3393 0.0000 0.0000 0.0000
# 3 34.9028 42.3393 99.1775 0.0000 0.0000 0.0000
# 4 0.0000 0.0000 0.0000 23.0795 0.0000 0.0000
# 5 0.0000 0.0000 0.0000 0.0000 -66.3475 0.0000
# 6 0.0000 0.0000 0.0000 0.0000 0.0000 39.3276
#
#
#
# Elastic Compliance Matrix: (Units=1/GPa)
#
#
# Indices 1 2 3 4 5 6 
#
# 1 0.007979 -0.001540 -0.002150 0.000000 0.000000 0.000000
# 2 -0.001540 0.012753 -0.004902 0.000000 0.000000 0.000000
# 3 -0.002150 -0.004902 0.012933 0.000000 0.000000 0.000000
# 4 0.000000 0.000000 0.000000 0.043328 0.000000 0.000000
# 5 0.000000 0.000000 0.000000 0.000000 -0.015072 0.000000
# 6 0.000000 0.000000 0.000000 0.000000 0.000000 0.025427
#
#
# Mechanical properties :
#
#
# Convention : Reuss Voigt Hill
#
# Bulk Modulus (GPa) = 60.68457 61.49140 61.08798
# Shear Modulus (GPa) = 45.44348 14.57906 30.01127
#
# Velocity S-wave (km/s) = 4.51829 2.55919 3.67181
# Velocity P-wave (km/s) = 7.38118 6.02967 6.73939
#
# Compressibility (1/GPa) = 0.01647865
#
# Stress axis : x y z
#
# Youngs Moduli (GPa) = 125.33664 78.41108 77.32409
#
# Poissons Ratio (x) = 0.12075 0.16628
# Poissons Ratio (y) = 0.19302 0.37908
# Poissons Ratio (z) = 0.26952 0.38441
#
# Static dielectric constant tensor:
#      x y z
#    x 4.295890 0.000000 0.000000 
#    y 0.000000 4.377800 0.000000 
#    z 0.000000 0.000000 3.900650 
# 
# 
# High freq. dielectric constant tensor:
#      x y z
#    x 1.893940 0.000000 0.000000 
#    y 0.000000 1.890950 0.000000 
#    z 0.000000 0.000000 1.866890 
# 
# From -- ./inp_files/12294.got.cif
#   From: 2010.03.12/outbox.cif.g09.slc.cpg/sg24_7_cif.got.tgz:12294.got - 2010.04.14 03:06:53.
