data_PCOD8165215
_publ_section_title
;
Structure prediction by ZEFSAII (Michael W. Deem and Ramdas Pophale) SiO2 
 PCOD8165215
Probable space group: I 21 21 21
;
_chemical_formula_sum "Si O2"
_cell_formula_units_Z 64
_cell_length_a 8.699835
_cell_length_b 30.658811
_cell_length_c 11.840347
_cell_angle_alpha 90.000000
_cell_angle_beta 90.000000
_cell_angle_gamma 90.000000
_cell_volume 3158.135463
_symmetry_space_group_name_H-M "I 21 21 21"
_symmetry_group_IT_number 24
_symmetry_cell_setting 'orthorhombic'
loop_
_space_group_symop_operation_xyz
x,y,z
-x,1/2-y,z
x,-y,1/2-z
1/2-x,y,-z
1/2+x,1/2+y,1/2+z
1/2-x,-y,1/2+z
1/2+x,1/2-y,-z
-x,1/2+y,1/2-z
loop_
_atom_site_type_symbol
_atom_site_label
_atom_site_fract_x
_atom_site_fract_y
_atom_site_fract_z
Si Si1 0.568880 0.206007 0.235304
Si Si2 0.568881 0.793994 0.735315
Si Si3 0.072290 0.450742 0.237628
Si Si4 0.427723 0.450743 0.237618
Si Si5 0.070443 0.181995 0.000003
Si Si6 0.924194 0.091195 0.000002
Si Si7 0.428523 0.126573 0.368587
Si Si8 0.928537 0.373427 0.368601
O O1 0.500000 0.250000 0.291672
O O2 0.750000 0.209397 0.231709
O O3 0.524447 0.164061 0.307679
O O4 0.505185 0.203156 0.109178
O O5 0.500000 0.750000 0.791681
O O6 0.505170 0.796848 0.609194
O O7 0.524466 0.835939 0.807700
O O8 0.012918 0.500000 0.250000
O O9 0.250008 0.446496 0.273391
O O10 0.973232 0.420332 0.319379
O O11 0.045943 0.438342 0.108152
O O12 0.487099 0.500000 0.250000
O O13 0.454048 0.438349 0.108135
O O14 0.526792 0.420331 0.319356
O O15 0.250000 0.192097 0.000000
O O16 0.044393 0.130304 0.999992
O O17 0.750000 0.110178 0.000000
O O18 0.249991 0.135352 0.346032
O O19 0.469368 0.127260 0.499992
#
# Coordination Sequence:
#
# PCOD8165215 Si02
#       8
#     8   8   8   8   8   8   8   8
#     4  12  25  43  67  95 127 165 210 259 313 377
#     4  12  25  43  67  95 127 165 210 259 313 377
#     4  10  22  39  64  95 128 167 212 262 314 376
#     4  10  22  39  64  95 128 167 212 262 314 376
#     4  12  23  39  64  96 133 168 206 257 315 373
#     4  10  20  37  61  94 130 166 210 261 312 369
#     4  11  25  44  64  91 127 166 211 264 317 376
#     4  11  25  44  64  91 127 166 211 264 317 376
#
# _framework density 20.265122000000002
#
# number of rings (size 3 to 8) (size 9 to 14) (size 15 to 20)
#    0.000    1.000    2.500    4.500    1.750    3.000 
#    0.000    0.000    0.000    0.000    0.000    0.000 
#    0.000    0.000    0.000    0.000    0.000    0.000 
#
# Total GULP energy -397008.237563 kJ/mol
# GULP energy per Si atom -12406.507424 kJ/mol
# Density = 2.021900 g / cm^3
# Si number density = 20.265122 Si / 1000 Ang^3
#
#
#
# Elastic Constant Matrix: (Units=GPa)
#
#
# Indices 1 2 3 4 5 6 
#
# 1 138.8465 55.5183 58.5767 0.0001 -0.0005 0.0000
# 2 55.5183 150.8942 44.1186 -0.0001 0.0009 0.0000
# 3 58.5767 44.1186 111.7873 -0.0002 0.0013 0.0002
# 4 0.0001 -0.0001 -0.0002 24.8903 0.0013 0.0001
# 5 -0.0005 0.0009 0.0013 0.0013 15.1024 0.0001
# 6 0.0000 0.0000 0.0002 0.0001 0.0001 38.3008
#
#
#
# Elastic Compliance Matrix: (Units=1/GPa)
#
#
# Indices 1 2 3 4 5 6 
#
# 1 0.009971 -0.002420 -0.004270 0.000000 0.000001 0.000000
# 2 -0.002420 0.008079 -0.001920 0.000000 0.000000 0.000000
# 3 -0.004270 -0.001920 0.011941 0.000000 -0.000001 0.000000
# 4 0.000000 0.000000 0.000000 0.040176 -0.000003 0.000000
# 5 0.000001 0.000000 -0.000001 -0.000003 0.066215 0.000000
# 6 0.000000 0.000000 0.000000 0.000000 0.000000 0.026109
#
#
# Mechanical properties :
#
#
# Convention : Reuss Voigt Hill
#
# Bulk Modulus (GPa) = 78.30575 79.77281 79.03928
# Shear Modulus (GPa) = 27.17848 31.87965 29.52906
#
# Velocity S-wave (km/s) = 3.66614 3.97057 3.82139
# Velocity P-wave (km/s) = 7.52631 7.77629 7.65232
#
# Compressibility (1/GPa) = 0.01277045
#
# Stress axis : x y z
#
# Youngs Moduli (GPa) = 100.28777 123.77577 83.74654
#
# Poissons Ratio (x) = 0.29958 0.35758
# Poissons Ratio (y) = 0.24273 0.16082
# Poissons Ratio (z) = 0.42820 0.23769
#
# Static dielectric constant tensor:
#      x y z
#    x 3.718970 0.000000 0.000000 
#    y 0.000000 3.874770 0.000000 
#    z 0.000000 0.000000 3.762400 
# 
# 
# High freq. dielectric constant tensor:
#      x y z
#    x 1.795640 0.000000 0.000000 
#    y 0.000000 1.808120 0.000000 
#    z 0.000000 0.000000 1.795290 
# 
# From -- ./inp_files/18930.got.cif
#   From: 2010.03.12/outbox.cif.g09.slc.cpg/sg24_10_cif.got.tgz:18930.got - 2010.04.14 03:06:53.
