data_PCOD8165641
_publ_section_title
;
Structure prediction by ZEFSAII (Michael W. Deem and Ramdas Pophale) SiO2 
 PCOD8165641
Probable space group: I 21 21 21
;
_chemical_formula_sum "Si O2"
_cell_formula_units_Z 52
_cell_length_a 13.818253
_cell_length_b 12.509737
_cell_length_c 15.212752
_cell_angle_alpha 90.000000
_cell_angle_beta 90.000000
_cell_angle_gamma 90.000000
_cell_volume 2629.717550
_symmetry_space_group_name_H-M "I 21 21 21"
_symmetry_group_IT_number 24
_symmetry_cell_setting 'orthorhombic'
loop_
_space_group_symop_operation_xyz
x,y,z
-x,1/2-y,z
x,-y,1/2-z
1/2-x,y,-z
1/2+x,1/2+y,1/2+z
1/2-x,-y,1/2+z
1/2+x,1/2-y,-z
-x,1/2+y,1/2-z
loop_
_atom_site_type_symbol
_atom_site_label
_atom_site_fract_x
_atom_site_fract_y
_atom_site_fract_z
Si Si1 0.610811 0.725065 0.158993
Si Si2 0.407961 0.324668 0.873353
Si Si3 0.103592 0.012125 0.851375
Si Si4 0.288293 0.575420 0.097266
Si Si5 0.419872 0.612158 0.431717
Si Si6 0.846814 0.000000 0.250000
Si Si7 0.703380 0.285179 0.155335
O O1 0.500000 0.750000 0.183847
O O2 0.619203 0.608111 0.112065
O O3 0.652310 0.813811 0.093262
O O4 0.679167 0.733999 0.243202
O O5 0.500000 0.250000 0.862558
O O6 0.413334 0.411576 0.796149
O O7 0.309008 0.256809 0.869582
O O8 0.411888 0.390553 0.963361
O O9 0.200097 0.085817 0.860379
O O10 0.028386 0.084318 0.904783
O O11 0.070029 0.000000 0.750000
O O12 0.357751 0.476925 0.117416
O O13 0.211909 0.566412 0.176145
O O14 0.250000 0.558448 0.000000
O O15 0.381029 0.727177 0.400627
#
# Coordination Sequence:
#
# PCOD8165641 Si02
#       7
#     8   8   8   8   8   4   8
#     4  11  21  38  64  95 135 164 211 274 338 405
#     4  12  26  44  64  95 128 179 230 271 320 392
#     4  10  22  36  62 101 133 166 203 272 357 392
#     4  12  22  40  69  94 127 174 223 265 328 390
#     4  12  21  39  67  98 130 163 216 275 325 399
#     4  12  24  46  66  92 128 174 224 274 316 394
#     4  11  21  38  64  95 131 167 213 277 335 387
#
# _framework density 19.773987000000002
#
# number of rings (size 3 to 8) (size 9 to 14) (size 15 to 20)
#    0.000    0.615    6.154    3.692    1.077    0.000 
#    4.154    5.385    0.000    0.000    0.000    0.000 
#    0.000    0.000    0.000    0.000    0.000    0.000 
#
# Total GULP energy -322266.531422 kJ/mol
# GULP energy per Si atom -12394.866593 kJ/mol
# Density = 1.972898 g / cm^3
# Si number density = 19.773987 Si / 1000 Ang^3
#
#
#
# Elastic Constant Matrix: (Units=GPa)
#
#
# Indices 1 2 3 4 5 6 
#
# 1 79.4404 38.3040 31.6095 0.0000 0.0000 0.0000
# 2 38.3040 151.8129 37.3543 0.0000 0.0000 0.0000
# 3 31.6095 37.3543 80.0625 0.0000 0.0000 0.0000
# 4 0.0000 0.0000 0.0000 24.5344 0.0000 0.0000
# 5 0.0000 0.0000 0.0000 0.0000 19.5445 0.0000
# 6 0.0000 0.0000 0.0000 0.0000 0.0000 22.7304
#
#
#
# Elastic Compliance Matrix: (Units=1/GPa)
#
#
# Indices 1 2 3 4 5 6 
#
# 1 0.015916 -0.002790 -0.004982 0.000000 0.000000 0.000000
# 2 -0.002790 0.007930 -0.002599 0.000000 0.000000 0.000000
# 3 -0.004982 -0.002599 0.015670 0.000000 0.000000 0.000000
# 4 0.000000 0.000000 0.000000 0.040759 0.000000 0.000000
# 5 0.000000 0.000000 0.000000 0.000000 0.051165 0.000000
# 6 0.000000 0.000000 0.000000 0.000000 0.000000 0.043994
#
#
# Mechanical properties :
#
#
# Convention : Reuss Voigt Hill
#
# Bulk Modulus (GPa) = 53.26308 58.42793 55.84551
# Shear Modulus (GPa) = 24.69951 26.96504 25.83228
#
# Velocity S-wave (km/s) = 3.53808 3.69679 3.61830
# Velocity P-wave (km/s) = 6.60947 6.91619 6.76457
#
# Compressibility (1/GPa) = 0.01877473
#
# Stress axis : x y z
#
# Youngs Moduli (GPa) = 62.83157 126.09794 63.81786
#
# Poissons Ratio (x) = 0.35179 0.31794
# Poissons Ratio (y) = 0.17529 0.16584
# Poissons Ratio (z) = 0.31303 0.32767
#
# Static dielectric constant tensor:
#      x y z
#    x 3.450270 0.000000 0.000000 
#    y 0.000000 4.033780 0.000000 
#    z 0.000000 0.000000 3.501180 
# 
# 
# High freq. dielectric constant tensor:
#      x y z
#    x 1.753210 0.000000 0.000000 
#    y 0.000000 1.793620 0.000000 
#    z 0.000000 0.000000 1.760900 
# 
# From -- ./inp_files/26500.got.cif
#   From: 2010.03.12/outbox.cif.g09.slc.cpg/sg24_14_cif.got.tgz:26500.got - 2010.04.14 03:06:53.
