data_PCOD8165961
_publ_section_title
;
Structure prediction by ZEFSAII (Michael W. Deem and Ramdas Pophale) SiO2 
 PCOD8165961
Probable space group: I 21 21 21
;
_chemical_formula_sum "Si O2"
_cell_formula_units_Z 32
_cell_length_a 9.414139
_cell_length_b 10.802165
_cell_length_c 13.933751
_cell_angle_alpha 90.000000
_cell_angle_beta 90.000000
_cell_angle_gamma 90.000000
_cell_volume 1416.966094
_symmetry_space_group_name_H-M "I 21 21 21"
_symmetry_group_IT_number 24
_symmetry_cell_setting 'orthorhombic'
loop_
_space_group_symop_operation_xyz
x,y,z
-x,1/2-y,z
x,-y,1/2-z
1/2-x,y,-z
1/2+x,1/2+y,1/2+z
1/2-x,-y,1/2+z
1/2+x,1/2-y,-z
-x,1/2+y,1/2-z
loop_
_atom_site_type_symbol
_atom_site_label
_atom_site_fract_x
_atom_site_fract_y
_atom_site_fract_z
Si Si1 0.811830 0.339275 0.106323
Si Si2 0.393170 0.568725 0.650006
Si Si3 0.073004 0.129802 0.755012
Si Si4 0.250000 0.407270 0.500000
Si Si5 0.000000 0.250000 0.573937
O O1 0.836821 0.208309 0.159620
O O2 0.707460 0.408452 0.180210
O O3 0.953867 0.422048 0.096983
O O4 0.750000 0.321210 0.000000
O O5 0.413757 0.500000 0.750000
O O6 0.275506 0.492824 0.591641
O O7 0.101607 0.167210 0.643815
O O8 0.000000 0.250000 0.806530
O O9 0.982126 0.000000 0.750000
O O10 0.106773 0.327308 0.508560
#
# Coordination Sequence:
#
# PCOD8165961 Si02
#       5
#     8   8   8   4   4
#     4  11  25  42  73 111 143 197 260 317 387 464
#     4  11  26  45  74 105 152 197 248 330 388 462
#     4  10  25  43  72 101 144 195 248 309 382 457
#     4  12  26  50  72 108 152 196 264 310 394 474
#     4  10  28  42  76 104 146 204 242 314 380 468
#
# _framework density 22.583462999999998
#
# number of rings (size 3 to 8) (size 9 to 14) (size 15 to 20)
#    0.750    0.500    1.250    2.250   10.500    6.000 
#    0.000    0.000    0.000    0.000    0.000    0.000 
#    0.000    0.000    0.000    0.000    0.000    0.000 
#
# Total GULP energy -198219.533896 kJ/mol
# GULP energy per Si atom -12388.720868 kJ/mol
# Density = 2.253206 g / cm^3
# Si number density = 22.583463 Si / 1000 Ang^3
#
#
#
# Elastic Constant Matrix: (Units=GPa)
#
#
# Indices 1 2 3 4 5 6 
#
# 1 98.0877 37.9392 31.6289 0.0000 0.0000 0.0000
# 2 37.9392 141.3805 34.9400 0.0000 0.0000 0.0000
# 3 31.6289 34.9400 105.0124 0.0000 0.0000 0.0000
# 4 0.0000 0.0000 0.0000 21.9036 0.0000 0.0000
# 5 0.0000 0.0000 0.0000 0.0000 42.3528 0.0000
# 6 0.0000 0.0000 0.0000 0.0000 0.0000 29.1046
#
#
#
# Elastic Compliance Matrix: (Units=1/GPa)
#
#
# Indices 1 2 3 4 5 6 
#
# 1 0.012082 -0.002553 -0.002790 0.000000 0.000000 0.000000
# 2 -0.002553 0.008246 -0.001975 0.000000 0.000000 0.000000
# 3 -0.002790 -0.001975 0.011020 0.000000 0.000000 0.000000
# 4 0.000000 0.000000 0.000000 0.045655 0.000000 0.000000
# 5 0.000000 0.000000 0.000000 0.000000 0.023611 0.000000
# 6 0.000000 0.000000 0.000000 0.000000 0.000000 0.034359
#
#
# Mechanical properties :
#
#
# Convention : Reuss Voigt Hill
#
# Bulk Modulus (GPa) = 59.83130 61.49963 60.66546
# Shear Modulus (GPa) = 32.22101 34.67037 33.44569
#
# Velocity S-wave (km/s) = 3.78134 3.92243 3.85253
# Velocity P-wave (km/s) = 6.75393 6.91413 6.83450
#
# Compressibility (1/GPa) = 0.01671366
#
# Stress axis : x y z
#
# Youngs Moduli (GPa) = 82.76876 121.26828 90.74439
#
# Poissons Ratio (x) = 0.30957 0.25314
# Poissons Ratio (y) = 0.21129 0.17920
# Poissons Ratio (z) = 0.23089 0.23948
#
# Static dielectric constant tensor:
#      x y z
#    x 4.058710 0.000000 0.000000 
#    y 0.000000 4.263230 0.000000 
#    z 0.000000 0.000000 3.768580 
# 
# 
# High freq. dielectric constant tensor:
#      x y z
#    x 1.879590 0.000000 0.000000 
#    y 0.000000 1.907930 0.000000 
#    z 0.000000 0.000000 1.883290 
# 
# From -- ./inp_files/24322.got.cif
#   From: 2010.03.12/outbox.cif.g09.slc.cpg/sg24_13_cif.got.tgz:24322.got - 2010.04.14 03:06:53.
