data_PCOD8165128
_publ_section_title
;
Structure prediction by ZEFSAII (Michael W. Deem and Ramdas Pophale) SiO2 
 PCOD8165128
Probable space group: I 21 21 21
;
_chemical_formula_sum "Si O2"
_cell_formula_units_Z 48
_cell_length_a 9.540945
_cell_length_b 16.524769
_cell_length_c 13.754939
_cell_angle_alpha 90.000000
_cell_angle_beta 90.000000
_cell_angle_gamma 90.000000
_cell_volume 2168.629984
_symmetry_space_group_name_H-M "I 21 21 21"
_symmetry_group_IT_number 24
_symmetry_cell_setting 'orthorhombic'
loop_
_space_group_symop_operation_xyz
x,y,z
-x,1/2-y,z
x,-y,1/2-z
1/2-x,y,-z
1/2+x,1/2+y,1/2+z
1/2-x,-y,1/2+z
1/2+x,1/2-y,-z
-x,1/2+y,1/2-z
loop_
_atom_site_type_symbol
_atom_site_label
_atom_site_fract_x
_atom_site_fract_y
_atom_site_fract_z
Si Si1 0.015252 0.658954 0.156029
Si Si2 0.890224 0.188618 0.044387
Si Si3 0.272287 0.588739 0.717280
Si Si4 0.095841 0.023967 0.476270
Si Si5 0.811948 0.419166 0.193462
Si Si6 0.485139 0.095009 0.127427
O O1 0.994184 0.597368 0.066997
O O2 0.906152 0.641125 0.243402
O O3 0.000000 0.750000 0.117277
O O4 0.172455 0.648932 0.198715
O O5 0.841599 0.114815 0.114279
O O6 0.000000 0.250000 0.098889
O O7 0.750000 0.231192 0.000000
O O8 0.978040 0.160165 0.952502
O O9 0.327269 0.500000 0.750000
O O10 0.104000 0.590919 0.710847
O O11 0.250000 0.058191 0.500000
O O12 0.106852 0.945193 0.405013
O O13 0.024984 0.993557 0.576191
O O14 0.774766 0.500000 0.250000
O O15 0.662981 0.376699 0.172506
#
# Coordination Sequence:
#
# PCOD8165128 Si02
#       6
#     8   8   8   8   8   8
#     4  11  22  37  58  84 117 152 182 223 282 342
#     4  10  22  36  53  81 116 149 180 221 278 338
#     4  11  22  37  56  83 114 145 184 231 283 331
#     4   9  19  38  62  84 107 146 199 238 268 321
#     4   9  18  35  59  83 108 145 193 235 272 325
#     4  10  20  35  59  85 109 143 187 238 280 321
#
# _framework density 22.133789
#
# number of rings (size 3 to 8) (size 9 to 14) (size 15 to 20)
#    0.000    2.000    0.000    4.500    0.000    6.000 
#    0.000    1.667    0.000    0.000    0.000    0.000 
#    0.000    0.000    0.000    0.000    0.000    0.000 
#
# Total GULP energy -297511.377638 kJ/mol
# GULP energy per Si atom -12396.307402 kJ/mol
# Density = 2.208341 g / cm^3
# Si number density = 22.133789 Si / 1000 Ang^3
#
#
#
# Elastic Constant Matrix: (Units=GPa)
#
#
# Indices 1 2 3 4 5 6 
#
# 1 138.5624 38.6830 33.2078 0.0000 0.0000 0.0000
# 2 38.6830 87.5915 11.3899 -0.0001 0.0000 0.0000
# 3 33.2078 11.3899 50.1053 -0.0001 0.0000 0.0000
# 4 0.0000 -0.0001 -0.0001 19.9304 0.0000 0.0000
# 5 0.0000 0.0000 0.0000 0.0000 34.0462 0.0000
# 6 0.0000 0.0000 0.0000 0.0000 0.0000 23.4980
#
#
#
# Elastic Compliance Matrix: (Units=1/GPa)
#
#
# Indices 1 2 3 4 5 6 
#
# 1 0.009510 -0.003483 -0.005511 0.000000 0.000000 0.000000
# 2 -0.003483 0.013040 -0.000656 0.000000 0.000000 0.000000
# 3 -0.005511 -0.000656 0.023760 0.000000 0.000000 0.000000
# 4 0.000000 0.000000 0.000000 0.050175 0.000000 0.000000
# 5 0.000000 0.000000 0.000000 0.000000 0.029372 0.000000
# 6 0.000000 0.000000 0.000000 0.000000 0.000000 0.042557
#
#
# Mechanical properties :
#
#
# Convention : Reuss Voigt Hill
#
# Bulk Modulus (GPa) = 37.02377 49.20230 43.11303
# Shear Modulus (GPa) = 25.41721 28.36013 26.88867
#
# Velocity S-wave (km/s) = 3.39240 3.58342 3.48921
# Velocity P-wave (km/s) = 5.66640 6.27685 5.97942
#
# Compressibility (1/GPa) = 0.02700968
#
# Stress axis : x y z
#
# Youngs Moduli (GPa) = 105.14986 76.68569 42.08823
#
# Poissons Ratio (x) = 0.26712 0.23196
# Poissons Ratio (y) = 0.36627 0.02760
# Poissons Ratio (z) = 0.57950 0.05028
#
# Static dielectric constant tensor:
#      x y z
#    x 4.269210 0.000000 0.000000 
#    y 0.000000 3.688060 0.000000 
#    z 0.000000 0.000000 4.020560 
# 
# 
# High freq. dielectric constant tensor:
#      x y z
#    x 1.884490 0.000000 0.000000 
#    y 0.000000 1.844720 0.000000 
#    z 0.000000 0.000000 1.855120 
# 
# From -- ./inp_files/24791.got.cif
#   From: 2010.03.12/outbox.cif.g09.slc.cpg/sg24_13_cif.got.tgz:24791.got - 2010.04.14 03:06:53.
