data_PCOD8165519
_publ_section_title
;
Structure prediction by ZEFSAII (Michael W. Deem and Ramdas Pophale) SiO2 
 PCOD8165519
Probable space group: I 21 21 21
;
_chemical_formula_sum "Si O2"
_cell_formula_units_Z 48
_cell_length_a 13.711261
_cell_length_b 13.955268
_cell_length_c 12.979400
_cell_angle_alpha 90.000000
_cell_angle_beta 90.000000
_cell_angle_gamma 90.000000
_cell_volume 2483.534491
_symmetry_space_group_name_H-M "I 21 21 21"
_symmetry_group_IT_number 24
_symmetry_cell_setting 'orthorhombic'
loop_
_space_group_symop_operation_xyz
x,y,z
-x,1/2-y,z
x,-y,1/2-z
1/2-x,y,-z
1/2+x,1/2+y,1/2+z
1/2-x,-y,1/2+z
1/2+x,1/2-y,-z
-x,1/2+y,1/2-z
loop_
_atom_site_type_symbol
_atom_site_label
_atom_site_fract_x
_atom_site_fract_y
_atom_site_fract_z
Si Si1 0.542280 0.846800 0.229416
Si Si2 0.741388 0.098645 0.696779
Si Si3 0.105371 0.266422 0.171079
Si Si4 0.232334 0.860102 0.611829
Si Si5 0.397049 0.000000 0.250000
Si Si6 0.750000 0.999119 0.000000
Si Si7 0.882149 0.831565 0.557671
O O1 0.500000 0.750000 0.182274
O O2 0.653288 0.850430 0.191022
O O3 0.533436 0.845365 0.356401
O O4 0.470880 0.930480 0.187161
O O5 0.661879 0.159377 0.757256
O O6 0.762510 0.000000 0.750000
O O7 0.701349 0.073196 0.582884
O O8 0.163831 0.165284 0.165384
O O9 0.000000 0.250000 0.222886
O O10 0.081891 0.310044 0.057366
O O11 0.250000 0.907507 0.500000
O O12 0.185833 0.754384 0.598869
O O13 0.170951 0.935514 0.677198
O O14 0.825703 0.067650 0.941113
#
# Coordination Sequence:
#
# PCOD8165519 Si02
#       7
#     8   8   8   8   4   4   8
#     4  12  21  36  66  97 127 159 205 268 329 373
#     4  12  21  39  60  94 128 159 213 265 312 372
#     4  11  22  38  64  89 128 175 204 257 319 380
#     4  10  21  40  61  91 127 167 210 260 316 382
#     4  12  22  36  64  98 130 160 204 274 332 378
#     4  12  20  36  66  92 120 160 212 270 312 360
#     4  11  17  36  64  96 123 150 212 269 312 360
#
# _framework density 19.327293000000001
#
# number of rings (size 3 to 8) (size 9 to 14) (size 15 to 20)
#    0.000    0.667   10.000    0.500    2.333    0.000 
#    1.500    0.833    7.333    0.000    0.000    0.000 
#    0.000    0.000    0.000    0.000    0.000    0.000 
#
# Total GULP energy -297370.111388 kJ/mol
# GULP energy per Si atom -12390.421308 kJ/mol
# Density = 1.928330 g / cm^3
# Si number density = 19.327293 Si / 1000 Ang^3
#
#
#
# Elastic Constant Matrix: (Units=GPa)
#
#
# Indices 1 2 3 4 5 6 
#
# 1 131.6148 63.1513 22.9483 0.0000 0.0000 0.0000
# 2 63.1513 108.8318 38.2698 0.0000 0.0000 0.0000
# 3 22.9483 38.2698 74.6472 0.0000 0.0000 0.0000
# 4 0.0000 0.0000 0.0000 32.5836 0.0000 0.0000
# 5 0.0000 0.0000 0.0000 0.0000 13.5114 0.0000
# 6 0.0000 0.0000 0.0000 0.0000 0.0000 32.6038
#
#
#
# Elastic Compliance Matrix: (Units=1/GPa)
#
#
# Indices 1 2 3 4 5 6 
#
# 1 0.010531 -0.006066 -0.000128 0.000000 0.000000 0.000000
# 2 -0.006066 0.014703 -0.005673 0.000000 0.000000 0.000000
# 3 -0.000128 -0.005673 0.016344 0.000000 0.000000 0.000000
# 4 0.000000 0.000000 0.000000 0.030690 0.000000 0.000000
# 5 0.000000 0.000000 0.000000 0.000000 0.074011 0.000000
# 6 0.000000 0.000000 0.000000 0.000000 0.000000 0.030671
#
#
# Mechanical properties :
#
#
# Convention : Reuss Voigt Hill
#
# Bulk Modulus (GPa) = 56.03868 62.64806 59.34337
# Shear Modulus (GPa) = 24.19761 28.45474 26.32617
#
# Velocity S-wave (km/s) = 3.54219 3.84116 3.69470
# Velocity P-wave (km/s) = 6.76661 7.22201 6.99801
#
# Compressibility (1/GPa) = 0.01784482
#
# Stress axis : x y z
#
# Youngs Moduli (GPa) = 94.96137 68.01284 61.18419
#
# Poissons Ratio (x) = 0.41254 0.00781
# Poissons Ratio (y) = 0.57600 0.34711
# Poissons Ratio (z) = 0.01212 0.38585
#
# Static dielectric constant tensor:
#      x y z
#    x 3.132480 0.000000 0.000000 
#    y 0.000000 3.644040 0.000000 
#    z 0.000000 0.000000 3.923130 
# 
# 
# High freq. dielectric constant tensor:
#      x y z
#    x 1.750580 0.000000 0.000000 
#    y 0.000000 1.747880 0.000000 
#    z 0.000000 0.000000 1.728930 
# 
# From -- ./inp_files/26461.got.cif
#   From: 2010.03.12/outbox.cif.g09.slc.cpg/sg24_14_cif.got.tgz:26461.got - 2010.04.14 03:06:53.
