data_PCOD8165350
_publ_section_title
;
Structure prediction by ZEFSAII (Michael W. Deem and Ramdas Pophale) SiO2 
 PCOD8165350
Probable space group: I 21 21 21
;
_chemical_formula_sum "Si O2"
_cell_formula_units_Z 48
_cell_length_a 19.373170
_cell_length_b 8.028044
_cell_length_c 14.451775
_cell_angle_alpha 90.000000
_cell_angle_beta 90.000000
_cell_angle_gamma 90.000000
_cell_volume 2247.665217
_symmetry_space_group_name_H-M "I 21 21 21"
_symmetry_group_IT_number 24
_symmetry_cell_setting 'orthorhombic'
loop_
_space_group_symop_operation_xyz
x,y,z
-x,1/2-y,z
x,-y,1/2-z
1/2-x,y,-z
1/2+x,1/2+y,1/2+z
1/2-x,-y,1/2+z
1/2+x,1/2-y,-z
-x,1/2+y,1/2-z
loop_
_atom_site_type_symbol
_atom_site_label
_atom_site_fract_x
_atom_site_fract_y
_atom_site_fract_z
Si Si1 0.074198 0.164697 0.510393
Si Si2 0.945409 0.391691 0.833933
Si Si3 0.825661 0.840955 0.683410
Si Si4 0.331153 0.523595 0.002985
Si Si5 0.326260 0.350897 0.814876
Si Si6 0.566709 0.350449 0.693086
O O1 0.131172 0.305250 0.529806
O O2 0.095797 0.097900 0.407542
O O3 0.000000 0.250000 0.517835
O O4 0.076573 0.008349 0.579866
O O5 0.978282 0.500000 0.750000
O O6 0.877532 0.306376 0.788297
O O7 0.000000 0.250000 0.865583
O O8 0.748353 0.762839 0.672705
O O9 0.831304 0.000000 0.750000
O O10 0.850387 0.893815 0.581826
O O11 0.250000 0.564139 0.000000
O O12 0.357215 0.433274 0.908668
O O13 0.306447 0.500000 0.750000
O O14 0.378609 0.231442 0.762406
O O15 0.500000 0.250000 0.666890
O O16 0.535341 0.500000 0.750000
#
# Coordination Sequence:
#
# PCOD8165350 Si02
#       6
#     8   8   8   8   8   8
#     4  11  24  42  66  97 130 171 216 272 330 389
#     4  12  25  43  67  96 131 173 220 281 331 389
#     4  10  22  40  67  94 125 171 218 268 324 391
#     4  10  21  41  66  93 128 174 219 265 326 394
#     4  10  20  41  66  90 129 174 215 259 321 395
#     4  11  25  40  64  95 131 171 213 264 323 394
#
# _framework density 21.355492999999999
#
# number of rings (size 3 to 8) (size 9 to 14) (size 15 to 20)
#    0.000    1.333    1.667    3.500    4.667    1.333 
#    3.000    0.000    0.000    0.000    0.000    0.000 
#    0.000    0.000    0.000    0.000    0.000    0.000 
#
# Total GULP energy -297399.134169 kJ/mol
# GULP energy per Si atom -12391.630590 kJ/mol
# Density = 2.130689 g / cm^3
# Si number density = 21.355493 Si / 1000 Ang^3
#
#
#
# Elastic Constant Matrix: (Units=GPa)
#
#
# Indices 1 2 3 4 5 6 
#
# 1 79.3410 34.7304 29.2255 0.0000 0.0000 0.0000
# 2 34.7304 84.9792 50.6077 0.0000 0.0000 0.0000
# 3 29.2255 50.6077 148.9763 0.0000 0.0000 0.0000
# 4 0.0000 0.0000 0.0000 80.8199 0.0000 0.0000
# 5 0.0000 0.0000 0.0000 0.0000 30.8426 0.0000
# 6 0.0000 0.0000 0.0000 0.0000 0.0000 19.1754
#
#
#
# Elastic Compliance Matrix: (Units=1/GPa)
#
#
# Indices 1 2 3 4 5 6 
#
# 1 0.015496 -0.005670 -0.001114 0.000000 0.000000 0.000000
# 2 -0.005670 0.016826 -0.004604 0.000000 0.000000 0.000000
# 3 -0.001114 -0.004604 0.008495 0.000000 0.000000 0.000000
# 4 0.000000 0.000000 0.000000 0.012373 0.000000 0.000000
# 5 0.000000 0.000000 0.000000 0.000000 0.032423 0.000000
# 6 0.000000 0.000000 0.000000 0.000000 0.000000 0.052150
#
#
# Mechanical properties :
#
#
# Convention : Reuss Voigt Hill
#
# Bulk Modulus (GPa) = 55.42444 60.26929 57.84687
# Shear Modulus (GPa) = 30.02064 39.41646 34.71855
#
# Velocity S-wave (km/s) = 3.75341 4.30086 4.03642
# Velocity P-wave (km/s) = 6.69281 7.27642 6.99071
#
# Compressibility (1/GPa) = 0.01804258
#
# Stress axis : x y z
#
# Youngs Moduli (GPa) = 64.53290 59.43036 117.71776
#
# Poissons Ratio (x) = 0.33695 0.13113
# Poissons Ratio (y) = 0.36588 0.54194
# Poissons Ratio (z) = 0.07188 0.27360
#
# Static dielectric constant tensor:
#      x y z
#    x 3.667590 0.000000 0.000000 
#    y 0.000000 3.664710 0.000000 
#    z 0.000000 0.000000 4.178800 
# 
# 
# High freq. dielectric constant tensor:
#      x y z
#    x 1.841280 0.000000 0.000000 
#    y 0.000000 1.823660 0.000000 
#    z 0.000000 0.000000 1.858370 
# 
# From -- ./inp_files/27028.got.cif
#   From: 2010.03.12/outbox.cif.g09.slc.cpg/sg24_14_cif.got.tgz:27028.got - 2010.04.14 03:06:53.
