data_PCOD8165721
_publ_section_title
;
Structure prediction by ZEFSAII (Michael W. Deem and Ramdas Pophale) SiO2 
 PCOD8165721
Probable space group: I 21 21 21
;
_chemical_formula_sum "Si O2"
_cell_formula_units_Z 32
_cell_length_a 19.003299
_cell_length_b 8.800762
_cell_length_c 8.282381
_cell_angle_alpha 90.000000
_cell_angle_beta 90.000000
_cell_angle_gamma 90.000000
_cell_volume 1385.174484
_symmetry_space_group_name_H-M "I 21 21 21"
_symmetry_group_IT_number 24
_symmetry_cell_setting 'orthorhombic'
loop_
_space_group_symop_operation_xyz
x,y,z
-x,1/2-y,z
x,-y,1/2-z
1/2-x,y,-z
1/2+x,1/2+y,1/2+z
1/2-x,-y,1/2+z
1/2+x,1/2-y,-z
-x,1/2+y,1/2-z
loop_
_atom_site_type_symbol
_atom_site_label
_atom_site_fract_x
_atom_site_fract_y
_atom_site_fract_z
Si Si1 0.072768 0.680959 0.590345
Si Si2 0.298974 0.132597 0.136705
Si Si3 0.795220 0.146033 0.349906
Si Si4 0.429402 0.665838 0.029202
O O1 0.140084 0.779349 0.535143
O O2 0.071640 0.515948 0.510920
O O3 0.000000 0.750000 0.529693
O O4 0.081241 0.695713 0.782656
O O5 0.252081 0.243621 0.244148
O O6 0.331201 0.000000 0.250000
O O7 0.250000 0.056219 0.000000
O O8 0.750000 0.084501 0.500000
O O9 0.865352 0.229890 0.420153
O O10 0.819219 0.000000 0.250000
O O11 0.500000 0.750000 0.967788
#
# Coordination Sequence:
#
# PCOD8165721 Si02
#       4
#     8   8   8   8
#     4  10  22  40  68  98 130 174 225 275 326 408
#     4  12  27  44  68 100 135 179 227 283 341 399
#     4  12  23  42  69  98 138 177 226 280 336 404
#     4  10  22  40  67  97 131 178 221 273 336 397
#
# _framework density 23.101783000000001
#
# number of rings (size 3 to 8) (size 9 to 14) (size 15 to 20)
#    0.000    1.000    2.500    4.500    7.000    0.000 
#    0.000    6.250    0.000    0.000    0.000    0.000 
#    0.000    0.000    0.000    0.000    0.000    0.000 
#
# Total GULP energy -198350.811764 kJ/mol
# GULP energy per Si atom -12396.925735 kJ/mol
# Density = 2.304920 g / cm^3
# Si number density = 23.101783 Si / 1000 Ang^3
#
#
#
# Elastic Constant Matrix: (Units=GPa)
#
#
# Indices 1 2 3 4 5 6 
#
# 1 183.2399 45.4704 29.4665 0.0000 0.0000 0.0000
# 2 45.4704 98.0229 3.0269 0.0000 0.0000 0.0000
# 3 29.4665 3.0269 52.8095 0.0000 0.0000 0.0000
# 4 0.0000 0.0000 0.0000 14.2988 0.0000 0.0000
# 5 0.0000 0.0000 0.0000 0.0000 26.2172 0.0000
# 6 0.0000 0.0000 0.0000 0.0000 0.0000 42.1247
#
#
#
# Elastic Compliance Matrix: (Units=1/GPa)
#
#
# Indices 1 2 3 4 5 6 
#
# 1 0.006793 -0.003039 -0.003616 0.000000 0.000000 0.000000
# 2 -0.003039 0.011580 0.001032 0.000000 0.000000 0.000000
# 3 -0.003616 0.001032 0.020895 0.000000 0.000000 0.000000
# 4 0.000000 0.000000 0.000000 0.069936 0.000000 0.000000
# 5 0.000000 0.000000 0.000000 0.000000 0.038143 0.000000
# 6 0.000000 0.000000 0.000000 0.000000 0.000000 0.023739
#
#
# Mechanical properties :
#
#
# Convention : Reuss Voigt Hill
#
# Bulk Modulus (GPa) = 35.68805 54.44443 45.06624
# Shear Modulus (GPa) = 26.08618 33.60203 29.84410
#
# Velocity S-wave (km/s) = 3.36398 3.81796 3.59813
# Velocity P-wave (km/s) = 5.52903 6.56156 6.06730
#
# Compressibility (1/GPa) = 0.02802058
#
# Stress axis : x y z
#
# Youngs Moduli (GPa) = 147.20875 86.35757 47.85937
#
# Poissons Ratio (x) = 0.26248 0.17307
# Poissons Ratio (y) = 0.44744 -0.04940
# Poissons Ratio (z) = 0.53233 -0.08914
#
# Static dielectric constant tensor:
#      x y z
#    x 4.484970 0.000000 0.000000 
#    y 0.000000 4.180790 0.000000 
#    z 0.000000 0.000000 4.189180 
# 
# 
# High freq. dielectric constant tensor:
#      x y z
#    x 1.927650 0.000000 0.000000 
#    y 0.000000 1.902610 0.000000 
#    z 0.000000 0.000000 1.900680 
# 
# From -- ./inp_files/5251.got.cif
#   From: 2010.03.12/outbox.cif.g09.slc.cpg/sg24_3_cif.got.tgz:5251.got - 2010.04.14 03:06:53.
