data_PCOD8165501
_publ_section_title
;
Structure prediction by ZEFSAII (Michael W. Deem and Ramdas Pophale) SiO2 
 PCOD8165501
Probable space group: I 21 21 21
;
_chemical_formula_sum "Si O2"
_cell_formula_units_Z 56
_cell_length_a 8.781602
_cell_length_b 14.610125
_cell_length_c 20.174816
_cell_angle_alpha 90.000000
_cell_angle_beta 90.000000
_cell_angle_gamma 90.000000
_cell_volume 2588.435004
_symmetry_space_group_name_H-M "I 21 21 21"
_symmetry_group_IT_number 24
_symmetry_cell_setting 'orthorhombic'
loop_
_space_group_symop_operation_xyz
x,y,z
-x,1/2-y,z
x,-y,1/2-z
1/2-x,y,-z
1/2+x,1/2+y,1/2+z
1/2-x,-y,1/2+z
1/2+x,1/2-y,-z
-x,1/2+y,1/2-z
loop_
_atom_site_type_symbol
_atom_site_label
_atom_site_fract_x
_atom_site_fract_y
_atom_site_fract_z
Si Si1 0.996925 0.462844 0.406276
Si Si2 0.856062 0.098983 0.277477
Si Si3 0.402128 0.159500 0.202155
Si Si4 0.250000 0.489156 0.000000
Si Si5 0.460832 0.650455 0.163978
Si Si6 0.502826 0.032548 0.091620
Si Si7 0.554690 0.343183 0.842997
Si Si8 0.750000 0.483129 0.500000
O O1 0.968507 0.570817 0.391326
O O2 0.849256 0.424275 0.446648
O O3 0.024663 0.409258 0.338491
O O4 0.139088 0.448288 0.455350
O O5 0.705822 0.152731 0.300990
O O6 0.944950 0.152902 0.221092
O O7 0.805617 0.000000 0.250000
O O8 0.500000 0.250000 0.189277
O O9 0.413439 0.129836 0.278915
O O10 0.228560 0.166098 0.180041
O O11 0.488264 0.082243 0.160578
O O12 0.349774 0.429260 0.051680
O O13 0.500000 0.750000 0.133103
O O14 0.472549 0.575833 0.106028
O O15 0.360162 0.048019 0.043184
O O16 0.500000 0.250000 0.880143
#
# Coordination Sequence:
#
# PCOD8165501 Si02
#       8
#     8   8   8   4   8   8   8   4
#     4  10  21  40  63  89 120 158 212 243 306 365
#     4  10  21  39  64  91 122 161 201 250 315 371
#     4  11  24  39  63  96 126 160 202 255 314 372
#     4  10  22  38  66  88 114 172 208 248 294 368
#     4  11  23  39  64  94 124 158 207 256 313 370
#     4  11  22  42  66  87 127 164 209 253 307 359
#     4  11  23  38  60  91 127 155 195 257 310 367
#     4  10  22  40  62  90 120 168 208 252 294 368
#
# _framework density 21.634695000000001
#
# number of rings (size 3 to 8) (size 9 to 14) (size 15 to 20)
#    0.000    1.429    2.857    3.000    6.000    1.143 
#    0.000    5.000    0.000    0.000    0.000    0.000 
#    0.000    0.000    0.000    0.000    0.000    0.000 
#
# Total GULP energy -347018.885677 kJ/mol
# GULP energy per Si atom -12393.531631 kJ/mol
# Density = 2.158545 g / cm^3
# Si number density = 21.634695 Si / 1000 Ang^3
#
#
#
# Elastic Constant Matrix: (Units=GPa)
#
#
# Indices 1 2 3 4 5 6 
#
# 1 131.6446 27.2551 27.0708 0.0000 0.0000 0.0000
# 2 27.2551 83.3666 25.8666 0.0000 0.0000 0.0000
# 3 27.0708 25.8666 85.6003 0.0000 0.0000 0.0000
# 4 0.0000 0.0000 0.0000 10.7211 0.0000 0.0000
# 5 0.0000 0.0000 0.0000 0.0000 41.0592 0.0000
# 6 0.0000 0.0000 0.0000 0.0000 0.0000 22.7741
#
#
#
# Elastic Compliance Matrix: (Units=1/GPa)
#
#
# Indices 1 2 3 4 5 6 
#
# 1 0.008455 -0.002135 -0.002029 0.000000 0.000000 0.000000
# 2 -0.002135 0.013775 -0.003487 0.000000 0.000000 0.000000
# 3 -0.002029 -0.003487 0.013378 0.000000 0.000000 0.000000
# 4 0.000000 0.000000 0.000000 0.093274 0.000000 0.000000
# 5 0.000000 0.000000 0.000000 0.000000 0.024355 0.000000
# 6 0.000000 0.000000 0.000000 0.000000 0.000000 0.043910
#
#
# Mechanical properties :
#
#
# Convention : Reuss Voigt Hill
#
# Bulk Modulus (GPa) = 49.24661 51.22182 50.23422
# Shear Modulus (GPa) = 22.80832 29.60547 26.20689
#
# Velocity S-wave (km/s) = 3.25044 3.70324 3.48420
# Velocity P-wave (km/s) = 6.07448 6.48170 6.28139
#
# Compressibility (1/GPa) = 0.02030597
#
# Stress axis : x y z
#
# Youngs Moduli (GPa) = 118.26755 72.59414 74.75151
#
# Poissons Ratio (x) = 0.15498 0.15166
# Poissons Ratio (y) = 0.25248 0.26069
# Poissons Ratio (z) = 0.23995 0.25317
#
# Static dielectric constant tensor:
#      x y z
#    x 4.220360 0.000000 0.000000 
#    y 0.000000 3.555030 0.000000 
#    z 0.000000 0.000000 4.084460 
# 
# 
# High freq. dielectric constant tensor:
#      x y z
#    x 1.874240 0.000000 0.000000 
#    y 0.000000 1.803050 0.000000 
#    z 0.000000 0.000000 1.858570 
# 
# From -- ./inp_files/27600.got.cif
#   From: 2010.03.12/outbox.cif.g09.slc.cpg/sg24_14_cif.got.tgz:27600.got - 2010.04.14 03:06:53.
