data_PCOD8165873
_publ_section_title
;
Structure prediction by ZEFSAII (Michael W. Deem and Ramdas Pophale) SiO2 
 PCOD8165873
Probable space group: I 21 21 21
;
_chemical_formula_sum "Si O2"
_cell_formula_units_Z 40
_cell_length_a 12.315545
_cell_length_b 9.105754
_cell_length_c 15.220732
_cell_angle_alpha 90.000000
_cell_angle_beta 90.000000
_cell_angle_gamma 90.000000
_cell_volume 1706.888246
_symmetry_space_group_name_H-M "I 21 21 21"
_symmetry_group_IT_number 24
_symmetry_cell_setting 'orthorhombic'
loop_
_space_group_symop_operation_xyz
x,y,z
-x,1/2-y,z
x,-y,1/2-z
1/2-x,y,-z
1/2+x,1/2+y,1/2+z
1/2-x,-y,1/2+z
1/2+x,1/2-y,-z
-x,1/2+y,1/2-z
loop_
_atom_site_type_symbol
_atom_site_label
_atom_site_fract_x
_atom_site_fract_y
_atom_site_fract_z
Si Si1 0.846503 0.621533 0.947044
Si Si2 0.868899 0.000000 0.750000
Si Si3 0.716635 0.906003 0.602063
Si Si4 0.500000 0.250000 0.310493
Si Si5 0.789643 0.422726 0.163735
Si Si6 0.493894 0.081485 0.604770
O O1 0.893081 0.710838 0.866268
O O2 0.785387 0.473323 0.917020
O O3 0.750000 0.712004 0.000000
O O4 0.950634 0.581813 0.005192
O O5 0.801961 0.000083 0.658867
O O6 0.953585 0.868107 0.744302
O O7 0.750000 0.882424 0.500000
O O8 0.703950 0.753407 0.656691
O O9 0.607513 0.999563 0.606331
O O10 0.736552 0.500000 0.250000
O O11 0.910663 0.489154 0.162757
O O12 0.500000 0.250000 0.639776
#
# Coordination Sequence:
#
# PCOD8165873 Si02
#       6
#     8   4   8   4   8   8
#     4  10  23  44  75 105 139 197 253 310 387 460
#     4  12  32  46  78 108 152 202 258 322 390 480
#     4  12  28  51  76 114 152 205 266 327 391 473
#     4  12  26  48  70 106 150 192 248 320 390 456
#     4  11  26  46  74 105 156 198 251 318 385 464
#     4  11  25  43  77 107 148 197 252 320 386 461
#
# _framework density 23.434457999999999
#
# number of rings (size 3 to 8) (size 9 to 14) (size 15 to 20)
#    0.000    0.800    1.000    4.800   14.000    0.000 
#    3.600    0.000    0.000    0.000    0.000    0.000 
#    0.000    0.000    0.000    0.000    0.000    0.000 
#
# Total GULP energy -247823.875565 kJ/mol
# GULP energy per Si atom -12391.193778 kJ/mol
# Density = 2.338112 g / cm^3
# Si number density = 23.434458 Si / 1000 Ang^3
#
#
#
# Elastic Constant Matrix: (Units=GPa)
#
#
# Indices 1 2 3 4 5 6 
#
# 1 136.2803 57.2047 32.6952 0.0000 0.0000 0.0000
# 2 57.2047 126.5283 18.1202 0.0000 0.0000 0.0000
# 3 32.6952 18.1202 103.3886 0.0000 0.0000 0.0000
# 4 0.0000 0.0000 0.0000 31.8222 0.0000 0.0000
# 5 0.0000 0.0000 0.0000 0.0000 33.0926 0.0000
# 6 0.0000 0.0000 0.0000 0.0000 0.0000 41.9352
#
#
#
# Elastic Compliance Matrix: (Units=1/GPa)
#
#
# Indices 1 2 3 4 5 6 
#
# 1 0.009573 -0.003995 -0.002327 0.000000 0.000000 0.000000
# 2 -0.003995 0.009774 -0.000450 0.000000 0.000000 0.000000
# 3 -0.002327 -0.000450 0.010487 0.000000 0.000000 0.000000
# 4 0.000000 0.000000 0.000000 0.031425 0.000000 0.000000
# 5 0.000000 0.000000 0.000000 0.000000 0.030218 0.000000
# 6 0.000000 0.000000 0.000000 0.000000 0.000000 0.023846
#
#
# Mechanical properties :
#
#
# Convention : Reuss Voigt Hill
#
# Bulk Modulus (GPa) = 61.38541 64.69304 63.03923
# Shear Modulus (GPa) = 37.23107 38.58181 37.90644
#
# Velocity S-wave (km/s) = 3.99021 4.06195 4.02624
# Velocity P-wave (km/s) = 6.89061 7.04735 6.96942
#
# Compressibility (1/GPa) = 0.01629052
#
# Stress axis : x y z
#
# Youngs Moduli (GPa) = 104.46094 102.31397 95.35614
#
# Poissons Ratio (x) = 0.40872 0.22191
# Poissons Ratio (y) = 0.41730 0.04288
# Poissons Ratio (z) = 0.24310 0.04601
#
# Static dielectric constant tensor:
#      x y z
#    x 4.326860 0.000000 0.000000 
#    y 0.000000 4.286280 0.000000 
#    z 0.000000 0.000000 4.500950 
# 
# 
# High freq. dielectric constant tensor:
#      x y z
#    x 1.943190 0.000000 0.000000 
#    y 0.000000 1.924510 0.000000 
#    z 0.000000 0.000000 1.934750 
# 
# From -- ./inp_files/30090.got.cif
#   From: 2010.03.12/outbox.cif.g09.slc.cpg/sg24_16_cif.got.tgz:30090.got - 2010.04.14 03:06:53.
