data_PCOD8165017
_publ_section_title
;
Structure prediction by ZEFSAII (Michael W. Deem and Ramdas Pophale) SiO2 
 PCOD8165017
Probable space group: I 21 21 21
;
_chemical_formula_sum "Si O2"
_cell_formula_units_Z 60
_cell_length_a 23.652003
_cell_length_b 12.970161
_cell_length_c 9.194744
_cell_angle_alpha 90.000000
_cell_angle_beta 90.000000
_cell_angle_gamma 90.000000
_cell_volume 2820.674255
_symmetry_space_group_name_H-M "I 21 21 21"
_symmetry_group_IT_number 24
_symmetry_cell_setting 'orthorhombic'
loop_
_space_group_symop_operation_xyz
x,y,z
-x,1/2-y,z
x,-y,1/2-z
1/2-x,y,-z
1/2+x,1/2+y,1/2+z
1/2-x,-y,1/2+z
1/2+x,1/2-y,-z
-x,1/2+y,1/2-z
loop_
_atom_site_type_symbol
_atom_site_label
_atom_site_fract_x
_atom_site_fract_y
_atom_site_fract_z
Si Si1 0.892538 0.832432 0.747873
Si Si2 0.770772 0.821314 0.662083
Si Si3 0.214951 0.091031 0.856185
Si Si4 0.972105 0.945339 0.558499
Si Si5 0.939998 0.223548 0.175350
Si Si6 0.605946 0.895287 0.938420
Si Si7 0.691146 0.000000 0.750000
Si Si8 0.090958 0.864658 0.572458
O O1 0.834804 0.862900 0.664677
O O2 0.938651 0.920960 0.709590
O O3 0.916510 0.722262 0.696954
O O4 0.876619 0.830388 0.919438
O O5 0.750000 0.820086 0.500000
O O6 0.771744 0.702410 0.719322
O O7 0.729358 0.897128 0.749002
O O8 0.149373 0.077190 0.900575
O O9 0.233108 0.000000 0.750000
O O10 0.250000 0.076166 0.000000
O O11 0.954469 0.855323 0.450834
O O12 0.039248 0.945585 0.588506
O O13 0.953596 0.051171 0.480484
O O14 0.899193 0.179913 0.299885
O O15 0.000000 0.250000 0.250941
O O16 0.909113 0.318177 0.092537
O O17 0.651985 0.983205 0.893666
#
# Coordination Sequence:
#
# PCOD8165017 Si02
#       8
#     8   8   8   8   8   8   4   8
#     4  10  22  38  59  94 126 168 221 276 327 400
#     4  10  24  42  66  91 133 180 225 268 350 425
#     4  10  23  47  70  94 125 172 233 291 343 406
#     4  10  19  38  62  87 127 173 213 264 336 403
#     4   9  19  37  60  87 129 176 212 258 335 411
#     4  12  23  36  60  98 137 166 221 279 329 416
#     4  12  26  38  64  96 146 184 218 268 362 424
#     4   9  21  43  68  86 124 178 222 269 351 409
#
# _framework density 21.271511
#
# number of rings (size 3 to 8) (size 9 to 14) (size 15 to 20)
#    0.000    1.867    1.333    2.400    9.333    2.133 
#    4.800    4.000    0.000    0.000    0.000    0.000 
#    0.000    0.000    0.000    0.000    0.000    0.000 
#
# Total GULP energy -371856.676692 kJ/mol
# GULP energy per Si atom -12395.222556 kJ/mol
# Density = 2.122310 g / cm^3
# Si number density = 21.271511 Si / 1000 Ang^3
#
#
#
# Elastic Constant Matrix: (Units=GPa)
#
#
# Indices 1 2 3 4 5 6 
#
# 1 117.1326 49.7669 33.6078 0.0000 0.0000 0.0000
# 2 49.7669 89.0792 32.9315 0.0000 0.0000 0.0000
# 3 33.6078 32.9315 87.1495 0.0000 0.0000 0.0000
# 4 0.0000 0.0000 0.0000 25.1256 0.0000 0.0000
# 5 0.0000 0.0000 0.0000 0.0000 19.9888 0.0000
# 6 0.0000 0.0000 0.0000 0.0000 0.0000 27.0160
#
#
#
# Elastic Compliance Matrix: (Units=1/GPa)
#
#
# Indices 1 2 3 4 5 6 
#
# 1 0.011595 -0.005608 -0.002352 0.000000 0.000000 0.000000
# 2 -0.005608 0.015762 -0.003793 0.000000 0.000000 0.000000
# 3 -0.002352 -0.003793 0.013815 0.000000 0.000000 0.000000
# 4 0.000000 0.000000 0.000000 0.039800 0.000000 0.000000
# 5 0.000000 0.000000 0.000000 0.000000 0.050028 0.000000
# 6 0.000000 0.000000 0.000000 0.000000 0.000000 0.037015
#
#
# Mechanical properties :
#
#
# Convention : Reuss Voigt Hill
#
# Bulk Modulus (GPa) = 56.61162 58.44151 57.52657
# Shear Modulus (GPa) = 25.32798 26.22975 25.77887
#
# Velocity S-wave (km/s) = 3.45440 3.51535 3.48501
# Velocity P-wave (km/s) = 6.52549 6.63405 6.58000
#
# Compressibility (1/GPa) = 0.01766422
#
# Stress axis : x y z
#
# Youngs Moduli (GPa) = 86.24327 63.44564 72.38544
#
# Poissons Ratio (x) = 0.35583 0.17026
# Poissons Ratio (y) = 0.48369 0.27456
# Poissons Ratio (z) = 0.20286 0.24065
#
# Static dielectric constant tensor:
#      x y z
#    x 4.217010 0.000000 0.000000 
#    y 0.000000 3.952480 0.000000 
#    z 0.000000 0.000000 3.699560 
# 
# 
# High freq. dielectric constant tensor:
#      x y z
#    x 1.838940 0.000000 0.000000 
#    y 0.000000 1.818250 0.000000 
#    z 0.000000 0.000000 1.824370 
# 
# From -- ./inp_files/15999.got.cif
#   From: 2010.03.12/outbox.cif.g09.slc.cpg/sg24_8_cif.got.tgz:15999.got - 2010.04.14 03:06:53.
