data_PCOD8165655
_publ_section_title
;
Structure prediction by ZEFSAII (Michael W. Deem and Ramdas Pophale) SiO2 
 PCOD8165655
Probable space group: I 21 21 21
;
_chemical_formula_sum "Si O2"
_cell_formula_units_Z 64
_cell_length_a 10.589535
_cell_length_b 27.893540
_cell_length_c 9.846250
_cell_angle_alpha 90.000000
_cell_angle_beta 90.000000
_cell_angle_gamma 90.000000
_cell_volume 2908.381565
_symmetry_space_group_name_H-M "I 21 21 21"
_symmetry_group_IT_number 24
_symmetry_cell_setting 'orthorhombic'
loop_
_space_group_symop_operation_xyz
x,y,z
-x,1/2-y,z
x,-y,1/2-z
1/2-x,y,-z
1/2+x,1/2+y,1/2+z
1/2-x,-y,1/2+z
1/2+x,1/2-y,-z
-x,1/2+y,1/2-z
loop_
_atom_site_type_symbol
_atom_site_label
_atom_site_fract_x
_atom_site_fract_y
_atom_site_fract_z
Si Si1 0.438669 0.893911 0.754124
Si Si2 0.261663 0.810913 0.659563
Si Si3 0.117823 0.359955 0.479720
Si Si4 0.099006 0.458734 0.845598
Si Si5 0.849241 0.243140 0.389387
Si Si6 0.722840 0.541745 0.150789
Si Si7 0.046690 0.124091 0.723438
Si Si8 0.383889 0.461643 0.854154
O O1 0.374251 0.847618 0.689870
O O2 0.345441 0.937966 0.775561
O O3 0.541182 0.911654 0.646346
O O4 0.509379 0.885584 0.895621
O O5 0.250000 0.798145 0.500000
O O6 0.301866 0.763375 0.743740
O O7 0.129536 0.834285 0.706908
O O8 0.250000 0.390041 0.500000
O O9 0.166869 0.313715 0.395929
O O10 0.054265 0.349503 0.626152
O O11 0.040388 0.500000 0.750000
O O12 0.243335 0.448377 0.806487
O O13 0.023052 0.408774 0.836206
O O14 0.098889 0.481909 0.994992
O O15 0.750000 0.266585 0.500000
O O16 0.000000 0.250000 0.418821
O O17 0.669840 0.500000 0.250000
O O18 0.628905 0.586900 0.134504
O O19 0.750000 0.520910 0.000000
O O20 0.442555 0.500000 0.750000
#
# Coordination Sequence:
#
# PCOD8165655 Si02
#       8
#     8   8   8   8   8   8   8   8
#     4  11  22  39  66  91 136 175 230 278 343 415
#     4  11  25  43  70 102 136 180 219 285 367 435
#     4  11  23  40  71 102 127 175 233 293 349 420
#     4  10  22  39  60  90 135 183 235 282 333 398
#     4  11  23  45  74 105 137 174 229 291 357 435
#     4  11  24  39  61  96 133 181 226 278 335 395
#     4  11  23  41  68  97 137 178 231 285 346 415
#     4  10  22  38  59  91 133 186 231 283 335 396
#
# _framework density 22.005365999999999
#
# number of rings (size 3 to 8) (size 9 to 14) (size 15 to 20)
#    0.000    1.250    2.500    3.000    1.750    5.000 
#    0.000    3.125    2.750    0.000    0.000    0.000 
#    0.000    0.000    0.000    0.000    0.000    0.000 
#
# Total GULP energy -396523.697021 kJ/mol
# GULP energy per Si atom -12391.365532 kJ/mol
# Density = 2.195528 g / cm^3
# Si number density = 22.005366 Si / 1000 Ang^3
#
#
#
# Elastic Constant Matrix: (Units=GPa)
#
#
# Indices 1 2 3 4 5 6 
#
# 1 124.0768 30.2092 47.5093 0.0004 -0.0011 -0.0002
# 2 30.2092 80.7048 39.8781 -0.0004 0.0000 -0.0011
# 3 47.5093 39.8781 138.2451 -0.0014 -0.0058 -0.0182
# 4 0.0004 -0.0004 -0.0014 17.1701 0.0014 0.0036
# 5 -0.0011 0.0000 -0.0058 0.0014 30.1912 0.0064
# 6 -0.0002 -0.0011 -0.0182 0.0036 0.0064 50.6504
#
#
#
# Elastic Compliance Matrix: (Units=1/GPa)
#
#
# Indices 1 2 3 4 5 6 
#
# 1 0.009633 -0.002297 -0.002648 0.000000 0.000000 -0.000001
# 2 -0.002297 0.014998 -0.003537 0.000000 -0.000001 -0.000001
# 3 -0.002648 -0.003537 0.009164 0.000001 0.000002 0.000003
# 4 0.000000 0.000000 0.000001 0.058241 -0.000003 -0.000004
# 5 0.000000 -0.000001 0.000002 -0.000003 0.033122 -0.000004
# 6 -0.000001 -0.000001 0.000003 -0.000004 -0.000004 0.019743
#
#
# Mechanical properties :
#
#
# Convention : Reuss Voigt Hill
#
# Bulk Modulus (GPa) = 59.41473 64.24668 61.83071
# Shear Modulus (GPa) = 29.85513 34.63101 32.24307
#
# Velocity S-wave (km/s) = 3.68736 3.97136 3.83199
# Velocity P-wave (km/s) = 6.72217 7.09142 6.90926
#
# Compressibility (1/GPa) = 0.01683084
#
# Stress axis : x y z
#
# Youngs Moduli (GPa) = 103.81336 66.67347 109.12641
#
# Poissons Ratio (x) = 0.15318 0.28893
# Poissons Ratio (y) = 0.23850 0.38597
# Poissons Ratio (z) = 0.27486 0.23582
#
# Static dielectric constant tensor:
#      x y z
#    x 4.506730 0.000000 -0.000020 
#    y 0.000000 3.719820 0.000000 
#    z -0.000020 0.000000 3.790940 
# 
# 
# High freq. dielectric constant tensor:
#      x y z
#    x 1.895100 0.000000 0.000000 
#    y 0.000000 1.840020 0.000000 
#    z 0.000000 0.000000 1.857020 
# 
# From -- ./inp_files/11636.got.cif
#   From: 2010.03.12/outbox.cif.g09.slc.cpg/sg24_6_cif.got.tgz:11636.got - 2010.04.14 03:06:53.
