data_PCOD8165314
_publ_section_title
;
Structure prediction by ZEFSAII (Michael W. Deem and Ramdas Pophale) SiO2 
 PCOD8165314
Probable space group: I 21 21 21
;
_chemical_formula_sum "Si O2"
_cell_formula_units_Z 56
_cell_length_a 20.147848
_cell_length_b 20.558416
_cell_length_c 6.210881
_cell_angle_alpha 90.000000
_cell_angle_beta 90.000000
_cell_angle_gamma 90.000000
_cell_volume 2572.595608
_symmetry_space_group_name_H-M "I 21 21 21"
_symmetry_group_IT_number 24
_symmetry_cell_setting 'orthorhombic'
loop_
_space_group_symop_operation_xyz
x,y,z
-x,1/2-y,z
x,-y,1/2-z
1/2-x,y,-z
1/2+x,1/2+y,1/2+z
1/2-x,-y,1/2+z
1/2+x,1/2-y,-z
-x,1/2+y,1/2-z
loop_
_atom_site_type_symbol
_atom_site_label
_atom_site_fract_x
_atom_site_fract_y
_atom_site_fract_z
Si Si1 0.946383 0.131192 0.759734
Si Si2 0.021034 0.000000 0.750000
Si Si3 0.441390 0.816400 0.555580
Si Si4 0.750000 0.622738 0.500000
Si Si5 0.117653 0.055337 0.094722
Si Si6 0.610364 0.216123 0.618234
Si Si7 0.822647 0.719581 0.745777
Si Si8 0.679350 0.150104 0.995188
O O1 0.935053 0.176369 0.550451
O O2 0.877625 0.111346 0.876487
O O3 0.978177 0.063351 0.685870
O O4 0.987865 0.174375 0.934754
O O5 0.067531 0.981877 0.556786
O O6 0.422165 0.882078 0.688627
O O7 0.438736 0.755773 0.720836
O O8 0.388226 0.810038 0.364794
O O9 0.686392 0.577805 0.495121
O O10 0.760530 0.669848 0.710971
O O11 0.141770 0.000000 0.250000
O O12 0.660343 0.266044 0.495852
O O13 0.655214 0.165708 0.752843
O O14 0.803607 0.785465 0.628240
O O15 0.750000 0.110878 0.000000
#
# Coordination Sequence:
#
# PCOD8165314 Si02
#       8
#     8   4   8   4   8   8   8   8
#     4  10  23  41  69  91 129 176 222 279 337 409
#     4  10  24  48  66  88 130 180 230 278 332 398
#     4   9  21  40  57  95 131 158 219 281 317 383
#     4  10  20  40  60  92 134 172 224 280 312 372
#     4  10  23  41  61  88 127 175 225 276 318 379
#     4  10  22  39  67  98 125 178 208 265 351 415
#     4   9  19  36  59  89 133 168 206 260 328 400
#     4  10  21  39  60  96 134 156 203 274 329 409
#
# _framework density 21.767900000000001
#
# number of rings (size 3 to 8) (size 9 to 14) (size 15 to 20)
#    0.000    2.286    0.714    0.000    1.000   15.429 
#    0.000    4.286    3.143    0.000    0.000    0.000 
#    0.000    0.000    0.000    0.000    0.000    0.000 
#
# Total GULP energy -346883.945443 kJ/mol
# GULP energy per Si atom -12388.712337 kJ/mol
# Density = 2.171836 g / cm^3
# Si number density = 21.767900 Si / 1000 Ang^3
#
#
#
# Elastic Constant Matrix: (Units=GPa)
#
#
# Indices 1 2 3 4 5 6 
#
# 1 138.1421 45.0353 43.6728 0.0000 0.0000 0.0000
# 2 45.0353 97.6508 51.4016 0.0000 0.0000 0.0000
# 3 43.6728 51.4016 96.6861 0.0000 0.0000 0.0000
# 4 0.0000 0.0000 0.0000 29.8681 0.0000 0.0000
# 5 0.0000 0.0000 0.0000 0.0000 -38.6301 0.0000
# 6 0.0000 0.0000 0.0000 0.0000 0.0000 2516.1858
#
#
#
# Elastic Compliance Matrix: (Units=1/GPa)
#
#
# Indices 1 2 3 4 5 6 
#
# 1 0.008957 -0.002779 -0.002568 0.000000 0.000000 0.000000
# 2 -0.002779 0.015082 -0.006763 0.000000 0.000000 0.000000
# 3 -0.002568 -0.006763 0.015098 0.000000 0.000000 0.000000
# 4 0.000000 0.000000 0.000000 0.033481 0.000000 0.000000
# 5 0.000000 0.000000 0.000000 0.000000 -0.025887 0.000000
# 6 0.000000 0.000000 0.000000 0.000000 0.000000 0.000397
#
#
# Mechanical properties :
#
#
# Convention : Reuss Voigt Hill
#
# Bulk Modulus (GPa) = 67.03864 68.07761 67.55813
# Shear Modulus (GPa) = 65.51256 514.30937 289.91097
#
# Velocity S-wave (km/s) = 5.49193 15.38774 11.55300
# Velocity P-wave (km/s) = 8.43083 18.62934 14.45910
#
# Compressibility (1/GPa) = 0.01491677
#
# Stress axis : x y z
#
# Youngs Moduli (GPa) = 111.64656 66.30424 66.23249
#
# Poissons Ratio (x) = 0.18424 0.17012
# Poissons Ratio (y) = 0.31024 0.44793
# Poissons Ratio (z) = 0.28676 0.44841
#
# Static dielectric constant tensor:
#      x y z
#    x 4.252990 0.000000 0.000000 
#    y 0.000000 5.407970 0.000000 
#    z 0.000000 0.000000 3.595310 
# 
# 
# High freq. dielectric constant tensor:
#      x y z
#    x 1.875030 0.000000 0.000000 
#    y 0.000000 1.833290 0.000000 
#    z 0.000000 0.000000 1.841240 
# 
# From -- ./inp_files/5813.got.cif
#   From: 2010.03.12/outbox.cif.g09.slc.cpg/sg24_3_cif.got.tgz:5813.got - 2010.04.14 03:06:53.
