data_PCOD8165585
_publ_section_title
;
Structure prediction by ZEFSAII (Michael W. Deem and Ramdas Pophale) SiO2 
 PCOD8165585
Probable space group: I 21 21 21
;
_chemical_formula_sum "Si O2"
_cell_formula_units_Z 24
_cell_length_a 7.300021
_cell_length_b 18.698440
_cell_length_c 9.259473
_cell_angle_alpha 90.000000
_cell_angle_beta 90.000000
_cell_angle_gamma 90.000000
_cell_volume 1263.908848
_symmetry_space_group_name_H-M "I 21 21 21"
_symmetry_group_IT_number 24
_symmetry_cell_setting 'orthorhombic'
loop_
_space_group_symop_operation_xyz
x,y,z
-x,1/2-y,z
x,-y,1/2-z
1/2-x,y,-z
1/2+x,1/2+y,1/2+z
1/2-x,-y,1/2+z
1/2+x,1/2-y,-z
-x,1/2+y,1/2-z
loop_
_atom_site_type_symbol
_atom_site_label
_atom_site_fract_x
_atom_site_fract_y
_atom_site_fract_z
Si Si1 0.750000 0.585211 0.000000
Si Si2 0.585237 0.175334 0.610531
Si Si3 0.895565 0.500000 0.750000
Si Si4 0.241191 0.429879 0.827777
O O1 0.568574 0.631541 0.975578
O O2 0.762967 0.530765 0.869018
O O3 0.500000 0.250000 0.662133
O O4 0.750000 0.187776 0.500000
O O5 0.659854 0.138369 0.756877
O O6 0.022971 0.432729 0.798084
O O7 0.331296 0.500000 0.750000
O O8 0.250000 0.430640 0.000000
#
# Coordination Sequence:
#
# PCOD8165585 Si02
#       4
#     4   8   4   8
#     4  12  24  40  68 100 128 172 232 268 340 392
#     4  12  24  45  66  96 136 183 223 275 332 403
#     4  10  24  36  66 102 126 168 220 272 334 388
#     4  10  21  42  68  95 137 169 217 281 337 383
#
# _framework density 18.988713000000001
#
# number of rings (size 3 to 8) (size 9 to 14) (size 15 to 20)
#    1.000    0.000    5.000    3.000    7.000    0.000 
#    0.000    5.000    0.000    0.000    0.000    0.000 
#    0.000    0.000    0.000    0.000    0.000    0.000 
#
# Total GULP energy -148684.966445 kJ/mol
# GULP energy per Si atom -12390.413870 kJ/mol
# Density = 1.894549 g / cm^3
# Si number density = 18.988713 Si / 1000 Ang^3
#
#
#
# Elastic Constant Matrix: (Units=GPa)
#
#
# Indices 1 2 3 4 5 6 
#
# 1 94.5159 50.4513 37.3209 0.0001 0.0000 0.0000
# 2 50.4513 133.5995 74.2852 0.0001 0.0000 0.0000
# 3 37.3209 74.2852 163.6865 0.0003 0.0001 0.0002
# 4 0.0001 0.0001 0.0003 9.9623 0.0000 0.0001
# 5 0.0000 0.0000 0.0001 0.0000 27.5368 0.0000
# 6 0.0000 0.0000 0.0002 0.0001 0.0000 52.3858
#
#
#
# Elastic Compliance Matrix: (Units=1/GPa)
#
#
# Indices 1 2 3 4 5 6 
#
# 1 0.013376 -0.004488 -0.001013 0.000000 0.000000 0.000000
# 2 -0.004488 0.011517 -0.004204 0.000000 0.000000 0.000000
# 3 -0.001013 -0.004204 0.008248 0.000000 0.000000 0.000000
# 4 0.000000 0.000000 0.000000 0.100378 0.000000 0.000000
# 5 0.000000 0.000000 0.000000 0.000000 0.036315 0.000000
# 6 0.000000 0.000000 0.000000 0.000000 0.000000 0.019089
#
#
# Mechanical properties :
#
#
# Convention : Reuss Voigt Hill
#
# Bulk Modulus (GPa) = 72.82261 79.54630 76.18446
# Shear Modulus (GPa) = 23.48420 33.29331 28.38876
#
# Velocity S-wave (km/s) = 3.52055 4.19181 3.87076
# Velocity P-wave (km/s) = 7.41347 8.08769 7.75790
#
# Compressibility (1/GPa) = 0.01373200
#
# Stress axis : x y z
#
# Youngs Moduli (GPa) = 74.76203 86.82764 121.24351
#
# Poissons Ratio (x) = 0.38967 0.12282
# Poissons Ratio (y) = 0.33552 0.50965
# Poissons Ratio (z) = 0.07573 0.36498
#
# Static dielectric constant tensor:
#      x y z
#    x 3.559340 0.000000 0.000000 
#    y 0.000000 3.389550 0.000000 
#    z 0.000000 0.000000 3.224990 
# 
# 
# High freq. dielectric constant tensor:
#      x y z
#    x 1.751790 0.000000 0.000000 
#    y 0.000000 1.722120 0.000000 
#    z 0.000000 0.000000 1.738270 
# 
# From -- ./inp_files/8703.got.cif
#   From: 2010.03.12/outbox.cif.g09.slc.cpg/sg24_5_cif.got.tgz:8703.got - 2010.04.14 03:06:53.
