data_PCOD8165432
_publ_section_title
;
Structure prediction by ZEFSAII (Michael W. Deem and Ramdas Pophale) SiO2 
 PCOD8165432
Probable space group: I 21 21 21
;
_chemical_formula_sum "Si O2"
_cell_formula_units_Z 48
_cell_length_a 15.046709
_cell_length_b 17.902972
_cell_length_c 9.319663
_cell_angle_alpha 90.000000
_cell_angle_beta 90.000000
_cell_angle_gamma 90.000000
_cell_volume 2510.538367
_symmetry_space_group_name_H-M "I 21 21 21"
_symmetry_group_IT_number 24
_symmetry_cell_setting 'orthorhombic'
loop_
_space_group_symop_operation_xyz
x,y,z
-x,1/2-y,z
x,-y,1/2-z
1/2-x,y,-z
1/2+x,1/2+y,1/2+z
1/2-x,-y,1/2+z
1/2+x,1/2-y,-z
-x,1/2+y,1/2-z
loop_
_atom_site_type_symbol
_atom_site_label
_atom_site_fract_x
_atom_site_fract_y
_atom_site_fract_z
Si Si1 0.500000 0.250000 0.920719
Si Si2 0.440686 0.613676 0.736398
Si Si3 0.332153 0.046569 0.107943
Si Si4 0.486855 0.511428 0.979744
Si Si5 0.867896 0.000000 0.750000
Si Si6 0.832031 0.286210 0.898228
Si Si7 0.254976 0.643336 0.327767
O O1 0.504838 0.321442 0.818479
O O2 0.586586 0.248693 0.018548
O O3 0.483361 0.587630 0.887081
O O4 0.438675 0.549999 0.616517
O O5 0.339605 0.642049 0.752326
O O6 0.356670 0.131292 0.161988
O O7 0.309967 0.000000 0.250000
O O8 0.250000 0.043250 0.000000
O O9 0.413650 0.011232 0.020215
O O10 0.430119 0.523714 0.120600
O O11 0.808208 0.071295 0.779713
O O12 0.803036 0.222202 0.782291
O O13 0.750000 0.302974 0.000000
O O14 0.250000 0.644310 0.500000
#
# Coordination Sequence:
#
# PCOD8165432 Si02
#       7
#     4   8   8   8   4   8   8
#     4  12  18  36  64  94 128 170 220 272 330 388
#     4  11  23  37  64  93 125 162 213 274 319 388
#     4  11  25  42  65  93 124 170 224 280 329 386
#     4  11  23  40  62  94 123 165 214 262 333 392
#     4  12  22  38  64  88 128 170 204 262 338 406
#     4  10  21  37  62  92 122 167 222 263 318 407
#     4  11  21  38  59  95 125 162 217 264 325 396
#
# _framework density 19.119405
#
# number of rings (size 3 to 8) (size 9 to 14) (size 15 to 20)
#    0.000    1.000    7.500    1.000    2.333    0.000 
#    0.000    1.667    0.000    0.000    0.000    0.000 
#    0.000    0.000    0.000    0.000    0.000    0.000 
#
# Total GULP energy -297511.369168 kJ/mol
# GULP energy per Si atom -12396.307049 kJ/mol
# Density = 1.907589 g / cm^3
# Si number density = 19.119405 Si / 1000 Ang^3
#
#
#
# Elastic Constant Matrix: (Units=GPa)
#
#
# Indices 1 2 3 4 5 6 
#
# 1 115.4425 37.7128 28.4747 0.0000 0.0000 0.0000
# 2 37.7128 140.0186 48.0971 0.0000 0.0000 0.0000
# 3 28.4747 48.0971 83.5194 0.0000 0.0000 0.0000
# 4 0.0000 0.0000 0.0000 28.3428 0.0000 0.0000
# 5 0.0000 0.0000 0.0000 0.0000 37.5507 0.0000
# 6 0.0000 0.0000 0.0000 0.0000 0.0000 35.7753
#
#
#
# Elastic Compliance Matrix: (Units=1/GPa)
#
#
# Indices 1 2 3 4 5 6 
#
# 1 0.009834 -0.001866 -0.002278 0.000000 0.000000 0.000000
# 2 -0.001866 0.009257 -0.004695 0.000000 0.000000 0.000000
# 3 -0.002278 -0.004695 0.015454 0.000000 0.000000 0.000000
# 4 0.000000 0.000000 0.000000 0.035282 0.000000 0.000000
# 5 0.000000 0.000000 0.000000 0.000000 0.026631 0.000000
# 6 0.000000 0.000000 0.000000 0.000000 0.000000 0.027952
#
#
# Mechanical properties :
#
#
# Convention : Reuss Voigt Hill
#
# Bulk Modulus (GPa) = 59.28852 63.06108 61.17480
# Shear Modulus (GPa) = 33.85009 35.31350 34.58180
#
# Velocity S-wave (km/s) = 4.21225 4.30233 4.25753
# Velocity P-wave (km/s) = 7.39826 7.59832 7.49896
#
# Compressibility (1/GPa) = 0.01686667
#
# Stress axis : x y z
#
# Youngs Moduli (GPa) = 101.68969 108.02367 64.70994
#
# Poissons Ratio (x) = 0.20159 0.14741
# Poissons Ratio (y) = 0.18977 0.30380
# Poissons Ratio (z) = 0.23165 0.50715
#
# Static dielectric constant tensor:
#      x y z
#    x 3.626080 0.000000 0.000000 
#    y 0.000000 4.114370 0.000000 
#    z 0.000000 0.000000 3.337130 
# 
# 
# High freq. dielectric constant tensor:
#      x y z
#    x 1.758140 0.000000 0.000000 
#    y 0.000000 1.762240 0.000000 
#    z 0.000000 0.000000 1.708920 
# 
# From -- ./inp_files/12846.got.cif
#   From: 2010.03.12/outbox.cif.g09.slc.cpg/sg24_7_cif.got.tgz:12846.got - 2010.04.14 03:06:53.
