data_PCOD8165047
_publ_section_title
;
Structure prediction by ZEFSAII (Michael W. Deem and Ramdas Pophale) SiO2 
 PCOD8165047
Probable space group: I 21 21 21
;
_chemical_formula_sum "Si O2"
_cell_formula_units_Z 44
_cell_length_a 15.933467
_cell_length_b 9.405331
_cell_length_c 14.642368
_cell_angle_alpha 90.000000
_cell_angle_beta 90.000000
_cell_angle_gamma 90.000000
_cell_volume 2194.298403
_symmetry_space_group_name_H-M "I 21 21 21"
_symmetry_group_IT_number 24
_symmetry_cell_setting 'orthorhombic'
loop_
_space_group_symop_operation_xyz
x,y,z
-x,1/2-y,z
x,-y,1/2-z
1/2-x,y,-z
1/2+x,1/2+y,1/2+z
1/2-x,-y,1/2+z
1/2+x,1/2-y,-z
-x,1/2+y,1/2-z
loop_
_atom_site_type_symbol
_atom_site_label
_atom_site_fract_x
_atom_site_fract_y
_atom_site_fract_z
Si Si1 0.611602 0.051667 0.909625
Si Si2 0.636531 0.258419 0.654226
Si Si3 0.594820 0.239724 0.075023
Si Si4 0.169221 0.967922 0.445354
Si Si5 0.500000 0.750000 0.699822
Si Si6 0.741571 0.241440 0.815338
O O1 0.527769 0.117001 0.863044
O O2 0.696322 0.104071 0.859367
O O3 0.609057 0.882222 0.900041
O O4 0.611937 0.096760 0.016033
O O5 0.626177 0.385305 0.582979
O O6 0.577016 0.296854 0.738595
O O7 0.728110 0.243656 0.704724
O O8 0.500000 0.250000 0.113651
O O9 0.659339 0.239349 0.160232
O O10 0.607764 0.374210 0.008018
O O11 0.250000 0.015552 0.500000
O O12 0.197256 0.880113 0.357090
#
# Coordination Sequence:
#
# PCOD8165047 Si02
#       6
#     8   8   8   8   4   8
#     4  10  20  34  53  82 111 146 185 230 281 340
#     4  11  22  33  58  84 118 144 183 244 291 329
#     4  10  20  36  60  79 113 151 194 227 275 349
#     4   9  20  36  55  81 110 152 189 230 289 343
#     4  10  20  30  48  84 120 138 176 220 302 342
#     4   9  19  36  54  80 109 153 191 222 280 346
#
# _framework density 20.051967000000001
#
# number of rings (size 3 to 8) (size 9 to 14) (size 15 to 20)
#    0.000    2.182    0.909    4.364    2.545    5.818 
#    0.000    0.000    0.000    8.727    0.000    0.000 
#    0.000    0.000    0.000    0.000    0.000    0.000 
#
# Total GULP energy -272706.807116 kJ/mol
# GULP energy per Si atom -12395.763960 kJ/mol
# Density = 2.000633 g / cm^3
# Si number density = 20.051967 Si / 1000 Ang^3
#
#
#
# Elastic Constant Matrix: (Units=GPa)
#
#
# Indices 1 2 3 4 5 6 
#
# 1 107.5719 35.8644 22.4913 0.0000 0.0000 0.0000
# 2 35.8644 136.7912 29.9152 0.0000 0.0000 0.0000
# 3 22.4913 29.9152 51.9080 0.0000 0.0000 0.0000
# 4 0.0000 0.0000 0.0000 14.6321 0.0000 0.0000
# 5 0.0000 0.0000 0.0000 0.0000 20.9169 0.0000
# 6 0.0000 0.0000 0.0000 0.0000 0.0000 13.9437
#
#
#
# Elastic Compliance Matrix: (Units=1/GPa)
#
#
# Indices 1 2 3 4 5 6 
#
# 1 0.010702 -0.002050 -0.003456 0.000000 0.000000 0.000000
# 2 -0.002050 0.008757 -0.004159 0.000000 0.000000 0.000000
# 3 -0.003456 -0.004159 0.023159 0.000000 0.000000 0.000000
# 4 0.000000 0.000000 0.000000 0.068343 0.000000 0.000000
# 5 0.000000 0.000000 0.000000 0.000000 0.047808 0.000000
# 6 0.000000 0.000000 0.000000 0.000000 0.000000 0.071717
#
#
# Mechanical properties :
#
#
# Convention : Reuss Voigt Hill
#
# Bulk Modulus (GPa) = 42.93791 52.53478 47.73634
# Shear Modulus (GPa) = 19.41153 23.76520 21.58837
#
# Velocity S-wave (km/s) = 3.11474 3.44638 3.28475
# Velocity P-wave (km/s) = 5.86475 6.48790 6.18418
#
# Compressibility (1/GPa) = 0.02328944
#
# Stress axis : x y z
#
# Youngs Moduli (GPa) = 93.43920 114.18899 43.18007
#
# Poissons Ratio (x) = 0.23411 0.14921
# Poissons Ratio (y) = 0.19157 0.17957
# Poissons Ratio (z) = 0.32289 0.47487
#
# Static dielectric constant tensor:
#      x y z
#    x 3.396450 0.000000 0.000000 
#    y 0.000000 3.477320 0.000000 
#    z 0.000000 0.000000 3.502770 
# 
# 
# High freq. dielectric constant tensor:
#      x y z
#    x 1.777900 0.000000 0.000000 
#    y 0.000000 1.773560 0.000000 
#    z 0.000000 0.000000 1.747650 
# 
# From -- ./inp_files/14067.got.cif
#   From: 2010.03.12/outbox.cif.g09.slc.cpg/sg24_8_cif.got.tgz:14067.got - 2010.04.14 03:06:53.
