data_PCOD8165673
_publ_section_title
;
Structure prediction by ZEFSAII (Michael W. Deem and Ramdas Pophale) SiO2 
 PCOD8165673
Probable space group: I 21 21 21
;
_chemical_formula_sum "Si O2"
_cell_formula_units_Z 40
_cell_length_a 7.134505
_cell_length_b 17.194904
_cell_length_c 15.030733
_cell_angle_alpha 90.000000
_cell_angle_beta 90.000000
_cell_angle_gamma 90.000000
_cell_volume 1843.927165
_symmetry_space_group_name_H-M "I 21 21 21"
_symmetry_group_IT_number 24
_symmetry_cell_setting 'orthorhombic'
loop_
_space_group_symop_operation_xyz
x,y,z
-x,1/2-y,z
x,-y,1/2-z
1/2-x,y,-z
1/2+x,1/2+y,1/2+z
1/2-x,-y,1/2+z
1/2+x,1/2-y,-z
-x,1/2+y,1/2-z
loop_
_atom_site_type_symbol
_atom_site_label
_atom_site_fract_x
_atom_site_fract_y
_atom_site_fract_z
Si Si1 0.765237 0.914229 0.596085
Si Si2 0.497066 0.968004 0.839372
Si Si3 0.878630 0.516265 0.913708
Si Si4 0.102586 0.325263 0.573612
Si Si5 0.857622 0.181070 0.268597
O O1 0.750000 0.870874 0.500000
O O2 0.712324 0.854946 0.674855
O O3 0.616142 0.986442 0.584980
O O4 0.973571 0.948714 0.609627
O O5 0.276940 0.986247 0.836482
O O6 0.532299 0.876219 0.836698
O O7 0.593071 0.000000 0.750000
O O8 0.966910 0.601483 0.915243
O O9 0.750000 0.501257 0.000000
O O10 0.250000 0.352107 0.500000
O O11 0.180924 0.296446 0.670248
O O12 0.000000 0.250000 0.533266
O O13 0.000000 0.250000 0.244622
#
# Coordination Sequence:
#
# PCOD8165673 Si02
#       5
#     8   8   8   8   8
#     4  11  23  45  68 100 138 184 236 295 341 421
#     4  10  22  38  66  96 133 172 228 288 344 404
#     4  12  22  37  67 101 133 176 235 285 349 423
#     4  12  24  40  64  98 143 179 225 288 362 434
#     4  11  24  45  68  99 143 187 233 293 358 421
#
# _framework density 21.692831000000002
#
# number of rings (size 3 to 8) (size 9 to 14) (size 15 to 20)
#    0.000    0.800    4.000    4.200    2.800    0.000 
#    0.000    1.000    0.000    0.000    0.000    0.000 
#    0.000    0.000    0.000    0.000    0.000    0.000 
#
# Total GULP energy -247804.421891 kJ/mol
# GULP energy per Si atom -12390.221095 kJ/mol
# Density = 2.164346 g / cm^3
# Si number density = 21.692831 Si / 1000 Ang^3
#
#
#
# Elastic Constant Matrix: (Units=GPa)
#
#
# Indices 1 2 3 4 5 6 
#
# 1 139.2192 39.1964 36.2626 0.0000 0.0000 0.0000
# 2 39.1964 82.5999 33.7463 0.0000 0.0000 0.0000
# 3 36.2626 33.7463 114.6497 0.0000 0.0000 0.0000
# 4 0.0000 0.0000 0.0000 26.0047 0.0000 0.0000
# 5 0.0000 0.0000 0.0000 0.0000 36.6873 0.0000
# 6 0.0000 0.0000 0.0000 0.0000 0.0000 44.6621
#
#
#
# Elastic Compliance Matrix: (Units=1/GPa)
#
#
# Indices 1 2 3 4 5 6 
#
# 1 0.008580 -0.003368 -0.001722 0.000000 0.000000 0.000000
# 2 -0.003368 0.015083 -0.003374 0.000000 0.000000 0.000000
# 3 -0.001722 -0.003374 0.010260 0.000000 0.000000 0.000000
# 4 0.000000 0.000000 0.000000 0.038455 0.000000 0.000000
# 5 0.000000 0.000000 0.000000 0.000000 0.027257 0.000000
# 6 0.000000 0.000000 0.000000 0.000000 0.000000 0.022390
#
#
# Mechanical properties :
#
#
# Convention : Reuss Voigt Hill
#
# Bulk Modulus (GPa) = 58.84402 61.65327 60.24864
# Shear Modulus (GPa) = 34.57350 36.62172 35.59761
#
# Velocity S-wave (km/s) = 3.99654 4.11322 4.05530
# Velocity P-wave (km/s) = 6.96286 7.14429 7.05416
#
# Compressibility (1/GPa) = 0.01699408
#
# Stress axis : x y z
#
# Youngs Moduli (GPa) = 116.55414 66.29859 97.46336
#
# Poissons Ratio (x) = 0.22327 0.16787
# Poissons Ratio (y) = 0.39251 0.32889
# Poissons Ratio (z) = 0.20076 0.22372
#
# Static dielectric constant tensor:
#      x y z
#    x 4.339390 0.000000 0.000000 
#    y 0.000000 3.636830 0.000000 
#    z 0.000000 0.000000 4.006240 
# 
# 
# High freq. dielectric constant tensor:
#      x y z
#    x 1.866210 0.000000 0.000000 
#    y 0.000000 1.827250 0.000000 
#    z 0.000000 0.000000 1.868840 
# 
# From -- ./inp_files/28609.got.cif
#   From: 2010.03.12/outbox.cif.g09.slc.cpg/sg24_15_cif.got.tgz:28609.got - 2010.04.14 03:06:53.
