data_PCOD8165448
_publ_section_title
;
Structure prediction by ZEFSAII (Michael W. Deem and Ramdas Pophale) SiO2 
 PCOD8165448
Probable space group: I 21 21 21
;
_chemical_formula_sum "Si O2"
_cell_formula_units_Z 44
_cell_length_a 23.993884
_cell_length_b 5.376657
_cell_length_c 18.629793
_cell_angle_alpha 90.000000
_cell_angle_beta 90.000000
_cell_angle_gamma 90.000000
_cell_volume 2403.371551
_symmetry_space_group_name_H-M "I 21 21 21"
_symmetry_group_IT_number 24
_symmetry_cell_setting 'orthorhombic'
loop_
_space_group_symop_operation_xyz
x,y,z
-x,1/2-y,z
x,-y,1/2-z
1/2-x,y,-z
1/2+x,1/2+y,1/2+z
1/2-x,-y,1/2+z
1/2+x,1/2-y,-z
-x,1/2+y,1/2-z
loop_
_atom_site_type_symbol
_atom_site_label
_atom_site_fract_x
_atom_site_fract_y
_atom_site_fract_z
Si Si1 0.000000 0.750000 0.937012
Si Si2 0.094545 0.526233 0.028062
Si Si3 0.964988 0.999637 0.330874
Si Si4 0.444372 0.098583 0.173499
Si Si5 0.307399 0.244570 0.458546
Si Si6 0.652246 0.760286 0.415407
O O1 0.955282 0.611483 0.886336
O O2 0.035276 0.570203 0.988567
O O3 0.086050 0.495798 0.113158
O O4 0.139676 0.746160 0.013353
O O5 0.120472 0.275348 0.992999
O O6 0.000000 0.250000 0.344469
O O7 0.940716 0.000000 0.250000
O O8 0.000000 0.750000 0.344304
O O9 0.500000 0.250000 0.186413
O O10 0.393817 0.271361 0.147159
O O11 0.424593 0.000000 0.250000
O O12 0.250000 0.241867 0.500000
O O13 0.309320 0.491042 0.407201
O O14 0.311614 0.991919 0.411828
#
# Coordination Sequence:
#
# PCOD8165448 Si02
#       6
#     4   8   8   8   8   8
#     4  12  20  36  52  86 120 152 198 226 282 344
#     4  10  22  32  62  81 115 148 184 241 276 344
#     4  10  22  35  52  82 118 148 173 216 283 348
#     4  12  22  34  51  81 126 164 193 230 288 351
#     4  10  21  38  59  85 107 143 197 249 290 328
#     4  10  22  36  56  85 108 149 196 240 283 330
#
# _framework density 18.307614999999998
#
# number of rings (size 3 to 8) (size 9 to 14) (size 15 to 20)
#    1.091    0.364    5.455    0.545    5.091    0.000 
#    0.000    0.000    0.000    2.182    0.000    0.000 
#    0.000    0.000    0.000    0.000    0.000    0.000 
#
# Total GULP energy -272594.641467 kJ/mol
# GULP energy per Si atom -12390.665521 kJ/mol
# Density = 1.826595 g / cm^3
# Si number density = 18.307615 Si / 1000 Ang^3
#
#
#
# Elastic Constant Matrix: (Units=GPa)
#
#
# Indices 1 2 3 4 5 6 
#
# 1 69.4555 24.2148 19.2914 0.0000 0.0000 0.0000
# 2 24.2148 124.8243 17.9168 0.0000 0.0000 0.0000
# 3 19.2914 17.9168 88.6235 0.0000 0.0000 0.0000
# 4 0.0000 0.0000 0.0000 7.9062 0.0000 0.0000
# 5 0.0000 0.0000 0.0000 0.0000 -7.0586 0.0000
# 6 0.0000 0.0000 0.0000 0.0000 0.0000 24.8413
#
#
#
# Elastic Compliance Matrix: (Units=1/GPa)
#
#
# Indices 1 2 3 4 5 6 
#
# 1 0.016168 -0.002710 -0.002972 0.000000 0.000000 0.000000
# 2 -0.002710 0.008705 -0.001170 0.000000 0.000000 0.000000
# 3 -0.002972 -0.001170 0.012167 0.000000 0.000000 0.000000
# 4 0.000000 0.000000 0.000000 0.126483 0.000000 0.000000
# 5 0.000000 0.000000 0.000000 0.000000 -0.141670 0.000000
# 6 0.000000 0.000000 0.000000 0.000000 0.000000 0.040255
#
#
# Mechanical properties :
#
#
# Convention : Reuss Voigt Hill
#
# Bulk Modulus (GPa) = 42.85043 45.08327 43.96685
# Shear Modulus (GPa) = 59.81631 19.90313 39.85972
#
# Velocity S-wave (km/s) = 5.72222 3.30077 4.67113
# Velocity P-wave (km/s) = 8.19238 6.26144 7.29112
#
# Compressibility (1/GPa) = 0.02333699
#
# Stress axis : x y z
#
# Youngs Moduli (GPa) = 61.85125 114.87793 82.18911
#
# Poissons Ratio (x) = 0.31131 0.24423
# Poissons Ratio (y) = 0.16761 0.09616
# Poissons Ratio (z) = 0.18379 0.13440
#
# Static dielectric constant tensor:
#      x y z
#    x 3.083670 0.000000 0.000000 
#    y 0.000000 3.525720 0.000000 
#    z 0.000000 0.000000 3.299220 
# 
# 
# High freq. dielectric constant tensor:
#      x y z
#    x 1.679000 0.000000 0.000000 
#    y 0.000000 1.721350 0.000000 
#    z 0.000000 0.000000 1.689960 
# 
# From -- ./inp_files/4758.got.cif
#   From: 2010.03.12/outbox.cif.g09.slc.cpg/sg24_3_cif.got.tgz:4758.got - 2010.04.14 03:06:53.
