data_PCOD8165868
_publ_section_title
;
Structure prediction by ZEFSAII (Michael W. Deem and Ramdas Pophale) SiO2 
 PCOD8165868
Probable space group: I 21 21 21
;
_chemical_formula_sum "Si O2"
_cell_formula_units_Z 40
_cell_length_a 14.464627
_cell_length_b 16.465541
_cell_length_c 7.481876
_cell_angle_alpha 90.000000
_cell_angle_beta 90.000000
_cell_angle_gamma 90.000000
_cell_volume 1781.942762
_symmetry_space_group_name_H-M "I 21 21 21"
_symmetry_group_IT_number 24
_symmetry_cell_setting 'orthorhombic'
loop_
_space_group_symop_operation_xyz
x,y,z
-x,1/2-y,z
x,-y,1/2-z
1/2-x,y,-z
1/2+x,1/2+y,1/2+z
1/2-x,-y,1/2+z
1/2+x,1/2-y,-z
-x,1/2+y,1/2-z
loop_
_atom_site_type_symbol
_atom_site_label
_atom_site_fract_x
_atom_site_fract_y
_atom_site_fract_z
Si Si1 0.894518 0.762134 0.755666
Si Si2 0.514374 0.507453 0.959271
Si Si3 0.349149 0.133387 0.974659
Si Si4 0.329085 0.430537 0.367380
Si Si5 0.350298 0.850530 0.939921
O O1 0.840908 0.710673 0.605835
O O2 0.863934 0.855716 0.746572
O O3 0.000000 0.750000 0.705528
O O4 0.873225 0.733073 0.957892
O O5 0.501170 0.500000 0.750000
O O6 0.566583 0.426219 0.029976
O O7 0.577707 0.583388 0.010199
O O8 0.415277 0.521572 0.045616
O O9 0.360406 0.164132 0.771196
O O10 0.250000 0.087667 0.000000
O O11 0.279633 0.500000 0.250000
O O12 0.250000 0.398021 0.500000
O O13 0.250000 0.881866 0.000000
#
# Coordination Sequence:
#
# PCOD8165868 Si02
#       5
#     8   8   8   8   8
#     4  12  25  46  71 103 142 189 234 294 356 418
#     4  10  23  44  71 106 142 182 232 290 355 425
#     4  11  24  42  72 113 142 182 232 290 359 426
#     4  12  27  48  71  96 138 192 243 292 348 421
#     4  11  22  42  70 105 146 182 224 287 357 424
#
# _framework density 22.447412
#
# number of rings (size 3 to 8) (size 9 to 14) (size 15 to 20)
#    0.000    0.800    4.000    3.000    0.000    1.600 
#    3.600    0.000    0.000    0.000    0.000    0.000 
#    0.000    0.000    0.000    0.000    0.000    0.000 
#
# Total GULP energy -247992.563674 kJ/mol
# GULP energy per Si atom -12399.628184 kJ/mol
# Density = 2.239632 g / cm^3
# Si number density = 22.447412 Si / 1000 Ang^3
#
#
#
# Elastic Constant Matrix: (Units=GPa)
#
#
# Indices 1 2 3 4 5 6 
#
# 1 115.8676 27.4603 15.6376 0.0000 0.0000 0.0000
# 2 27.4603 136.5298 45.3987 0.0000 0.0000 0.0000
# 3 15.6376 45.3987 76.5092 0.0000 0.0000 0.0000
# 4 0.0000 0.0000 0.0000 33.6819 0.0000 0.0000
# 5 0.0000 0.0000 0.0000 0.0000 29.4894 0.0000
# 6 0.0000 0.0000 0.0000 0.0000 0.0000 31.7520
#
#
#
# Elastic Compliance Matrix: (Units=1/GPa)
#
#
# Indices 1 2 3 4 5 6 
#
# 1 0.009119 -0.001513 -0.000966 0.000000 0.000000 0.000000
# 2 -0.001513 0.009376 -0.005254 0.000000 0.000000 0.000000
# 3 -0.000966 -0.005254 0.016385 0.000000 0.000000 0.000000
# 4 0.000000 0.000000 0.000000 0.029690 0.000000 0.000000
# 5 0.000000 0.000000 0.000000 0.000000 0.033911 0.000000
# 6 0.000000 0.000000 0.000000 0.000000 0.000000 0.031494
#
#
# Mechanical properties :
#
#
# Convention : Reuss Voigt Hill
#
# Bulk Modulus (GPa) = 51.50853 56.21108 53.85981
# Shear Modulus (GPa) = 32.91362 35.01200 33.96281
#
# Velocity S-wave (km/s) = 3.83332 3.95363 3.89394
# Velocity P-wave (km/s) = 6.52600 6.77770 6.65304
#
# Compressibility (1/GPa) = 0.01941426
#
# Stress axis : x y z
#
# Youngs Moduli (GPa) = 109.65514 106.65751 61.02969
#
# Poissons Ratio (x) = 0.16137 0.05897
# Poissons Ratio (y) = 0.16590 0.32066
# Poissons Ratio (z) = 0.10595 0.56039
#
# Static dielectric constant tensor:
#      x y z
#    x 4.195480 0.000000 0.000000 
#    y 0.000000 3.921470 0.000000 
#    z 0.000000 0.000000 4.053020 
# 
# 
# High freq. dielectric constant tensor:
#      x y z
#    x 1.898490 0.000000 0.000000 
#    y 0.000000 1.878080 0.000000 
#    z 0.000000 0.000000 1.887920 
# 
# From -- ./inp_files/12299.got.cif
#   From: 2010.03.12/outbox.cif.g09.slc.cpg/sg24_7_cif.got.tgz:12299.got - 2010.04.14 03:06:53.
