data_PCOD8165130
_publ_section_title
;
Structure prediction by ZEFSAII (Michael W. Deem and Ramdas Pophale) SiO2 
 PCOD8165130
Probable space group: I 21 21 21
;
_chemical_formula_sum "Si O2"
_cell_formula_units_Z 36
_cell_length_a 31.531210
_cell_length_b 4.903790
_cell_length_c 11.385306
_cell_angle_alpha 90.000000
_cell_angle_beta 90.000000
_cell_angle_gamma 90.000000
_cell_volume 1760.423706
_symmetry_space_group_name_H-M "I 21 21 21"
_symmetry_group_IT_number 24
_symmetry_cell_setting 'orthorhombic'
loop_
_space_group_symop_operation_xyz
x,y,z
-x,1/2-y,z
x,-y,1/2-z
1/2-x,y,-z
1/2+x,1/2+y,1/2+z
1/2-x,-y,1/2+z
1/2+x,1/2-y,-z
-x,1/2+y,1/2-z
loop_
_atom_site_type_symbol
_atom_site_label
_atom_site_fract_x
_atom_site_fract_y
_atom_site_fract_z
Si Si1 0.547703 0.752238 0.334041
Si Si2 0.683685 0.243479 0.829454
Si Si3 0.370145 0.684453 0.465436
Si Si4 0.173269 0.825267 0.868891
Si Si5 0.750000 0.505098 0.000000
O O1 0.500000 0.750000 0.385709
O O2 0.559031 0.500000 0.250000
O O3 0.579461 0.792652 0.443515
O O4 0.554147 0.000000 0.250000
O O5 0.670243 0.500000 0.750000
O O6 0.701614 0.000000 0.750000
O O7 0.642901 0.114650 0.900392
O O8 0.721137 0.312067 0.919839
O O9 0.347694 0.477589 0.370544
O O10 0.353291 0.993442 0.458965
O O11 0.170399 0.000000 0.750000
O O12 0.221656 0.802663 0.914884
#
# Coordination Sequence:
#
# PCOD8165130 Si02
#       5
#     8   8   8   8   4
#     4  10  20  35  59  90 120 147 180 229 289 352
#     4  11  24  40  58  81 113 154 201 248 292 344
#     4  11  22  37  57  82 112 150 188 229 288 346
#     4  11  22  35  55  80 111 147 187 234 281 338
#     4  10  24  38  56  80 108 148 196 242 288 334
#
# _framework density 20.449622000000002
#
# number of rings (size 3 to 8) (size 9 to 14) (size 15 to 20)
#    0.000    1.333    0.000    7.333    0.000   11.556 
#    0.000    0.000    0.000    1.333    0.000    0.000 
#    0.000    0.000    0.000    0.000    0.000    0.000 
#
# Total GULP energy -223028.663777 kJ/mol
# GULP energy per Si atom -12390.481321 kJ/mol
# Density = 2.040308 g / cm^3
# Si number density = 20.449622 Si / 1000 Ang^3
#
#
#
# Elastic Constant Matrix: (Units=GPa)
#
#
# Indices 1 2 3 4 5 6 
#
# 1 154.3478 37.2129 57.5325 0.0000 0.0000 0.0000
# 2 37.2129 107.5835 25.2619 0.0000 0.0000 0.0000
# 3 57.5325 25.2619 100.6914 0.0000 0.0000 0.0000
# 4 0.0000 0.0000 0.0000 29.7088 0.0000 0.0000
# 5 0.0000 0.0000 0.0000 0.0000 32.3955 0.0000
# 6 0.0000 0.0000 0.0000 0.0000 0.0000 24.8189
#
#
#
# Elastic Compliance Matrix: (Units=1/GPa)
#
#
# Indices 1 2 3 4 5 6 
#
# 1 0.008595 -0.001934 -0.004426 0.000000 0.000000 0.000000
# 2 -0.001934 0.010312 -0.001482 0.000000 0.000000 0.000000
# 3 -0.004426 -0.001482 0.012832 0.000000 0.000000 0.000000
# 4 0.000000 0.000000 0.000000 0.033660 0.000000 0.000000
# 5 0.000000 0.000000 0.000000 0.000000 0.030869 0.000000
# 6 0.000000 0.000000 0.000000 0.000000 0.000000 0.040292
#
#
# Mechanical properties :
#
#
# Convention : Reuss Voigt Hill
#
# Bulk Modulus (GPa) = 62.28429 66.95971 64.62200
# Shear Modulus (GPa) = 31.72706 33.55900 32.64303
#
# Velocity S-wave (km/s) = 3.94315 4.05539 3.99966
# Velocity P-wave (km/s) = 7.15924 7.39886 7.28004
#
# Compressibility (1/GPa) = 0.01605541
#
# Stress axis : x y z
#
# Youngs Moduli (GPa) = 116.35029 96.97425 77.93055
#
# Poissons Ratio (x) = 0.18752 0.34490
# Poissons Ratio (y) = 0.22499 0.11551
# Poissons Ratio (z) = 0.51493 0.14374
#
# Static dielectric constant tensor:
#      x y z
#    x 3.527390 0.000000 0.000000 
#    y 0.000000 3.933480 0.000000 
#    z 0.000000 0.000000 4.081280 
# 
# 
# High freq. dielectric constant tensor:
#      x y z
#    x 1.781330 0.000000 0.000000 
#    y 0.000000 1.817870 0.000000 
#    z 0.000000 0.000000 1.783100 
# 
# From -- ./inp_files/23058.got.cif
#   From: 2010.03.12/outbox.cif.g09.slc.cpg/sg24_12_cif.got.tgz:23058.got - 2010.04.14 03:06:53.
