data_PCOD8165884
_publ_section_title
;
Structure prediction by ZEFSAII (Michael W. Deem and Ramdas Pophale) SiO2 
 PCOD8165884
Probable space group: I 21 21 21
;
_chemical_formula_sum "Si O2"
_cell_formula_units_Z 40
_cell_length_a 10.205798
_cell_length_b 7.037601
_cell_length_c 26.332396
_cell_angle_alpha 90.000000
_cell_angle_beta 90.000000
_cell_angle_gamma 90.000000
_cell_volume 1891.306811
_symmetry_space_group_name_H-M "I 21 21 21"
_symmetry_group_IT_number 24
_symmetry_cell_setting 'orthorhombic'
loop_
_space_group_symop_operation_xyz
x,y,z
-x,1/2-y,z
x,-y,1/2-z
1/2-x,y,-z
1/2+x,1/2+y,1/2+z
1/2-x,-y,1/2+z
1/2+x,1/2-y,-z
-x,1/2+y,1/2-z
loop_
_atom_site_type_symbol
_atom_site_label
_atom_site_fract_x
_atom_site_fract_y
_atom_site_fract_z
Si Si1 0.360169 0.648093 0.796189
Si Si2 0.012973 0.033864 0.591786
Si Si3 0.294663 0.741791 0.444000
Si Si4 0.353945 0.709594 0.650159
Si Si5 0.162460 0.990476 0.805322
O O1 0.500000 0.750000 0.793541
O O2 0.341952 0.500000 0.750000
O O3 0.339401 0.517707 0.845869
O O4 0.248690 0.802519 0.803450
O O5 0.051872 0.017835 0.651208
O O6 0.000000 0.250000 0.574190
O O7 0.122695 0.936973 0.555856
O O8 0.877040 0.926120 0.582610
O O9 0.250000 0.685538 0.500000
O O10 0.167689 0.770618 0.408444
O O11 0.500000 0.750000 0.668666
O O12 0.255514 0.826279 0.686706
O O13 0.092314 0.000000 0.750000
#
# Coordination Sequence:
#
# PCOD8165884 Si02
#       5
#     8   8   8   8   8
#     4  12  21  34  58  91 135 179 220 269 319 380
#     4  10  23  46  66  98 134 166 222 272 319 406
#     4  10  24  45  71  93 128 171 216 277 337 390
#     4  11  22  38  62  94 131 166 220 274 326 394
#     4  11  22  40  62  93 135 182 216 261 327 388
#
# _framework density 21.1494
#
# number of rings (size 3 to 8) (size 9 to 14) (size 15 to 20)
#    0.000    1.200    4.000    2.400    2.800    0.800 
#    7.200    1.000    0.000    0.000    0.000    0.000 
#    0.000    0.000    0.000    0.000    0.000    0.000 
#
# Total GULP energy -247922.408383 kJ/mol
# GULP energy per Si atom -12396.120419 kJ/mol
# Density = 2.110126 g / cm^3
# Si number density = 21.149400 Si / 1000 Ang^3
#
#
#
# Elastic Constant Matrix: (Units=GPa)
#
#
# Indices 1 2 3 4 5 6 
#
# 1 72.8454 39.5312 47.5380 0.0000 0.0000 0.0000
# 2 39.5312 159.8875 36.6773 0.0000 0.0000 0.0000
# 3 47.5380 36.6773 142.0223 0.0000 0.0000 0.0000
# 4 0.0000 0.0000 0.0000 7.3557 0.0000 0.0000
# 5 0.0000 0.0000 0.0000 0.0000 24.6627 0.0000
# 6 0.0000 0.0000 0.0000 0.0000 0.0000 30.5807
#
#
#
# Elastic Compliance Matrix: (Units=1/GPa)
#
#
# Indices 1 2 3 4 5 6 
#
# 1 0.019233 -0.003485 -0.005538 0.000000 0.000000 0.000000
# 2 -0.003485 0.007280 -0.000714 0.000000 0.000000 0.000000
# 3 -0.005538 -0.000714 0.009079 0.000000 0.000000 0.000000
# 4 0.000000 0.000000 0.000000 0.135948 0.000000 0.000000
# 5 0.000000 0.000000 0.000000 0.000000 0.040547 0.000000
# 6 0.000000 0.000000 0.000000 0.000000 0.000000 0.032700
#
#
# Mechanical properties :
#
#
# Convention : Reuss Voigt Hill
#
# Bulk Modulus (GPa) = 62.03743 69.13869 65.58806
# Shear Modulus (GPa) = 18.54377 29.25373 23.89875
#
# Velocity S-wave (km/s) = 2.96429 3.72317 3.36519
# Velocity P-wave (km/s) = 6.41192 7.15851 6.79547
#
# Compressibility (1/GPa) = 0.01611930
#
# Stress axis : x y z
#
# Youngs Moduli (GPa) = 51.99495 137.36865 110.14444
#
# Poissons Ratio (x) = 0.47871 0.60994
# Poissons Ratio (y) = 0.18119 0.07859
# Poissons Ratio (z) = 0.28793 0.09802
#
# Static dielectric constant tensor:
#      x y z
#    x 3.862590 0.000000 0.000000 
#    y 0.000000 4.272560 0.000000 
#    z 0.000000 0.000000 3.700720 
# 
# 
# High freq. dielectric constant tensor:
#      x y z
#    x 1.823620 0.000000 0.000000 
#    y 0.000000 1.846000 0.000000 
#    z 0.000000 0.000000 1.816700 
# 
# From -- ./inp_files/37044.got.cif
#   From: 2010.03.12/outbox.cif.g09.slc.cpg/sg24_19_cif.got.tgz:37044.got - 2010.04.14 03:06:53.
