data_PCOD8165998
_publ_section_title
;
Structure prediction by ZEFSAII (Michael W. Deem and Ramdas Pophale) SiO2 
 PCOD8165998
Probable space group: I 21 21 21
;
_chemical_formula_sum "Si O2"
_cell_formula_units_Z 56
_cell_length_a 19.340462
_cell_length_b 12.325223
_cell_length_c 12.135139
_cell_angle_alpha 90.000000
_cell_angle_beta 90.000000
_cell_angle_gamma 90.000000
_cell_volume 2892.719913
_symmetry_space_group_name_H-M "I 21 21 21"
_symmetry_group_IT_number 24
_symmetry_cell_setting 'orthorhombic'
loop_
_space_group_symop_operation_xyz
x,y,z
-x,1/2-y,z
x,-y,1/2-z
1/2-x,y,-z
1/2+x,1/2+y,1/2+z
1/2-x,-y,1/2+z
1/2+x,1/2-y,-z
-x,1/2+y,1/2-z
loop_
_atom_site_type_symbol
_atom_site_label
_atom_site_fract_x
_atom_site_fract_y
_atom_site_fract_z
Si Si1 0.905797 0.165566 0.766129
Si Si2 0.053747 0.898370 0.681468
Si Si3 0.081039 0.229533 0.384613
Si Si4 0.423072 0.212620 0.863763
Si Si5 0.442500 0.001444 0.538262
Si Si6 0.670428 0.856842 0.479709
Si Si7 0.097227 0.427220 0.522022
O O1 0.917093 0.294437 0.753088
O O2 0.841415 0.151055 0.847914
O O3 0.896213 0.104169 0.650874
O O4 0.970878 0.112421 0.829461
O O5 0.077541 0.000000 0.750000
O O6 0.085261 0.924784 0.561672
O O7 0.103591 0.243459 0.257831
O O8 0.099939 0.111414 0.435871
O O9 0.120620 0.321026 0.454167
O O10 0.000000 0.250000 0.395414
O O11 0.500000 0.250000 0.892130
O O12 0.429184 0.080963 0.861204
O O13 0.372764 0.266793 0.953388
O O14 0.520899 0.034859 0.511945
O O15 0.750000 0.834448 0.500000
O O16 0.649713 0.978661 0.514688
#
# Coordination Sequence:
#
# PCOD8165998 Si02
#       7
#     8   8   8   8   8   8   8
#     4  11  21  35  57  90 125 156 200 250 305 375
#     4  11  18  29  59  95 123 149 184 251 318 360
#     4   9  22  34  58  94 123 158 198 258 303 364
#     4  11  20  40  62  87 123 159 212 251 308 367
#     4  11  18  34  61  92 122 151 196 255 315 358
#     4  12  25  41  61  88 123 170 208 253 309 374
#     4  11  21  39  57  89 131 155 203 249 312 370
#
# _framework density 19.358944000000001
#
# number of rings (size 3 to 8) (size 9 to 14) (size 15 to 20)
#    0.000    1.143    5.714    1.714    4.000    0.571 
#    5.143    0.000    0.000    2.571    0.000    0.000 
#    0.000    0.000    0.000    0.000    0.000    0.000 
#
# Total GULP energy -346993.145135 kJ/mol
# GULP energy per Si atom -12392.612326 kJ/mol
# Density = 1.931488 g / cm^3
# Si number density = 19.358944 Si / 1000 Ang^3
#
#
#
# Elastic Constant Matrix: (Units=GPa)
#
#
# Indices 1 2 3 4 5 6 
#
# 1 69.4543 32.3716 36.7652 0.0000 0.0000 0.0000
# 2 32.3716 157.4358 47.1892 0.0000 0.0000 0.0000
# 3 36.7652 47.1892 103.9342 0.0000 0.0000 0.0000
# 4 0.0000 0.0000 0.0000 40.3042 0.0000 0.0000
# 5 0.0000 0.0000 0.0000 0.0000 11.6643 0.0000
# 6 0.0000 0.0000 0.0000 0.0000 0.0000 15.2681
#
#
#
# Elastic Compliance Matrix: (Units=1/GPa)
#
#
# Indices 1 2 3 4 5 6 
#
# 1 0.018301 -0.002110 -0.005516 0.000000 0.000000 0.000000
# 2 -0.002110 0.007596 -0.002702 0.000000 0.000000 0.000000
# 3 -0.005516 -0.002702 0.012800 0.000000 0.000000 0.000000
# 4 0.000000 0.000000 0.000000 0.024811 0.000000 0.000000
# 5 0.000000 0.000000 0.000000 0.000000 0.085732 0.000000
# 6 0.000000 0.000000 0.000000 0.000000 0.000000 0.065496
#
#
# Mechanical properties :
#
#
# Convention : Reuss Voigt Hill
#
# Bulk Modulus (GPa) = 55.43120 62.60846 59.01983
# Shear Modulus (GPa) = 20.71213 27.74720 24.22966
#
# Velocity S-wave (km/s) = 3.27448 3.79000 3.54163
# Velocity P-wave (km/s) = 6.55682 7.18075 6.87587
#
# Compressibility (1/GPa) = 0.01804038
#
# Stress axis : x y z
#
# Youngs Moduli (GPa) = 54.64169 131.65551 78.12768
#
# Poissons Ratio (x) = 0.27776 0.43094
# Poissons Ratio (y) = 0.11528 0.21113
# Poissons Ratio (z) = 0.30139 0.35578
#
# Static dielectric constant tensor:
#      x y z
#    x 2.865410 0.000000 0.000000 
#    y 0.000000 4.069510 0.000000 
#    z 0.000000 0.000000 3.826760 
# 
# 
# High freq. dielectric constant tensor:
#      x y z
#    x 1.671100 0.000000 0.000000 
#    y 0.000000 1.788650 0.000000 
#    z 0.000000 0.000000 1.764500 
# 
# From -- ./inp_files/22191.got.cif
#   From: 2010.03.12/outbox.cif.g09.slc.cpg/sg24_12_cif.got.tgz:22191.got - 2010.04.14 03:06:53.
