data_PCOD8165710
_publ_section_title
;
Structure prediction by ZEFSAII (Michael W. Deem and Ramdas Pophale) SiO2 
 PCOD8165710
Probable space group: I 21 21 21
;
_chemical_formula_sum "Si O2"
_cell_formula_units_Z 56
_cell_length_a 30.758805
_cell_length_b 5.628732
_cell_length_c 14.420303
_cell_angle_alpha 90.000000
_cell_angle_beta 90.000000
_cell_angle_gamma 90.000000
_cell_volume 2496.631329
_symmetry_space_group_name_H-M "I 21 21 21"
_symmetry_group_IT_number 24
_symmetry_cell_setting 'orthorhombic'
loop_
_space_group_symop_operation_xyz
x,y,z
-x,1/2-y,z
x,-y,1/2-z
1/2-x,y,-z
1/2+x,1/2+y,1/2+z
1/2-x,-y,1/2+z
1/2+x,1/2-y,-z
-x,1/2+y,1/2-z
loop_
_atom_site_type_symbol
_atom_site_label
_atom_site_fract_x
_atom_site_fract_y
_atom_site_fract_z
Si Si1 0.414792 0.767785 0.416288
Si Si2 0.541853 0.898809 0.847488
Si Si3 0.214026 0.498319 0.357072
Si Si4 0.251775 0.002666 0.142567
Si Si5 0.500000 0.250000 0.991187
Si Si6 0.126339 0.573814 0.055516
Si Si7 0.846379 0.358249 0.617719
Si Si8 0.382536 0.500000 0.250000
O O1 0.463148 0.858297 0.441398
O O2 0.391731 0.665213 0.508222
O O3 0.414661 0.575358 0.333458
O O4 0.389266 0.986469 0.374796
O O5 0.500000 0.750000 0.818084
O O6 0.585604 0.785655 0.894293
O O7 0.558837 0.000000 0.750000
O O8 0.523242 0.064246 0.926568
O O9 0.226636 0.500000 0.250000
O O10 0.232552 0.749014 0.400980
O O11 0.161947 0.500643 0.368742
O O12 0.233686 0.249680 0.400354
O O13 0.239509 0.000000 0.250000
O O14 0.303150 0.015022 0.123175
O O15 0.151894 0.727985 0.980623
O O16 0.848603 0.190680 0.708072
#
# Coordination Sequence:
#
# PCOD8165710 Si02
#       8
#     8   8   8   8   4   8   8   4
#     4  10  22  41  63  92 132 168 222 274 344 402
#     4  11  21  40  67  99 131 177 229 271 337 414
#     4  10  23  44  63  99 134 183 227 282 345 409
#     4  10  23  40  69  92 132 175 232 285 341 412
#     4  10  22  42  64  98 134 170 216 286 326 406
#     4  10  24  40  62  94 138 173 222 285 345 401
#     4  11  23  41  66  94 127 178 223 286 335 416
#     4  10  22  40  64  96 122 174 228 266 350 406
#
# _framework density 22.430223000000002
#
# number of rings (size 3 to 8) (size 9 to 14) (size 15 to 20)
#    0.000    1.714    0.714    2.571    9.000    0.571 
#    2.571    0.714    0.000    0.000    0.000    0.000 
#    0.000    0.000    0.000    0.000    0.000    0.000 
#
# Total GULP energy -346869.589979 kJ/mol
# GULP energy per Si atom -12388.199642 kJ/mol
# Density = 2.237917 g / cm^3
# Si number density = 22.430223 Si / 1000 Ang^3
#
#
#
# Elastic Constant Matrix: (Units=GPa)
#
#
# Indices 1 2 3 4 5 6 
#
# 1 158.2901 52.2211 40.6550 0.0000 0.0000 0.0000
# 2 52.2211 120.6179 14.7268 0.0000 0.0000 0.0000
# 3 40.6550 14.7268 67.9829 0.0000 0.0000 0.0000
# 4 0.0000 0.0000 0.0000 7.4199 0.0000 0.0000
# 5 0.0000 0.0000 0.0000 0.0000 30.1749 0.0000
# 6 0.0000 0.0000 0.0000 0.0000 0.0000 -280.2760
#
#
#
# Elastic Compliance Matrix: (Units=1/GPa)
#
#
# Indices 1 2 3 4 5 6 
#
# 1 0.008480 -0.003135 -0.004392 0.000000 0.000000 0.000000
# 2 -0.003135 0.009675 -0.000221 0.000000 0.000000 0.000000
# 3 -0.004392 -0.000221 0.017384 0.000000 0.000000 0.000000
# 4 0.000000 0.000000 0.000000 0.134772 0.000000 0.000000
# 5 0.000000 0.000000 0.000000 0.000000 0.033140 0.000000
# 6 0.000000 0.000000 0.000000 0.000000 0.000000 -0.003568
#
#
# Mechanical properties :
#
#
# Convention : Reuss Voigt Hill
#
# Bulk Modulus (GPa) = 49.89366 62.45520 56.17443
# Shear Modulus (GPa) = 22.51644 -32.58369 -5.03362
#
# Velocity S-wave (km/s) = 3.17179 -3.81552 -1.49967
# Velocity P-wave (km/s) = 5.97544 2.91439 4.70104
#
# Compressibility (1/GPa) = 0.02004263
#
# Stress axis : x y z
#
# Youngs Moduli (GPa) = 117.92704 103.35971 57.52444
#
# Poissons Ratio (x) = 0.32404 0.25264
# Poissons Ratio (y) = 0.36971 0.01271
# Poissons Ratio (z) = 0.51793 0.02284
#
# Static dielectric constant tensor:
#      x y z
#    x 4.460270 0.000000 0.000000 
#    y 0.000000 4.217910 0.000000 
#    z 0.000000 0.000000 4.328760 
# 
# 
# High freq. dielectric constant tensor:
#      x y z
#    x 1.888170 0.000000 0.000000 
#    y 0.000000 1.868690 0.000000 
#    z 0.000000 0.000000 1.889720 
# 
# From -- ./inp_files/24120.got.cif
#   From: 2010.03.12/outbox.cif.g09.slc.cpg/sg24_13_cif.got.tgz:24120.got - 2010.04.14 03:06:53.
