data_PCOD8165803
_publ_section_title
;
Structure prediction by ZEFSAII (Michael W. Deem and Ramdas Pophale) SiO2 
 PCOD8165803
Probable space group: I 21 21 21
;
_chemical_formula_sum "Si O2"
_cell_formula_units_Z 64
_cell_length_a 28.881068
_cell_length_b 8.749467
_cell_length_c 11.022403
_cell_angle_alpha 90.000000
_cell_angle_beta 90.000000
_cell_angle_gamma 90.000000
_cell_volume 2785.294568
_symmetry_space_group_name_H-M "I 21 21 21"
_symmetry_group_IT_number 24
_symmetry_cell_setting 'orthorhombic'
loop_
_space_group_symop_operation_xyz
x,y,z
-x,1/2-y,z
x,-y,1/2-z
1/2-x,y,-z
1/2+x,1/2+y,1/2+z
1/2-x,-y,1/2+z
1/2+x,1/2-y,-z
-x,1/2+y,1/2-z
loop_
_atom_site_type_symbol
_atom_site_label
_atom_site_fract_x
_atom_site_fract_y
_atom_site_fract_z
Si Si1 0.416457 0.212675 0.502848
Si Si2 0.739951 0.825613 0.797709
Si Si3 0.063907 0.504105 0.615972
Si Si4 0.899138 0.759209 0.472585
Si Si5 0.689394 0.701290 0.010008
Si Si6 0.451370 0.680870 0.759546
Si Si7 0.540233 0.557827 0.382640
Si Si8 0.311377 0.093540 0.865718
O O1 0.445279 0.329842 0.420434
O O2 0.364155 0.191356 0.456888
O O3 0.414031 0.268197 0.641137
O O4 0.444644 0.056710 0.490225
O O5 0.699216 0.821838 0.899586
O O6 0.727476 0.713713 0.683117
O O7 0.747446 0.000000 0.750000
O O8 0.784868 0.755450 0.866833
O O9 0.084745 0.500000 0.750000
O O10 0.103008 0.564789 0.519407
O O11 0.014486 0.594032 0.608188
O O12 0.935104 0.741752 0.363779
O O13 0.924976 0.697520 0.593768
O O14 0.850105 0.690492 0.437243
O O15 0.707394 0.533521 0.961520
O O16 0.500000 0.750000 0.799002
O O17 0.454122 0.500000 0.750000
O O18 0.553142 0.500000 0.250000
O O19 0.332236 0.000000 0.750000
#
# Coordination Sequence:
#
# PCOD8165803 Si02
#       8
#     8   8   8   8   8   8   8   8
#     4  12  24  42  68  97 144 184 235 297 352 415
#     4  10  23  45  79 106 136 174 224 298 366 437
#     4  11  24  42  65  96 140 194 244 297 343 404
#     4  12  24  40  70 103 138 188 242 293 350 421
#     4  10  23  46  72 104 139 177 229 279 360 452
#     4  12  26  39  62  99 141 190 240 295 351 412
#     4  11  24  44  66  96 138 196 248 288 343 409
#     4  10  22  45  76 103 142 187 226 289 368 447
#
# _framework density 22.977820999999999
#
# number of rings (size 3 to 8) (size 9 to 14) (size 15 to 20)
#    0.000    1.000    2.500    4.500    3.500    3.500 
#    0.000   10.625    2.750    0.000    0.000    0.000 
#    0.000    0.000    0.000    0.000    0.000    0.000 
#
# Total GULP energy -396513.900747 kJ/mol
# GULP energy per Si atom -12391.059398 kJ/mol
# Density = 2.292552 g / cm^3
# Si number density = 22.977821 Si / 1000 Ang^3
#
#
#
# Elastic Constant Matrix: (Units=GPa)
#
#
# Indices 1 2 3 4 5 6 
#
# 1 94.6377 39.9581 48.8241 0.0000 0.0000 0.0000
# 2 39.9581 104.7375 46.6678 0.0000 0.0000 0.0000
# 3 48.8241 46.6678 119.8275 0.0000 0.0000 0.0000
# 4 0.0000 0.0000 0.0000 41.2474 0.0000 0.0000
# 5 0.0000 0.0000 0.0000 0.0000 69.9064 0.0000
# 6 0.0000 0.0000 0.0000 0.0000 0.0000 9.8569
#
#
#
# Elastic Compliance Matrix: (Units=1/GPa)
#
#
# Indices 1 2 3 4 5 6 
#
# 1 0.014352 -0.003472 -0.004495 0.000000 0.000000 0.000000
# 2 -0.003472 0.012392 -0.003412 0.000000 0.000000 0.000000
# 3 -0.004495 -0.003412 0.011506 0.000000 0.000000 0.000000
# 4 0.000000 0.000000 0.000000 0.024244 0.000000 0.000000
# 5 0.000000 0.000000 0.000000 0.000000 0.014305 0.000000
# 6 0.000000 0.000000 0.000000 0.000000 0.000000 0.101452
#
#
# Mechanical properties :
#
#
# Convention : Reuss Voigt Hill
#
# Bulk Modulus (GPa) = 64.55163 65.56697 65.05930
# Shear Modulus (GPa) = 24.25144 36.45232 30.35188
#
# Velocity S-wave (km/s) = 3.25226 3.98730 3.63839
# Velocity P-wave (km/s) = 6.50053 7.05655 6.78424
#
# Compressibility (1/GPa) = 0.01549148
#
# Stress axis : x y z
#
# Youngs Moduli (GPa) = 69.67706 80.69413 86.91383
#
# Poissons Ratio (x) = 0.28020 0.39071
# Poissons Ratio (y) = 0.24194 0.29651
# Poissons Ratio (z) = 0.31323 0.27529
#
# Static dielectric constant tensor:
#      x y z
#    x 3.792290 0.000000 0.000000 
#    y 0.000000 4.291650 0.000000 
#    z 0.000000 0.000000 4.185310 
# 
# 
# High freq. dielectric constant tensor:
#      x y z
#    x 1.883690 0.000000 0.000000 
#    y 0.000000 1.924330 0.000000 
#    z 0.000000 0.000000 1.912730 
# 
# From -- ./inp_files/23183.got.cif
#   From: 2010.03.12/outbox.cif.g09.slc.cpg/sg24_12_cif.got.tgz:23183.got - 2010.04.14 03:06:53.
