data_PCOD8165252
_publ_section_title
;
Structure prediction by ZEFSAII (Michael W. Deem and Ramdas Pophale) SiO2 
 PCOD8165252
Probable space group: I 21 21 21
;
_chemical_formula_sum "Si O2"
_cell_formula_units_Z 44
_cell_length_a 16.423727
_cell_length_b 11.388423
_cell_length_c 12.059515
_cell_angle_alpha 90.000000
_cell_angle_beta 90.000000
_cell_angle_gamma 90.000000
_cell_volume 2255.615910
_symmetry_space_group_name_H-M "I 21 21 21"
_symmetry_group_IT_number 24
_symmetry_cell_setting 'orthorhombic'
loop_
_space_group_symop_operation_xyz
x,y,z
-x,1/2-y,z
x,-y,1/2-z
1/2-x,y,-z
1/2+x,1/2+y,1/2+z
1/2-x,-y,1/2+z
1/2+x,1/2-y,-z
-x,1/2+y,1/2-z
loop_
_atom_site_type_symbol
_atom_site_label
_atom_site_fract_x
_atom_site_fract_y
_atom_site_fract_z
Si Si1 0.790587 0.875897 0.841024
Si Si2 0.018641 0.616187 0.427284
Si Si3 0.139158 0.390024 0.890699
Si Si4 0.750000 0.702489 0.500000
Si Si5 0.860381 0.000000 0.250000
Si Si6 0.750000 0.677561 0.000000
Si Si7 0.651887 0.484072 0.879678
O O1 0.857034 0.867080 0.741380
O O2 0.815350 0.987043 0.917399
O O3 0.698619 0.896550 0.796019
O O4 0.796585 0.757785 0.910865
O O5 0.049332 0.607158 0.555194
O O6 0.085154 0.559549 0.344899
O O7 0.000000 0.750000 0.390945
O O8 0.937649 0.539756 0.425192
O O9 0.179590 0.280935 0.951181
O O10 0.713028 0.622757 0.597145
O O11 0.818390 0.601411 0.060074
O O12 0.649111 0.500000 0.750000
#
# Coordination Sequence:
#
# PCOD8165252 Si02
#       7
#     8   8   8   4   4   4   8
#     4  10  22  40  67  92 121 164 213 266 300 376
#     4  12  23  38  61  93 128 167 203 264 320 381
#     4  10  20  38  63  91 121 163 213 248 311 369
#     4  11  19  38  64  84 121 163 206 260 296 381
#     4  10  22  36  64  96 120 164 212 264 318 360
#     4  11  23  42  66  92 125 163 212 266 318 377
#     4  11  25  40  60  93 128 164 209 258 324 376
#
# _framework density 19.506867
#
# number of rings (size 3 to 8) (size 9 to 14) (size 15 to 20)
#    0.000    1.455    2.727    4.909    2.545    0.000 
#    0.000    6.364    4.000    0.000    0.000    0.000 
#    0.000    0.000    0.000    0.000    0.000    0.000 
#
# Total GULP energy -272767.642151 kJ/mol
# GULP energy per Si atom -12398.529189 kJ/mol
# Density = 1.946247 g / cm^3
# Si number density = 19.506867 Si / 1000 Ang^3
#
#
#
# Elastic Constant Matrix: (Units=GPa)
#
#
# Indices 1 2 3 4 5 6 
#
# 1 110.9931 49.5553 69.1985 0.0000 0.0000 0.0000
# 2 49.5553 136.9589 66.9366 0.0000 0.0000 0.0000
# 3 69.1985 66.9366 126.2644 0.0000 0.0000 0.0000
# 4 0.0000 0.0000 0.0000 28.1288 0.0000 0.0000
# 5 0.0000 0.0000 0.0000 0.0000 45.3377 0.0000
# 6 0.0000 0.0000 0.0000 0.0000 0.0000 919.6679
#
#
#
# Elastic Compliance Matrix: (Units=1/GPa)
#
#
# Indices 1 2 3 4 5 6 
#
# 1 0.013998 -0.001776 -0.006730 0.000000 0.000000 0.000000
# 2 -0.001776 0.010080 -0.004371 0.000000 0.000000 0.000000
# 3 -0.006730 -0.004371 0.013925 0.000000 0.000000 0.000000
# 4 0.000000 0.000000 0.000000 0.035551 0.000000 0.000000
# 5 0.000000 0.000000 0.000000 0.000000 0.022057 0.000000
# 6 0.000000 0.000000 0.000000 0.000000 0.000000 0.001087
#
#
# Mechanical properties :
#
#
# Convention : Reuss Voigt Hill
#
# Bulk Modulus (GPa) = 81.62889 82.84414 82.23652
# Shear Modulus (GPa) = 39.51459 211.19528 125.35493
#
# Velocity S-wave (km/s) = 4.50563 10.41644 8.02505
# Velocity P-wave (km/s) = 8.30691 13.68324 11.31892
#
# Compressibility (1/GPa) = 0.01225056
#
# Stress axis : x y z
#
# Youngs Moduli (GPa) = 71.43664 99.20650 71.81082
#
# Poissons Ratio (x) = 0.17615 0.48332
# Poissons Ratio (y) = 0.12684 0.31386
# Poissons Ratio (z) = 0.48080 0.43359
#
# Static dielectric constant tensor:
#      x y z
#    x 3.518370 0.000000 0.000000 
#    y 0.000000 3.732410 0.000000 
#    z 0.000000 0.000000 3.150340 
# 
# 
# High freq. dielectric constant tensor:
#      x y z
#    x 1.747050 0.000000 0.000000 
#    y 0.000000 1.771640 0.000000 
#    z 0.000000 0.000000 1.764530 
# 
# From -- ./inp_files/21507.got.cif
#   From: 2010.03.12/outbox.cif.g09.slc.cpg/sg24_11_cif.got.tgz:21507.got - 2010.04.14 03:06:53.
