data_PCOD8165451
_publ_section_title
;
Structure prediction by ZEFSAII (Michael W. Deem and Ramdas Pophale) SiO2 
 PCOD8165451
Probable space group: I 21 21 21
;
_chemical_formula_sum "Si O2"
_cell_formula_units_Z 48
_cell_length_a 25.143170
_cell_length_b 4.924287
_cell_length_c 17.461942
_cell_angle_alpha 90.000000
_cell_angle_beta 90.000000
_cell_angle_gamma 90.000000
_cell_volume 2162.001196
_symmetry_space_group_name_H-M "I 21 21 21"
_symmetry_group_IT_number 24
_symmetry_cell_setting 'orthorhombic'
loop_
_space_group_symop_operation_xyz
x,y,z
-x,1/2-y,z
x,-y,1/2-z
1/2-x,y,-z
1/2+x,1/2+y,1/2+z
1/2-x,-y,1/2+z
1/2+x,1/2-y,-z
-x,1/2+y,1/2-z
loop_
_atom_site_type_symbol
_atom_site_label
_atom_site_fract_x
_atom_site_fract_y
_atom_site_fract_z
Si Si1 0.107322 0.808938 0.967561
Si Si2 0.462598 0.999033 0.165384
Si Si3 0.062972 0.710055 0.449820
Si Si4 0.739622 0.885601 0.665530
Si Si5 0.374866 0.251988 0.803534
Si Si6 0.275688 0.895462 0.077797
O O1 0.083407 0.967316 0.895261
O O2 0.167913 0.765671 0.945153
O O3 0.081000 0.522830 0.990877
O O4 0.096229 0.013503 0.037178
O O5 0.500000 0.750000 0.157187
O O6 0.500000 0.250000 0.146283
O O7 0.436705 0.000000 0.250000
O O8 0.078452 0.656394 0.361703
O O9 0.000000 0.750000 0.458729
O O10 0.683161 0.725521 0.656764
O O11 0.780653 0.649299 0.637390
O O12 0.754293 0.000000 0.750000
O O13 0.740705 0.147301 0.610625
O O14 0.364389 0.500000 0.750000
O O15 0.391332 0.000000 0.750000
O O16 0.250000 0.010106 0.000000
#
# Coordination Sequence:
#
# PCOD8165451 Si02
#       6
#     8   8   8   8   8   8
#     4  12  24  41  63  93 127 167 214 265 320 376
#     4  10  21  38  60  85 118 160 206 257 314 374
#     4  12  25  42  66  94 129 169 215 267 319 379
#     4  11  23  42  65  94 129 170 212 263 325 384
#     4  11  23  42  67  95 129 169 212 260 320 385
#     4  12  24  41  65  93 129 169 216 266 317 382
#
# _framework density 22.201650000000001
#
# number of rings (size 3 to 8) (size 9 to 14) (size 15 to 20)
#    0.000    0.667    0.000   10.000    0.000    2.000 
#    0.000    1.667    0.000    0.000    0.000    0.000 
#    0.000    0.000    0.000    0.000    0.000    0.000 
#
# Total GULP energy -297500.586953 kJ/mol
# GULP energy per Si atom -12395.857790 kJ/mol
# Density = 2.215112 g / cm^3
# Si number density = 22.201650 Si / 1000 Ang^3
#
#
#
# Elastic Constant Matrix: (Units=GPa)
#
#
# Indices 1 2 3 4 5 6 
#
# 1 106.2890 34.8645 54.4520 0.0000 0.0000 0.0000
# 2 34.8645 127.8743 29.8679 0.0000 0.0000 0.0000
# 3 54.4520 29.8679 102.1906 0.0000 0.0000 0.0000
# 4 0.0000 0.0000 0.0000 35.3531 0.0000 0.0000
# 5 0.0000 0.0000 0.0000 0.0000 29.8100 0.0000
# 6 0.0000 0.0000 0.0000 0.0000 0.0000 35.8115
#
#
#
# Elastic Compliance Matrix: (Units=1/GPa)
#
#
# Indices 1 2 3 4 5 6 
#
# 1 0.013466 -0.002142 -0.006549 0.000000 0.000000 0.000000
# 2 -0.002142 0.008734 -0.001411 0.000000 0.000000 0.000000
# 3 -0.006549 -0.001411 0.013688 0.000000 0.000000 0.000000
# 4 0.000000 0.000000 0.000000 0.028286 0.000000 0.000000
# 5 0.000000 0.000000 0.000000 0.000000 0.033546 0.000000
# 6 0.000000 0.000000 0.000000 0.000000 0.000000 0.027924
#
#
# Mechanical properties :
#
#
# Convention : Reuss Voigt Hill
#
# Bulk Modulus (GPa) = 63.76450 63.85808 63.81129
# Shear Modulus (GPa) = 33.09582 34.67289 33.88435
#
# Velocity S-wave (km/s) = 3.86514 3.95615 3.91091
# Velocity P-wave (km/s) = 6.97868 7.04936 7.01411
#
# Compressibility (1/GPa) = 0.01568271
#
# Stress axis : x y z
#
# Youngs Moduli (GPa) = 74.26062 114.49782 73.05667
#
# Poissons Ratio (x) = 0.24522 0.47848
# Poissons Ratio (y) = 0.15905 0.10312
# Poissons Ratio (z) = 0.48636 0.16161
#
# Static dielectric constant tensor:
#      x y z
#    x 4.115700 0.000000 0.000000 
#    y 0.000000 4.285970 0.000000 
#    z 0.000000 0.000000 4.093560 
# 
# 
# High freq. dielectric constant tensor:
#      x y z
#    x 1.857900 0.000000 0.000000 
#    y 0.000000 1.891620 0.000000 
#    z 0.000000 0.000000 1.890060 
# 
# From -- ./inp_files/28021.got.cif
#   From: 2010.03.12/outbox.cif.g09.slc.cpg/sg24_15_cif.got.tgz:28021.got - 2010.04.14 03:06:53.
