data_PCOD8165987
_publ_section_title
;
Structure prediction by ZEFSAII (Michael W. Deem and Ramdas Pophale) SiO2 
 PCOD8165987
Probable space group: I 21 21 21
;
_chemical_formula_sum "Si O2"
_cell_formula_units_Z 32
_cell_length_a 19.434696
_cell_length_b 14.061543
_cell_length_c 5.061596
_cell_angle_alpha 90.000000
_cell_angle_beta 90.000000
_cell_angle_gamma 90.000000
_cell_volume 1383.242134
_symmetry_space_group_name_H-M "I 21 21 21"
_symmetry_group_IT_number 24
_symmetry_cell_setting 'orthorhombic'
loop_
_space_group_symop_operation_xyz
x,y,z
-x,1/2-y,z
x,-y,1/2-z
1/2-x,y,-z
1/2+x,1/2+y,1/2+z
1/2-x,-y,1/2+z
1/2+x,1/2-y,-z
-x,1/2+y,1/2-z
loop_
_atom_site_type_symbol
_atom_site_label
_atom_site_fract_x
_atom_site_fract_y
_atom_site_fract_z
Si Si1 0.750000 0.433699 0.000000
Si Si2 0.038785 0.558799 0.993494
Si Si3 0.148301 0.767161 0.414045
Si Si4 0.000000 0.250000 0.267929
Si Si5 0.678024 0.149195 0.418681
O O1 0.738607 0.500000 0.250000
O O2 0.818821 0.370007 0.031642
O O3 0.021776 0.500000 0.250000
O O4 0.005772 0.662144 0.029230
O O5 0.006215 0.500000 0.750000
O O6 0.120543 0.568638 0.950626
O O7 0.177853 0.691179 0.623073
O O8 0.065010 0.765576 0.427031
O O9 0.167849 0.737644 0.117347
O O10 0.750000 0.099884 0.500000
#
# Coordination Sequence:
#
# PCOD8165987 Si02
#       5
#     4   8   8   4   8
#     4  12  24  42  68 104 138 182 242 304 362 436
#     4  11  25  43  68 104 143 184 243 294 356 442
#     4  11  23  43  68  98 134 189 241 287 365 440
#     4  10  26  48  74 102 150 200 238 310 378 426
#     4  11  21  41  70  96 132 180 227 291 356 428
#
# _framework density 23.134058
#
# number of rings (size 3 to 8) (size 9 to 14) (size 15 to 20)
#    0.000    1.000    2.500    4.500    0.000   11.000 
#    0.000    5.000    0.000    0.000    0.000    0.000 
#    0.000    0.000    0.000    0.000    0.000    0.000 
#
# Total GULP energy -198417.473129 kJ/mol
# GULP energy per Si atom -12401.092071 kJ/mol
# Density = 2.308140 g / cm^3
# Si number density = 23.134058 Si / 1000 Ang^3
#
#
#
# Elastic Constant Matrix: (Units=GPa)
#
#
# Indices 1 2 3 4 5 6 
#
# 1 104.5020 24.5915 19.0785 0.0000 0.0000 0.0000
# 2 24.5915 133.3769 64.6308 0.0000 0.0000 0.0000
# 3 19.0785 64.6308 148.0200 0.0000 0.0000 0.0000
# 4 0.0000 0.0000 0.0000 28.2270 0.0000 0.0000
# 5 0.0000 0.0000 0.0000 0.0000 35.8836 0.0000
# 6 0.0000 0.0000 0.0000 0.0000 0.0000 58.2544
#
#
#
# Elastic Compliance Matrix: (Units=1/GPa)
#
#
# Indices 1 2 3 4 5 6 
#
# 1 0.010047 -0.001554 -0.000617 0.000000 0.000000 0.000000
# 2 -0.001554 0.009750 -0.004057 0.000000 0.000000 0.000000
# 3 -0.000617 -0.004057 0.008607 0.000000 0.000000 0.000000
# 4 0.000000 0.000000 0.000000 0.035427 0.000000 0.000000
# 5 0.000000 0.000000 0.000000 0.000000 0.027868 0.000000
# 6 0.000000 0.000000 0.000000 0.000000 0.000000 0.017166
#
#
# Mechanical properties :
#
#
# Convention : Reuss Voigt Hill
#
# Bulk Modulus (GPa) = 62.69766 66.94447 64.82107
# Shear Modulus (GPa) = 39.48326 42.97954 41.23140
#
# Velocity S-wave (km/s) = 4.13572 4.31495 4.22629
# Velocity P-wave (km/s) = 7.06869 7.33659 7.20388
#
# Compressibility (1/GPa) = 0.01594956
#
# Stress axis : x y z
#
# Youngs Moduli (GPa) = 99.52834 102.56546 116.18856
#
# Poissons Ratio (x) = 0.15936 0.07164
# Poissons Ratio (y) = 0.15464 0.47136
# Poissons Ratio (z) = 0.06137 0.41610
#
# Static dielectric constant tensor:
#      x y z
#    x 4.542560 0.000000 0.000000 
#    y 0.000000 3.862890 0.000000 
#    z 0.000000 0.000000 4.219630 
# 
# 
# High freq. dielectric constant tensor:
#      x y z
#    x 1.914070 0.000000 0.000000 
#    y 0.000000 1.907520 0.000000 
#    z 0.000000 0.000000 1.929230 
# 
# From -- ./inp_files/5277.got.cif
#   From: 2010.03.12/outbox.cif.g09.slc.cpg/sg24_3_cif.got.tgz:5277.got - 2010.04.14 03:06:53.
