data_PCOD8165055
_publ_section_title
;
Structure prediction by ZEFSAII (Michael W. Deem and Ramdas Pophale) SiO2 
 PCOD8165055
Probable space group: I 21 21 21
;
_chemical_formula_sum "Si O2"
_cell_formula_units_Z 64
_cell_length_a 26.934842
_cell_length_b 8.952676
_cell_length_c 14.755905
_cell_angle_alpha 90.000000
_cell_angle_beta 90.000000
_cell_angle_gamma 90.000000
_cell_volume 3558.222900
_symmetry_space_group_name_H-M "I 21 21 21"
_symmetry_group_IT_number 24
_symmetry_cell_setting 'orthorhombic'
loop_
_space_group_symop_operation_xyz
x,y,z
-x,1/2-y,z
x,-y,1/2-z
1/2-x,y,-z
1/2+x,1/2+y,1/2+z
1/2-x,-y,1/2+z
1/2+x,1/2-y,-z
-x,1/2+y,1/2-z
loop_
_atom_site_type_symbol
_atom_site_label
_atom_site_fract_x
_atom_site_fract_y
_atom_site_fract_z
Si Si1 0.859511 0.431469 0.476845
Si Si2 0.443315 0.576064 0.841823
Si Si3 0.771700 0.382597 0.095669
Si Si4 0.282606 0.436944 0.845762
Si Si5 0.641785 0.920862 0.977687
Si Si6 0.333308 0.428263 0.157297
Si Si7 0.332861 0.077507 0.158844
Si Si8 0.944737 0.574107 0.157711
O O1 0.813152 0.491527 0.418049
O O2 0.853607 0.255741 0.489719
O O3 0.862446 0.507859 0.574702
O O4 0.909926 0.475204 0.425179
O O5 0.424042 0.500000 0.750000
O O6 0.407333 0.529568 0.923401
O O7 0.499170 0.522366 0.865509
O O8 0.441550 0.751105 0.825667
O O9 0.794381 0.240242 0.148383
O O10 0.726152 0.455689 0.150763
O O11 0.750000 0.322580 0.000000
O O12 0.302304 0.500000 0.750000
O O13 0.309373 0.523409 0.926401
O O14 0.224340 0.466778 0.856343
O O15 0.636592 0.998651 0.074957
O O16 0.353369 0.500000 0.250000
O O17 0.343518 0.252762 0.160938
O O18 0.352697 0.000000 0.250000
O O19 0.925483 0.500000 0.250000
#
# Coordination Sequence:
#
# PCOD8165055 Si02
#       8
#     8   8   8   8   8   8   8   8
#     4  10  21  32  50  76 100 131 167 204 249 294
#     4   9  19  35  53  75 101 131 163 200 246 293
#     4   9  19  34  48  68 100 136 169 205 245 289
#     4  10  20  32  48  71 101 136 169 203 243 289
#     4  11  20  32  51  75 101 130 166 207 246 292
#     4  10  21  35  52  72  98 133 169 205 245 290
#     4  10  20  35  52  71 100 134 167 205 246 291
#     4   9  19  35  53  74 102 131 163 201 244 294
#
# _framework density 17.986508000000001
#
# number of rings (size 3 to 8) (size 9 to 14) (size 15 to 20)
#    0.000    2.250    0.000    3.750    0.000   10.500 
#    0.000    0.000    0.000    0.750    0.000    0.000 
#    0.000    0.000    0.000    0.000    0.000    0.000 
#
# Total GULP energy -396881.965677 kJ/mol
# GULP energy per Si atom -12402.561427 kJ/mol
# Density = 1.794557 g / cm^3
# Si number density = 17.986508 Si / 1000 Ang^3
#
#
#
# Elastic Constant Matrix: (Units=GPa)
#
#
# Indices 1 2 3 4 5 6 
#
# 1 72.2668 49.4183 62.3516 0.0000 0.0000 0.0000
# 2 49.4183 90.4923 70.6414 0.0000 0.0000 0.0000
# 3 62.3516 70.6414 156.9233 0.0000 0.0000 0.0000
# 4 0.0000 0.0000 0.0000 37.6636 0.0000 0.0000
# 5 0.0000 0.0000 0.0000 0.0000 25.5490 0.0000
# 6 0.0000 0.0000 0.0000 0.0000 0.0000 20.3147
#
#
#
# Elastic Compliance Matrix: (Units=1/GPa)
#
#
# Indices 1 2 3 4 5 6 
#
# 1 0.025172 -0.009157 -0.005880 0.000000 0.000000 0.000000
# 2 -0.009157 0.020369 -0.005531 0.000000 0.000000 0.000000
# 3 -0.005880 -0.005531 0.011199 0.000000 0.000000 0.000000
# 4 0.000000 0.000000 0.000000 0.026551 0.000000 0.000000
# 5 0.000000 0.000000 0.000000 0.000000 0.039140 0.000000
# 6 0.000000 0.000000 0.000000 0.000000 0.000000 0.049225
#
#
# Mechanical properties :
#
#
# Convention : Reuss Voigt Hill
#
# Bulk Modulus (GPa) = 64.08329 76.05612 70.06970
# Shear Modulus (GPa) = 22.93642 25.85687 24.39665
#
# Velocity S-wave (km/s) = 3.57487 3.79564 3.68691
# Velocity P-wave (km/s) = 7.26261 7.84768 7.56081
#
# Compressibility (1/GPa) = 0.01560469
#
# Stress axis : x y z
#
# Youngs Moduli (GPa) = 39.72593 49.09431 89.29560
#
# Poissons Ratio (x) = 0.44954 0.52505
# Poissons Ratio (y) = 0.36376 0.49390
# Poissons Ratio (z) = 0.23359 0.27154
#
# Static dielectric constant tensor:
#      x y z
#    x 3.269610 0.000000 0.000000 
#    y 0.000000 3.311710 0.000000 
#    z 0.000000 0.000000 3.452740 
# 
# 
# High freq. dielectric constant tensor:
#      x y z
#    x 1.669510 0.000000 0.000000 
#    y 0.000000 1.703660 0.000000 
#    z 0.000000 0.000000 1.701250 
# 
# From -- ./inp_files/27893.got.cif
#   From: 2010.03.12/outbox.cif.g09.slc.cpg/sg24_14_cif.got.tgz:27893.got - 2010.04.14 03:06:53.
