data_PCOD8165948
_publ_section_title
;
Structure prediction by ZEFSAII (Michael W. Deem and Ramdas Pophale) SiO2 
 PCOD8165948
Probable space group: I 21 21 21
;
_chemical_formula_sum "Si O2"
_cell_formula_units_Z 40
_cell_length_a 28.361266
_cell_length_b 7.879359
_cell_length_c 7.904161
_cell_angle_alpha 90.000000
_cell_angle_beta 90.000000
_cell_angle_gamma 90.000000
_cell_volume 1766.331765
_symmetry_space_group_name_H-M "I 21 21 21"
_symmetry_group_IT_number 24
_symmetry_cell_setting 'orthorhombic'
loop_
_space_group_symop_operation_xyz
x,y,z
-x,1/2-y,z
x,-y,1/2-z
1/2-x,y,-z
1/2+x,1/2+y,1/2+z
1/2-x,-y,1/2+z
1/2+x,1/2-y,-z
-x,1/2+y,1/2-z
loop_
_atom_site_type_symbol
_atom_site_label
_atom_site_fract_x
_atom_site_fract_y
_atom_site_fract_z
Si Si1 0.157166 0.464120 0.061982
Si Si2 0.628791 0.330402 0.451551
Si Si3 0.500000 0.750000 0.552128
Si Si4 0.750000 0.239429 0.000000
Si Si5 0.915821 0.829124 0.658495
Si Si6 0.568632 0.500000 0.750000
Si Si7 0.293060 0.000000 0.250000
O O1 0.140833 0.500000 0.250000
O O2 0.150707 0.643815 0.970327
O O3 0.209164 0.390608 0.049484
O O4 0.123210 0.314943 0.989979
O O5 0.591646 0.325044 0.292267
O O6 0.601614 0.406173 0.613248
O O7 0.674173 0.442094 0.406129
O O8 0.533104 0.851840 0.423683
O O9 0.533348 0.632503 0.664123
O O10 0.760857 0.352575 0.832749
O O11 0.903919 0.000000 0.750000
#
# Coordination Sequence:
#
# PCOD8165948 Si02
#       7
#     8   8   4   4   8   4   4
#     4  11  26  47  76 103 148 195 253 302 382 454
#     4  11  26  50  75 103 154 202 245 310 388 460
#     4  12  28  44  74 112 146 192 258 316 378 456
#     4  12  30  46  76 112 146 200 250 318 374 462
#     4  10  24  46  74 103 145 196 246 309 383 452
#     4  12  30  45  78 112 152 198 256 317 386 454
#     4  12  28  47  74 110 154 186 258 307 392 442
#
# _framework density 22.645802
#
# number of rings (size 3 to 8) (size 9 to 14) (size 15 to 20)
#    0.000    0.800    2.000    2.400   18.200    0.000 
#    0.000    0.000    0.000    0.000    0.000    0.000 
#    0.000    0.000    0.000    0.000    0.000    0.000 
#
# Total GULP energy -247860.223719 kJ/mol
# GULP energy per Si atom -12393.011186 kJ/mol
# Density = 2.259426 g / cm^3
# Si number density = 22.645802 Si / 1000 Ang^3
#
#
#
# Elastic Constant Matrix: (Units=GPa)
#
#
# Indices 1 2 3 4 5 6 
#
# 1 160.2987 61.2863 76.7227 0.0000 0.0000 0.0000
# 2 61.2863 105.5407 50.8672 0.0000 0.0000 0.0000
# 3 76.7227 50.8672 155.1513 0.0000 0.0000 0.0000
# 4 0.0000 0.0000 0.0000 32.6550 0.0000 0.0000
# 5 0.0000 0.0000 0.0000 0.0000 45.3695 0.0000
# 6 0.0000 0.0000 0.0000 0.0000 0.0000 34.2339
#
#
#
# Elastic Compliance Matrix: (Units=1/GPa)
#
#
# Indices 1 2 3 4 5 6 
#
# 1 0.009288 -0.003776 -0.003355 0.000000 0.000000 0.000000
# 2 -0.003776 0.012789 -0.002325 0.000000 0.000000 0.000000
# 3 -0.003355 -0.002325 0.008867 0.000000 0.000000 0.000000
# 4 0.000000 0.000000 0.000000 0.030623 0.000000 0.000000
# 5 0.000000 0.000000 0.000000 0.000000 0.022041 0.000000
# 6 0.000000 0.000000 0.000000 0.000000 0.000000 0.029211
#
#
# Mechanical properties :
#
#
# Convention : Reuss Voigt Hill
#
# Bulk Modulus (GPa) = 83.12517 88.74923 85.93720
# Shear Modulus (GPa) = 36.83467 37.92596 37.38032
#
# Velocity S-wave (km/s) = 4.03743 4.09681 4.06723
# Velocity P-wave (km/s) = 7.64989 7.85198 7.75160
#
# Compressibility (1/GPa) = 0.01203005
#
# Stress axis : x y z
#
# Youngs Moduli (GPa) = 107.66752 78.19380 112.78243
#
# Poissons Ratio (x) = 0.29530 0.37835
# Poissons Ratio (y) = 0.40660 0.26226
# Poissons Ratio (z) = 0.36120 0.18183
#
# Static dielectric constant tensor:
#      x y z
#    x 4.149270 0.000000 0.000000 
#    y 0.000000 4.334130 0.000000 
#    z 0.000000 0.000000 4.695180 
# 
# 
# High freq. dielectric constant tensor:
#      x y z
#    x 1.899090 0.000000 0.000000 
#    y 0.000000 1.901660 0.000000 
#    z 0.000000 0.000000 1.910860 
# 
# From -- ./inp_files/15683.got.cif
#   From: 2010.03.12/outbox.cif.g09.slc.cpg/sg24_8_cif.got.tgz:15683.got - 2010.04.14 03:06:53.
