data_PCOD8165511
_publ_section_title
;
Structure prediction by ZEFSAII (Michael W. Deem and Ramdas Pophale) SiO2 
 PCOD8165511
Probable space group: I 21 21 21
;
_chemical_formula_sum "Si O2"
_cell_formula_units_Z 48
_cell_length_a 10.154445
_cell_length_b 13.844510
_cell_length_c 15.994842
_cell_angle_alpha 90.000000
_cell_angle_beta 90.000000
_cell_angle_gamma 90.000000
_cell_volume 2248.607917
_symmetry_space_group_name_H-M "I 21 21 21"
_symmetry_group_IT_number 24
_symmetry_cell_setting 'orthorhombic'
loop_
_space_group_symop_operation_xyz
x,y,z
-x,1/2-y,z
x,-y,1/2-z
1/2-x,y,-z
1/2+x,1/2+y,1/2+z
1/2-x,-y,1/2+z
1/2+x,1/2-y,-z
-x,1/2+y,1/2-z
loop_
_atom_site_type_symbol
_atom_site_label
_atom_site_fract_x
_atom_site_fract_y
_atom_site_fract_z
Si Si1 0.518154 0.858738 0.926853
Si Si2 0.769218 0.085097 0.301221
Si Si3 0.851477 0.266894 0.771750
Si Si4 0.721493 0.437037 0.673558
Si Si5 0.646069 0.399944 0.075289
Si Si6 0.622523 0.991117 0.448660
O O1 0.500000 0.750000 0.956857
O O2 0.626716 0.856778 0.855043
O O3 0.388116 0.910293 0.893510
O O4 0.567755 0.914173 0.006997
O O5 0.713750 0.161604 0.234398
O O6 0.658619 0.029091 0.356147
O O7 0.841764 0.000000 0.250000
O O8 0.788474 0.339711 0.705372
O O9 0.835574 0.306199 0.866136
O O10 0.000000 0.250000 0.745281
O O11 0.661128 0.500000 0.750000
O O12 0.829130 0.501948 0.626567
O O13 0.491331 0.408165 0.049283
O O14 0.750000 0.388304 0.000000
O O15 0.750000 0.951116 0.500000
#
# Coordination Sequence:
#
# PCOD8165511 Si02
#       6
#     8   8   8   8   8   8
#     4  11  21  40  64  98 132 166 217 274 333 389
#     4  11  23  42  65  92 131 175 215 271 327 384
#     4  11  23  40  65  96 130 169 226 266 318 392
#     4  10  21  39  67  97 131 169 217 270 323 390
#     4  11  22  42  70  97 133 179 213 266 327 388
#     4  10  23  41  64  98 134 174 211 267 339 386
#
# _framework density 21.346540999999998
#
# number of rings (size 3 to 8) (size 9 to 14) (size 15 to 20)
#    0.000    1.333    3.333    2.500    0.000    3.333 
#    3.000    6.667    0.000    0.000    0.000    0.000 
#    0.000    0.000    0.000    0.000    0.000    0.000 
#
# Total GULP energy -297586.386882 kJ/mol
# GULP energy per Si atom -12399.432787 kJ/mol
# Density = 2.129795 g / cm^3
# Si number density = 21.346541 Si / 1000 Ang^3
#
#
#
# Elastic Constant Matrix: (Units=GPa)
#
#
# Indices 1 2 3 4 5 6 
#
# 1 99.5757 24.1904 25.4750 0.0000 0.0000 -0.0019
# 2 24.1904 92.9102 35.0159 0.0000 0.0000 -0.0041
# 3 25.4750 35.0159 84.7451 0.0000 0.0000 -0.0043
# 4 0.0000 0.0000 0.0000 18.5916 0.0000 -0.0053
# 5 0.0000 0.0000 0.0000 0.0000 4.2296 -0.0033
# 6 -0.0019 -0.0041 -0.0043 -0.0053 -0.0033**********
#
#
#
# Elastic Compliance Matrix: (Units=1/GPa)
#
#
# Indices 1 2 3 4 5 6 
#
# 1 0.011169 -0.001946 -0.002553 0.000000 0.000000 0.000000
# 2 -0.001946 0.013087 -0.004823 0.000000 0.000000 0.000000
# 3 -0.002553 -0.004823 0.014560 0.000000 0.000000 0.000000
# 4 0.000000 0.000000 0.000000 0.053788 0.000000 0.000000
# 5 0.000000 0.000000 0.000000 0.000000 0.236429 0.000000
# 6 0.000000 0.000000 0.000000 0.000000 0.000000 -0.000072
#
#
# Mechanical properties :
#
#
# Convention : Reuss Voigt Hill
#
# Bulk Modulus (GPa) = 49.57181 49.62151 49.59666
# Shear Modulus (GPa) = 14.11122 -2748.14226 -1367.01552
#
# Velocity S-wave (km/s) = 2.57389 -35.91921 -25.33342
# Velocity P-wave (km/s) = 5.66622 41.19413 28.85178
#
# Compressibility (1/GPa) = 0.02017276
#
# Stress axis : x y z
#
# Youngs Moduli (GPa) = 89.53746 76.41064 68.67959
#
# Poissons Ratio (x) = 0.14866 0.17537
# Poissons Ratio (y) = 0.17420 0.33122
# Poissons Ratio (z) = 0.22863 0.36850
#
# Static dielectric constant tensor:
#      x y z
#    x 4.001290 0.000000 0.000000 
#    y 0.000000 3.889560 -0.000030 
#    z 0.000000 -0.000030 92.432450 
# 
# 
# High freq. dielectric constant tensor:
#      x y z
#    x 1.839600 0.000000 0.000000 
#    y 0.000000 1.838770 0.000000 
#    z 0.000000 0.000000 1.841400 
# 
# From -- ./inp_files/26437.got.cif
#   From: 2010.03.12/outbox.cif.g09.slc.cpg/sg24_14_cif.got.tgz:26437.got - 2010.04.14 03:06:53.
