data_PCOD8165207
_publ_section_title
;
Structure prediction by ZEFSAII (Michael W. Deem and Ramdas Pophale) SiO2 
 PCOD8165207
Probable space group: I 21 21 21
;
_chemical_formula_sum "Si O2"
_cell_formula_units_Z 24
_cell_length_a 21.332276
_cell_length_b 5.143913
_cell_length_c 11.406442
_cell_angle_alpha 90.000000
_cell_angle_beta 90.000000
_cell_angle_gamma 90.000000
_cell_volume 1251.644528
_symmetry_space_group_name_H-M "I 21 21 21"
_symmetry_group_IT_number 24
_symmetry_cell_setting 'orthorhombic'
loop_
_space_group_symop_operation_xyz
x,y,z
-x,1/2-y,z
x,-y,1/2-z
1/2-x,y,-z
1/2+x,1/2+y,1/2+z
1/2-x,-y,1/2+z
1/2+x,1/2-y,-z
-x,1/2+y,1/2-z
loop_
_atom_site_type_symbol
_atom_site_label
_atom_site_fract_x
_atom_site_fract_y
_atom_site_fract_z
Si Si1 0.250000 0.249012 0.500000
Si Si2 0.625244 0.489808 0.524411
Si Si3 0.860122 0.008750 0.614176
Si Si4 0.958051 0.500000 0.250000
O O1 0.214395 0.430416 0.595804
O O2 0.302337 0.066718 0.563003
O O3 0.600468 0.238846 0.450694
O O4 0.584923 0.547535 0.638003
O O5 0.620484 0.736670 0.440720
O O6 0.876996 0.000000 0.750000
O O7 0.000000 0.250000 0.272237
#
# Coordination Sequence:
#
# PCOD8165207 Si02
#       4
#     4   8   8   4
#     4   8  22  32  62  96 124 174 194 276 328 388
#     4  10  22  39  61  96 125 168 221 268 327 387
#     4  10  20  37  60  93 132 161 208 267 338 391
#     4  12  26  46  70  92 134 182 228 276 310 390
#
# _framework density 19.174775
#
# number of rings (size 3 to 8) (size 9 to 14) (size 15 to 20)
#    2.000    0.000    0.000    4.000    0.000    5.333 
#    0.000    0.000    0.000   20.000    0.000    0.000 
#    0.000    0.000    0.000    0.000    0.000    0.000 
#
# Total GULP energy -148668.646618 kJ/mol
# GULP energy per Si atom -12389.053885 kJ/mol
# Density = 1.913113 g / cm^3
# Si number density = 19.174775 Si / 1000 Ang^3
#
#
#
# Elastic Constant Matrix: (Units=GPa)
#
#
# Indices 1 2 3 4 5 6 
#
# 1 61.0175 12.4222 29.4040 0.0000 0.0000 0.0000
# 2 12.4222 132.6521 35.5934 0.0000 0.0000 0.0000
# 3 29.4040 35.5934 126.6711 0.0000 0.0000 0.0000
# 4 0.0000 0.0000 0.0000 33.7057 0.0000 0.0000
# 5 0.0000 0.0000 0.0000 0.0000 28.2807 0.0000
# 6 0.0000 0.0000 0.0000 0.0000 0.0000 -77.4185
#
#
#
# Elastic Compliance Matrix: (Units=1/GPa)
#
#
# Indices 1 2 3 4 5 6 
#
# 1 0.018501 -0.000628 -0.004118 0.000000 0.000000 0.000000
# 2 -0.000628 0.008175 -0.002151 0.000000 0.000000 0.000000
# 3 -0.004118 -0.002151 0.009455 0.000000 0.000000 0.000000
# 4 0.000000 0.000000 0.000000 0.029669 0.000000 0.000000
# 5 0.000000 0.000000 0.000000 0.000000 0.035360 0.000000
# 6 0.000000 0.000000 0.000000 0.000000 0.000000 -0.012917
#
#
# Mechanical properties :
#
#
# Convention : Reuss Voigt Hill
#
# Bulk Modulus (GPa) = 44.77017 52.79777 48.78397
# Shear Modulus (GPa) = 45.66970 13.10831 29.38901
#
# Velocity S-wave (km/s) = 4.88562 2.61745 3.91921
# Velocity P-wave (km/s) = 7.43135 6.06049 6.78065
#
# Compressibility (1/GPa) = 0.02233630
#
# Stress axis : x y z
#
# Youngs Moduli (GPa) = 54.05090 122.33129 105.76487
#
# Poissons Ratio (x) = 0.07676 0.43557
# Poissons Ratio (y) = 0.03392 0.22753
# Poissons Ratio (z) = 0.22260 0.26317
#
# Static dielectric constant tensor:
#      x y z
#    x 3.290430 0.000000 0.000000 
#    y 0.000000 3.577020 0.000000 
#    z 0.000000 0.000000 4.872510 
# 
# 
# High freq. dielectric constant tensor:
#      x y z
#    x 1.718250 0.000000 0.000000 
#    y 0.000000 1.765360 0.000000 
#    z 0.000000 0.000000 1.733340 
# 
# From -- ./inp_files/1786.got.cif
#   From: 2010.03.12/outbox.cif.g09.slc.cpg/sg24_1_cif.got.tgz:1786.got - 2010.04.14 03:06:53.
