data_PCOD8165644
_publ_section_title
;
Structure prediction by ZEFSAII (Michael W. Deem and Ramdas Pophale) SiO2 
 PCOD8165644
Probable space group: I 21 21 21
;
_chemical_formula_sum "Si O2"
_cell_formula_units_Z 56
_cell_length_a 21.254246
_cell_length_b 14.490839
_cell_length_c 8.931699
_cell_angle_alpha 90.000000
_cell_angle_beta 90.000000
_cell_angle_gamma 90.000000
_cell_volume 2750.890560
_symmetry_space_group_name_H-M "I 21 21 21"
_symmetry_group_IT_number 24
_symmetry_cell_setting 'orthorhombic'
loop_
_space_group_symop_operation_xyz
x,y,z
-x,1/2-y,z
x,-y,1/2-z
1/2-x,y,-z
1/2+x,1/2+y,1/2+z
1/2-x,-y,1/2+z
1/2+x,1/2-y,-z
-x,1/2+y,1/2-z
loop_
_atom_site_type_symbol
_atom_site_label
_atom_site_fract_x
_atom_site_fract_y
_atom_site_fract_z
Si Si1 0.750000 0.868104 0.500000
Si Si2 0.301080 0.500000 0.750000
Si Si3 0.934023 0.894764 0.745508
Si Si4 0.572123 0.583656 0.337639
Si Si5 0.624931 0.242807 0.039847
Si Si6 0.976769 0.461167 0.404828
Si Si7 0.570821 0.284939 0.726443
Si Si8 0.108989 0.379960 0.455095
O O1 0.759124 0.929113 0.348138
O O2 0.693999 0.796926 0.473842
O O3 0.342676 0.451207 0.620300
O O4 0.919124 0.842711 0.589553
O O5 0.010359 0.887154 0.760966
O O6 0.912234 0.000000 0.750000
O O7 0.885318 0.850773 0.869956
O O8 0.606762 0.500000 0.250000
O O9 0.618865 0.671078 0.344668
O O10 0.552649 0.544368 0.500472
O O11 0.600212 0.290308 0.889506
O O12 0.002608 0.500000 0.250000
O O13 0.925995 0.380912 0.365497
O O14 0.039566 0.423556 0.480648
O O15 0.500000 0.250000 0.737732
O O16 0.613506 0.211476 0.641024
#
# Coordination Sequence:
#
# PCOD8165644 Si02
#       8
#     4   4   8   8   8   8   8   8
#     4  12  30  46  68  92 126 182 242 270 318 384
#     4  12  26  46  70  92 128 176 230 278 324 382
#     4  11  23  37  63  99 136 171 203 262 349 414
#     4  11  23  39  66 100 137 166 212 272 349 411
#     4  12  25  44  63  90 133 178 225 280 326 384
#     4  11  20  35  62  99 128 167 205 252 332 421
#     4  10  22  36  62  96 130 170 209 268 340 409
#     4  11  22  38  63  93 137 164 208 263 336 409
#
# _framework density 20.357043000000001
#
# number of rings (size 3 to 8) (size 9 to 14) (size 15 to 20)
#    0.000    0.857    6.429    2.143    7.000    1.143 
#    0.000    0.000    3.143    0.000    0.000    0.000 
#    0.000    0.000    0.000    0.000    0.000    0.000 
#
# Total GULP energy -346887.846363 kJ/mol
# GULP energy per Si atom -12388.851656 kJ/mol
# Density = 2.031071 g / cm^3
# Si number density = 20.357043 Si / 1000 Ang^3
#
#
#
# Elastic Constant Matrix: (Units=GPa)
#
#
# Indices 1 2 3 4 5 6 
#
# 1 52.3950 39.6230 21.7471 0.0000 0.0000 0.0000
# 2 39.6230 112.1910 25.7317 0.0000 0.0000 0.0000
# 3 21.7471 25.7317 88.2477 0.0000 0.0000 0.0000
# 4 0.0000 0.0000 0.0000 37.6429 0.0000 0.0000
# 5 0.0000 0.0000 0.0000 0.0000 18.5517 0.0000
# 6 0.0000 0.0000 0.0000 0.0000 0.0000 27.5690
#
#
#
# Elastic Compliance Matrix: (Units=1/GPa)
#
#
# Indices 1 2 3 4 5 6 
#
# 1 0.027431 -0.008721 -0.004217 0.000000 0.000000 0.000000
# 2 -0.008721 0.012325 -0.001445 0.000000 0.000000 0.000000
# 3 -0.004217 -0.001445 0.012792 0.000000 0.000000 0.000000
# 4 0.000000 0.000000 0.000000 0.026565 0.000000 0.000000
# 5 0.000000 0.000000 0.000000 0.000000 0.053904 0.000000
# 6 0.000000 0.000000 0.000000 0.000000 0.000000 0.036273
#
#
# Mechanical properties :
#
#
# Convention : Reuss Voigt Hill
#
# Bulk Modulus (GPa) = 42.04676 47.44862 44.74769
# Shear Modulus (GPa) = 24.27397 27.80151 26.03774
#
# Velocity S-wave (km/s) = 3.45688 3.69954 3.58026
# Velocity P-wave (km/s) = 6.05251 6.45040 6.25462
#
# Compressibility (1/GPa) = 0.02378304
#
# Stress axis : x y z
#
# Youngs Moduli (GPa) = 36.45503 81.13824 78.17271
#
# Poissons Ratio (x) = 0.70759 0.32966
# Poissons Ratio (y) = 0.31791 0.11293
# Poissons Ratio (z) = 0.15373 0.11721
#
# Static dielectric constant tensor:
#      x y z
#    x 3.235660 0.000000 0.000000 
#    y 0.000000 4.067860 0.000000 
#    z 0.000000 0.000000 4.008240 
# 
# 
# High freq. dielectric constant tensor:
#      x y z
#    x 1.733360 0.000000 0.000000 
#    y 0.000000 1.806290 0.000000 
#    z 0.000000 0.000000 1.822050 
# 
# From -- ./inp_files/13201.got.cif
#   From: 2010.03.12/outbox.cif.g09.slc.cpg/sg24_7_cif.got.tgz:13201.got - 2010.04.14 03:06:53.
