data_PCOD8165187
_publ_section_title
;
Structure prediction by ZEFSAII (Michael W. Deem and Ramdas Pophale) SiO2 
 PCOD8165187
Probable space group: I 21 21 21
;
_chemical_formula_sum "Si O2"
_cell_formula_units_Z 56
_cell_length_a 19.679082
_cell_length_b 11.537015
_cell_length_c 13.075708
_cell_angle_alpha 90.000000
_cell_angle_beta 90.000000
_cell_angle_gamma 90.000000
_cell_volume 2968.680817
_symmetry_space_group_name_H-M "I 21 21 21"
_symmetry_group_IT_number 24
_symmetry_cell_setting 'orthorhombic'
loop_
_space_group_symop_operation_xyz
x,y,z
-x,1/2-y,z
x,-y,1/2-z
1/2-x,y,-z
1/2+x,1/2+y,1/2+z
1/2-x,-y,1/2+z
1/2+x,1/2-y,-z
-x,1/2+y,1/2-z
loop_
_atom_site_type_symbol
_atom_site_label
_atom_site_fract_x
_atom_site_fract_y
_atom_site_fract_z
Si Si1 0.000000 0.750000 0.970004
Si Si2 0.634163 0.210987 0.577763
Si Si3 0.846661 0.463043 0.865007
Si Si4 0.501428 0.513663 0.129753
Si Si5 0.665688 0.875714 0.710833
Si Si6 0.250000 0.877697 0.000000
Si Si7 0.878955 0.956040 0.499716
Si Si8 0.786684 0.224358 0.900598
O O1 0.986225 0.853781 0.893457
O O2 0.065359 0.773603 0.041302
O O3 0.624904 0.188920 0.699098
O O4 0.698275 0.294627 0.560637
O O5 0.643182 0.089621 0.516766
O O6 0.840287 0.500000 0.750000
O O7 0.922739 0.482511 0.905508
O O8 0.791923 0.538284 0.925968
O O9 0.837026 0.324905 0.865790
O O10 0.487174 0.500000 0.250000
O O11 0.450657 0.439849 0.057812
O O12 0.618175 0.889817 0.610011
O O13 0.732707 0.801048 0.688081
O O14 0.690800 0.000000 0.750000
O O15 0.823333 0.896476 0.572248
O O16 0.750000 0.275292 0.000000
#
# Coordination Sequence:
#
# PCOD8165187 Si02
#       8
#     4   8   8   8   8   4   8   8
#     4  10  20  42  60  84 122 150 194 256 288 350
#     4  10  21  37  64  89 118 152 201 246 295 355
#     4  11  23  39  59  84 120 157 195 242 294 353
#     4  10  22  39  58  86 115 156 200 240 299 355
#     4   9  19  36  60  89 117 151 195 243 302 346
#     4  12  22  38  64  90 112 164 200 246 294 362
#     4   9  21  38  60  85 121 153 192 249 299 345
#     4  10  20  37  56  83 121 151 190 245 291 346
#
# _framework density 18.863598
#
# number of rings (size 3 to 8) (size 9 to 14) (size 15 to 20)
#    0.000    2.000    2.143    0.857    5.000    3.429 
#    2.571    2.857    0.000    0.000    0.000    0.000 
#    0.000    0.000    0.000    0.000    0.000    0.000 
#
# Total GULP energy -347106.484532 kJ/mol
# GULP energy per Si atom -12396.660162 kJ/mol
# Density = 1.882066 g / cm^3
# Si number density = 18.863598 Si / 1000 Ang^3
#
#
#
# Elastic Constant Matrix: (Units=GPa)
#
#
# Indices 1 2 3 4 5 6 
#
# 1 119.4922 37.9818 62.2735 0.0000 0.0000 0.0000
# 2 37.9818 72.8965 40.7924 0.0000 0.0000 0.0000
# 3 62.2735 40.7924 103.9353 0.0000 0.0000 0.0000
# 4 0.0000 0.0000 0.0000 19.2544 0.0000 0.0000
# 5 0.0000 0.0000 0.0000 0.0000 33.8911 0.0000
# 6 0.0000 0.0000 0.0000 0.0000 0.0000 28.4145
#
#
#
# Elastic Compliance Matrix: (Units=1/GPa)
#
#
# Indices 1 2 3 4 5 6 
#
# 1 0.012665 -0.003015 -0.006405 0.000000 0.000000 0.000000
# 2 -0.003015 0.018297 -0.005375 0.000000 0.000000 0.000000
# 3 -0.006405 -0.005375 0.015569 0.000000 0.000000 0.000000
# 4 0.000000 0.000000 0.000000 0.051936 0.000000 0.000000
# 5 0.000000 0.000000 0.000000 0.000000 0.029506 0.000000
# 6 0.000000 0.000000 0.000000 0.000000 0.000000 0.035193
#
#
# Mechanical properties :
#
#
# Convention : Reuss Voigt Hill
#
# Bulk Modulus (GPa) = 59.02849 64.26881 61.64865
# Shear Modulus (GPa) = 25.20137 26.66375 25.93256
#
# Velocity S-wave (km/s) = 3.65907 3.76374 3.71177
# Velocity P-wave (km/s) = 7.01512 7.28230 7.14996
#
# Compressibility (1/GPa) = 0.01694097
#
# Stress axis : x y z
#
# Youngs Moduli (GPa) = 78.95756 54.65521 64.23224
#
# Poissons Ratio (x) = 0.16477 0.41142
# Poissons Ratio (y) = 0.23803 0.34523
# Poissons Ratio (z) = 0.50573 0.29376
#
# Static dielectric constant tensor:
#      x y z
#    x 3.738260 0.000000 0.000000 
#    y 0.000000 3.435200 0.000000 
#    z 0.000000 0.000000 3.539180 
# 
# 
# High freq. dielectric constant tensor:
#      x y z
#    x 1.729530 0.000000 0.000000 
#    y 0.000000 1.734430 0.000000 
#    z 0.000000 0.000000 1.737900 
# 
# From -- ./inp_files/22236.got.cif
#   From: 2010.03.12/outbox.cif.g09.slc.cpg/sg24_12_cif.got.tgz:22236.got - 2010.04.14 03:06:53.
