data_PCOD8165818
_publ_section_title
;
Structure prediction by ZEFSAII (Michael W. Deem and Ramdas Pophale) SiO2 
 PCOD8165818
Probable space group: I 21 21 21
;
_chemical_formula_sum "Si O2"
_cell_formula_units_Z 56
_cell_length_a 9.565269
_cell_length_b 13.526574
_cell_length_c 20.903727
_cell_angle_alpha 90.000000
_cell_angle_beta 90.000000
_cell_angle_gamma 90.000000
_cell_volume 2704.635385
_symmetry_space_group_name_H-M "I 21 21 21"
_symmetry_group_IT_number 24
_symmetry_cell_setting 'orthorhombic'
loop_
_space_group_symop_operation_xyz
x,y,z
-x,1/2-y,z
x,-y,1/2-z
1/2-x,y,-z
1/2+x,1/2+y,1/2+z
1/2-x,-y,1/2+z
1/2+x,1/2-y,-z
-x,1/2+y,1/2-z
loop_
_atom_site_type_symbol
_atom_site_label
_atom_site_fract_x
_atom_site_fract_y
_atom_site_fract_z
Si Si1 0.221967 0.102737 0.153909
Si Si2 0.344249 0.267552 0.942930
Si Si3 0.025946 0.534121 0.656065
Si Si4 0.766030 0.011429 0.070961
Si Si5 0.136573 0.211152 0.267692
Si Si6 0.480544 0.460301 0.676740
Si Si7 0.397111 0.661412 0.230737
O O1 0.204305 0.206376 0.118495
O O2 0.363837 0.045720 0.138281
O O3 0.231095 0.133751 0.228590
O O4 0.089261 0.033589 0.142274
O O5 0.500000 0.250000 0.964654
O O6 0.338190 0.383367 0.931811
O O7 0.250000 0.228313 0.000000
O O8 0.105287 0.528792 0.589356
O O9 0.088988 0.627679 0.695368
O O10 0.052412 0.430946 0.690438
O O11 0.847805 0.951888 0.127931
O O12 0.750000 0.960914 0.000000
O O13 0.237189 0.303685 0.287158
O O14 0.000000 0.250000 0.227291
O O15 0.057533 0.147500 0.323351
O O16 0.441493 0.500000 0.750000
O O17 0.500000 0.750000 0.214282
#
# Coordination Sequence:
#
# PCOD8165818 Si02
#       7
#     8   8   8   8   8   8   8
#     4  11  22  37  58  88 130 171 216 260 325 394
#     4  11  24  39  61  87 130 175 219 259 319 400
#     4  11  25  37  63  95 132 179 212 273 338 392
#     4  11  25  43  63  93 134 175 222 270 326 397
#     4  11  22  36  61  91 125 168 210 274 326 380
#     4  10  23  39  64  93 131 168 222 269 329 386
#     4  11  22  40  63  96 136 163 222 271 336 395
#
# _framework density 20.705193000000001
#
# number of rings (size 3 to 8) (size 9 to 14) (size 15 to 20)
#    0.000    1.143    2.857    3.000   16.000    0.000 
#    0.000    0.000    0.000    2.571    0.000    1.000 
#    0.000    0.000    0.000    0.000    0.000    0.000 
#
# Total GULP energy -346906.564730 kJ/mol
# GULP energy per Si atom -12389.520169 kJ/mol
# Density = 2.065807 g / cm^3
# Si number density = 20.705193 Si / 1000 Ang^3
#
#
#
# Elastic Constant Matrix: (Units=GPa)
#
#
# Indices 1 2 3 4 5 6 
#
# 1 143.9229 29.1011 47.0452 0.0000 0.0000 0.0000
# 2 29.1011 80.3590 15.3428 0.0000 0.0000 0.0000
# 3 47.0452 15.3428 90.9434 0.0000 0.0000 0.0000
# 4 0.0000 0.0000 0.0000 17.1634 0.0000 0.0000
# 5 0.0000 0.0000 0.0000 0.0000 23.7473 0.0000
# 6 0.0000 0.0000 0.0000 0.0000 0.0000 32.6834
#
#
#
# Elastic Compliance Matrix: (Units=1/GPa)
#
#
# Indices 1 2 3 4 5 6 
#
# 1 0.008785 -0.002391 -0.004141 0.000000 0.000000 0.000000
# 2 -0.002391 0.013509 -0.001042 0.000000 0.000000 0.000000
# 3 -0.004141 -0.001042 0.013314 0.000000 0.000000 0.000000
# 4 0.000000 0.000000 0.000000 0.058263 0.000000 0.000000
# 5 0.000000 0.000000 0.000000 0.000000 0.042110 0.000000
# 6 0.000000 0.000000 0.000000 0.000000 0.000000 0.030597
#
#
# Mechanical properties :
#
#
# Convention : Reuss Voigt Hill
#
# Bulk Modulus (GPa) = 48.87717 55.35595 52.11656
# Shear Modulus (GPa) = 26.51860 29.63457 28.07659
#
# Velocity S-wave (km/s) = 3.58267 3.78731 3.68641
# Velocity P-wave (km/s) = 6.38526 6.77630 6.58368
#
# Compressibility (1/GPa) = 0.02045945
#
# Stress axis : x y z
#
# Youngs Moduli (GPa) = 113.82669 74.02494 75.10888
#
# Poissons Ratio (x) = 0.17698 0.31105
# Poissons Ratio (y) = 0.27214 0.07829
# Poissons Ratio (z) = 0.47139 0.07716
#
# Static dielectric constant tensor:
#      x y z
#    x 3.964310 0.000000 0.000000 
#    y 0.000000 4.325600 0.000000 
#    z 0.000000 0.000000 3.713330 
# 
# 
# High freq. dielectric constant tensor:
#      x y z
#    x 1.834950 0.000000 0.000000 
#    y 0.000000 1.811640 0.000000 
#    z 0.000000 0.000000 1.769900 
# 
# From -- ./inp_files/32845.got.cif
#   From: 2010.03.12/outbox.cif.g09.slc.cpg/sg24_17_cif.got.tgz:32845.got - 2010.04.14 03:06:53.
