data_PCOD8165597
_publ_section_title
;
Structure prediction by ZEFSAII (Michael W. Deem and Ramdas Pophale) SiO2 
 PCOD8165597
Probable space group: I 21 21 21
;
_chemical_formula_sum "Si O2"
_cell_formula_units_Z 48
_cell_length_a 5.778811
_cell_length_b 13.933008
_cell_length_c 24.288768
_cell_angle_alpha 90.000000
_cell_angle_beta 90.000000
_cell_angle_gamma 90.000000
_cell_volume 1955.639785
_symmetry_space_group_name_H-M "I 21 21 21"
_symmetry_group_IT_number 24
_symmetry_cell_setting 'orthorhombic'
loop_
_space_group_symop_operation_xyz
x,y,z
-x,1/2-y,z
x,-y,1/2-z
1/2-x,y,-z
1/2+x,1/2+y,1/2+z
1/2-x,-y,1/2+z
1/2+x,1/2-y,-z
-x,1/2+y,1/2-z
loop_
_atom_site_type_symbol
_atom_site_label
_atom_site_fract_x
_atom_site_fract_y
_atom_site_fract_z
Si Si1 0.099556 0.955225 0.571314
Si Si2 0.750000 0.697905 0.500000
Si Si3 0.750000 0.935132 0.000000
Si Si4 0.259308 0.578139 0.658204
Si Si5 0.481325 0.904562 0.893357
Si Si6 0.984110 0.500000 0.750000
Si Si7 0.791003 0.681071 0.803296
Si Si8 0.500000 0.750000 0.704970
O O1 0.273674 0.871570 0.552715
O O2 0.940027 0.899657 0.614782
O O3 0.238431 0.046756 0.592104
O O4 0.948310 0.994091 0.520710
O O5 0.500000 0.750000 0.497404
O O6 0.867831 0.873911 0.051313
O O7 0.366408 0.476322 0.642531
O O8 0.146465 0.573615 0.718010
O O9 0.444676 0.663220 0.663028
O O10 0.405034 0.817617 0.852216
O O11 0.843698 0.567386 0.792783
O O12 0.710571 0.722322 0.744754
O O13 0.000000 0.750000 0.823955
#
# Coordination Sequence:
#
# PCOD8165597 Si02
#       8
#     8   4   4   8   8   4   8   4
#     4  11  23  45  68 103 134 204 248 307 392 474
#     4  12  27  44  68 104 159 194 258 332 401 480
#     4  10  21  42  76 102 137 182 260 316 387 482
#     4  11  25  41  71 101 152 198 253 302 386 464
#     4  11  23  43  74 107 139 199 253 312 394 476
#     4  12  22  50  66 102 150 198 238 310 372 454
#     4  12  26  44  74 109 149 198 256 315 388 470
#     4  12  26  46  64 110 154 200 248 320 372 474
#
# _framework density 24.544397
#
# number of rings (size 3 to 8) (size 9 to 14) (size 15 to 20)
#    0.000    0.667    5.000    2.500    2.333    1.333 
#    0.000    0.000    0.000    0.000   21.667    0.000 
#    0.000    0.000    0.000    0.000    0.000    0.000 
#
# Total GULP energy -297357.195342 kJ/mol
# GULP energy per Si atom -12389.883139 kJ/mol
# Density = 2.448853 g / cm^3
# Si number density = 24.544397 Si / 1000 Ang^3
#
#
#
# Elastic Constant Matrix: (Units=GPa)
#
#
# Indices 1 2 3 4 5 6 
#
# 1 106.1149 27.0145 39.2988 0.0000 0.0000 0.0000
# 2 27.0145 82.4525 30.1544 0.0000 0.0000 0.0000
# 3 39.2988 30.1544 126.1476 0.0000 0.0000 0.0000
# 4 0.0000 0.0000 0.0000 4.5087 0.0000 0.0000
# 5 0.0000 0.0000 0.0000 0.0000 35.2858 0.0000
# 6 0.0000 0.0000 0.0000 0.0000 0.0000 48.0649
#
#
#
# Elastic Compliance Matrix: (Units=1/GPa)
#
#
# Indices 1 2 3 4 5 6 
#
# 1 0.011143 -0.002609 -0.002848 0.000000 0.000000 0.000000
# 2 -0.002609 0.013901 -0.002510 0.000000 0.000000 0.000000
# 3 -0.002848 -0.002510 0.009414 0.000000 0.000000 0.000000
# 4 0.000000 0.000000 0.000000 0.221795 0.000000 0.000000
# 5 0.000000 0.000000 0.000000 0.000000 0.028340 0.000000
# 6 0.000000 0.000000 0.000000 0.000000 0.000000 0.020805
#
#
# Mechanical properties :
#
#
# Convention : Reuss Voigt Hill
#
# Bulk Modulus (GPa) = 53.98342 56.40559 55.19450
# Shear Modulus (GPa) = 15.26687 32.12171 23.69429
#
# Velocity S-wave (km/s) = 2.49672 3.62155 3.11040
# Velocity P-wave (km/s) = 5.50939 6.36541 5.95281
#
# Compressibility (1/GPa) = 0.01852420
#
# Stress axis : x y z
#
# Youngs Moduli (GPa) = 89.74584 71.93686 106.22126
#
# Poissons Ratio (x) = 0.18771 0.30247
# Poissons Ratio (y) = 0.23418 0.26662
# Poissons Ratio (z) = 0.25555 0.18056
#
# Static dielectric constant tensor:
#      x y z
#    x 4.611920 0.000000 0.000000 
#    y 0.000000 4.064040 0.000000 
#    z 0.000000 0.000000 4.535380 
# 
# 
# High freq. dielectric constant tensor:
#      x y z
#    x 1.987840 0.000000 0.000000 
#    y 0.000000 1.954230 0.000000 
#    z 0.000000 0.000000 1.990250 
# 
# From -- ./inp_files/28073.got.cif
#   From: 2010.03.12/outbox.cif.g09.slc.cpg/sg24_15_cif.got.tgz:28073.got - 2010.04.14 03:06:53.
