data_PCOD8165468
_publ_section_title
;
Structure prediction by ZEFSAII (Michael W. Deem and Ramdas Pophale) SiO2 
 PCOD8165468
Probable space group: I 21 21 21
;
_chemical_formula_sum "Si O2"
_cell_formula_units_Z 32
_cell_length_a 7.210503
_cell_length_b 18.527259
_cell_length_c 12.812712
_cell_angle_alpha 90.000000
_cell_angle_beta 90.000000
_cell_angle_gamma 90.000000
_cell_volume 1711.661171
_symmetry_space_group_name_H-M "I 21 21 21"
_symmetry_group_IT_number 24
_symmetry_cell_setting 'orthorhombic'
loop_
_space_group_symop_operation_xyz
x,y,z
-x,1/2-y,z
x,-y,1/2-z
1/2-x,y,-z
1/2+x,1/2+y,1/2+z
1/2-x,-y,1/2+z
1/2+x,1/2-y,-z
-x,1/2+y,1/2-z
loop_
_atom_site_type_symbol
_atom_site_label
_atom_site_fract_x
_atom_site_fract_y
_atom_site_fract_z
Si Si1 0.284223 0.185503 0.182059
Si Si2 0.137771 0.184901 0.398396
Si Si3 0.196818 0.340680 0.885295
Si Si4 0.985256 0.084361 0.242388
O O1 0.285759 0.204453 0.306496
O O2 0.221893 0.259551 0.125913
O O3 0.478604 0.158436 0.137501
O O4 0.133450 0.122141 0.162367
O O5 0.250000 0.161280 0.500000
O O6 0.000000 0.250000 0.425031
O O7 0.012567 0.117481 0.358508
O O8 0.283063 0.396282 0.801655
O O9 0.250000 0.368963 0.000000
O O10 0.018635 0.000000 0.250000
#
# Coordination Sequence:
#
# PCOD8165468 Si02
#       4
#     8   8   8   8
#     4   9  22  38  61  91 119 157 207 253 300 345
#     4  10  21  38  63  91 117 164 209 250 303 347
#     4  11  22  38  65  94 117 162 209 257 302 357
#     4  10  22  43  58  89 136 158 198 248 305 381
#
# _framework density 18.695288000000001
#
# number of rings (size 3 to 8) (size 9 to 14) (size 15 to 20)
#    1.500    0.500    2.500    0.750   10.500    1.000 
#    4.500    1.250    0.000    0.000    0.000    0.000 
#    0.000    0.000    0.000    0.000    0.000    0.000 
#
# Total GULP energy -198252.318241 kJ/mol
# GULP energy per Si atom -12390.769890 kJ/mol
# Density = 1.865274 g / cm^3
# Si number density = 18.695288 Si / 1000 Ang^3
#
#
#
# Elastic Constant Matrix: (Units=GPa)
#
#
# Indices 1 2 3 4 5 6 
#
# 1 60.1992 21.2378 22.0606 0.0000 0.0000 0.0000
# 2 21.2378 119.3693 4.7579 0.0000 0.0000 0.0000
# 3 22.0606 4.7579 103.4722 0.0001 0.0000 0.0000
# 4 0.0000 0.0000 0.0001 7.2322 0.0000 0.0000
# 5 0.0000 0.0000 0.0000 0.0000 34.9839 0.0000
# 6 0.0000 0.0000 0.0000 0.0000 0.0000 19.9895
#
#
#
# Elastic Compliance Matrix: (Units=1/GPa)
#
#
# Indices 1 2 3 4 5 6 
#
# 1 0.019207 -0.003260 -0.003945 0.000000 0.000000 0.000000
# 2 -0.003260 0.008946 0.000284 0.000000 0.000000 0.000000
# 3 -0.003945 0.000284 0.010493 0.000000 0.000000 0.000000
# 4 0.000000 0.000000 0.000000 0.138270 0.000000 0.000000
# 5 0.000000 0.000000 0.000000 0.000000 0.028585 0.000000
# 6 0.000000 0.000000 0.000000 0.000000 0.000000 0.050026
#
#
# Mechanical properties :
#
#
# Convention : Reuss Voigt Hill
#
# Bulk Modulus (GPa) = 40.31788 42.12814 41.22301
# Shear Modulus (GPa) = 18.00909 28.10675 23.05792
#
# Velocity S-wave (km/s) = 3.10707 3.88159 3.51572
# Velocity P-wave (km/s) = 5.87235 6.53238 6.21114
#
# Compressibility (1/GPa) = 0.02480289
#
# Stress axis : x y z
#
# Youngs Moduli (GPa) = 52.06330 111.78085 95.30608
#
# Poissons Ratio (x) = 0.36441 0.37600
# Poissons Ratio (y) = 0.16973 -0.02704
# Poissons Ratio (z) = 0.20540 -0.03171
#
# Static dielectric constant tensor:
#      x y z
#    x 3.354650 0.000000 0.000000 
#    y 0.000000 3.125130 0.000000 
#    z 0.000000 0.000000 3.295920 
# 
# 
# High freq. dielectric constant tensor:
#      x y z
#    x 1.725320 0.000000 0.000000 
#    y 0.000000 1.699780 0.000000 
#    z 0.000000 0.000000 1.717720 
# 
# From -- ./inp_files/18056.got.cif
#   From: 2010.03.12/outbox.cif.g09.slc.cpg/sg24_10_cif.got.tgz:18056.got - 2010.04.14 03:06:53.
