data_PCOD8165520
_publ_section_title
;
Structure prediction by ZEFSAII (Michael W. Deem and Ramdas Pophale) SiO2 
 PCOD8165520
Probable space group: I 21 21 21
;
_chemical_formula_sum "Si O2"
_cell_formula_units_Z 32
_cell_length_a 6.906032
_cell_length_b 12.450503
_cell_length_c 18.274335
_cell_angle_alpha 90.000000
_cell_angle_beta 90.000000
_cell_angle_gamma 90.000000
_cell_volume 1571.292602
_symmetry_space_group_name_H-M "I 21 21 21"
_symmetry_group_IT_number 24
_symmetry_cell_setting 'orthorhombic'
loop_
_space_group_symop_operation_xyz
x,y,z
-x,1/2-y,z
x,-y,1/2-z
1/2-x,y,-z
1/2+x,1/2+y,1/2+z
1/2-x,-y,1/2+z
1/2+x,1/2-y,-z
-x,1/2+y,1/2-z
loop_
_atom_site_type_symbol
_atom_site_label
_atom_site_fract_x
_atom_site_fract_y
_atom_site_fract_z
Si Si1 0.750000 0.075176 0.000000
Si Si2 0.999866 0.000000 0.250000
Si Si3 0.000000 0.250000 0.938007
Si Si4 0.500000 0.750000 0.186265
Si Si5 0.836885 0.376611 0.814852
Si Si6 0.821827 0.957048 0.855122
O O1 0.933665 0.153322 0.989975
O O2 0.728070 0.000190 0.929658
O O3 0.853753 0.068668 0.299790
O O4 0.131136 0.065195 0.192198
O O5 0.169203 0.204162 0.884347
O O6 0.349972 0.809867 0.239841
O O7 0.587857 0.839492 0.132042
O O8 0.018201 0.459170 0.823176
#
# Coordination Sequence:
#
# PCOD8165520 Si02
#       6
#     4   4   4   4   8   8
#     4  10  24  44  62  94 132 168 212 266 316 398
#     4  12  20  38  68  94 122 160 220 266 306 386
#     4   9  22  40  64  90 131 168 202 272 339 362
#     4  11  18  42  62  86 133 170 194 272 339 346
#     4  10  21  40  61  96 131 155 210 286 315 360
#     4  11  23  42  61  96 134 167 215 267 317 385
#
# _framework density 20.365399
#
# number of rings (size 3 to 8) (size 9 to 14) (size 15 to 20)
#    0.000    1.500    5.000    0.000    3.500    1.000 
#    0.000    2.500    0.000    0.000    0.000    0.000 
#    0.000    0.000    0.000    0.000    0.000    0.000 
#
# Total GULP energy -198231.584879 kJ/mol
# GULP energy per Si atom -12389.474055 kJ/mol
# Density = 2.031905 g / cm^3
# Si number density = 20.365399 Si / 1000 Ang^3
#
#
#
# Elastic Constant Matrix: (Units=GPa)
#
#
# Indices 1 2 3 4 5 6 
#
# 1 92.5486 39.6773 42.2928 0.0000 0.0000 0.0000
# 2 39.6773 135.8274 60.9036 0.0000 0.0000 0.0000
# 3 42.2928 60.9036 112.4183 0.0000 0.0000 0.0000
# 4 0.0000 0.0000 0.0000 35.3861 0.0000 0.0000
# 5 0.0000 0.0000 0.0000 0.0000 23.5759 0.0000
# 6 0.0000 0.0000 0.0000 0.0000 0.0000 30.9169
#
#
#
# Elastic Compliance Matrix: (Units=1/GPa)
#
#
# Indices 1 2 3 4 5 6 
#
# 1 0.013531 -0.002206 -0.003895 0.000000 0.000000 0.000000
# 2 -0.002206 0.010084 -0.004633 0.000000 0.000000 0.000000
# 3 -0.003895 -0.004633 0.012871 0.000000 0.000000 0.000000
# 4 0.000000 0.000000 0.000000 0.028260 0.000000 0.000000
# 5 0.000000 0.000000 0.000000 0.000000 0.042416 0.000000
# 6 0.000000 0.000000 0.000000 0.000000 0.000000 0.032345
#
#
# Mechanical properties :
#
#
# Convention : Reuss Voigt Hill
#
# Bulk Modulus (GPa) = 66.59185 69.61575 68.10380
# Shear Modulus (GPa) = 30.12381 31.17049 30.64715
#
# Velocity S-wave (km/s) = 3.85017 3.91648 3.88347
# Velocity P-wave (km/s) = 7.24807 7.39658 7.32270
#
# Compressibility (1/GPa) = 0.01501685
#
# Stress axis : x y z
#
# Youngs Moduli (GPa) = 73.90452 99.16492 77.69428
#
# Poissons Ratio (x) = 0.21875 0.30265
# Poissons Ratio (y) = 0.16303 0.35998
# Poissons Ratio (z) = 0.28789 0.45946
#
# Static dielectric constant tensor:
#      x y z
#    x 3.496020 0.000000 0.000000 
#    y 0.000000 3.975670 0.000000 
#    z 0.000000 0.000000 3.721590 
# 
# 
# High freq. dielectric constant tensor:
#      x y z
#    x 1.777520 0.000000 0.000000 
#    y 0.000000 1.800910 0.000000 
#    z 0.000000 0.000000 1.785130 
# 
# From -- ./inp_files/3150.got.cif
#   From: 2010.03.12/outbox.cif.g09.slc.cpg/sg24_2_cif.got.tgz:3150.got - 2010.04.14 03:06:53.
