data_PCOD8165589
_publ_section_title
;
Structure prediction by ZEFSAII (Michael W. Deem and Ramdas Pophale) SiO2 
 PCOD8165589
Probable space group: I 21 21 21
;
_chemical_formula_sum "Si O2"
_cell_formula_units_Z 28
_cell_length_a 19.915094
_cell_length_b 7.976575
_cell_length_c 7.610977
_cell_angle_alpha 90.000000
_cell_angle_beta 90.000000
_cell_angle_gamma 90.000000
_cell_volume 1209.035974
_symmetry_space_group_name_H-M "I 21 21 21"
_symmetry_group_IT_number 24
_symmetry_cell_setting 'orthorhombic'
loop_
_space_group_symop_operation_xyz
x,y,z
-x,1/2-y,z
x,-y,1/2-z
1/2-x,y,-z
1/2+x,1/2+y,1/2+z
1/2-x,-y,1/2+z
1/2+x,1/2-y,-z
-x,1/2+y,1/2-z
loop_
_atom_site_type_symbol
_atom_site_label
_atom_site_fract_x
_atom_site_fract_y
_atom_site_fract_z
Si Si1 0.899730 0.500000 0.250000
Si Si2 0.166820 0.315168 0.712839
Si Si3 0.319818 0.316958 0.697886
Si Si4 0.052495 0.110719 0.901863
O O1 0.858581 0.668637 0.295335
O O2 0.941255 0.486073 0.430427
O O3 0.137983 0.500000 0.750000
O O4 0.244281 0.304806 0.773010
O O5 0.168510 0.279337 0.506151
O O6 0.122672 0.182362 0.821678
O O7 0.349152 0.500000 0.750000
O O8 0.000000 0.250000 0.960194
O O9 0.018335 0.000000 0.750000
#
# Coordination Sequence:
#
# PCOD8165589 Si02
#       4
#     4   8   8   8
#     4  12  26  46  74 108 138 190 248 312 358 430
#     4  10  21  42  69 105 146 188 235 295 372 434
#     4  10  22  40  72 110 146 181 234 308 368 431
#     4  12  27  48  71 101 142 200 248 298 361 438
#
# _framework density 23.158947000000001
#
# number of rings (size 3 to 8) (size 9 to 14) (size 15 to 20)
#    0.000    1.143    2.857    2.571    2.000    4.571 
#    7.714    0.000    0.000    0.000    0.000    0.000 
#    0.000    0.000    0.000    0.000    0.000    0.000 
#
# Total GULP energy -173548.758902 kJ/mol
# GULP energy per Si atom -12396.339922 kJ/mol
# Density = 2.310624 g / cm^3
# Si number density = 23.158947 Si / 1000 Ang^3
#
#
#
# Elastic Constant Matrix: (Units=GPa)
#
#
# Indices 1 2 3 4 5 6 
#
# 1 68.5283 32.0010 29.0273 0.0000 0.0000 0.0000
# 2 32.0010 122.4501 23.4011 0.0000 0.0000 0.0000
# 3 29.0273 23.4011 132.7217 0.0000 0.0000 0.0000
# 4 0.0000 0.0000 0.0000 43.3633 0.0000 0.0000
# 5 0.0000 0.0000 0.0000 0.0000 0.6995 0.0000
# 6 0.0000 0.0000 0.0000 0.0000 0.0000 33.8062
#
#
#
# Elastic Compliance Matrix: (Units=1/GPa)
#
#
# Indices 1 2 3 4 5 6 
#
# 1 0.017834 -0.004052 -0.003186 0.000000 0.000000 0.000000
# 2 -0.004052 0.009372 -0.000766 0.000000 0.000000 0.000000
# 3 -0.003186 -0.000766 0.008366 0.000000 0.000000 0.000000
# 4 0.000000 0.000000 0.000000 0.023061 0.000000 0.000000
# 5 0.000000 0.000000 0.000000 0.000000 1.429501 0.000000
# 6 0.000000 0.000000 0.000000 0.000000 0.000000 0.029580
#
#
# Mechanical properties :
#
#
# Convention : Reuss Voigt Hill
#
# Bulk Modulus (GPa) = 51.11373 54.72875 52.92124
# Shear Modulus (GPa) = 3.24624 31.52521 17.38572
#
# Velocity S-wave (km/s) = 1.18523 3.69352 2.74289
# Velocity P-wave (km/s) = 4.89814 6.47090 5.73865
#
# Compressibility (1/GPa) = 0.01956422
#
# Stress axis : x y z
#
# Youngs Moduli (GPa) = 56.07207 106.70146 119.52460
#
# Poissons Ratio (x) = 0.43234 0.38081
# Poissons Ratio (y) = 0.22720 0.09159
# Poissons Ratio (z) = 0.17865 0.08176
#
# Static dielectric constant tensor:
#      x y z
#    x 3.902640 0.000000 0.000000 
#    y 0.000000 4.221730 0.000000 
#    z 0.000000 0.000000 4.106250 
# 
# 
# High freq. dielectric constant tensor:
#      x y z
#    x 1.892000 0.000000 0.000000 
#    y 0.000000 1.921330 0.000000 
#    z 0.000000 0.000000 1.931430 
# 
# From -- ./inp_files/13641.got.cif
#   From: 2010.03.12/outbox.cif.g09.slc.cpg/sg24_7_cif.got.tgz:13641.got - 2010.04.14 03:06:53.
