data_PCOD8165849
_publ_section_title
;
Structure prediction by ZEFSAII (Michael W. Deem and Ramdas Pophale) SiO2 
 PCOD8165849
Probable space group: I 21 21 21
;
_chemical_formula_sum "Si O2"
_cell_formula_units_Z 48
_cell_length_a 12.077253
_cell_length_b 10.882365
_cell_length_c 16.981034
_cell_angle_alpha 90.000000
_cell_angle_beta 90.000000
_cell_angle_gamma 90.000000
_cell_volume 2231.801597
_symmetry_space_group_name_H-M "I 21 21 21"
_symmetry_group_IT_number 24
_symmetry_cell_setting 'orthorhombic'
loop_
_space_group_symop_operation_xyz
x,y,z
-x,1/2-y,z
x,-y,1/2-z
1/2-x,y,-z
1/2+x,1/2+y,1/2+z
1/2-x,-y,1/2+z
1/2+x,1/2-y,-z
-x,1/2+y,1/2-z
loop_
_atom_site_type_symbol
_atom_site_label
_atom_site_fract_x
_atom_site_fract_y
_atom_site_fract_z
Si Si1 0.383171 0.695066 0.128837
Si Si2 0.719888 0.383190 0.705876
Si Si3 0.149485 0.005281 0.055283
Si Si4 0.217245 0.498355 0.338292
Si Si5 0.440869 0.632737 0.957239
Si Si6 0.630789 0.259202 0.857043
O O1 0.500000 0.750000 0.158459
O O2 0.304893 0.800762 0.159649
O O3 0.342221 0.560957 0.163093
O O4 0.378497 0.681111 0.034917
O O5 0.777852 0.500000 0.750000
O O6 0.638995 0.436171 0.639090
O O7 0.652683 0.303901 0.768663
O O8 0.169588 0.148515 0.074050
O O9 0.250000 0.959616 0.000000
O O10 0.029769 0.973489 0.016818
O O11 0.168634 0.500000 0.250000
O O12 0.147227 0.409383 0.393573
O O13 0.203129 0.635826 0.372561
O O14 0.500000 0.750000 0.918316
O O15 0.500000 0.250000 0.866874
#
# Coordination Sequence:
#
# PCOD8165849 Si02
#       6
#     8   8   8   8   8   8
#     4  11  24  44  67  98 141 186 235 292 355 441
#     4  10  23  43  69  97 137 176 232 298 361 427
#     4  11  23  41  67  99 139 187 225 289 365 430
#     4  12  25  42  70 102 138 183 240 303 362 432
#     4  11  24  40  69 103 136 182 238 300 358 432
#     4  11  24  44  69 104 138 179 234 301 368 426
#
# _framework density 21.507287999999999
#
# number of rings (size 3 to 8) (size 9 to 14) (size 15 to 20)
#    0.000    1.000    3.333    3.500    2.333    3.333 
#    0.000    0.000    0.000    0.000    0.000    0.000 
#    0.000    0.000    0.000    0.000    0.000    0.000 
#
# Total GULP energy -297360.386431 kJ/mol
# GULP energy per Si atom -12390.016101 kJ/mol
# Density = 2.145834 g / cm^3
# Si number density = 21.507288 Si / 1000 Ang^3
#
#
#
# Elastic Constant Matrix: (Units=GPa)
#
#
# Indices 1 2 3 4 5 6 
#
# 1 91.3268 37.2017 29.2740 0.0000 0.0000 0.0000
# 2 37.2017 143.9234 30.3374 0.0000 0.0000 0.0000
# 3 29.2740 30.3374 97.0506 0.0000 0.0000 0.0000
# 4 0.0000 0.0000 0.0000 32.2467 0.0000 0.0000
# 5 0.0000 0.0000 0.0000 0.0000 23.4798 0.0000
# 6 0.0000 0.0000 0.0000 0.0000 0.0000 36.5369
#
#
#
# Elastic Compliance Matrix: (Units=1/GPa)
#
#
# Indices 1 2 3 4 5 6 
#
# 1 0.013047 -0.002722 -0.003085 0.000000 0.000000 0.000000
# 2 -0.002722 0.008006 -0.001682 0.000000 0.000000 0.000000
# 3 -0.003085 -0.001682 0.011760 0.000000 0.000000 0.000000
# 4 0.000000 0.000000 0.000000 0.031011 0.000000 0.000000
# 5 0.000000 0.000000 0.000000 0.000000 0.042590 0.000000
# 6 0.000000 0.000000 0.000000 0.000000 0.000000 0.027370
#
#
# Mechanical properties :
#
#
# Convention : Reuss Voigt Hill
#
# Bulk Modulus (GPa) = 56.06427 58.43635 57.25031
# Shear Modulus (GPa) = 32.31927 34.15185 33.23556
#
# Velocity S-wave (km/s) = 3.88069 3.98919 3.93532
# Velocity P-wave (km/s) = 6.79734 6.96044 6.87937
#
# Compressibility (1/GPa) = 0.01783667
#
# Stress axis : x y z
#
# Youngs Moduli (GPa) = 76.64392 124.90216 85.03420
#
# Poissons Ratio (x) = 0.34002 0.26230
# Poissons Ratio (y) = 0.20865 0.14299
# Poissons Ratio (z) = 0.23641 0.21003
#
# Static dielectric constant tensor:
#      x y z
#    x 4.128830 0.000000 0.000000 
#    y 0.000000 4.449790 0.000000 
#    z 0.000000 0.000000 3.906810 
# 
# 
# High freq. dielectric constant tensor:
#      x y z
#    x 1.826520 0.000000 0.000000 
#    y 0.000000 1.863410 0.000000 
#    z 0.000000 0.000000 1.842050 
# 
# From -- ./inp_files/19705.got.cif
#   From: 2010.03.12/outbox.cif.g09.slc.cpg/sg24_10_cif.got.tgz:19705.got - 2010.04.14 03:06:53.
