data_PCOD8165581
_publ_section_title
;
Structure prediction by ZEFSAII (Michael W. Deem and Ramdas Pophale) SiO2 
 PCOD8165581
Probable space group: I 21 21 21
;
_chemical_formula_sum "Si O2"
_cell_formula_units_Z 40
_cell_length_a 8.220586
_cell_length_b 14.731315
_cell_length_c 14.810772
_cell_angle_alpha 90.000000
_cell_angle_beta 90.000000
_cell_angle_gamma 90.000000
_cell_volume 1793.585109
_symmetry_space_group_name_H-M "I 21 21 21"
_symmetry_group_IT_number 24
_symmetry_cell_setting 'orthorhombic'
loop_
_space_group_symop_operation_xyz
x,y,z
-x,1/2-y,z
x,-y,1/2-z
1/2-x,y,-z
1/2+x,1/2+y,1/2+z
1/2-x,-y,1/2+z
1/2+x,1/2-y,-z
-x,1/2+y,1/2-z
loop_
_atom_site_type_symbol
_atom_site_label
_atom_site_fract_x
_atom_site_fract_y
_atom_site_fract_z
Si Si1 0.321514 0.778742 0.260273
Si Si2 0.319938 0.913892 0.094760
Si Si3 0.386867 0.087880 0.876847
Si Si4 0.229506 0.407714 0.206719
Si Si5 0.416408 0.455237 0.044641
O O1 0.500000 0.750000 0.292712
O O2 0.325091 0.836097 0.168987
O O3 0.226380 0.829153 0.342789
O O4 0.231635 0.684123 0.234381
O O5 0.210117 0.994938 0.132816
O O6 0.500719 0.952971 0.081210
O O7 0.250000 0.875285 0.000000
O O8 0.543148 0.075991 0.815648
O O9 0.453803 0.099017 0.980474
O O10 0.298042 0.500000 0.250000
O O11 0.354786 0.388360 0.123782
O O12 0.250000 0.490774 0.000000
#
# Coordination Sequence:
#
# PCOD8165581 Si02
#       5
#     8   8   8   8   8
#     4  12  24  39  63  97 132 172 216 261 317 384
#     4  10  21  42  67  95 132 171 211 261 321 383
#     4  10  22  42  67  95 128 168 214 267 324 379
#     4  11  22  40  66  96 131 169 214 265 320 382
#     4   9  20  41  68  95 126 168 213 266 324 378
#
# _framework density 22.301703
#
# number of rings (size 3 to 8) (size 9 to 14) (size 15 to 20)
#    0.000    1.600    0.000    4.800    0.000    0.000 
#    0.000   37.000    0.000    0.000    0.000    0.000 
#    0.000    0.000    0.000    0.000    0.000    0.000 
#
# Total GULP energy -247813.473703 kJ/mol
# GULP energy per Si atom -12390.673685 kJ/mol
# Density = 2.225094 g / cm^3
# Si number density = 22.301703 Si / 1000 Ang^3
#
#
#
# Elastic Constant Matrix: (Units=GPa)
#
#
# Indices 1 2 3 4 5 6 
#
# 1 140.2860 62.7318 70.4964 0.0000 0.0000 0.0000
# 2 62.7318 170.7535 85.0538 0.0000 0.0000 0.0000
# 3 70.4964 85.0538 108.2422 0.0000 0.0000 0.0000
# 4 0.0000 0.0000 0.0000 15.7292 0.0000 0.0000
# 5 0.0000 0.0000 0.0000 0.0000 18.1087 0.0000
# 6 0.0000 0.0000 0.0000 0.0000 0.0000 30.6277
#
#
#
# Elastic Compliance Matrix: (Units=1/GPa)
#
#
# Indices 1 2 3 4 5 6 
#
# 1 0.010655 -0.000752 -0.006348 0.000000 0.000000 0.000000
# 2 -0.000752 0.009676 -0.007113 0.000000 0.000000 0.000000
# 3 -0.006348 -0.007113 0.018962 0.000000 0.000000 0.000000
# 4 0.000000 0.000000 0.000000 0.063576 0.000000 0.000000
# 5 0.000000 0.000000 0.000000 0.000000 0.055222 0.000000
# 6 0.000000 0.000000 0.000000 0.000000 0.000000 0.032650
#
#
# Mechanical properties :
#
#
# Convention : Reuss Voigt Hill
#
# Bulk Modulus (GPa) = 92.03152 95.09398 93.56275
# Shear Modulus (GPa) = 22.44264 26.29309 24.36786
#
# Velocity S-wave (km/s) = 3.17570 3.43734 3.30911
# Velocity P-wave (km/s) = 7.40290 7.64762 7.52625
#
# Compressibility (1/GPa) = 0.01086584
#
# Stress axis : x y z
#
# Youngs Moduli (GPa) = 93.85468 103.34994 52.73636
#
# Poissons Ratio (x) = 0.07775 0.33478
# Poissons Ratio (y) = 0.07061 0.37512
# Poissons Ratio (z) = 0.59580 0.73514
#
# Static dielectric constant tensor:
#      x y z
#    x 4.350960 0.000000 0.000000 
#    y 0.000000 3.914830 0.000000 
#    z 0.000000 0.000000 4.110830 
# 
# 
# High freq. dielectric constant tensor:
#      x y z
#    x 1.906260 0.000000 0.000000 
#    y 0.000000 1.858440 0.000000 
#    z 0.000000 0.000000 1.874030 
# 
# From -- ./inp_files/24544.got.cif
#   From: 2010.03.12/outbox.cif.g09.slc.cpg/sg24_13_cif.got.tgz:24544.got - 2010.04.14 03:06:53.
