data_PCOD8165894
_publ_section_title
;
Structure prediction by ZEFSAII (Michael W. Deem and Ramdas Pophale) SiO2 
 PCOD8165894
Probable space group: I 21 21 21
;
_chemical_formula_sum "Si O2"
_cell_formula_units_Z 44
_cell_length_a 26.084980
_cell_length_b 5.007639
_cell_length_c 14.886339
_cell_angle_alpha 90.000000
_cell_angle_beta 90.000000
_cell_angle_gamma 90.000000
_cell_volume 1944.515574
_symmetry_space_group_name_H-M "I 21 21 21"
_symmetry_group_IT_number 24
_symmetry_cell_setting 'orthorhombic'
loop_
_space_group_symop_operation_xyz
x,y,z
-x,1/2-y,z
x,-y,1/2-z
1/2-x,y,-z
1/2+x,1/2+y,1/2+z
1/2-x,-y,1/2+z
1/2+x,1/2-y,-z
-x,1/2+y,1/2-z
loop_
_atom_site_type_symbol
_atom_site_label
_atom_site_fract_x
_atom_site_fract_y
_atom_site_fract_z
Si Si1 0.678693 0.483695 0.148640
Si Si2 0.450742 0.593256 0.559470
Si Si3 0.577076 0.000000 0.750000
Si Si4 0.888193 0.581228 0.014360
Si Si5 0.328633 0.213643 0.681979
Si Si6 0.741918 0.018185 0.395852
O O1 0.658973 0.500000 0.250000
O O2 0.630204 0.565382 0.088122
O O3 0.725232 0.677314 0.122766
O O4 0.698711 0.182381 0.137602
O O5 0.500000 0.750000 0.517475
O O6 0.459712 0.567394 0.666588
O O7 0.435151 0.299318 0.520789
O O8 0.403491 0.783444 0.541075
O O9 0.615203 0.239035 0.723401
O O10 0.839102 0.627259 0.078559
O O11 0.294259 0.484833 0.665532
O O12 0.301599 0.000000 0.750000
O O13 0.750000 0.958472 0.500000
#
# Coordination Sequence:
#
# PCOD8165894 Si02
#       6
#     8   8   4   8   8   8
#     4  12  27  46  65  97 134 187 240 293 355 400
#     4  11  24  43  70 103 136 176 226 287 356 440
#     4  10  24  36  62  96 142 184 218 270 350 426
#     4  11  24  45  67  95 136 182 226 284 358 419
#     4  11  23  39  61  94 139 186 231 274 339 413
#     4  12  26  41  65  97 137 183 239 297 333 407
#
# _framework density 22.627744
#
# number of rings (size 3 to 8) (size 9 to 14) (size 15 to 20)
#    0.000    0.727    3.636    3.273    7.636    2.909 
#    0.000    0.000    0.000    2.182    0.000    0.000 
#    0.000    0.000    0.000    0.000    0.000    0.000 
#
# Total GULP energy -272615.444481 kJ/mol
# GULP energy per Si atom -12391.611113 kJ/mol
# Density = 2.257624 g / cm^3
# Si number density = 22.627744 Si / 1000 Ang^3
#
#
#
# Elastic Constant Matrix: (Units=GPa)
#
#
# Indices 1 2 3 4 5 6 
#
# 1 57.6294 9.9216 30.9205 0.0000 0.0000 0.0000
# 2 9.9216 92.2892 33.1195 0.0000 0.0000 0.0000
# 3 30.9205 33.1195 162.5227 0.0000 0.0000 0.0000
# 4 0.0000 0.0000 0.0000 27.6538 0.0000 0.0000
# 5 0.0000 0.0000 0.0000 0.0000 21.3537 0.0000
# 6 0.0000 0.0000 0.0000 0.0000 0.0000 38.9808
#
#
#
# Elastic Compliance Matrix: (Units=1/GPa)
#
#
# Indices 1 2 3 4 5 6 
#
# 1 0.019382 -0.000820 -0.003520 0.000000 0.000000 0.000000
# 2 -0.000820 0.011725 -0.002233 0.000000 0.000000 0.000000
# 3 -0.003520 -0.002233 0.007278 0.000000 0.000000 0.000000
# 4 0.000000 0.000000 0.000000 0.036161 0.000000 0.000000
# 5 0.000000 0.000000 0.000000 0.000000 0.046830 0.000000
# 6 0.000000 0.000000 0.000000 0.000000 0.000000 0.025654
#
#
# Mechanical properties :
#
#
# Convention : Reuss Voigt Hill
#
# Bulk Modulus (GPa) = 39.62402 51.15161 45.38782
# Shear Modulus (GPa) = 29.65753 33.49630 31.57691
#
# Velocity S-wave (km/s) = 3.62425 3.85167 3.73969
# Velocity P-wave (km/s) = 5.92139 6.51423 6.22487
#
# Compressibility (1/GPa) = 0.02523722
#
# Stress axis : x y z
#
# Youngs Moduli (GPa) = 51.59342 85.28665 137.40288
#
# Poissons Ratio (x) = 0.06997 0.48371
# Poissons Ratio (y) = 0.04233 0.30686
# Poissons Ratio (z) = 0.18163 0.19047
#
# Static dielectric constant tensor:
#      x y z
#    x 3.723930 0.000000 0.000000 
#    y 0.000000 4.124390 0.000000 
#    z 0.000000 0.000000 4.207570 
# 
# 
# High freq. dielectric constant tensor:
#      x y z
#    x 1.866880 0.000000 0.000000 
#    y 0.000000 1.908630 0.000000 
#    z 0.000000 0.000000 1.886530 
# 
# From -- ./inp_files/27987.got.cif
#   From: 2010.03.12/outbox.cif.g09.slc.cpg/sg24_14_cif.got.tgz:27987.got - 2010.04.14 03:06:53.
