data_PCOD8165985
_publ_section_title
;
Structure prediction by ZEFSAII (Michael W. Deem and Ramdas Pophale) SiO2 
 PCOD8165985
Probable space group: I 21 21 21
;
_chemical_formula_sum "Si O2"
_cell_formula_units_Z 32
_cell_length_a 4.920406
_cell_length_b 20.111115
_cell_length_c 13.654771
_cell_angle_alpha 90.000000
_cell_angle_beta 90.000000
_cell_angle_gamma 90.000000
_cell_volume 1351.205829
_symmetry_space_group_name_H-M "I 21 21 21"
_symmetry_group_IT_number 24
_symmetry_cell_setting 'orthorhombic'
loop_
_space_group_symop_operation_xyz
x,y,z
-x,1/2-y,z
x,-y,1/2-z
1/2-x,y,-z
1/2+x,1/2+y,1/2+z
1/2-x,-y,1/2+z
1/2+x,1/2-y,-z
-x,1/2+y,1/2-z
loop_
_atom_site_type_symbol
_atom_site_label
_atom_site_fract_x
_atom_site_fract_y
_atom_site_fract_z
Si Si1 0.748998 0.000000 0.250000
Si Si2 0.750000 0.794392 0.500000
Si Si3 0.115268 0.639327 0.696348
Si Si4 0.882246 0.679928 0.188116
Si Si5 0.486779 0.059355 0.564495
O O1 0.552159 0.061383 0.218573
O O2 0.943532 0.014612 0.342145
O O3 0.500000 0.750000 0.542492
O O4 0.887935 0.840869 0.582515
O O5 0.421747 0.649659 0.730331
O O6 0.910192 0.685537 0.758643
O O7 0.000000 0.750000 0.151198
O O8 0.867892 0.631215 0.095535
O O9 0.750000 0.071586 0.500000
O O10 0.250000 0.024128 0.500000
#
# Coordination Sequence:
#
# PCOD8165985 Si02
#       5
#     4   4   8   8   8
#     4  10  26  48  68 104 148 192 250 292 374 432
#     4  12  24  42  66 106 140 180 250 304 370 442
#     4  11  24  42  68  99 137 192 229 302 358 427
#     4  11  23  43  68  98 137 182 230 290 362 423
#     4  11  25  44  69 102 140 188 239 300 353 432
#
# _framework density 23.682551
#
# number of rings (size 3 to 8) (size 9 to 14) (size 15 to 20)
#    0.000    1.000    0.000    7.500    1.750   10.000 
#    2.250    0.000    0.000    0.000    0.000    0.000 
#    0.000    0.000    0.000    0.000    0.000    0.000 
#
# Total GULP energy -198406.965625 kJ/mol
# GULP energy per Si atom -12400.435352 kJ/mol
# Density = 2.362865 g / cm^3
# Si number density = 23.682551 Si / 1000 Ang^3
#
#
#
# Elastic Constant Matrix: (Units=GPa)
#
#
# Indices 1 2 3 4 5 6 
#
# 1 119.5233 23.2066 53.8827 0.0000 0.0000 0.0000
# 2 23.2066 111.2610 29.9471 0.0000 0.0000 0.0000
# 3 53.8827 29.9471 144.2568 -0.0001 0.0000 0.0000
# 4 0.0000 0.0000 -0.0001 19.8336 0.0000 0.0000
# 5 0.0000 0.0000 0.0000 0.0000 36.6644 0.0000
# 6 0.0000 0.0000 0.0000 0.0000 0.0000 27.6768
#
#
#
# Elastic Compliance Matrix: (Units=1/GPa)
#
#
# Indices 1 2 3 4 5 6 
#
# 1 0.010202 -0.001167 -0.003568 0.000000 0.000000 0.000000
# 2 -0.001167 0.009653 -0.001568 0.000000 0.000000 0.000000
# 3 -0.003568 -0.001568 0.008590 0.000000 0.000000 0.000000
# 4 0.000000 0.000000 0.000000 0.050420 0.000000 0.000000
# 5 0.000000 0.000000 0.000000 0.000000 0.027274 0.000000
# 6 0.000000 0.000000 0.000000 0.000000 0.000000 0.036131
#
#
# Mechanical properties :
#
#
# Convention : Reuss Voigt Hill
#
# Bulk Modulus (GPa) = 63.13773 65.45712 64.29742
# Shear Modulus (GPa) = 31.21925 34.70194 32.96060
#
# Velocity S-wave (km/s) = 3.63469 3.83207 3.73469
# Velocity P-wave (km/s) = 6.65827 6.87598 6.76800
#
# Compressibility (1/GPa) = 0.01583839
#
# Stress axis : x y z
#
# Youngs Moduli (GPa) = 98.02146 103.59031 116.40923
#
# Poissons Ratio (x) = 0.12094 0.41538
# Poissons Ratio (y) = 0.11444 0.18252
# Poissons Ratio (z) = 0.34976 0.16242
#
# Static dielectric constant tensor:
#      x y z
#    x 4.238840 0.000000 0.000000 
#    y 0.000000 4.607110 0.000000 
#    z 0.000000 0.000000 4.625750 
# 
# 
# High freq. dielectric constant tensor:
#      x y z
#    x 1.943730 0.000000 0.000000 
#    y 0.000000 1.935170 0.000000 
#    z 0.000000 0.000000 1.938600 
# 
# From -- ./inp_files/17389.got.cif
#   From: 2010.03.12/outbox.cif.g09.slc.cpg/sg24_9_cif.got.tgz:17389.got - 2010.04.14 03:06:53.
