data_PCOD8165181
_publ_section_title
;
Structure prediction by ZEFSAII (Michael W. Deem and Ramdas Pophale) SiO2 
 PCOD8165181
Probable space group: I 21 21 21
;
_chemical_formula_sum "Si O2"
_cell_formula_units_Z 56
_cell_length_a 16.329448
_cell_length_b 8.528716
_cell_length_c 19.865133
_cell_angle_alpha 90.000000
_cell_angle_beta 90.000000
_cell_angle_gamma 90.000000
_cell_volume 2766.601666
_symmetry_space_group_name_H-M "I 21 21 21"
_symmetry_group_IT_number 24
_symmetry_cell_setting 'orthorhombic'
loop_
_space_group_symop_operation_xyz
x,y,z
-x,1/2-y,z
x,-y,1/2-z
1/2-x,y,-z
1/2+x,1/2+y,1/2+z
1/2-x,-y,1/2+z
1/2+x,1/2-y,-z
-x,1/2+y,1/2-z
loop_
_atom_site_type_symbol
_atom_site_label
_atom_site_fract_x
_atom_site_fract_y
_atom_site_fract_z
Si Si1 0.918711 0.062734 0.822565
Si Si2 0.908109 0.500000 0.250000
Si Si3 0.000000 0.250000 0.159218
Si Si4 0.462660 0.529349 0.917620
Si Si5 0.210448 0.090394 0.564620
Si Si6 0.610879 0.416826 0.179075
Si Si7 0.919967 0.155301 0.559015
Si Si8 0.625876 0.678031 0.873426
O O1 0.875280 0.231084 0.822359
O O2 0.015666 0.057955 0.835961
O O3 0.895967 0.000000 0.750000
O O4 0.882990 0.950053 0.880565
O O5 0.959910 0.380215 0.205569
O O6 0.855645 0.609082 0.200909
O O7 0.057300 0.353240 0.108636
O O8 0.560111 0.567990 0.912775
O O9 0.411748 0.647763 0.870110
O O10 0.438251 0.544358 0.995520
O O11 0.250000 0.997434 0.500000
O O12 0.147109 0.218539 0.536529
O O13 0.285289 0.186525 0.595223
O O14 0.167150 0.979711 0.618839
O O15 0.634836 0.500000 0.250000
O O16 0.000000 0.250000 0.583915
#
# Coordination Sequence:
#
# PCOD8165181 Si02
#       8
#     8   4   4   8   8   8   8   8
#     4  10  22  40  66 100 123 167 221 270 320 388
#     4  10  20  38  60  96 128 164 212 262 320 382
#     4  10  20  36  70  94 126 164 218 274 312 384
#     4  10  20  40  62  93 124 169 218 259 314 390
#     4  12  23  40  65  92 128 174 211 269 324 386
#     4  10  22  40  67  95 130 166 214 268 325 392
#     4  12  21  40  65  88 127 169 214 266 323 380
#     4  10  21  38  63  91 126 163 214 255 318 383
#
# _framework density 20.241440000000001
#
# number of rings (size 3 to 8) (size 9 to 14) (size 15 to 20)
#    0.000    1.429    4.286    2.571    3.000    1.143 
#    2.571    3.571    3.143    0.000    0.000    0.000 
#    0.000    0.000    0.000    0.000    0.000    0.000 
#
# Total GULP energy -346930.459489 kJ/mol
# GULP energy per Si atom -12390.373553 kJ/mol
# Density = 2.019537 g / cm^3
# Si number density = 20.241440 Si / 1000 Ang^3
#
#
#
# Elastic Constant Matrix: (Units=GPa)
#
#
# Indices 1 2 3 4 5 6 
#
# 1 80.7824 31.3430 33.2221 0.0000 0.0000 0.0000
# 2 31.3430 143.9343 73.2620 0.0000 0.0000 0.0000
# 3 33.2221 73.2620 154.5240 0.0000 0.0000 0.0000
# 4 0.0000 0.0000 0.0000 46.8683 0.0000 0.0000
# 5 0.0000 0.0000 0.0000 0.0000 -35.9062 0.0000
# 6 0.0000 0.0000 0.0000 0.0000 0.0000 14.7232
#
#
#
# Elastic Compliance Matrix: (Units=1/GPa)
#
#
# Indices 1 2 3 4 5 6 
#
# 1 0.014003 -0.001999 -0.002063 0.000000 0.000000 0.000000
# 2 -0.001999 0.009443 -0.004047 0.000000 0.000000 0.000000
# 3 -0.002063 -0.004047 0.008834 0.000000 0.000000 0.000000
# 4 0.000000 0.000000 0.000000 0.021336 0.000000 0.000000
# 5 0.000000 0.000000 0.000000 0.000000 -0.027850 0.000000
# 6 0.000000 0.000000 0.000000 0.000000 0.000000 0.067920
#
#
# Mechanical properties :
#
#
# Convention : Reuss Voigt Hill
#
# Bulk Modulus (GPa) = 62.26156 72.76611 67.51383
# Shear Modulus (GPa) = 43.38097 21.23131 32.30614
#
# Velocity S-wave (km/s) = 4.63447 3.24219 3.99938
# Velocity P-wave (km/s) = 7.71129 7.07410 7.39955
#
# Compressibility (1/GPa) = 0.01606127
#
# Stress axis : x y z
#
# Youngs Moduli (GPa) = 71.41347 105.89843 113.20177
#
# Poissons Ratio (x) = 0.21173 0.23349
# Poissons Ratio (y) = 0.14278 0.45815
# Poissons Ratio (z) = 0.14730 0.42859
#
# Static dielectric constant tensor:
#      x y z
#    x 3.452410 0.000000 0.000000 
#    y 0.000000 4.071920 0.000000 
#    z 0.000000 0.000000 4.053900 
# 
# 
# High freq. dielectric constant tensor:
#      x y z
#    x 1.760960 0.000000 0.000000 
#    y 0.000000 1.784840 0.000000 
#    z 0.000000 0.000000 1.811810 
# 
# From -- ./inp_files/33799.got.cif
#   From: 2010.03.12/outbox.cif.g09.slc.cpg/sg24_17_cif.got.tgz:33799.got - 2010.04.14 03:06:53.
