data_PCOD8165564
_publ_section_title
;
Structure prediction by ZEFSAII (Michael W. Deem and Ramdas Pophale) SiO2 
 PCOD8165564
Probable space group: I 21 21 21
;
_chemical_formula_sum "Si O2"
_cell_formula_units_Z 52
_cell_length_a 14.200825
_cell_length_b 21.066942
_cell_length_c 7.911012
_cell_angle_alpha 90.000000
_cell_angle_beta 90.000000
_cell_angle_gamma 90.000000
_cell_volume 2366.721295
_symmetry_space_group_name_H-M "I 21 21 21"
_symmetry_group_IT_number 24
_symmetry_cell_setting 'orthorhombic'
loop_
_space_group_symop_operation_xyz
x,y,z
-x,1/2-y,z
x,-y,1/2-z
1/2-x,y,-z
1/2+x,1/2+y,1/2+z
1/2-x,-y,1/2+z
1/2+x,1/2-y,-z
-x,1/2+y,1/2-z
loop_
_atom_site_type_symbol
_atom_site_label
_atom_site_fract_x
_atom_site_fract_y
_atom_site_fract_z
Si Si1 0.081265 0.372974 0.096217
Si Si2 0.528589 0.592731 0.024509
Si Si3 0.726336 0.773875 0.689607
Si Si4 0.380633 0.000000 0.250000
Si Si5 0.250000 0.067181 0.000000
Si Si6 0.927332 0.808607 0.764051
Si Si7 0.125138 0.850370 0.253283
Si Si8 0.558271 0.000000 0.750000
O O1 0.165997 0.337957 0.191869
O O2 0.109764 0.447166 0.132049
O O3 0.979887 0.353934 0.170521
O O4 0.078286 0.354043 0.900045
O O5 0.555363 0.559639 0.199830
O O6 0.453974 0.647875 0.074280
O O7 0.620416 0.624735 0.939505
O O8 0.497755 0.540956 0.887007
O O9 0.750000 0.751976 0.500000
O O10 0.822669 0.781222 0.796780
O O11 0.659727 0.720858 0.768425
O O12 0.322445 0.979754 0.412377
O O13 0.301501 0.109705 0.862190
O O14 0.000000 0.750000 0.737616
#
# Coordination Sequence:
#
# PCOD8165564 Si02
#       8
#     8   8   8   4   4   8   8   4
#     4  10  21  41  71  96 136 177 223 274 333 405
#     4  11  24  42  66  92 136 178 220 276 338 400
#     4  10  21  41  69 102 128 174 225 276 335 406
#     4  12  24  41  61  96 134 170 218 269 327 412
#     4  12  24  38  66  96 134 178 218 270 332 420
#     4  11  24  42  68 101 135 176 226 284 344 399
#     4  11  22  40  67  97 134 176 218 274 342 394
#     4  10  22  43  65  94 128 184 222 269 335 398
#
# _framework density 21.971323999999999
#
# number of rings (size 3 to 8) (size 9 to 14) (size 15 to 20)
#    0.000    1.231    0.769    6.923    2.154    3.077 
#    0.000   11.538    0.000    0.000    0.000    0.000 
#    0.000    0.000    0.000    0.000    0.000    0.000 
#
# Total GULP energy -322199.805472 kJ/mol
# GULP energy per Si atom -12392.300210 kJ/mol
# Density = 2.192132 g / cm^3
# Si number density = 21.971324 Si / 1000 Ang^3
#
#
#
# Elastic Constant Matrix: (Units=GPa)
#
#
# Indices 1 2 3 4 5 6 
#
# 1 105.2241 46.4415 14.7235 0.0000 0.0000 0.0000
# 2 46.4415 162.6202 46.7421 0.0000 0.0000 0.0000
# 3 14.7235 46.7421 75.2074 0.0000 -0.0001 0.0001
# 4 0.0000 0.0000 0.0000 38.2493 0.0000 0.0000
# 5 0.0000 0.0000 -0.0001 0.0000 32.7868 0.0000
# 6 0.0000 0.0000 0.0001 0.0000 0.0000 37.1345
#
#
#
# Elastic Compliance Matrix: (Units=1/GPa)
#
#
# Indices 1 2 3 4 5 6 
#
# 1 0.010878 -0.003037 -0.000242 0.000000 0.000000 0.000000
# 2 -0.003037 0.008335 -0.004585 0.000000 0.000000 0.000000
# 3 -0.000242 -0.004585 0.016194 0.000000 0.000000 0.000000
# 4 0.000000 0.000000 0.000000 0.026144 0.000000 0.000000
# 5 0.000000 0.000000 0.000000 0.000000 0.030500 0.000000
# 6 0.000000 0.000000 0.000000 0.000000 0.000000 0.026929
#
#
# Mechanical properties :
#
#
# Convention : Reuss Voigt Hill
#
# Bulk Modulus (GPa) = 50.82007 62.09621 56.45814
# Shear Modulus (GPa) = 35.39376 37.31042 36.35209
#
# Velocity S-wave (km/s) = 4.01796 4.12532 4.07200
# Velocity P-wave (km/s) = 6.68624 7.14246 6.91811
#
# Compressibility (1/GPa) = 0.01967727
#
# Stress axis : x y z
#
# Youngs Moduli (GPa) = 91.93065 119.98170 61.75169
#
# Poissons Ratio (x) = 0.36437 0.01495
# Poissons Ratio (y) = 0.27919 0.28316
# Poissons Ratio (z) = 0.02225 0.55018
#
# Static dielectric constant tensor:
#      x y z
#    x 3.953240 0.000000 0.000000 
#    y 0.000000 5.027800 0.000000 
#    z 0.000000 0.000000 4.087910 
# 
# 
# High freq. dielectric constant tensor:
#      x y z
#    x 1.850220 0.000000 0.000000 
#    y 0.000000 1.882770 0.000000 
#    z 0.000000 0.000000 1.867420 
# 
# From -- ./inp_files/13099.got.cif
#   From: 2010.03.12/outbox.cif.g09.slc.cpg/sg24_7_cif.got.tgz:13099.got - 2010.04.14 03:06:53.
