data_PCOD8165504
_publ_section_title
;
Structure prediction by ZEFSAII (Michael W. Deem and Ramdas Pophale) SiO2 
 PCOD8165504
Probable space group: I 21 21 21
;
_chemical_formula_sum "Si O2"
_cell_formula_units_Z 44
_cell_length_a 16.042133
_cell_length_b 9.245715
_cell_length_c 13.998836
_cell_angle_alpha 90.000000
_cell_angle_beta 90.000000
_cell_angle_gamma 90.000000
_cell_volume 2076.321210
_symmetry_space_group_name_H-M "I 21 21 21"
_symmetry_group_IT_number 24
_symmetry_cell_setting 'orthorhombic'
loop_
_space_group_symop_operation_xyz
x,y,z
-x,1/2-y,z
x,-y,1/2-z
1/2-x,y,-z
1/2+x,1/2+y,1/2+z
1/2-x,-y,1/2+z
1/2+x,1/2-y,-z
-x,1/2+y,1/2-z
loop_
_atom_site_type_symbol
_atom_site_label
_atom_site_fract_x
_atom_site_fract_y
_atom_site_fract_z
Si Si1 0.750000 0.559785 0.000000
Si Si2 0.101818 0.584437 0.603245
Si Si3 0.643648 0.758772 0.120975
Si Si4 0.500000 0.250000 0.950335
Si Si5 0.739015 0.846856 0.717840
Si Si6 0.136282 0.093828 0.154593
Si Si7 0.000000 0.250000 0.748378
O O1 0.827622 0.658159 0.965747
O O2 0.708636 0.466355 0.915483
O O3 0.107102 0.412738 0.584231
O O4 0.072305 0.670939 0.510637
O O5 0.192758 0.639754 0.633838
O O6 0.037612 0.618783 0.689230
O O7 0.723182 0.773575 0.188388
O O8 0.571047 0.679588 0.180989
O O9 0.454452 0.120205 0.892496
O O10 0.662057 0.755214 0.682402
O O11 0.702402 0.000000 0.750000
O O12 0.126617 0.000000 0.250000
#
# Coordination Sequence:
#
# PCOD8165504 Si02
#       7
#     4   8   8   4   8   8   4
#     4  12  26  44  72 100 138 180 230 288 344 420
#     4   9  20  41  67 104 130 175 231 285 351 403
#     4  10  21  39  65 104 136 176 222 285 347 407
#     4  11  26  44  65  94 142 184 231 276 335 420
#     4   9  19  42  73  97 130 171 228 283 343 408
#     4  12  26  48  67 101 136 185 229 281 347 405
#     4   9  18  36  65 104 138 168 217 290 355 392
#
# _framework density 21.191326
#
# number of rings (size 3 to 8) (size 9 to 14) (size 15 to 20)
#    0.000    1.818    1.818    2.727    2.545    3.636 
#    9.818    0.000    0.000    0.000    0.000    0.000 
#    0.000    0.000    0.000    0.000    0.000    0.000 
#
# Total GULP energy -272724.856709 kJ/mol
# GULP energy per Si atom -12396.584396 kJ/mol
# Density = 2.114309 g / cm^3
# Si number density = 21.191326 Si / 1000 Ang^3
#
#
#
# Elastic Constant Matrix: (Units=GPa)
#
#
# Indices 1 2 3 4 5 6 
#
# 1 69.6783 52.6795 41.9858 0.0000 0.0000 0.0000
# 2 52.6795 109.4597 53.1051 0.0000 0.0000 0.0000
# 3 41.9858 53.1051 113.5968 0.0000 0.0000 0.0000
# 4 0.0000 0.0000 0.0000 26.2890 0.0000 0.0000
# 5 0.0000 0.0000 0.0000 0.0000 24.1108 0.0000
# 6 0.0000 0.0000 0.0000 0.0000 0.0000 40.7969
#
#
#
# Elastic Compliance Matrix: (Units=1/GPa)
#
#
# Indices 1 2 3 4 5 6 
#
# 1 0.024241 -0.009467 -0.004534 0.000000 0.000000 0.000000
# 2 -0.009467 0.015513 -0.003753 0.000000 0.000000 0.000000
# 3 -0.004534 -0.003753 0.012233 0.000000 0.000000 0.000000
# 4 0.000000 0.000000 0.000000 0.038039 0.000000 0.000000
# 5 0.000000 0.000000 0.000000 0.000000 0.041475 0.000000
# 6 0.000000 0.000000 0.000000 0.000000 0.000000 0.024512
#
#
# Mechanical properties :
#
#
# Convention : Reuss Voigt Hill
#
# Bulk Modulus (GPa) = 60.68161 65.36396 63.02278
# Shear Modulus (GPa) = 25.37904 27.90362 26.64133
#
# Velocity S-wave (km/s) = 3.46441 3.63264 3.54952
# Velocity P-wave (km/s) = 6.68582 6.96465 6.82666
#
# Compressibility (1/GPa) = 0.01647946
#
# Stress axis : x y z
#
# Youngs Moduli (GPa) = 41.25261 64.46367 81.74386
#
# Poissons Ratio (x) = 0.61026 0.37062
# Poissons Ratio (y) = 0.39053 0.30679
# Poissons Ratio (z) = 0.18704 0.24193
#
# Static dielectric constant tensor:
#      x y z
#    x 3.671250 0.000000 0.000000 
#    y 0.000000 3.762210 0.000000 
#    z 0.000000 0.000000 3.877070 
# 
# 
# High freq. dielectric constant tensor:
#      x y z
#    x 1.822570 0.000000 0.000000 
#    y 0.000000 1.830120 0.000000 
#    z 0.000000 0.000000 1.826820 
# 
# From -- ./inp_files/27001.got.cif
#   From: 2010.03.12/outbox.cif.g09.slc.cpg/sg24_14_cif.got.tgz:27001.got - 2010.04.14 03:06:53.
