data_PCOD8165003
_publ_section_title
;
Structure prediction by ZEFSAII (Michael W. Deem and Ramdas Pophale) SiO2 
 PCOD8165003
Probable space group: I 21 21 21
;
_chemical_formula_sum "Si O2"
_cell_formula_units_Z 40
_cell_length_a 14.744731
_cell_length_b 9.124564
_cell_length_c 13.470668
_cell_angle_alpha 90.000000
_cell_angle_beta 90.000000
_cell_angle_gamma 90.000000
_cell_volume 1812.333458
_symmetry_space_group_name_H-M "I 21 21 21"
_symmetry_group_IT_number 24
_symmetry_cell_setting 'orthorhombic'
loop_
_space_group_symop_operation_xyz
x,y,z
-x,1/2-y,z
x,-y,1/2-z
1/2-x,y,-z
1/2+x,1/2+y,1/2+z
1/2-x,-y,1/2+z
1/2+x,1/2-y,-z
-x,1/2+y,1/2-z
loop_
_atom_site_type_symbol
_atom_site_label
_atom_site_fract_x
_atom_site_fract_y
_atom_site_fract_z
Si Si1 0.910057 0.819162 0.876295
Si Si2 0.152477 0.896089 0.038550
Si Si3 0.222111 0.287562 0.295231
Si Si4 0.014425 0.410313 0.976315
Si Si5 0.815066 0.910877 0.405002
O O1 0.831344 0.781663 0.799304
O O2 0.000000 0.750000 0.829981
O O3 0.932903 0.990451 0.894729
O O4 0.882477 0.749477 0.982338
O O5 0.168826 0.848935 0.153716
O O6 0.250000 0.951615 0.000000
O O7 0.079416 0.023385 0.019431
O O8 0.197486 0.432281 0.355813
O O9 0.201290 0.286778 0.178551
O O10 0.000000 0.250000 0.927767
O O11 0.080112 0.390886 0.069569
O O12 0.750000 0.889391 0.500000
#
# Coordination Sequence:
#
# PCOD8165003 Si02
#       5
#     8   8   8   8   8
#     4   9  17  36  66  93 117 163 222 260 304 380
#     4   9  18  38  64  92 122 163 218 260 306 382
#     4  10  19  37  66  89 120 170 217 265 310 390
#     4  11  22  37  59  95 133 166 196 264 333 381
#     4  11  21  38  61  91 127 163 210 262 327 378
#
# _framework density 22.070992
#
# number of rings (size 3 to 8) (size 9 to 14) (size 15 to 20)
#    0.000    2.000    4.000    0.600    0.000    0.800 
#    7.200    1.000    0.000    0.000    0.000    0.000 
#    0.000    0.000    0.000    1.200    0.000    0.000 
#
# Total GULP energy -247854.198204 kJ/mol
# GULP energy per Si atom -12392.709910 kJ/mol
# Density = 2.202076 g / cm^3
# Si number density = 22.070992 Si / 1000 Ang^3
#
#
#
# Elastic Constant Matrix: (Units=GPa)
#
#
# Indices 1 2 3 4 5 6 
#
# 1 130.7414 27.3264 13.2212 0.0000 0.0000 0.0000
# 2 27.3264 94.6414 12.5051 0.0000 0.0000 0.0000
# 3 13.2212 12.5051 86.6675 0.0000 0.0000 0.0000
# 4 0.0000 0.0000 0.0000 12.2475 0.0000 0.0000
# 5 0.0000 0.0000 0.0000 0.0000 -5.3695 0.0000
# 6 0.0000 0.0000 0.0000 0.0000 0.0000 24.3548
#
#
#
# Elastic Compliance Matrix: (Units=1/GPa)
#
#
# Indices 1 2 3 4 5 6 
#
# 1 0.008213 -0.002249 -0.000928 0.000000 0.000000 0.000000
# 2 -0.002249 0.011387 -0.001300 0.000000 0.000000 0.000000
# 3 -0.000928 -0.001300 0.011868 0.000000 0.000000 0.000000
# 4 0.000000 0.000000 0.000000 0.081649 0.000000 0.000000
# 5 0.000000 0.000000 0.000000 0.000000 -0.186236 0.000000
# 6 0.000000 0.000000 0.000000 0.000000 0.000000 0.041060
#
#
# Mechanical properties :
#
#
# Convention : Reuss Voigt Hill
#
# Bulk Modulus (GPa) = 44.41814 46.46176 45.43995
# Shear Modulus (GPa) = -320.49732 23.51305 -148.49213
#
# Velocity S-wave (km/s) = -12.06347 3.26749 -8.21130
# Velocity P-wave (km/s) = 13.18588 5.94408 8.32272
#
# Compressibility (1/GPa) = 0.02251333
#
# Stress axis : x y z
#
# Youngs Moduli (GPa) = 121.76488 87.81771 84.26340
#
# Poissons Ratio (x) = 0.19747 0.07823
# Poissons Ratio (y) = 0.27380 0.10954
# Poissons Ratio (z) = 0.11304 0.11417
#
# Static dielectric constant tensor:
#      x y z
#    x 4.442290 0.000000 0.000000 
#    y 0.000000 4.333360 0.000000 
#    z 0.000000 0.000000 3.801390 
# 
# 
# High freq. dielectric constant tensor:
#      x y z
#    x 1.888230 0.000000 0.000000 
#    y 0.000000 1.851960 0.000000 
#    z 0.000000 0.000000 1.840800 
# 
# From -- ./inp_files/24529.got.cif
#   From: 2010.03.12/outbox.cif.g09.slc.cpg/sg24_13_cif.got.tgz:24529.got - 2010.04.14 03:06:53.
