data_PCOD8165983
_publ_section_title
;
Structure prediction by ZEFSAII (Michael W. Deem and Ramdas Pophale) SiO2 
 PCOD8165983
Probable space group: I 21 21 21
;
_chemical_formula_sum "Si O2"
_cell_formula_units_Z 36
_cell_length_a 10.530001
_cell_length_b 6.225661
_cell_length_c 24.142862
_cell_angle_alpha 90.000000
_cell_angle_beta 90.000000
_cell_angle_gamma 90.000000
_cell_volume 1582.714690
_symmetry_space_group_name_H-M "I 21 21 21"
_symmetry_group_IT_number 24
_symmetry_cell_setting 'orthorhombic'
loop_
_space_group_symop_operation_xyz
x,y,z
-x,1/2-y,z
x,-y,1/2-z
1/2-x,y,-z
1/2+x,1/2+y,1/2+z
1/2-x,-y,1/2+z
1/2+x,1/2-y,-z
-x,1/2+y,1/2-z
loop_
_atom_site_type_symbol
_atom_site_label
_atom_site_fract_x
_atom_site_fract_y
_atom_site_fract_z
Si Si1 0.799884 0.013555 0.596092
Si Si2 0.625856 0.614505 0.925546
Si Si3 0.000000 0.250000 0.665972
Si Si4 0.677564 0.500000 0.250000
Si Si5 0.140230 0.210263 0.170515
Si Si6 0.250000 0.789128 0.500000
O O1 0.691991 0.912513 0.635798
O O2 0.826008 0.851157 0.545533
O O3 0.747514 0.232823 0.570363
O O4 0.928977 0.070943 0.628661
O O5 0.500000 0.750000 0.936956
O O6 0.628637 0.505451 0.865556
O O7 0.639523 0.431611 0.972142
O O8 0.904553 0.383039 0.703720
O O9 0.764961 0.320807 0.221583
O O10 0.000000 0.250000 0.194506
#
# Coordination Sequence:
#
# PCOD8165983 Si02
#       6
#     8   8   4   4   8   4
#     4  11  24  49  71 105 148 193 241 304 360 438
#     4  11  22  48  72 102 145 191 246 305 363 434
#     4  12  26  48  74 104 156 192 246 296 366 454
#     4  12  26  46  74 112 140 202 240 298 372 436
#     4  11  24  44  75 106 143 186 251 305 361 432
#     4  10  26  46  70 116 136 192 252 294 380 424
#
# _framework density 22.745729000000001
#
# number of rings (size 3 to 8) (size 9 to 14) (size 15 to 20)
#    0.000    0.889    4.444    2.000    0.000    2.667 
#   12.000    0.000    0.000    0.000    0.000    0.000 
#    0.000    0.000    0.000    0.000    0.000    0.000 
#
# Total GULP energy -223276.719870 kJ/mol
# GULP energy per Si atom -12404.262215 kJ/mol
# Density = 2.269396 g / cm^3
# Si number density = 22.745729 Si / 1000 Ang^3
#
#
#
# Elastic Constant Matrix: (Units=GPa)
#
#
# Indices 1 2 3 4 5 6 
#
# 1 149.6109 64.8028 78.0750 0.0000 0.0000 0.0000
# 2 64.8028 126.2979 64.8213 0.0000 0.0000 0.0000
# 3 78.0750 64.8213 134.8113 0.0000 0.0000 0.0000
# 4 0.0000 0.0000 0.0000 26.7004 0.0000 0.0000
# 5 0.0000 0.0000 0.0000 0.0000 17.8690 0.0000
# 6 0.0000 0.0000 0.0000 0.0000 0.0000 44.5723
#
#
#
# Elastic Compliance Matrix: (Units=1/GPa)
#
#
# Indices 1 2 3 4 5 6 
#
# 1 0.010354 -0.002967 -0.004570 0.000000 0.000000 0.000000
# 2 -0.002967 0.011362 -0.003745 0.000000 0.000000 0.000000
# 3 -0.004570 -0.003745 0.011865 0.000000 0.000000 0.000000
# 4 0.000000 0.000000 0.000000 0.037453 0.000000 0.000000
# 5 0.000000 0.000000 0.000000 0.000000 0.055963 0.000000
# 6 0.000000 0.000000 0.000000 0.000000 0.000000 0.022435
#
#
# Mechanical properties :
#
#
# Convention : Reuss Voigt Hill
#
# Bulk Modulus (GPa) = 90.76398 91.79093 91.27746
# Shear Modulus (GPa) = 28.46275 31.36307 29.91291
#
# Velocity S-wave (km/s) = 3.54127 3.71732 3.63036
# Velocity P-wave (km/s) = 7.53068 7.67252 7.60193
#
# Compressibility (1/GPa) = 0.01101759
#
# Stress axis : x y z
#
# Youngs Moduli (GPa) = 96.58168 88.01058 84.28206
#
# Poissons Ratio (x) = 0.26115 0.38514
# Poissons Ratio (y) = 0.28658 0.31563
# Poissons Ratio (z) = 0.44135 0.32959
#
# Static dielectric constant tensor:
#      x y z
#    x 4.012470 0.000000 0.000000 
#    y 0.000000 4.349770 0.000000 
#    z 0.000000 0.000000 4.187970 
# 
# 
# High freq. dielectric constant tensor:
#      x y z
#    x 1.895340 0.000000 0.000000 
#    y 0.000000 1.911460 0.000000 
#    z 0.000000 0.000000 1.900900 
# 
# From -- ./inp_files/35422.got.cif
#   From: 2010.03.12/outbox.cif.g09.slc.cpg/sg24_18_cif.got.tgz:35422.got - 2010.04.14 03:06:53.
