data_PCOD8165916
_publ_section_title
;
Structure prediction by ZEFSAII (Michael W. Deem and Ramdas Pophale) SiO2 
 PCOD8165916
Probable space group: I 21 21 21
;
_chemical_formula_sum "Si O2"
_cell_formula_units_Z 56
_cell_length_a 31.914779
_cell_length_b 6.750018
_cell_length_c 13.000320
_cell_angle_alpha 90.000000
_cell_angle_beta 90.000000
_cell_angle_gamma 90.000000
_cell_volume 2800.598261
_symmetry_space_group_name_H-M "I 21 21 21"
_symmetry_group_IT_number 24
_symmetry_cell_setting 'orthorhombic'
loop_
_space_group_symop_operation_xyz
x,y,z
-x,1/2-y,z
x,-y,1/2-z
1/2-x,y,-z
1/2+x,1/2+y,1/2+z
1/2-x,-y,1/2+z
1/2+x,1/2-y,-z
-x,1/2+y,1/2-z
loop_
_atom_site_type_symbol
_atom_site_label
_atom_site_fract_x
_atom_site_fract_y
_atom_site_fract_z
Si Si1 0.236727 0.623019 0.155847
Si Si2 0.890296 0.274000 0.514458
Si Si3 0.315069 0.510486 0.036169
Si Si4 0.350756 0.165129 0.920280
Si Si5 0.034045 0.920257 0.864719
Si Si6 0.209477 0.000000 0.250000
Si Si7 0.500000 0.250000 0.986796
Si Si8 0.074344 0.546002 0.367769
O O1 0.217706 0.500000 0.250000
O O2 0.281525 0.526643 0.127605
O O3 0.240196 0.852916 0.187845
O O4 0.203648 0.615197 0.064430
O O5 0.856443 0.130245 0.567707
O O6 0.868554 0.464564 0.466226
O O7 0.920956 0.331442 0.606909
O O8 0.914932 0.159437 0.424513
O O9 0.325966 0.281875 0.011113
O O10 0.387731 0.300333 0.876218
O O11 0.319311 0.123809 0.827430
O O12 0.000000 0.750000 0.875334
O O13 0.035724 0.000000 0.750000
O O14 0.024828 0.097916 0.942052
O O15 0.532492 0.136148 0.915364
O O16 0.064837 0.500000 0.250000
#
# Coordination Sequence:
#
# PCOD8165916 Si02
#       8
#     8   8   8   8   8   4   4   8
#     4  11  23  43  63  93 130 172 220 268 326 402
#     4  11  23  44  67  99 132 171 226 276 331 402
#     4  10  24  43  63  92 133 169 214 274 330 388
#     4  11  22  40  67  93 131 175 220 271 332 391
#     4  12  25  46  72  96 127 176 230 275 328 389
#     4  12  22  38  70  94 124 178 226 260 332 404
#     4  12  24  44  66 100 136 178 214 276 334 386
#     4  11  25  40  66  99 141 175 219 270 335 406
#
# _framework density 19.995728
#
# number of rings (size 3 to 8) (size 9 to 14) (size 15 to 20)
#    0.000    0.857    6.429    0.857    2.000    2.286 
#    5.143    0.000    0.000    0.000    0.000    0.000 
#    0.000    0.000    0.000    0.000    0.000    0.000 
#
# Total GULP energy -347315.487287 kJ/mol
# GULP energy per Si atom -12404.124546 kJ/mol
# Density = 1.995022 g / cm^3
# Si number density = 19.995728 Si / 1000 Ang^3
#
#
#
# Elastic Constant Matrix: (Units=GPa)
#
#
# Indices 1 2 3 4 5 6 
#
# 1 105.8824 40.1605 22.2844 0.0000 0.0000 0.0000
# 2 40.1605 124.1650 19.9609 0.0000 0.0000 0.0000
# 3 22.2844 19.9609 44.5857 0.0000 0.0000 0.0000
# 4 0.0000 0.0000 0.0000 24.9512 0.0000 0.0000
# 5 0.0000 0.0000 0.0000 0.0000 -111.4833 0.0000
# 6 0.0000 0.0000 0.0000 0.0000 0.0000 40.8578
#
#
#
# Elastic Compliance Matrix: (Units=1/GPa)
#
#
# Indices 1 2 3 4 5 6 
#
# 1 0.011516 -0.003017 -0.004405 0.000000 0.000000 0.000000
# 2 -0.003017 0.009469 -0.002731 0.000000 0.000000 0.000000
# 3 -0.004405 -0.002731 0.025853 0.000000 0.000000 0.000000
# 4 0.000000 0.000000 0.000000 0.040078 0.000000 0.000000
# 5 0.000000 0.000000 0.000000 0.000000 -0.008970 0.000000
# 6 0.000000 0.000000 0.000000 0.000000 0.000000 0.024475
#
#
# Mechanical properties :
#
#
# Convention : Reuss Voigt Hill
#
# Bulk Modulus (GPa) = 37.69112 48.82719 43.25915
# Shear Modulus (GPa) = 38.00232 3.68029 20.84130
#
# Velocity S-wave (km/s) = 4.36423 1.35814 3.23195
# Velocity P-wave (km/s) = 6.65476 5.18953 5.96729
#
# Compressibility (1/GPa) = 0.02653145
#
# Stress axis : x y z
#
# Youngs Moduli (GPa) = 86.83786 105.61248 38.67977
#
# Poissons Ratio (x) = 0.31858 0.17039
# Poissons Ratio (y) = 0.26195 0.10565
# Poissons Ratio (z) = 0.38254 0.28847
#
# Static dielectric constant tensor:
#      x y z
#    x 3.743360 0.000000 0.000000 
#    y 0.000000 3.838970 0.000000 
#    z 0.000000 0.000000 3.565940 
# 
# 
# High freq. dielectric constant tensor:
#      x y z
#    x 1.786230 0.000000 0.000000 
#    y 0.000000 1.799520 0.000000 
#    z 0.000000 0.000000 1.773860 
# 
# From -- ./inp_files/28261.got.cif
#   From: 2010.03.12/outbox.cif.g09.slc.cpg/sg24_15_cif.got.tgz:28261.got - 2010.04.14 03:06:53.
