data_PCOD8165190
_publ_section_title
;
Structure prediction by ZEFSAII (Michael W. Deem and Ramdas Pophale) SiO2 
 PCOD8165190
Probable space group: I 21 21 21
;
_chemical_formula_sum "Si O2"
_cell_formula_units_Z 48
_cell_length_a 5.151210
_cell_length_b 15.768660
_cell_length_c 29.174954
_cell_angle_alpha 90.000000
_cell_angle_beta 90.000000
_cell_angle_gamma 90.000000
_cell_volume 2369.813801
_symmetry_space_group_name_H-M "I 21 21 21"
_symmetry_group_IT_number 24
_symmetry_cell_setting 'orthorhombic'
loop_
_space_group_symop_operation_xyz
x,y,z
-x,1/2-y,z
x,-y,1/2-z
1/2-x,y,-z
1/2+x,1/2+y,1/2+z
1/2-x,-y,1/2+z
1/2+x,1/2-y,-z
-x,1/2+y,1/2-z
loop_
_atom_site_type_symbol
_atom_site_label
_atom_site_fract_x
_atom_site_fract_y
_atom_site_fract_z
Si Si1 0.940296 0.340964 0.661645
Si Si2 0.020192 0.654488 0.412104
Si Si3 0.673679 0.001567 0.301154
Si Si4 0.480805 0.153701 0.147273
Si Si5 0.997802 0.497106 0.470554
Si Si6 0.569958 0.904108 0.876484
O O1 0.842074 0.146992 0.621388
O O2 0.656016 0.341060 0.639804
O O3 0.000000 0.250000 0.685511
O O4 0.970498 0.418936 0.697399
O O5 0.802642 0.636625 0.373587
O O6 0.981552 0.595364 0.456167
O O7 0.000000 0.750000 0.430468
O O8 0.305794 0.637859 0.391972
O O9 0.898671 0.018958 0.339084
O O10 0.792141 0.000000 0.250000
O O11 0.527801 0.912989 0.311814
O O12 0.500000 0.250000 0.166608
O O13 0.750000 0.471369 0.500000
O O14 0.250000 0.477775 0.500000
O O15 0.997451 0.440532 0.425344
#
# Coordination Sequence:
#
# PCOD8165190 Si02
#       6
#     8   8   8   8   8   8
#     4  10  21  40  68  90 122 164 204 259 315 372
#     4  10  20  37  57  82 120 164 203 255 305 360
#     4  10  23  38  65  93 127 164 209 261 310 372
#     4  10  20  37  60  84 125 168 204 248 309 364
#     4  12  23  36  62  89 119 161 207 252 313 380
#     4  10  22  41  63  87 129 155 208 255 316 371
#
# _framework density 20.254756
#
# number of rings (size 3 to 8) (size 9 to 14) (size 15 to 20)
#    1.000    0.667    1.667    3.500    0.000    2.000 
#    0.000    0.000    3.667   10.000    0.000    0.000 
#    0.000    0.000    0.000    0.000    0.000    0.000 
#
# Total GULP energy -297457.196028 kJ/mol
# GULP energy per Si atom -12394.049834 kJ/mol
# Density = 2.020865 g / cm^3
# Si number density = 20.254756 Si / 1000 Ang^3
#
#
#
# Elastic Constant Matrix: (Units=GPa)
#
#
# Indices 1 2 3 4 5 6 
#
# 1 109.4088 19.6153 19.4227 0.0000 0.0000 0.0000
# 2 19.6153 106.1114 29.5801 0.0000 0.0000 0.0000
# 3 19.4227 29.5801 97.1313 0.0000 0.0000 0.0000
# 4 0.0000 0.0000 0.0000 15.6120 0.0000 0.0000
# 5 0.0000 0.0000 0.0000 0.0000 18.7603 0.0000
# 6 0.0000 0.0000 0.0000 0.0000 0.0000 31.3218
#
#
#
# Elastic Compliance Matrix: (Units=1/GPa)
#
#
# Indices 1 2 3 4 5 6 
#
# 1 0.009653 -0.001362 -0.001516 0.000000 0.000000 0.000000
# 2 -0.001362 0.010490 -0.002922 0.000000 0.000000 0.000000
# 3 -0.001516 -0.002922 0.011488 0.000000 0.000000 0.000000
# 4 0.000000 0.000000 0.000000 0.064053 0.000000 0.000000
# 5 0.000000 0.000000 0.000000 0.000000 0.053304 0.000000
# 6 0.000000 0.000000 0.000000 0.000000 0.000000 0.031927
#
#
# Mechanical properties :
#
#
# Convention : Reuss Voigt Hill
#
# Bulk Modulus (GPa) = 49.91936 49.98752 49.95344
# Shear Modulus (GPa) = 25.10121 29.40769 27.25445
#
# Velocity S-wave (km/s) = 3.52415 3.81450 3.67220
# Velocity P-wave (km/s) = 6.42330 6.64331 6.53423
#
# Compressibility (1/GPa) = 0.02003231
#
# Stress axis : x y z
#
# Youngs Moduli (GPa) = 103.59194 95.32448 87.04455
#
# Poissons Ratio (x) = 0.12983 0.13192
# Poissons Ratio (y) = 0.14109 0.25438
# Poissons Ratio (z) = 0.15700 0.27858
#
# Static dielectric constant tensor:
#      x y z
#    x 3.684520 0.000000 0.000000 
#    y 0.000000 3.735810 0.000000 
#    z 0.000000 0.000000 3.213710 
# 
# 
# High freq. dielectric constant tensor:
#      x y z
#    x 1.800550 0.000000 0.000000 
#    y 0.000000 1.795160 0.000000 
#    z 0.000000 0.000000 1.753560 
# 
# From -- ./inp_files/36469.got.cif
#   From: 2010.03.12/outbox.cif.g09.slc.cpg/sg24_19_cif.got.tgz:36469.got - 2010.04.14 03:06:53.
