data_PCOD8165421
_publ_section_title
;
Structure prediction by ZEFSAII (Michael W. Deem and Ramdas Pophale) SiO2 
 PCOD8165421
Probable space group: I 21 21 21
;
_chemical_formula_sum "Si O2"
_cell_formula_units_Z 56
_cell_length_a 10.934168
_cell_length_b 12.213635
_cell_length_c 20.422755
_cell_angle_alpha 90.000000
_cell_angle_beta 90.000000
_cell_angle_gamma 90.000000
_cell_volume 2727.375952
_symmetry_space_group_name_H-M "I 21 21 21"
_symmetry_group_IT_number 24
_symmetry_cell_setting 'orthorhombic'
loop_
_space_group_symop_operation_xyz
x,y,z
-x,1/2-y,z
x,-y,1/2-z
1/2-x,y,-z
1/2+x,1/2+y,1/2+z
1/2-x,-y,1/2+z
1/2+x,1/2-y,-z
-x,1/2+y,1/2-z
loop_
_atom_site_type_symbol
_atom_site_label
_atom_site_fract_x
_atom_site_fract_y
_atom_site_fract_z
Si Si1 0.787487 0.268039 0.874329
Si Si2 0.000000 0.250000 0.369849
Si Si3 0.500000 0.750000 0.476264
Si Si4 0.566531 0.393286 0.915670
Si Si5 0.602055 0.968966 0.824474
Si Si6 0.290993 0.107449 0.571377
Si Si7 0.620479 0.505803 0.328443
Si Si8 0.148543 0.538783 0.676731
O O1 0.644355 0.283824 0.894490
O O2 0.816127 0.378737 0.837236
O O3 0.812167 0.166672 0.825751
O O4 0.874838 0.252335 0.936294
O O5 0.050628 0.347131 0.325294
O O6 0.110109 0.200113 0.411808
O O7 0.488289 0.641437 0.521208
O O8 0.483916 0.441056 0.857784
O O9 0.655057 0.487988 0.940367
O O10 0.738597 0.972488 0.856676
O O11 0.617311 0.000000 0.750000
O O12 0.250000 0.148164 0.500000
O O13 0.189191 0.091520 0.630243
O O14 0.626661 0.500000 0.250000
O O15 0.481609 0.512984 0.357510
O O16 0.129112 0.500000 0.750000
#
# Coordination Sequence:
#
# PCOD8165421 Si02
#       8
#     8   4   4   8   8   8   8   8
#     4  11  21  37  60  88 129 164 198 258 315 363
#     4  10  24  45  60  89 118 158 218 254 312 376
#     4  12  20  35  58  91 126 162 196 260 308 372
#     4  10  22  36  61  93 119 159 215 245 315 384
#     4  10  23  42  64  88 125 161 201 266 313 367
#     4  10  22  43  66  88 123 165 210 261 308 373
#     4  10  21  39  65  95 125 164 208 255 313 373
#     4  10  21  37  57  90 129 162 199 248 308 366
#
# _framework density 20.532557000000001
#
# number of rings (size 3 to 8) (size 9 to 14) (size 15 to 20)
#    0.000    1.714    1.429    3.000    0.000   10.286 
#    2.571    1.429    0.000    0.000    0.000    0.000 
#    0.000    0.000    0.000    0.000    0.000    0.000 
#
# Total GULP energy -346870.623502 kJ/mol
# GULP energy per Si atom -12388.236554 kJ/mol
# Density = 2.048582 g / cm^3
# Si number density = 20.532557 Si / 1000 Ang^3
#
#
#
# Elastic Constant Matrix: (Units=GPa)
#
#
# Indices 1 2 3 4 5 6 
#
# 1 112.7482 29.9467 35.1819 0.0000 0.0000 0.0000
# 2 29.9467 93.5492 37.2666 0.0000 0.0000 0.0000
# 3 35.1819 37.2666 88.4932 0.0000 0.0000 0.0000
# 4 0.0000 0.0000 0.0000 20.8910 0.0000 0.0000
# 5 0.0000 0.0000 0.0000 0.0000 22.4067 0.0000
# 6 0.0000 0.0000 0.0000 0.0000 0.0000 33.5456
#
#
#
# Elastic Compliance Matrix: (Units=1/GPa)
#
#
# Indices 1 2 3 4 5 6 
#
# 1 0.010436 -0.002028 -0.003295 0.000000 0.000000 0.000000
# 2 -0.002028 0.013238 -0.004769 0.000000 0.000000 0.000000
# 3 -0.003295 -0.004769 0.014618 0.000000 0.000000 0.000000
# 4 0.000000 0.000000 0.000000 0.047868 0.000000 0.000000
# 5 0.000000 0.000000 0.000000 0.000000 0.044630 0.000000
# 6 0.000000 0.000000 0.000000 0.000000 0.000000 0.029810
#
#
# Mechanical properties :
#
#
# Convention : Reuss Voigt Hill
#
# Bulk Modulus (GPa) = 55.21979 55.50899 55.36439
# Shear Modulus (GPa) = 26.76364 28.19501 27.47933
#
# Velocity S-wave (km/s) = 3.61428 3.70967 3.66229
# Velocity P-wave (km/s) = 6.66105 6.74108 6.70118
#
# Compressibility (1/GPa) = 0.01810945
#
# Stress axis : x y z
#
# Youngs Moduli (GPa) = 95.82048 75.53727 68.40663
#
# Poissons Ratio (x) = 0.15321 0.22540
# Poissons Ratio (y) = 0.19434 0.32621
# Poissons Ratio (z) = 0.31572 0.36021
#
# Static dielectric constant tensor:
#      x y z
#    x 4.405820 0.000000 0.000000 
#    y 0.000000 3.922930 0.000000 
#    z 0.000000 0.000000 3.624120 
# 
# 
# High freq. dielectric constant tensor:
#      x y z
#    x 1.826560 0.000000 0.000000 
#    y 0.000000 1.796610 0.000000 
#    z 0.000000 0.000000 1.791810 
# 
# From -- ./inp_files/33412.got.cif
#   From: 2010.03.12/outbox.cif.g09.slc.cpg/sg24_17_cif.got.tgz:33412.got - 2010.04.14 03:06:53.
