data_PCOD8165340
_publ_section_title
;
Structure prediction by ZEFSAII (Michael W. Deem and Ramdas Pophale) SiO2 
 PCOD8165340
Probable space group: I 21 21 21
;
_chemical_formula_sum "Si O2"
_cell_formula_units_Z 48
_cell_length_a 7.459925
_cell_length_b 14.372437
_cell_length_c 19.586900
_cell_angle_alpha 90.000000
_cell_angle_beta 90.000000
_cell_angle_gamma 90.000000
_cell_volume 2100.054574
_symmetry_space_group_name_H-M "I 21 21 21"
_symmetry_group_IT_number 24
_symmetry_cell_setting 'orthorhombic'
loop_
_space_group_symop_operation_xyz
x,y,z
-x,1/2-y,z
x,-y,1/2-z
1/2-x,y,-z
1/2+x,1/2+y,1/2+z
1/2-x,-y,1/2+z
1/2+x,1/2-y,-z
-x,1/2+y,1/2-z
loop_
_atom_site_type_symbol
_atom_site_label
_atom_site_fract_x
_atom_site_fract_y
_atom_site_fract_z
Si Si1 0.240932 0.163955 0.838395
Si Si2 0.178762 0.191815 0.575524
Si Si3 0.162850 0.362792 0.139945
Si Si4 0.117230 0.166505 0.294840
Si Si5 0.250000 0.554115 0.500000
Si Si6 0.890516 0.000000 0.250000
Si Si7 0.386982 0.016097 0.058546
O O1 0.209027 0.272666 0.853105
O O2 0.450670 0.143559 0.849842
O O3 0.213641 0.148025 0.756693
O O4 0.113552 0.096692 0.883507
O O5 0.250000 0.214816 0.500000
O O6 0.324679 0.213847 0.633425
O O7 0.000000 0.250000 0.588945
O O8 0.161748 0.082329 0.590255
O O9 0.180883 0.384162 0.061100
O O10 0.228767 0.440917 0.195319
O O11 0.000000 0.250000 0.260172
O O12 0.006578 0.069946 0.298554
O O13 0.417238 0.494546 0.472788
O O14 0.250000 0.048068 0.000000
#
# Coordination Sequence:
#
# PCOD8165340 Si02
#       7
#     8   8   8   8   4   4   8
#     4  10  20  43  67 102 140 186 235 292 368 438
#     4  11  26  45  68 100 138 188 238 311 366 435
#     4  10  21  38  68 104 138 184 236 291 357 429
#     4  11  21  41  74 101 138 193 240 292 370 443
#     4  12  26  40  70 108 134 196 240 294 362 438
#     4  10  20  40  70 106 142 184 240 292 356 442
#     4  11  25  45  69  99 146 184 238 302 371 436
#
# _framework density 22.856548
#
# number of rings (size 3 to 8) (size 9 to 14) (size 15 to 20)
#    0.000    1.333    5.000    2.500    4.667    2.000 
#    3.000    0.000    0.000    0.000    0.000    0.000 
#    0.000    0.000    0.000    0.000    0.000    0.000 
#
# Total GULP energy -297326.369131 kJ/mol
# GULP energy per Si atom -12388.598714 kJ/mol
# Density = 2.280453 g / cm^3
# Si number density = 22.856548 Si / 1000 Ang^3
#
#
#
# Elastic Constant Matrix: (Units=GPa)
#
#
# Indices 1 2 3 4 5 6 
#
# 1 64.0411 13.6503 22.9861 0.0000 0.0000 0.0000
# 2 13.6503 119.6129 33.4297 0.0000 0.0000 0.0000
# 3 22.9861 33.4297 155.7256 0.0000 0.0000 0.0000
# 4 0.0000 0.0000 0.0000 22.7430 0.0000 0.0000
# 5 0.0000 0.0000 0.0000 0.0000 25.8053 0.0000
# 6 0.0000 0.0000 0.0000 0.0000 0.0000 19.8628
#
#
#
# Elastic Compliance Matrix: (Units=1/GPa)
#
#
# Indices 1 2 3 4 5 6 
#
# 1 0.016674 -0.001293 -0.002184 0.000000 0.000000 0.000000
# 2 -0.001293 0.008994 -0.001740 0.000000 0.000000 0.000000
# 3 -0.002184 -0.001740 0.007117 0.000000 0.000000 0.000000
# 4 0.000000 0.000000 0.000000 0.043970 0.000000 0.000000
# 5 0.000000 0.000000 0.000000 0.000000 0.038752 0.000000
# 6 0.000000 0.000000 0.000000 0.000000 0.000000 0.050345
#
#
# Mechanical properties :
#
#
# Convention : Reuss Voigt Hill
#
# Bulk Modulus (GPa) = 44.73629 53.27908 49.00769
# Shear Modulus (GPa) = 27.21296 31.63648 29.42472
#
# Velocity S-wave (km/s) = 3.45425 3.72443 3.59188
# Velocity P-wave (km/s) = 5.96022 6.46962 6.22014
#
# Compressibility (1/GPa) = 0.02235322
#
# Stress axis : x y z
#
# Youngs Moduli (GPa) = 59.97255 111.18398 140.50057
#
# Poissons Ratio (x) = 0.14371 0.30682
# Poissons Ratio (y) = 0.07752 0.24447
# Poissons Ratio (z) = 0.13097 0.19346
#
# Static dielectric constant tensor:
#      x y z
#    x 3.862790 0.000000 0.000000 
#    y 0.000000 4.190320 0.000000 
#    z 0.000000 0.000000 4.342010 
# 
# 
# High freq. dielectric constant tensor:
#      x y z
#    x 1.872550 0.000000 0.000000 
#    y 0.000000 1.906430 0.000000 
#    z 0.000000 0.000000 1.922210 
# 
# From -- ./inp_files/29505.got.cif
#   From: 2010.03.12/outbox.cif.g09.slc.cpg/sg24_15_cif.got.tgz:29505.got - 2010.04.14 03:06:53.
