data_PCOD8165860
_publ_section_title
;
Structure prediction by ZEFSAII (Michael W. Deem and Ramdas Pophale) SiO2 
 PCOD8165860
Probable space group: I 21 21 21
;
_chemical_formula_sum "Si O2"
_cell_formula_units_Z 64
_cell_length_a 14.841608
_cell_length_b 23.750670
_cell_length_c 8.715426
_cell_angle_alpha 90.000000
_cell_angle_beta 90.000000
_cell_angle_gamma 90.000000
_cell_volume 3072.171401
_symmetry_space_group_name_H-M "I 21 21 21"
_symmetry_group_IT_number 24
_symmetry_cell_setting 'orthorhombic'
loop_
_space_group_symop_operation_xyz
x,y,z
-x,1/2-y,z
x,-y,1/2-z
1/2-x,y,-z
1/2+x,1/2+y,1/2+z
1/2-x,-y,1/2+z
1/2+x,1/2-y,-z
-x,1/2+y,1/2-z
loop_
_atom_site_type_symbol
_atom_site_label
_atom_site_fract_x
_atom_site_fract_y
_atom_site_fract_z
Si Si1 0.436662 0.199946 0.675395
Si Si2 0.680246 0.550307 0.370883
Si Si3 0.342183 0.752020 0.093826
Si Si4 0.496428 0.532547 0.525199
Si Si5 0.027778 0.418897 0.348683
Si Si6 0.184582 0.451314 0.857048
Si Si7 0.160340 0.628852 0.914401
Si Si8 0.247093 0.172488 0.823099
O O1 0.500000 0.250000 0.748276
O O2 0.417194 0.215381 0.500807
O O3 0.483741 0.140801 0.663986
O O4 0.346230 0.189360 0.769025
O O5 0.669246 0.500000 0.250000
O O6 0.750000 0.530046 0.500000
O O7 0.583308 0.563303 0.451120
O O8 0.718201 0.607295 0.290186
O O9 0.383820 0.689702 0.120197
O O10 0.327016 0.785848 0.251425
O O11 0.250000 0.752155 0.000000
O O12 0.529844 0.469556 0.574026
O O13 0.452443 0.563994 0.672627
O O14 0.415746 0.530127 0.404171
O O15 0.111575 0.412681 0.465027
O O16 0.227449 0.500000 0.750000
O O17 0.176816 0.396196 0.753385
O O18 0.250000 0.439646 0.000000
O O19 0.250000 0.644921 0.000000
O O20 0.250000 0.184397 0.000000
#
# Coordination Sequence:
#
# PCOD8165860 Si02
#       8
#     8   8   8   8   8   8   8   8
#     4  11  22  42  69 101 124 176 232 277 339 410
#     4  11  26  43  68 101 137 181 233 288 353 420
#     4   9  21  40  65  90 121 168 223 267 330 403
#     4  11  26  43  65  99 134 180 225 284 349 414
#     4  11  23  40  68  90 136 170 226 282 341 405
#     4  12  25  41  65  96 135 180 224 280 350 415
#     4  11  22  41  63  92 128 172 224 279 332 418
#     4  10  23  44  66  94 141 175 219 284 348 412
#
# _framework density 20.832170999999999
#
# number of rings (size 3 to 8) (size 9 to 14) (size 15 to 20)
#    0.000    1.250    2.500    3.000    7.000    1.000 
#    2.250    0.625    0.000    0.000    0.000    0.000 
#    0.000    0.000    0.000    0.000    0.000    0.000 
#
# Total GULP energy -396503.889734 kJ/mol
# GULP energy per Si atom -12390.746554 kJ/mol
# Density = 2.078476 g / cm^3
# Si number density = 20.832171 Si / 1000 Ang^3
#
#
#
# Elastic Constant Matrix: (Units=GPa)
#
#
# Indices 1 2 3 4 5 6 
#
# 1 88.7979 31.5932 38.5176 -0.0033 0.0001 0.0000
# 2 31.5932 157.3018 65.6074 0.0060 0.0003 -0.0001
# 3 38.5176 65.6074 133.8444 0.1208 0.0014 0.0010
# 4 -0.0033 0.0060 0.1208 691.9872 0.0132 -0.0009
# 5 0.0001 0.0003 0.0014 0.0132 37.6081 0.0000
# 6 0.0000 -0.0001 0.0010 -0.0009 0.0000 36.3737
#
#
#
# Elastic Compliance Matrix: (Units=1/GPa)
#
#
# Indices 1 2 3 4 5 6 
#
# 1 0.013085 -0.001329 -0.003114 0.000001 0.000000 0.000000
# 2 -0.001329 0.008126 -0.003601 0.000001 0.000000 0.000000
# 3 -0.003114 -0.003601 0.010132 -0.000002 0.000000 0.000000
# 4 0.000001 0.000001 -0.000002 0.001445 -0.000001 0.000000
# 5 0.000000 0.000000 0.000000 -0.000001 0.026590 0.000000
# 6 0.000000 0.000000 0.000000 0.000000 0.000000 0.027492
#
#
# Mechanical properties :
#
#
# Convention : Reuss Voigt Hill
#
# Bulk Modulus (GPa) = 65.54919 72.37560 68.96239
# Shear Modulus (GPa) = 46.27732 169.47554 107.87643
#
# Velocity S-wave (km/s) = 4.71832 9.02936 7.20389
# Velocity P-wave (km/s) = 7.82414 11.98013 10.11782
#
# Compressibility (1/GPa) = 0.01525572
#
# Stress axis : x y z
#
# Youngs Moduli (GPa) = 76.42194 123.06300 98.69277
#
# Poissons Ratio (x) = 0.16359 0.30734
# Poissons Ratio (y) = 0.10159 0.35535
# Poissons Ratio (z) = 0.23798 0.44310
#
# Static dielectric constant tensor:
#      x y z
#    x -10.705770 0.000160 0.000710 
#    y 0.000160 4.067320 -0.000010 
#    z 0.000710 -0.000010 2.394730 
# 
# 
# High freq. dielectric constant tensor:
#      x y z
#    x 1.809950 0.000000 0.000000 
#    y 0.000000 1.829430 0.000000 
#    z 0.000000 0.000000 1.817000 
# 
# From -- ./inp_files/13357.got.cif
#   From: 2010.03.12/outbox.cif.g09.slc.cpg/sg24_7_cif.got.tgz:13357.got - 2010.04.14 03:06:53.
