data_PCOD8165385
_publ_section_title
;
Structure prediction by ZEFSAII (Michael W. Deem and Ramdas Pophale) SiO2 
 PCOD8165385
Probable space group: I 21 21 21
;
_chemical_formula_sum "Si O2"
_cell_formula_units_Z 60
_cell_length_a 12.210195
_cell_length_b 12.377605
_cell_length_c 20.710093
_cell_angle_alpha 90.000000
_cell_angle_beta 90.000000
_cell_angle_gamma 90.000000
_cell_volume 3129.977878
_symmetry_space_group_name_H-M "I 21 21 21"
_symmetry_group_IT_number 24
_symmetry_cell_setting 'orthorhombic'
loop_
_space_group_symop_operation_xyz
x,y,z
-x,1/2-y,z
x,-y,1/2-z
1/2-x,y,-z
1/2+x,1/2+y,1/2+z
1/2-x,-y,1/2+z
1/2+x,1/2-y,-z
-x,1/2+y,1/2-z
loop_
_atom_site_type_symbol
_atom_site_label
_atom_site_fract_x
_atom_site_fract_y
_atom_site_fract_z
Si Si1 0.532875 0.635107 0.633587
Si Si2 0.160174 0.018528 0.594080
Si Si3 0.901754 0.549446 0.046073
Si Si4 0.000000 0.250000 0.386068
Si Si5 0.208648 0.362935 0.326630
Si Si6 0.804245 0.097462 0.178273
Si Si7 0.381728 0.199377 0.306849
Si Si8 0.229524 0.178672 0.830712
O O1 0.500000 0.750000 0.602212
O O2 0.534017 0.551148 0.575436
O O3 0.435726 0.604689 0.681982
O O4 0.645721 0.634059 0.674449
O O5 0.280432 0.055967 0.574327
O O6 0.086795 0.031419 0.530540
O O7 0.109395 0.091028 0.651018
O O8 0.161742 0.893599 0.618227
O O9 0.955905 0.661332 0.065063
O O10 0.906608 0.195877 0.341257
O O11 0.228690 0.389652 0.252105
O O12 0.223570 0.483262 0.357500
O O13 0.307414 0.284144 0.347543
O O14 0.740331 0.197109 0.142946
O O15 0.500000 0.250000 0.293532
O O16 0.325482 0.168776 0.239166
#
# Coordination Sequence:
#
# PCOD8165385 Si02
#       8
#     8   8   8   4   8   8   8   8
#     4   9  17  33  59  89 118 147 180 242 307 360
#     4  10  21  40  57  85 110 156 204 246 280 349
#     4  10  21  35  60  85 119 151 195 240 295 356
#     4  12  20  34  60  92 124 156 188 240 304 372
#     4  10  21  34  56  91 126 154 188 236 304 360
#     4   9  18  34  56  91 125 147 179 243 312 361
#     4  11  23  40  58  83 118 162 201 246 289 348
#     4   9  20  37  59  82 113 154 197 243 297 345
#
# _framework density 19.169464999999999
#
# number of rings (size 3 to 8) (size 9 to 14) (size 15 to 20)
#    0.000    2.133    2.667    0.400    5.600    0.000 
#   12.000    0.667    0.000    0.000    3.467    0.000 
#    0.000    0.000    0.000    0.000    0.000    0.000 
#
# Total GULP energy -371705.552430 kJ/mol
# GULP energy per Si atom -12390.185081 kJ/mol
# Density = 1.912583 g / cm^3
# Si number density = 19.169465 Si / 1000 Ang^3
#
#
#
# Elastic Constant Matrix: (Units=GPa)
#
#
# Indices 1 2 3 4 5 6 
#
# 1 58.7184 47.9574 32.9443 0.0000 0.0000 0.0000
# 2 47.9574 160.1782 50.2579 0.0000 0.0000 0.0000
# 3 32.9443 50.2579 79.1788 0.0000 0.0000 0.0000
# 4 0.0000 0.0000 0.0000 21.2928 0.0000 0.0000
# 5 0.0000 0.0000 0.0000 0.0000 11.4703 0.0000
# 6 0.0000 0.0000 0.0000 0.0000 0.0000 20.5788
#
#
#
# Elastic Compliance Matrix: (Units=1/GPa)
#
#
# Indices 1 2 3 4 5 6 
#
# 1 0.025440 -0.005364 -0.007180 0.000000 0.000000 0.000000
# 2 -0.005364 0.008927 -0.003434 0.000000 0.000000 0.000000
# 3 -0.007180 -0.003434 0.017797 0.000000 0.000000 0.000000
# 4 0.000000 0.000000 0.000000 0.046964 0.000000 0.000000
# 5 0.000000 0.000000 0.000000 0.000000 0.087182 0.000000
# 6 0.000000 0.000000 0.000000 0.000000 0.000000 0.048594
#
#
# Mechanical properties :
#
#
# Convention : Reuss Voigt Hill
#
# Bulk Modulus (GPa) = 49.48855 62.26606 55.87730
# Shear Modulus (GPa) = 18.27520 21.79611 20.03565
#
# Velocity S-wave (km/s) = 3.09099 3.37563 3.23644
# Velocity P-wave (km/s) = 6.21380 6.90982 6.57103
#
# Compressibility (1/GPa) = 0.02020670
#
# Stress axis : x y z
#
# Youngs Moduli (GPa) = 39.30863 112.02591 56.18912
#
# Poissons Ratio (x) = 0.60088 0.40345
# Poissons Ratio (y) = 0.21084 0.19297
# Poissons Ratio (z) = 0.28225 0.38473
#
# Static dielectric constant tensor:
#      x y z
#    x 3.420370 0.000000 0.000000 
#    y 0.000000 4.251050 0.000000 
#    z 0.000000 0.000000 3.222990 
# 
# 
# High freq. dielectric constant tensor:
#      x y z
#    x 1.729760 0.000000 0.000000 
#    y 0.000000 1.771230 0.000000 
#    z 0.000000 0.000000 1.709200 
# 
# From -- ./inp_files/20012.got.cif
#   From: 2010.03.12/outbox.cif.g09.slc.cpg/sg24_11_cif.got.tgz:20012.got - 2010.04.14 03:06:53.
