data_PCOD8165401
_publ_section_title
;
Structure prediction by ZEFSAII (Michael W. Deem and Ramdas Pophale) SiO2 
 PCOD8165401
Probable space group: I 21 21 21
;
_chemical_formula_sum "Si O2"
_cell_formula_units_Z 64
_cell_length_a 13.576232
_cell_length_b 24.661623
_cell_length_c 9.587867
_cell_angle_alpha 90.000000
_cell_angle_beta 90.000000
_cell_angle_gamma 90.000000
_cell_volume 3210.132114
_symmetry_space_group_name_H-M "I 21 21 21"
_symmetry_group_IT_number 24
_symmetry_cell_setting 'orthorhombic'
loop_
_space_group_symop_operation_xyz
x,y,z
-x,1/2-y,z
x,-y,1/2-z
1/2-x,y,-z
1/2+x,1/2+y,1/2+z
1/2-x,-y,1/2+z
1/2+x,1/2-y,-z
-x,1/2+y,1/2-z
loop_
_atom_site_type_symbol
_atom_site_label
_atom_site_fract_x
_atom_site_fract_y
_atom_site_fract_z
Si Si1 0.909797 0.062846 0.742704
Si Si2 0.053064 0.377321 0.009010
Si Si3 0.577844 0.298152 0.649816
Si Si4 0.656002 0.224491 0.426133
Si Si5 0.444314 0.377752 0.525542
Si Si6 0.179479 0.564872 0.253071
Si Si7 0.845337 0.330160 0.070301
Si Si8 0.892248 0.232803 0.877550
O O1 0.965458 0.082013 0.602357
O O2 0.794847 0.079610 0.754329
O O3 0.922991 0.000000 0.750000
O O4 0.967100 0.087716 0.872214
O O5 0.123129 0.410332 0.114241
O O6 0.944408 0.366066 0.068749
O O7 0.108611 0.322265 0.966483
O O8 0.500000 0.250000 0.696930
O O9 0.630787 0.280539 0.506172
O O10 0.532530 0.359056 0.627745
O O11 0.660419 0.307820 0.770314
O O12 0.750000 0.198471 0.500000
O O13 0.573708 0.179974 0.451998
O O14 0.673995 0.230375 0.261538
O O15 0.359682 0.407004 0.613643
O O16 0.162345 0.500000 0.250000
O O17 0.750000 0.361394 0.000000
O O18 0.847963 0.277731 0.974704
O O19 0.000000 0.250000 0.825145
#
# Coordination Sequence:
#
# PCOD8165401 Si02
#       8
#     8   8   8   8   8   8   8   8
#     4  11  23  39  60  90 119 154 198 243 295 361
#     4  11  22  39  61  86 121 158 195 245 303 356
#     4  10  21  37  58  83 122 159 198 241 292 351
#     4  11  21  34  55  86 118 157 193 236 285 354
#     4  11  21  37  58  82 122 157 193 233 295 353
#     4  11  23  39  60  88 121 154 197 246 296 362
#     4  11  23  39  59  87 118 156 201 249 289 352
#     4  10  21  36  56  83 118 154 196 235 293 350
#
# _framework density 19.936874
#
# number of rings (size 3 to 8) (size 9 to 14) (size 15 to 20)
#    0.000    1.250    2.500    5.250    3.500    3.000 
#    0.000    0.000    0.000    0.750    0.000    0.000 
#    0.000    0.000    0.000    0.000    0.000    0.000 
#
# Total GULP energy -396501.456056 kJ/mol
# GULP energy per Si atom -12390.670502 kJ/mol
# Density = 1.989150 g / cm^3
# Si number density = 19.936874 Si / 1000 Ang^3
#
#
#
# Elastic Constant Matrix: (Units=GPa)
#
#
# Indices 1 2 3 4 5 6 
#
# 1 53.2154 19.0547 25.1917 0.0003 -0.0004 -0.0002
# 2 19.0547 77.5461 38.0119 0.0013 -0.0009 -0.0010
# 3 25.1917 38.0119 123.8948 0.0086 -0.0024 -0.0014
# 4 0.0003 0.0013 0.0086 12.3025 -0.0001 -0.0004
# 5 -0.0004 -0.0009 -0.0024 -0.0001 25.7187 0.0005
# 6 -0.0002 -0.0010 -0.0014 -0.0004 0.0005 27.4139
#
#
#
# Elastic Compliance Matrix: (Units=1/GPa)
#
#
# Indices 1 2 3 4 5 6 
#
# 1 0.021670 -0.003725 -0.003263 0.000002 0.000000 0.000000
# 2 -0.003725 0.015819 -0.004096 0.000001 0.000000 0.000000
# 3 -0.003263 -0.004096 0.009992 -0.000007 0.000001 0.000000
# 4 0.000002 0.000001 -0.000007 0.081284 0.000000 0.000001
# 5 0.000000 0.000000 0.000001 0.000000 0.038882 -0.000001
# 6 0.000000 0.000000 0.000000 0.000001 -0.000001 0.036478
#
#
# Mechanical properties :
#
#
# Convention : Reuss Voigt Hill
#
# Bulk Modulus (GPa) = 39.50739 46.57476 43.04108
# Shear Modulus (GPa) = 21.30104 24.58024 22.94064
#
# Velocity S-wave (km/s) = 3.27222 3.51508 3.39582
# Velocity P-wave (km/s) = 5.84259 6.31555 6.08367
#
# Compressibility (1/GPa) = 0.02531172
#
# Stress axis : x y z
#
# Youngs Moduli (GPa) = 46.14617 63.21659 100.08469
#
# Poissons Ratio (x) = 0.23549 0.32661
# Poissons Ratio (y) = 0.17190 0.40993
# Poissons Ratio (z) = 0.15059 0.25892
#
# Static dielectric constant tensor:
#      x y z
#    x 0.278630 -0.000090 0.000100 
#    y -0.000090 3.576600 0.000000 
#    z 0.000100 0.000000 3.932410 
# 
# 
# High freq. dielectric constant tensor:
#      x y z
#    x 1.753380 0.000000 0.000000 
#    y 0.000000 1.760970 0.000000 
#    z 0.000000 0.000000 1.803300 
# 
# From -- ./inp_files/13351.got.cif
#   From: 2010.03.12/outbox.cif.g09.slc.cpg/sg24_7_cif.got.tgz:13351.got - 2010.04.14 03:06:53.
