data_PCOD8165318
_publ_section_title
;
Structure prediction by ZEFSAII (Michael W. Deem and Ramdas Pophale) SiO2 
 PCOD8165318
Probable space group: I 21 21 21
;
_chemical_formula_sum "Si O2"
_cell_formula_units_Z 28
_cell_length_a 19.489503
_cell_length_b 5.229551
_cell_length_c 12.823380
_cell_angle_alpha 90.000000
_cell_angle_beta 90.000000
_cell_angle_gamma 90.000000
_cell_volume 1306.976200
_symmetry_space_group_name_H-M "I 21 21 21"
_symmetry_group_IT_number 24
_symmetry_cell_setting 'orthorhombic'
loop_
_space_group_symop_operation_xyz
x,y,z
-x,1/2-y,z
x,-y,1/2-z
1/2-x,y,-z
1/2+x,1/2+y,1/2+z
1/2-x,-y,1/2+z
1/2+x,1/2-y,-z
-x,1/2+y,1/2-z
loop_
_atom_site_type_symbol
_atom_site_label
_atom_site_fract_x
_atom_site_fract_y
_atom_site_fract_z
Si Si1 0.000000 0.250000 0.380837
Si Si2 0.599376 0.426340 0.469267
Si Si3 0.174057 0.583531 0.462721
Si Si4 0.115101 0.500000 0.250000
Si Si5 0.541244 0.500000 0.250000
O O1 0.030045 0.030224 0.460101
O O2 0.064103 0.303410 0.305952
O O3 0.653975 0.648087 0.486667
O O4 0.586433 0.412575 0.346948
O O5 0.626390 0.146190 0.499529
O O6 0.250000 0.516818 0.500000
O O7 0.165552 0.620329 0.337385
O O8 0.500000 0.750000 0.286929
#
# Coordination Sequence:
#
# PCOD8165318 Si02
#       5
#     4   8   8   4   4
#     4  10  20  40  64 104 126 164 216 276 342 392
#     4  11  24  41  67  96 134 169 218 279 326 401
#     4  11  25  44  64  95 131 179 225 267 322 399
#     4  10  22  38  69  93 130 170 210 278 330 388
#     4  12  24  40  65  99 132 174 208 268 350 396
#
# _framework density 21.423497000000001
#
# number of rings (size 3 to 8) (size 9 to 14) (size 15 to 20)
#    0.000    1.143    1.429    4.286    4.000    5.714 
#    0.000    0.000    0.000    0.000    0.000    0.000 
#    0.000    0.000    0.000    0.000    0.000    0.000 
#
# Total GULP energy -173477.222339 kJ/mol
# GULP energy per Si atom -12391.230167 kJ/mol
# Density = 2.137474 g / cm^3
# Si number density = 21.423497 Si / 1000 Ang^3
#
#
#
# Elastic Constant Matrix: (Units=GPa)
#
#
# Indices 1 2 3 4 5 6 
#
# 1 99.1030 7.0944 63.7526 0.0000 0.0000 0.0000
# 2 7.0944 84.2800 27.4982 0.0000 0.0000 0.0000
# 3 63.7526 27.4982 189.7207 0.0000 0.0000 0.0000
# 4 0.0000 0.0000 0.0000 27.0254 0.0000 0.0000
# 5 0.0000 0.0000 0.0000 0.0000 -22.0665 0.0000
# 6 0.0000 0.0000 0.0000 0.0000 0.0000 27.7800
#
#
#
# Elastic Compliance Matrix: (Units=1/GPa)
#
#
# Indices 1 2 3 4 5 6 
#
# 1 0.012883 0.000344 -0.004379 0.000000 0.000000 0.000000
# 2 0.000344 0.012463 -0.001922 0.000000 0.000000 0.000000
# 3 -0.004379 -0.001922 0.007021 0.000000 0.000000 0.000000
# 4 0.000000 0.000000 0.000000 0.037002 0.000000 0.000000
# 5 0.000000 0.000000 0.000000 0.000000 -0.045318 0.000000
# 6 0.000000 0.000000 0.000000 0.000000 0.000000 0.035997
#
#
# Mechanical properties :
#
#
# Convention : Reuss Voigt Hill
#
# Bulk Modulus (GPa) = 48.89124 63.31046 56.10085
# Shear Modulus (GPa) = 63.46754 24.86502 44.16628
#
# Velocity S-wave (km/s) = 5.44881 3.41052 4.54539
# Velocity P-wave (km/s) = 7.90297 6.71750 7.33423
#
# Compressibility (1/GPa) = 0.02045356
#
# Stress axis : x y z
#
# Youngs Moduli (GPa) = 77.62268 80.23512 142.43019
#
# Poissons Ratio (x) = -0.02763 0.62370
# Poissons Ratio (y) = -0.02673 0.27377
# Poissons Ratio (z) = 0.33991 0.15422
#
# Static dielectric constant tensor:
#      x y z
#    x 3.850570 0.000000 0.000000 
#    y 0.000000 7.029350 0.000000 
#    z 0.000000 0.000000 4.321370 
# 
# 
# High freq. dielectric constant tensor:
#      x y z
#    x 1.827180 0.000000 0.000000 
#    y 0.000000 1.833350 0.000000 
#    z 0.000000 0.000000 1.868120 
# 
# From -- ./inp_files/1902.got.cif
#   From: 2010.03.12/outbox.cif.g09.slc.cpg/sg24_1_cif.got.tgz:1902.got - 2010.04.14 03:06:53.
