data_PCOD8165119
_publ_section_title
;
Structure prediction by ZEFSAII (Michael W. Deem and Ramdas Pophale) SiO2 
 PCOD8165119
Probable space group: I 21 21 21
;
_chemical_formula_sum "Si O2"
_cell_formula_units_Z 56
_cell_length_a 21.706612
_cell_length_b 8.628688
_cell_length_c 14.458999
_cell_angle_alpha 90.000000
_cell_angle_beta 90.000000
_cell_angle_gamma 90.000000
_cell_volume 2708.164476
_symmetry_space_group_name_H-M "I 21 21 21"
_symmetry_group_IT_number 24
_symmetry_cell_setting 'orthorhombic'
loop_
_space_group_symop_operation_xyz
x,y,z
-x,1/2-y,z
x,-y,1/2-z
1/2-x,y,-z
1/2+x,1/2+y,1/2+z
1/2-x,-y,1/2+z
1/2+x,1/2-y,-z
-x,1/2+y,1/2-z
loop_
_atom_site_type_symbol
_atom_site_label
_atom_site_fract_x
_atom_site_fract_y
_atom_site_fract_z
Si Si1 0.857605 0.931330 0.846838
Si Si2 0.785945 0.931599 0.153133
Si Si3 0.714055 0.568401 0.846866
Si Si4 0.111654 0.567761 0.465845
Si Si5 0.111654 0.932239 0.465845
Si Si6 0.857605 0.568670 0.846838
Si Si7 0.000000 0.932554 0.148160
O O1 0.785666 0.968380 0.860027
O O2 0.871264 0.750000 0.849655
O O3 0.881350 0.000000 0.750000
O O4 0.895295 0.015067 0.927982
O O5 0.800066 0.750000 0.149848
O O6 0.810027 0.000000 0.250000
O O7 0.821427 0.015926 0.070394
O O8 0.689972 0.500000 0.750000
O O9 0.678573 0.484074 0.929607
O O10 0.785666 0.531620 0.860027
O O11 0.103249 0.750000 0.458473
O O12 0.060375 0.485864 0.405084
O O13 0.104705 0.984933 0.572018
O O14 0.060375 0.014137 0.405083
O O15 0.881351 0.500000 0.750000
O O16 0.000000 0.750000 0.155578
O O17 0.000000 0.000000 0.250000
#
# Coordination Sequence:
#
# PCOD8165119 Si02
#       7
#     8   8   8   8   8   8   8
#     4  10  21  38  60  88 121 157 197 242 292 346
#     4  10  20  35  57  87 122 158 197 241 292 349
#     4  10  20  35  57  87 122 158 197 241 292 349
#     4  12  24  39  60  87 119 156 198 242 293 349
#     4  12  24  39  60  87 119 156 198 242 293 349
#     4  10  21  38  60  88 121 157 197 242 292 346
#     4  12  26  46  67  88 117 152 194 242 292 346
#
# _framework density 20.678211999999998
#
# number of rings (size 3 to 8) (size 9 to 14) (size 15 to 20)
#    0.000    1.143    0.000    7.286    0.000    6.857 
#    0.000    0.714    0.000    0.000    0.000    0.000 
#    0.000    0.000    0.000    0.000    0.000    0.000 
#
# Total GULP energy -347404.683852 kJ/mol
# GULP energy per Si atom -12407.310138 kJ/mol
# Density = 2.063115 g / cm^3
# Si number density = 20.678212 Si / 1000 Ang^3
#
#
#
# Elastic Constant Matrix: (Units=GPa)
#
#
# Indices 1 2 3 4 5 6 
#
# 1 55.2844 42.9275 49.6351 0.0000 0.0000 0.0000
# 2 42.9275 161.1186 72.4629 0.0000 0.0000 0.0000
# 3 49.6351 72.4629 183.4811 0.0000 0.0000 0.0000
# 4 0.0000 0.0000 0.0000 44.6575 0.0000 0.0000
# 5 0.0000 0.0000 0.0000 0.0000 -106.9104 0.0000
# 6 0.0000 0.0000 0.0000 0.0000 0.0000 26.9613
#
#
#
# Elastic Compliance Matrix: (Units=1/GPa)
#
#
# Indices 1 2 3 4 5 6 
#
# 1 0.026489 -0.004663 -0.005324 0.000000 0.000000 0.000000
# 2 -0.004663 0.008368 -0.002043 0.000000 0.000000 0.000000
# 3 -0.005324 -0.002043 0.007697 0.000000 0.000000 0.000000
# 4 0.000000 0.000000 0.000000 0.022393 0.000000 0.000000
# 5 0.000000 0.000000 0.000000 0.000000 -0.009354 0.000000
# 6 0.000000 0.000000 0.000000 0.000000 0.000000 0.037090
#
#
# Mechanical properties :
#
#
# Convention : Reuss Voigt Hill
#
# Bulk Modulus (GPa) = 54.07340 81.10391 67.58865
# Shear Modulus (GPa) = 40.68024 8.59892 24.63958
#
# Velocity S-wave (km/s) = 4.44024 2.04144 3.45566
# Velocity P-wave (km/s) = 7.24530 6.69804 6.97703
#
# Compressibility (1/GPa) = 0.01849338
#
# Stress axis : x y z
#
# Youngs Moduli (GPa) = 37.75114 119.50277 129.91308
#
# Poissons Ratio (x) = 0.55725 0.69169
# Poissons Ratio (y) = 0.17604 0.26546
# Poissons Ratio (z) = 0.20100 0.24419
#
# Static dielectric constant tensor:
#      x y z
#    x 3.593010 0.000000 0.000000 
#    y 0.000000 3.852680 0.000000 
#    z 0.000000 0.000000 4.362800 
# 
# 
# High freq. dielectric constant tensor:
#      x y z
#    x 1.788010 0.000000 0.000000 
#    y 0.000000 1.826100 0.000000 
#    z 0.000000 0.000000 1.828870 
# 
# From -- ./inp_files/27539.got.cif
#   From: 2010.03.12/outbox.cif.g09.slc.cpg/sg24_14_cif.got.tgz:27539.got - 2010.04.14 03:06:53.
