data_PCOD8165375
_publ_section_title
;
Structure prediction by ZEFSAII (Michael W. Deem and Ramdas Pophale) SiO2 
 PCOD8165375
Probable space group: I 21 21 21
;
_chemical_formula_sum "Si O2"
_cell_formula_units_Z 48
_cell_length_a 8.463376
_cell_length_b 12.017995
_cell_length_c 21.883023
_cell_angle_alpha 90.000000
_cell_angle_beta 90.000000
_cell_angle_gamma 90.000000
_cell_volume 2225.783770
_symmetry_space_group_name_H-M "I 21 21 21"
_symmetry_group_IT_number 24
_symmetry_cell_setting 'orthorhombic'
loop_
_space_group_symop_operation_xyz
x,y,z
-x,1/2-y,z
x,-y,1/2-z
1/2-x,y,-z
1/2+x,1/2+y,1/2+z
1/2-x,-y,1/2+z
1/2+x,1/2-y,-z
-x,1/2+y,1/2-z
loop_
_atom_site_type_symbol
_atom_site_label
_atom_site_fract_x
_atom_site_fract_y
_atom_site_fract_z
Si Si1 0.475217 0.506608 0.463849
Si Si2 0.851716 0.675061 0.612689
Si Si3 0.233255 0.669389 0.901289
Si Si4 0.250000 0.688714 0.500000
Si Si5 0.750000 0.642542 0.000000
Si Si6 0.258273 0.127165 0.759401
Si Si7 0.500000 0.750000 0.195345
Si Si8 0.500000 0.750000 0.827336
O O1 0.582424 0.554070 0.408468
O O2 0.320380 0.437175 0.441022
O O3 0.408212 0.612200 0.501555
O O4 0.589740 0.431057 0.506028
O O5 0.750337 0.733636 0.559471
O O6 0.731367 0.658806 0.669015
O O7 0.000000 0.750000 0.632650
O O8 0.408368 0.661467 0.871592
O O9 0.113703 0.676618 0.845820
O O10 0.227154 0.782561 0.940365
O O11 0.083885 0.158811 0.737368
O O12 0.381601 0.189607 0.717364
O O13 0.294080 0.000000 0.750000
#
# Coordination Sequence:
#
# PCOD8165375 Si02
#       8
#     8   8   8   4   4   8   4   4
#     4  11  23  42  68 103 135 184 220 274 353 412
#     4  10  22  46  69  99 131 177 232 282 332 407
#     4  11  23  42  64 101 142 175 221 287 337 413
#     4  10  24  44  68 102 142 172 232 284 340 402
#     4  12  24  38  70 106 136 180 224 272 348 416
#     4  11  23  47  71  97 132 182 229 278 346 403
#     4  10  20  43  70  95 132 170 228 288 330 414
#     4  10  28  45  60 103 148 166 234 288 336 404
#
# _framework density 21.565436999999999
#
# number of rings (size 3 to 8) (size 9 to 14) (size 15 to 20)
#    0.000    1.333    2.500    2.000    7.000    0.000 
#   13.500    1.667    0.000    0.000    0.000    0.000 
#    0.000    0.000    0.000    0.000    0.000    0.000 
#
# Total GULP energy -297550.324737 kJ/mol
# GULP energy per Si atom -12397.930197 kJ/mol
# Density = 2.151635 g / cm^3
# Si number density = 21.565437 Si / 1000 Ang^3
#
#
#
# Elastic Constant Matrix: (Units=GPa)
#
#
# Indices 1 2 3 4 5 6 
#
# 1 107.4677 42.2900 59.4269 0.0000 0.0000 0.0000
# 2 42.2900 115.7390 56.6356 0.0000 0.0000 0.0000
# 3 59.4269 56.6356 126.8152 0.0000 0.0000 0.0000
# 4 0.0000 0.0000 0.0000 24.1790 0.0000 0.0000
# 5 0.0000 0.0000 0.0000 0.0000 39.8667 0.0000
# 6 0.0000 0.0000 0.0000 0.0000 0.0000 33.9283
#
#
#
# Elastic Compliance Matrix: (Units=1/GPa)
#
#
# Indices 1 2 3 4 5 6 
#
# 1 0.013008 -0.002265 -0.005084 0.000000 0.000000 0.000000
# 2 -0.002265 0.011451 -0.004052 0.000000 0.000000 0.000000
# 3 -0.005084 -0.004052 0.012078 0.000000 0.000000 0.000000
# 4 0.000000 0.000000 0.000000 0.041358 0.000000 0.000000
# 5 0.000000 0.000000 0.000000 0.000000 0.025084 0.000000
# 6 0.000000 0.000000 0.000000 0.000000 0.000000 0.029474
#
#
# Mechanical properties :
#
#
# Convention : Reuss Voigt Hill
#
# Bulk Modulus (GPa) = 72.81637 74.08076 73.44857
# Shear Modulus (GPa) = 31.28266 32.37276 31.82771
#
# Velocity S-wave (km/s) = 3.81280 3.87866 3.84587
# Velocity P-wave (km/s) = 7.29533 7.38139 7.33848
#
# Compressibility (1/GPa) = 0.01373318
#
# Stress axis : x y z
#
# Youngs Moduli (GPa) = 76.87699 87.32996 82.79711
#
# Poissons Ratio (x) = 0.19782 0.42094
# Poissons Ratio (y) = 0.17414 0.33553
# Poissons Ratio (z) = 0.39084 0.35390
#
# Static dielectric constant tensor:
#      x y z
#    x 4.029480 0.000000 0.000000 
#    y 0.000000 3.867350 0.000000 
#    z 0.000000 0.000000 3.977250 
# 
# 
# High freq. dielectric constant tensor:
#      x y z
#    x 1.848660 0.000000 0.000000 
#    y 0.000000 1.843710 0.000000 
#    z 0.000000 0.000000 1.850160 
# 
# From -- ./inp_files/22637.got.cif
#   From: 2010.03.12/outbox.cif.g09.slc.cpg/sg24_12_cif.got.tgz:22637.got - 2010.04.14 03:06:53.
