data_PCOD8165352
_publ_section_title
;
Structure prediction by ZEFSAII (Michael W. Deem and Ramdas Pophale) SiO2 
 PCOD8165352
Probable space group: I 21 21 21
;
_chemical_formula_sum "Si O2"
_cell_formula_units_Z 40
_cell_length_a 14.545908
_cell_length_b 21.423823
_cell_length_c 5.197279
_cell_angle_alpha 90.000000
_cell_angle_beta 90.000000
_cell_angle_gamma 90.000000
_cell_volume 1619.622641
_symmetry_space_group_name_H-M "I 21 21 21"
_symmetry_group_IT_number 24
_symmetry_cell_setting 'orthorhombic'
loop_
_space_group_symop_operation_xyz
x,y,z
-x,1/2-y,z
x,-y,1/2-z
1/2-x,y,-z
1/2+x,1/2+y,1/2+z
1/2-x,-y,1/2+z
1/2+x,1/2-y,-z
-x,1/2+y,1/2-z
loop_
_atom_site_type_symbol
_atom_site_label
_atom_site_fract_x
_atom_site_fract_y
_atom_site_fract_z
Si Si1 0.852474 0.768669 0.524768
Si Si2 0.889227 0.846034 0.033774
Si Si3 0.250000 0.852868 0.000000
Si Si4 0.655849 0.557665 0.385211
Si Si5 0.250000 0.456338 0.500000
Si Si6 0.578296 0.341768 0.772568
O O1 0.750000 0.739798 0.500000
O O2 0.866154 0.797619 0.808204
O O3 0.931889 0.714475 0.481329
O O4 0.858600 0.823635 0.315671
O O5 0.840795 0.912499 0.981447
O O6 0.999909 0.850753 0.058873
O O7 0.182739 0.891387 0.819942
O O8 0.326544 0.813869 0.849632
O O9 0.601877 0.500000 0.250000
O O10 0.750000 0.528854 0.500000
O O11 0.592146 0.589892 0.600751
O O12 0.245077 0.500000 0.250000
#
# Coordination Sequence:
#
# PCOD8165352 Si02
#       6
#     8   8   4   8   4   8
#     4  12  25  50  80 112 162 208 257 330 408 485
#     4  12  28  52  80 118 155 200 268 342 402 483
#     4  10  22  43  68  98 161 196 260 308 382 474
#     4  10  20  41  68 100 151 210 259 312 378 468
#     4  12  26  57  90 112 151 212 274 348 416 474
#     4  11  28  43  74 116 155 207 267 319 411 483
#
# _framework density 24.697111
#
# number of rings (size 3 to 8) (size 9 to 14) (size 15 to 20)
#    0.000    0.800    3.000    3.600    8.400    1.600 
#    3.600    0.000    0.000    0.000    0.000    0.000 
#    0.000    0.000    0.000    0.000    0.000    0.000 
#
# Total GULP energy -247770.372382 kJ/mol
# GULP energy per Si atom -12388.518619 kJ/mol
# Density = 2.464090 g / cm^3
# Si number density = 24.697111 Si / 1000 Ang^3
#
#
#
# Elastic Constant Matrix: (Units=GPa)
#
#
# Indices 1 2 3 4 5 6 
#
# 1 129.4992 61.0573 44.1044 0.0000 0.0000 0.0000
# 2 61.0573 113.7194 39.4298 0.0000 0.0000 0.0000
# 3 44.1044 39.4298 129.2399 0.0000 0.0000 0.0000
# 4 0.0000 0.0000 0.0000 35.2662 0.0000 0.0000
# 5 0.0000 0.0000 0.0000 0.0000 38.8721 0.0000
# 6 0.0000 0.0000 0.0000 0.0000 0.0000 30.6340
#
#
#
# Elastic Compliance Matrix: (Units=1/GPa)
#
#
# Indices 1 2 3 4 5 6 
#
# 1 0.010850 -0.005079 -0.002153 0.000000 0.000000 0.000000
# 2 -0.005079 0.012211 -0.001992 0.000000 0.000000 0.000000
# 3 -0.002153 -0.001992 0.009080 0.000000 0.000000 0.000000
# 4 0.000000 0.000000 0.000000 0.028356 0.000000 0.000000
# 5 0.000000 0.000000 0.000000 0.000000 0.025725 0.000000
# 6 0.000000 0.000000 0.000000 0.000000 0.000000 0.032643
#
#
# Mechanical properties :
#
#
# Convention : Reuss Voigt Hill
#
# Bulk Modulus (GPa) = 73.03160 73.51571 73.27366
# Shear Modulus (GPa) = 35.24125 36.14559 35.69342
#
# Velocity S-wave (km/s) = 3.78158 3.82979 3.80576
# Velocity P-wave (km/s) = 6.97870 7.02766 7.00322
#
# Compressibility (1/GPa) = 0.01369270
#
# Stress axis : x y z
#
# Youngs Moduli (GPa) = 92.16565 81.89128 110.13022
#
# Poissons Ratio (x) = 0.41592 0.23713
# Poissons Ratio (y) = 0.46810 0.21941
# Poissons Ratio (z) = 0.19845 0.16315
#
# Static dielectric constant tensor:
#      x y z
#    x 4.691350 0.000000 0.000000 
#    y 0.000000 4.308700 0.000000 
#    z 0.000000 0.000000 4.917980 
# 
# 
# High freq. dielectric constant tensor:
#      x y z
#    x 1.970810 0.000000 0.000000 
#    y 0.000000 1.980250 0.000000 
#    z 0.000000 0.000000 2.007530 
# 
# From -- ./inp_files/3526.got.cif
#   From: 2010.03.12/outbox.cif.g09.slc.cpg/sg24_2_cif.got.tgz:3526.got - 2010.04.14 03:06:53.
