data_PCOD8165915
_publ_section_title
;
Structure prediction by ZEFSAII (Michael W. Deem and Ramdas Pophale) SiO2 
 PCOD8165915
Probable space group: I 21 21 21
;
_chemical_formula_sum "Si O2"
_cell_formula_units_Z 56
_cell_length_a 18.566975
_cell_length_b 14.128107
_cell_length_c 9.522177
_cell_angle_alpha 90.000000
_cell_angle_beta 90.000000
_cell_angle_gamma 90.000000
_cell_volume 2497.821377
_symmetry_space_group_name_H-M "I 21 21 21"
_symmetry_group_IT_number 24
_symmetry_cell_setting 'orthorhombic'
loop_
_space_group_symop_operation_xyz
x,y,z
-x,1/2-y,z
x,-y,1/2-z
1/2-x,y,-z
1/2+x,1/2+y,1/2+z
1/2-x,-y,1/2+z
1/2+x,1/2-y,-z
-x,1/2+y,1/2-z
loop_
_atom_site_type_symbol
_atom_site_label
_atom_site_fract_x
_atom_site_fract_y
_atom_site_fract_z
Si Si1 0.213550 0.108243 0.260775
Si Si2 0.904307 0.399654 0.484670
Si Si3 0.408038 0.880074 0.534387
Si Si4 0.833552 0.907672 0.157351
Si Si5 0.518101 0.887272 0.759017
Si Si6 0.635630 0.292831 0.247939
Si Si7 0.673680 0.095756 0.336080
O O1 0.171673 0.122661 0.407932
O O2 0.161089 0.133054 0.132793
O O3 0.281381 0.176286 0.250668
O O4 0.240630 0.000000 0.250000
O O5 0.913235 0.510973 0.511841
O O6 0.969398 0.358895 0.391439
O O7 0.908046 0.347305 0.632295
O O8 0.480580 0.848509 0.617756
O O9 0.401275 0.813603 0.400237
O O10 0.755149 0.860881 0.170624
O O11 0.900690 0.845196 0.218507
O O12 0.828743 0.000000 0.250000
O O13 0.849520 0.930181 0.994326
O O14 0.522600 0.000000 0.750000
O O15 0.626168 0.180402 0.273052
O O16 0.662374 0.000000 0.250000
#
# Coordination Sequence:
#
# PCOD8165915 Si02
#       7
#     8   8   8   8   8   8   8
#     4   9  18  32  52  85 128 172 204 234 292 383
#     4   9  18  31  57  91 130 162 197 237 298 394
#     4   9  18  34  54  95 130 160 200 233 298 395
#     4   9  19  43  71  87 112 159 217 270 329 369
#     4   8  16  36  65  90 119 161 199 243 307 381
#     4  12  21  32  57  90 132 160 198 254 320 349
#     4  10  24  43  62  93 119 154 221 281 323 364
#
# _framework density 22.419536999999998
#
# number of rings (size 3 to 8) (size 9 to 14) (size 15 to 20)
#    0.000    2.571    0.000    3.857    4.000    2.286 
#   10.286    5.000    0.000    1.714    0.000    0.000 
#    0.000    0.000    0.000    0.000    0.000    0.000 
#
# Total GULP energy -347058.396751 kJ/mol
# GULP energy per Si atom -12394.942741 kJ/mol
# Density = 2.236851 g / cm^3
# Si number density = 22.419537 Si / 1000 Ang^3
#
#
#
# Elastic Constant Matrix: (Units=GPa)
#
#
# Indices 1 2 3 4 5 6 
#
# 1 92.1631 18.5193 42.7664 0.0000 0.0000 0.0000
# 2 18.5193 85.8561 59.8903 0.0000 0.0000 0.0000
# 3 42.7664 59.8903 171.7024 0.0000 0.0000 0.0000
# 4 0.0000 0.0000 0.0000 6.5056 0.0000 0.0000
# 5 0.0000 0.0000 0.0000 0.0000 7.9994 0.0000
# 6 0.0000 0.0000 0.0000 0.0000 0.0000 5.7752
#
#
#
# Elastic Compliance Matrix: (Units=1/GPa)
#
#
# Indices 1 2 3 4 5 6 
#
# 1 0.012298 -0.000682 -0.002825 0.000000 0.000000 0.000000
# 2 -0.000682 0.015430 -0.005212 0.000000 0.000000 0.000000
# 3 -0.002825 -0.005212 0.008346 0.000000 0.000000 0.000000
# 4 0.000000 0.000000 0.000000 0.153713 0.000000 0.000000
# 5 0.000000 0.000000 0.000000 0.000000 0.125009 0.000000
# 6 0.000000 0.000000 0.000000 0.000000 0.000000 0.173153
#
#
# Mechanical properties :
#
#
# Convention : Reuss Voigt Hill
#
# Bulk Modulus (GPa) = 53.66113 65.78597 59.72355
# Shear Modulus (GPa) = 9.77324 19.29243 14.53283
#
# Velocity S-wave (km/s) = 2.09015 2.93664 2.54878
# Velocity P-wave (km/s) = 5.46003 6.39573 5.94631
#
# Compressibility (1/GPa) = 0.01863546
#
# Stress axis : x y z
#
# Youngs Moduli (GPa) = 81.31141 64.80701 119.82045
#
# Poissons Ratio (x) = 0.04419 0.33853
# Poissons Ratio (y) = 0.05545 0.62454
# Poissons Ratio (z) = 0.22973 0.33780
#
# Static dielectric constant tensor:
#      x y z
#    x 4.704590 0.000000 0.000000 
#    y 0.000000 3.668050 0.000000 
#    z 0.000000 0.000000 4.055580 
# 
# 
# High freq. dielectric constant tensor:
#      x y z
#    x 1.878710 0.000000 0.000000 
#    y 0.000000 1.866000 0.000000 
#    z 0.000000 0.000000 1.885500 
# 
# From -- ./inp_files/15264.got.cif
#   From: 2010.03.12/outbox.cif.g09.slc.cpg/sg24_8_cif.got.tgz:15264.got - 2010.04.14 03:06:53.
