data_PCOD8165549
_publ_section_title
;
Structure prediction by ZEFSAII (Michael W. Deem and Ramdas Pophale) SiO2 
 PCOD8165549
Probable space group: I 21 21 21
;
_chemical_formula_sum "Si O2"
_cell_formula_units_Z 32
_cell_length_a 25.180909
_cell_length_b 9.093404
_cell_length_c 7.508277
_cell_angle_alpha 90.000000
_cell_angle_beta 90.000000
_cell_angle_gamma 90.000000
_cell_volume 1719.246609
_symmetry_space_group_name_H-M "I 21 21 21"
_symmetry_group_IT_number 24
_symmetry_cell_setting 'orthorhombic'
loop_
_space_group_symop_operation_xyz
x,y,z
-x,1/2-y,z
x,-y,1/2-z
1/2-x,y,-z
1/2+x,1/2+y,1/2+z
1/2-x,-y,1/2+z
1/2+x,1/2-y,-z
-x,1/2+y,1/2-z
loop_
_atom_site_type_symbol
_atom_site_label
_atom_site_fract_x
_atom_site_fract_y
_atom_site_fract_z
Si Si1 0.700179 0.369809 0.882873
Si Si2 0.441555 0.187801 0.422443
Si Si3 0.882336 0.826980 0.233564
Si Si4 0.408901 0.128655 0.033538
O O1 0.717037 0.500000 0.750000
O O2 0.677975 0.230691 0.768412
O O3 0.750000 0.318898 0.000000
O O4 0.652873 0.422313 0.015711
O O5 0.500000 0.250000 0.439185
O O6 0.401043 0.283500 0.537828
O O7 0.420088 0.203371 0.222235
O O8 0.443851 0.018527 0.488325
O O9 0.921718 0.747701 0.378294
O O10 0.884642 0.000000 0.250000
#
# Coordination Sequence:
#
# PCOD8165549 Si02
#       4
#     8   8   8   8
#     4  10  21  40  69  93 125 173 215 270 329 382
#     4  11  22  38  65  90 125 176 216 272 321 372
#     4  10  22  41  61  92 137 165 211 269 319 395
#     4   9  22  43  60  95 132 157 233 265 310 405
#
# _framework density 18.612803
#
# number of rings (size 3 to 8) (size 9 to 14) (size 15 to 20)
#    1.500    0.500    2.500    0.750    3.500    8.000 
#    0.000    3.750    0.000    0.000    0.000    0.000 
#    0.000    0.000    0.000    0.000    0.000    0.000 
#
# Total GULP energy -198282.234690 kJ/mol
# GULP energy per Si atom -12392.639668 kJ/mol
# Density = 1.857044 g / cm^3
# Si number density = 18.612803 Si / 1000 Ang^3
#
#
#
# Elastic Constant Matrix: (Units=GPa)
#
#
# Indices 1 2 3 4 5 6 
#
# 1 111.8767 36.2801 47.0991 0.0000 0.0000 0.0000
# 2 36.2801 137.5600 60.1319 0.0000 0.0000 0.0000
# 3 47.0991 60.1319 94.5665 0.0000 0.0000 0.0000
# 4 0.0000 0.0000 0.0000 27.1110 0.0000 0.0000
# 5 0.0000 0.0000 0.0000 0.0000 9.0290 0.0000
# 6 0.0000 0.0000 0.0000 0.0000 0.0000 37.3383
#
#
#
# Elastic Compliance Matrix: (Units=1/GPa)
#
#
# Indices 1 2 3 4 5 6 
#
# 1 0.011362 -0.000724 -0.005198 0.000000 0.000000 0.000000
# 2 -0.000724 0.010114 -0.006071 0.000000 0.000000 0.000000
# 3 -0.005198 -0.006071 0.017024 0.000000 0.000000 0.000000
# 4 0.000000 0.000000 0.000000 0.036885 0.000000 0.000000
# 5 0.000000 0.000000 0.000000 0.000000 0.110754 0.000000
# 6 0.000000 0.000000 0.000000 0.000000 0.000000 0.026782
#
#
# Mechanical properties :
#
#
# Convention : Reuss Voigt Hill
#
# Bulk Modulus (GPa) = 68.90150 70.11392 69.50771
# Shear Modulus (GPa) = 20.68292 28.06179 24.37236
#
# Velocity S-wave (km/s) = 3.33711 3.88707 3.62254
# Velocity P-wave (km/s) = 7.20744 7.60903 7.41095
#
# Compressibility (1/GPa) = 0.01451347
#
# Stress axis : x y z
#
# Youngs Moduli (GPa) = 88.01530 98.87066 58.74181
#
# Poissons Ratio (x) = 0.07161 0.30535
# Poissons Ratio (y) = 0.06374 0.35660
# Poissons Ratio (z) = 0.45752 0.60021
#
# Static dielectric constant tensor:
#      x y z
#    x 3.181300 0.000000 0.000000 
#    y 0.000000 3.292820 0.000000 
#    z 0.000000 0.000000 3.565960 
# 
# 
# High freq. dielectric constant tensor:
#      x y z
#    x 1.702920 0.000000 0.000000 
#    y 0.000000 1.714340 0.000000 
#    z 0.000000 0.000000 1.731620 
# 
# From -- ./inp_files/15582.got.cif
#   From: 2010.03.12/outbox.cif.g09.slc.cpg/sg24_8_cif.got.tgz:15582.got - 2010.04.14 03:06:53.
