data_PCOD8165471
_publ_section_title
;
Structure prediction by ZEFSAII (Michael W. Deem and Ramdas Pophale) SiO2 
 PCOD8165471
Probable space group: I 21 21 21
;
_chemical_formula_sum "Si O2"
_cell_formula_units_Z 56
_cell_length_a 18.101081
_cell_length_b 14.785450
_cell_length_c 9.274668
_cell_angle_alpha 90.000000
_cell_angle_beta 90.000000
_cell_angle_gamma 90.000000
_cell_volume 2482.203771
_symmetry_space_group_name_H-M "I 21 21 21"
_symmetry_group_IT_number 24
_symmetry_cell_setting 'orthorhombic'
loop_
_space_group_symop_operation_xyz
x,y,z
-x,1/2-y,z
x,-y,1/2-z
1/2-x,y,-z
1/2+x,1/2+y,1/2+z
1/2-x,-y,1/2+z
1/2+x,1/2-y,-z
-x,1/2+y,1/2-z
loop_
_atom_site_type_symbol
_atom_site_label
_atom_site_fract_x
_atom_site_fract_y
_atom_site_fract_z
Si Si1 0.215320 0.103726 0.247564
Si Si2 0.903018 0.393537 0.484233
Si Si3 0.409723 0.904208 0.515946
Si Si4 0.837563 0.911232 0.160556
Si Si5 0.515587 0.849033 0.743509
Si Si6 0.633485 0.289971 0.242374
Si Si7 0.668872 0.094844 0.324766
O O1 0.171435 0.125435 0.394115
O O2 0.160661 0.119643 0.114339
O O3 0.283329 0.171968 0.233820
O O4 0.243931 0.000000 0.250000
O O5 0.900781 0.495205 0.548510
O O6 0.975992 0.379017 0.390233
O O7 0.906332 0.322972 0.613271
O O8 0.484967 0.909518 0.611301
O O9 0.413579 0.828301 0.391784
O O10 0.754909 0.879755 0.191551
O O11 0.896738 0.843893 0.229775
O O12 0.855486 0.000000 0.250000
O O13 0.852557 0.919935 0.990541
O O14 0.500000 0.750000 0.690371
O O15 0.629226 0.180185 0.247688
O O16 0.648146 0.000000 0.250000
#
# Coordination Sequence:
#
# PCOD8165471 Si02
#       7
#     8   8   8   8   8   8   8
#     4   9  19  35  58  89 128 172 215 256 314 390
#     4  10  21  38  63  93 131 171 218 267 320 403
#     4  10  22  39  58  97 134 168 217 265 324 400
#     4  10  22  45  71  89 123 174 224 274 335 398
#     4  11  23  40  66  94 126 174 224 264 322 399
#     4  12  22  36  64  93 135 164 209 269 341 384
#     4  10  25  44  65 101 130 163 225 288 343 396
#
# _framework density 22.560596
#
# number of rings (size 3 to 8) (size 9 to 14) (size 15 to 20)
#    0.000    1.714    0.000    5.143    8.000    3.429 
#    7.714    5.000    0.000    0.000    0.000    0.000 
#    0.000    0.000    0.000    0.000    0.000    0.000 
#
# Total GULP energy -347107.243897 kJ/mol
# GULP energy per Si atom -12396.687282 kJ/mol
# Density = 2.250925 g / cm^3
# Si number density = 22.560596 Si / 1000 Ang^3
#
#
#
# Elastic Constant Matrix: (Units=GPa)
#
#
# Indices 1 2 3 4 5 6 
#
# 1 68.9752 21.2397 24.8431 0.0000 0.0000 0.0000
# 2 21.2397 129.5832 50.5810 0.0000 0.0000 0.0000
# 3 24.8431 50.5810 112.6247 0.0000 0.0000 0.0000
# 4 0.0000 0.0000 0.0000 35.8621 0.0000 0.0000
# 5 0.0000 0.0000 0.0000 0.0000 11.0565 0.0000
# 6 0.0000 0.0000 0.0000 0.0000 0.0000 27.8452
#
#
#
# Elastic Compliance Matrix: (Units=1/GPa)
#
#
# Indices 1 2 3 4 5 6 
#
# 1 0.015989 -0.001508 -0.002849 0.000000 0.000000 0.000000
# 2 -0.001508 0.009500 -0.003934 0.000000 0.000000 0.000000
# 3 -0.002849 -0.003934 0.011274 0.000000 0.000000 0.000000
# 4 0.000000 0.000000 0.000000 0.027885 0.000000 0.000000
# 5 0.000000 0.000000 0.000000 0.000000 0.090444 0.000000
# 6 0.000000 0.000000 0.000000 0.000000 0.000000 0.035913
#
#
# Mechanical properties :
#
#
# Convention : Reuss Voigt Hill
#
# Bulk Modulus (GPa) = 49.55488 56.05676 52.80582
# Shear Modulus (GPa) = 23.33026 29.25406 26.29216
#
# Velocity S-wave (km/s) = 3.21926 3.60486 3.41750
# Velocity P-wave (km/s) = 5.98590 6.49830 6.24736
#
# Compressibility (1/GPa) = 0.02017965
#
# Stress axis : x y z
#
# Youngs Moduli (GPa) = 62.54397 105.26573 88.69777
#
# Poissons Ratio (x) = 0.15879 0.25273
# Poissons Ratio (y) = 0.09435 0.34891
# Poissons Ratio (z) = 0.17821 0.41408
#
# Static dielectric constant tensor:
#      x y z
#    x 4.124670 0.000000 0.000000 
#    y 0.000000 4.069420 0.000000 
#    z 0.000000 0.000000 4.053030 
# 
# 
# High freq. dielectric constant tensor:
#      x y z
#    x 1.879030 0.000000 0.000000 
#    y 0.000000 1.891690 0.000000 
#    z 0.000000 0.000000 1.887210 
# 
# From -- ./inp_files/15263.got.cif
#   From: 2010.03.12/outbox.cif.g09.slc.cpg/sg24_8_cif.got.tgz:15263.got - 2010.04.14 03:06:53.
