data_PCOD8165398
_publ_section_title
;
Structure prediction by ZEFSAII (Michael W. Deem and Ramdas Pophale) SiO2 
 PCOD8165398
Probable space group: I 21 21 21
;
_chemical_formula_sum "Si O2"
_cell_formula_units_Z 56
_cell_length_a 17.297228
_cell_length_b 14.548854
_cell_length_c 10.850125
_cell_angle_alpha 90.000000
_cell_angle_beta 90.000000
_cell_angle_gamma 90.000000
_cell_volume 2730.486523
_symmetry_space_group_name_H-M "I 21 21 21"
_symmetry_group_IT_number 24
_symmetry_cell_setting 'orthorhombic'
loop_
_space_group_symop_operation_xyz
x,y,z
-x,1/2-y,z
x,-y,1/2-z
1/2-x,y,-z
1/2+x,1/2+y,1/2+z
1/2-x,-y,1/2+z
1/2+x,1/2-y,-z
-x,1/2+y,1/2-z
loop_
_atom_site_type_symbol
_atom_site_label
_atom_site_fract_x
_atom_site_fract_y
_atom_site_fract_z
Si Si1 0.116393 0.884855 0.621157
Si Si2 0.052906 0.447229 0.880799
Si Si3 0.021370 0.447305 0.372880
Si Si4 0.080714 0.715119 0.263861
Si Si5 0.852335 0.619039 0.126788
Si Si6 0.183283 0.917016 0.871526
Si Si7 0.839439 0.193185 0.991094
O O1 0.134177 0.869940 0.764672
O O2 0.148151 0.800863 0.539808
O O3 0.024642 0.888103 0.607366
O O4 0.154939 0.981943 0.584742
O O5 0.058073 0.500000 0.750000
O O6 0.123100 0.374349 0.889006
O O7 0.054847 0.515768 0.998232
O O8 0.048530 0.500000 0.250000
O O9 0.059543 0.347470 0.354273
O O10 0.927609 0.446542 0.372853
O O11 0.135739 0.794976 0.214998
O O12 0.123965 0.666475 0.376819
O O13 0.000000 0.750000 0.321097
O O14 0.772681 0.570740 0.170780
O O15 0.833398 0.650012 0.986478
O O16 0.750000 0.170298 0.000000
#
# Coordination Sequence:
#
# PCOD8165398 Si02
#       7
#     8   8   8   8   8   8   8
#     4  11  22  40  65  94 139 167 217 280 340 409
#     4  12  24  47  69  99 131 183 236 273 335 408
#     4  11  22  39  67  91 131 173 226 272 322 399
#     4  10  22  42  63  97 129 168 224 273 335 397
#     4  10  21  35  63  96 134 171 212 266 343 403
#     4  10  21  38  60 101 137 170 211 267 347 421
#     4  12  27  43  65  99 132 175 225 283 343 393
#
# _framework density 20.509163999999998
#
# number of rings (size 3 to 8) (size 9 to 14) (size 15 to 20)
#    0.000    1.143    4.286    2.143    6.000    1.143 
#    2.571    2.857    0.000    0.000    0.000    0.000 
#    0.000    0.000    0.000    0.000    0.000    0.000 
#
# Total GULP energy -346997.808859 kJ/mol
# GULP energy per Si atom -12392.778888 kJ/mol
# Density = 2.046248 g / cm^3
# Si number density = 20.509164 Si / 1000 Ang^3
#
#
#
# Elastic Constant Matrix: (Units=GPa)
#
#
# Indices 1 2 3 4 5 6 
#
# 1 145.7833 52.9948 33.7869 0.0000 0.0000 0.0000
# 2 52.9948 66.6206 31.7663 0.0000 0.0000 0.0000
# 3 33.7869 31.7663 121.1788 0.0000 0.0000 0.0000
# 4 0.0000 0.0000 0.0000 26.5798 0.0000 0.0000
# 5 0.0000 0.0000 0.0000 0.0000 36.5581 0.0000
# 6 0.0000 0.0000 0.0000 0.0000 0.0000 28.0075
#
#
#
# Elastic Compliance Matrix: (Units=1/GPa)
#
#
# Indices 1 2 3 4 5 6 
#
# 1 0.009714 -0.007355 -0.000780 0.000000 0.000000 0.000000
# 2 -0.007355 0.022724 -0.003906 0.000000 0.000000 0.000000
# 3 -0.000780 -0.003906 0.009494 0.000000 0.000000 0.000000
# 4 0.000000 0.000000 0.000000 0.037623 0.000000 0.000000
# 5 0.000000 0.000000 0.000000 0.000000 0.027354 0.000000
# 6 0.000000 0.000000 0.000000 0.000000 0.000000 0.035705
#
#
# Mechanical properties :
#
#
# Convention : Reuss Voigt Hill
#
# Bulk Modulus (GPa) = 56.02770 63.40873 59.71821
# Shear Modulus (GPa) = 28.96107 32.56471 30.76289
#
# Velocity S-wave (km/s) = 3.76187 3.98906 3.87713
# Velocity P-wave (km/s) = 6.80049 7.22504 7.01597
#
# Compressibility (1/GPa) = 0.01784832
#
# Stress axis : x y z
#
# Youngs Moduli (GPa) = 102.94326 44.00682 105.33172
#
# Poissons Ratio (x) = 0.32368 0.08220
# Poissons Ratio (y) = 0.75717 0.41144
# Poissons Ratio (z) = 0.08033 0.17190
#
# Static dielectric constant tensor:
#      x y z
#    x 3.799250 0.000000 0.000000 
#    y 0.000000 3.516650 0.000000 
#    z 0.000000 0.000000 3.812070 
# 
# 
# High freq. dielectric constant tensor:
#      x y z
#    x 1.804440 0.000000 0.000000 
#    y 0.000000 1.779130 0.000000 
#    z 0.000000 0.000000 1.814910 
# 
# From -- ./inp_files/20843.got.cif
#   From: 2010.03.12/outbox.cif.g09.slc.cpg/sg24_11_cif.got.tgz:20843.got - 2010.04.14 03:06:53.
