data_PCOD8165991
_publ_section_title
;
Structure prediction by ZEFSAII (Michael W. Deem and Ramdas Pophale) SiO2 
 PCOD8165991
Probable space group: I 21 21 21
;
_chemical_formula_sum "Si O2"
_cell_formula_units_Z 32
_cell_length_a 5.487317
_cell_length_b 19.987212
_cell_length_c 11.618562
_cell_angle_alpha 90.000000
_cell_angle_beta 90.000000
_cell_angle_gamma 90.000000
_cell_volume 1274.279360
_symmetry_space_group_name_H-M "I 21 21 21"
_symmetry_group_IT_number 24
_symmetry_cell_setting 'orthorhombic'
loop_
_space_group_symop_operation_xyz
x,y,z
-x,1/2-y,z
x,-y,1/2-z
1/2-x,y,-z
1/2+x,1/2+y,1/2+z
1/2-x,-y,1/2+z
1/2+x,1/2-y,-z
-x,1/2+y,1/2-z
loop_
_atom_site_type_symbol
_atom_site_label
_atom_site_fract_x
_atom_site_fract_y
_atom_site_fract_z
Si Si1 0.750000 0.791309 0.000000
Si Si2 0.428681 0.577091 0.599956
Si Si3 0.800894 0.704424 0.380946
Si Si4 0.742848 0.500000 0.250000
Si Si5 0.933900 0.131257 0.722080
O O1 0.500000 0.750000 0.967185
O O2 0.837714 0.838709 0.896490
O O3 0.250000 0.551706 0.500000
O O4 0.599839 0.636641 0.559720
O O5 0.592489 0.514722 0.638262
O O6 0.300584 0.607851 0.710651
O O7 0.750000 0.746602 0.500000
O O8 0.577864 0.688971 0.294202
O O9 0.000000 0.750000 0.311783
O O10 0.593544 0.564350 0.207228
#
# Coordination Sequence:
#
# PCOD8165991 Si02
#       5
#     4   8   8   4   8
#     4  12  34  58  86 122 178 242 290 352 428 532
#     4  11  23  47  76 114 153 205 271 353 430 509
#     4  11  24  41  76 118 156 201 261 346 432 504
#     4  10  26  50  80 118 158 212 278 356 432 518
#     4  11  27  54  76 116 159 220 280 352 420 519
#
# _framework density 25.112233
#
# number of rings (size 3 to 8) (size 9 to 14) (size 15 to 20)
#    0.000    1.000    2.500    1.500   10.500    0.000 
#   13.500    0.000    0.000    0.000    0.000    0.000 
#    0.000    0.000    0.000    0.000    0.000    0.000 
#
# Total GULP energy -198219.941302 kJ/mol
# GULP energy per Si atom -12388.746331 kJ/mol
# Density = 2.505508 g / cm^3
# Si number density = 25.112233 Si / 1000 Ang^3
#
#
#
# Elastic Constant Matrix: (Units=GPa)
#
#
# Indices 1 2 3 4 5 6 
#
# 1 146.8809 53.8495 73.1085 0.0000 0.0000 0.0000
# 2 53.8495 120.2350 69.9872 -0.0002 0.0000 0.0000
# 3 73.1085 69.9872 181.2726 -0.0005 0.0001 0.0003
# 4 0.0000 -0.0002 -0.0005 13.2213 0.0000 0.0000
# 5 0.0000 0.0000 0.0001 0.0000 58.4578 0.0000
# 6 0.0000 0.0000 0.0003 0.0000 0.0000 -25.3716
#
#
#
# Elastic Compliance Matrix: (Units=1/GPa)
#
#
# Indices 1 2 3 4 5 6 
#
# 1 0.009062 -0.002491 -0.002693 0.000000 0.000000 0.000000
# 2 -0.002491 0.011413 -0.003402 0.000000 0.000000 0.000000
# 3 -0.002693 -0.003402 0.007916 0.000000 0.000000 0.000000
# 4 0.000000 0.000000 0.000000 0.075636 0.000000 0.000000
# 5 0.000000 0.000000 0.000000 0.000000 0.017106 0.000000
# 6 0.000000 0.000000 0.000000 0.000000 0.000000 -0.039414
#
#
# Mechanical properties :
#
#
# Convention : Reuss Voigt Hill
#
# Bulk Modulus (GPa) = 89.13196 93.58656 91.35926
# Shear Modulus (GPa) = 48.71885 26.02438 37.37161
#
# Velocity S-wave (km/s) = 4.40937 3.22269 3.86188
# Velocity P-wave (km/s) = 7.84181 7.15513 7.50632
#
# Compressibility (1/GPa) = 0.01121932
#
# Stress axis : x y z
#
# Youngs Moduli (GPa) = 110.35229 87.62117 126.32623
#
# Poissons Ratio (x) = 0.21826 0.34019
# Poissons Ratio (y) = 0.27489 0.42972
# Poissons Ratio (z) = 0.29718 0.29806
#
# Static dielectric constant tensor:
#      x y z
#    x 5.404950 0.000000 0.000000 
#    y 0.000000 4.716610 0.000000 
#    z 0.000000 0.000000 4.346140 
# 
# 
# High freq. dielectric constant tensor:
#      x y z
#    x 2.031810 0.000000 0.000000 
#    y 0.000000 2.007830 0.000000 
#    z 0.000000 0.000000 1.994700 
# 
# From -- ./inp_files/17394.got.cif
#   From: 2010.03.12/outbox.cif.g09.slc.cpg/sg24_9_cif.got.tgz:17394.got - 2010.04.14 03:06:53.
