data_PCOD8165458
_publ_section_title
;
Structure prediction by ZEFSAII (Michael W. Deem and Ramdas Pophale) SiO2 
 PCOD8165458
Probable space group: I 21 21 21
;
_chemical_formula_sum "Si O2"
_cell_formula_units_Z 64
_cell_length_a 15.024106
_cell_length_b 23.730300
_cell_length_c 8.805686
_cell_angle_alpha 90.000000
_cell_angle_beta 90.000000
_cell_angle_gamma 90.000000
_cell_volume 3139.460785
_symmetry_space_group_name_H-M "I 21 21 21"
_symmetry_group_IT_number 24
_symmetry_cell_setting 'orthorhombic'
loop_
_space_group_symop_operation_xyz
x,y,z
-x,1/2-y,z
x,-y,1/2-z
1/2-x,y,-z
1/2+x,1/2+y,1/2+z
1/2-x,-y,1/2+z
1/2+x,1/2-y,-z
-x,1/2+y,1/2-z
loop_
_atom_site_type_symbol
_atom_site_label
_atom_site_fract_x
_atom_site_fract_y
_atom_site_fract_z
Si Si1 0.252410 0.742614 0.227732
Si Si2 0.902334 0.222656 0.494309
Si Si3 0.591663 0.438639 0.811474
Si Si4 0.254814 0.867334 0.327575
Si Si5 0.919176 0.098343 0.366642
Si Si6 0.243532 0.377726 0.170340
Si Si7 0.100403 0.439856 0.687382
Si Si8 0.085376 0.059549 0.825031
O O1 0.165922 0.752373 0.122190
O O2 0.261735 0.800281 0.318658
O O3 0.230589 0.689877 0.336462
O O4 0.347420 0.728003 0.150568
O O5 0.920156 0.158991 0.445666
O O6 0.000000 0.250000 0.504707
O O7 0.616341 0.500000 0.750000
O O8 0.667454 0.395115 0.753223
O O9 0.503966 0.414312 0.734690
O O10 0.581053 0.442598 0.992727
O O11 0.250000 0.886237 0.500000
O O12 0.343889 0.895394 0.260033
O O13 0.837478 0.091386 0.252666
O O14 0.910573 0.054075 0.505129
O O15 0.329560 0.392054 0.269637
O O16 0.250000 0.401329 0.000000
O O17 0.132225 0.500000 0.750000
O O18 0.009050 0.419931 0.763581
O O19 0.110623 0.000000 0.750000
#
# Coordination Sequence:
#
# PCOD8165458 Si02
#       8
#     8   8   8   8   8   8   8   8
#     4  10  21  39  59  92 124 160 209 256 308 377
#     4  10  21  38  61  90 126 161 204 258 314 368
#     4  11  22  40  63  92 126 167 211 260 314 372
#     4  10  22  39  62  89 127 169 210 255 313 376
#     4  11  23  41  64  88 127 159 204 259 313 368
#     4  11  23  40  63  90 123 161 201 254 313 368
#     4  11  23  40  61  88 120 159 204 257 311 374
#     4  10  22  41  60  90 128 165 211 261 310 372
#
# _framework density 20.385666000000001
#
# number of rings (size 3 to 8) (size 9 to 14) (size 15 to 20)
#    0.000    1.500    1.250    4.125    1.750    1.500 
#    4.500    0.000    0.000    6.000    0.000    0.000 
#    0.000    0.000    0.000    0.000    0.000    0.000 
#
# Total GULP energy -396684.286210 kJ/mol
# GULP energy per Si atom -12396.383944 kJ/mol
# Density = 2.033927 g / cm^3
# Si number density = 20.385666 Si / 1000 Ang^3
#
#
#
# Elastic Constant Matrix: (Units=GPa)
#
#
# Indices 1 2 3 4 5 6 
#
# 1 139.6496 54.5339 48.3354 -0.0005 -0.0004 -0.0003
# 2 54.5339 99.1921 26.4235 -0.0012 -0.0013 -0.0009
# 3 48.3354 26.4235 115.5366 -0.0056 -0.0024 -0.0032
# 4 -0.0005 -0.0012 -0.0056 30.7477 -0.0013 -0.0009
# 5 -0.0004 -0.0013 -0.0024 -0.0013 9.7312 -0.0002
# 6 -0.0003 -0.0009 -0.0032 -0.0009 -0.0002 17.3255
#
#
#
# Elastic Compliance Matrix: (Units=1/GPa)
#
#
# Indices 1 2 3 4 5 6 
#
# 1 0.010087 -0.004709 -0.003143 -0.000001 -0.000001 -0.000001
# 2 -0.004709 0.012933 -0.000988 0.000000 0.000001 0.000000
# 3 -0.003143 -0.000988 0.010196 0.000002 0.000002 0.000002
# 4 -0.000001 0.000000 0.000002 0.032523 0.000004 0.000002
# 5 -0.000001 0.000001 0.000002 0.000004 0.102762 0.000001
# 6 -0.000001 0.000000 0.000002 0.000002 0.000001 0.057719
#
#
# Mechanical properties :
#
#
# Convention : Reuss Voigt Hill
#
# Bulk Modulus (GPa) = 64.36135 68.10708 66.23421
# Shear Modulus (GPa) = 20.07391 26.56656 23.32024
#
# Velocity S-wave (km/s) = 3.14141 3.61390 3.38591
# Velocity P-wave (km/s) = 6.69316 7.13411 6.91715
#
# Compressibility (1/GPa) = 0.01553728
#
# Stress axis : x y z
#
# Youngs Moduli (GPa) = 99.13312 77.31965 98.07534
#
# Poissons Ratio (x) = 0.36406 0.30828
# Poissons Ratio (y) = 0.46677 0.09690
# Poissons Ratio (z) = 0.31160 0.07639
#
# Static dielectric constant tensor:
#      x y z
#    x 3.928330 0.000000 0.000000 
#    y 0.000000 3.576000 0.000000 
#    z 0.000000 0.000000 3.657950 
# 
# 
# High freq. dielectric constant tensor:
#      x y z
#    x 1.810530 0.000000 0.000000 
#    y 0.000000 1.798670 0.000000 
#    z 0.000000 0.000000 1.795000 
# 
# From -- ./inp_files/13363.got.cif
#   From: 2010.03.12/outbox.cif.g09.slc.cpg/sg24_7_cif.got.tgz:13363.got - 2010.04.14 03:06:53.
