data_PCOD8165302
_publ_section_title
;
Structure prediction by ZEFSAII (Michael W. Deem and Ramdas Pophale) SiO2 
 PCOD8165302
Probable space group: I 21 21 21
;
_chemical_formula_sum "Si O2"
_cell_formula_units_Z 36
_cell_length_a 27.224016
_cell_length_b 10.939541
_cell_length_c 5.085569
_cell_angle_alpha 90.000000
_cell_angle_beta 90.000000
_cell_angle_gamma 90.000000
_cell_volume 1514.575205
_symmetry_space_group_name_H-M "I 21 21 21"
_symmetry_group_IT_number 24
_symmetry_cell_setting 'orthorhombic'
loop_
_space_group_symop_operation_xyz
x,y,z
-x,1/2-y,z
x,-y,1/2-z
1/2-x,y,-z
1/2+x,1/2+y,1/2+z
1/2-x,-y,1/2+z
1/2+x,1/2-y,-z
-x,1/2+y,1/2-z
loop_
_atom_site_type_symbol
_atom_site_label
_atom_site_fract_x
_atom_site_fract_y
_atom_site_fract_z
Si Si1 0.409370 0.500000 0.750000
Si Si2 0.500000 0.250000 0.480112
Si Si3 0.664417 0.739542 0.308586
Si Si4 0.750000 0.426396 0.000000
Si Si5 0.027209 0.500000 0.750000
Si Si6 0.107801 0.753587 0.188377
Si Si7 0.784956 0.000000 0.750000
O O1 0.441810 0.540799 0.501383
O O2 0.375165 0.611811 0.833227
O O3 0.503040 0.375834 0.312745
O O4 0.548838 0.256837 0.658801
O O5 0.711194 0.658763 0.358624
O O6 0.623845 0.701837 0.526423
O O7 0.679912 0.882280 0.302199
O O8 0.639155 0.686065 0.044403
O O9 0.772433 0.500000 0.250000
O O10 0.750000 0.025227 0.500000
#
# Coordination Sequence:
#
# PCOD8165302 Si02
#       7
#     4   4   8   4   4   8   4
#     4  10  20  39  66 100 141 184 221 280 363 422
#     4  10  24  46  68 104 146 194 232 296 348 422
#     4  12  25  45  73 109 137 182 237 292 362 422
#     4  12  28  52  74  94 146 196 240 292 362 430
#     4  10  22  39  68  94 137 194 243 280 353 408
#     4  11  23  41  71 104 142 183 231 288 346 430
#     4  12  24  42  76 112 146 168 226 308 368 432
#
# _framework density 23.769041000000001
#
# number of rings (size 3 to 8) (size 9 to 14) (size 15 to 20)
#    0.000    0.889    1.111    6.667    1.556    8.889 
#    6.000    0.000    0.000    0.000    0.000    0.000 
#    0.000    0.000    0.000    0.000    0.000    0.000 
#
# Total GULP energy -222999.218790 kJ/mol
# GULP energy per Si atom -12388.845488 kJ/mol
# Density = 2.371494 g / cm^3
# Si number density = 23.769041 Si / 1000 Ang^3
#
#
#
# Elastic Constant Matrix: (Units=GPa)
#
#
# Indices 1 2 3 4 5 6 
#
# 1 119.9012 17.4199 54.7668 0.0001 0.0002 0.0000
# 2 17.4199 98.2210 25.4854 0.0002 0.0001 -0.0001
# 3 54.7668 25.4854 170.1278 0.0004 0.0004 0.0008
# 4 0.0001 0.0002 0.0004 24.8910 0.0002 -0.0002
# 5 0.0002 0.0001 0.0004 0.0002 39.0190 0.0002
# 6 0.0000 -0.0001 0.0008 -0.0002 0.0002 37.2277
#
#
#
# Elastic Compliance Matrix: (Units=1/GPa)
#
#
# Indices 1 2 3 4 5 6 
#
# 1 0.009865 -0.000963 -0.003031 0.000000 0.000000 0.000000
# 2 -0.000963 0.010687 -0.001291 0.000000 0.000000 0.000000
# 3 -0.003031 -0.001291 0.007047 0.000000 0.000000 0.000000
# 4 0.000000 0.000000 0.000000 0.040175 0.000000 0.000000
# 5 0.000000 0.000000 0.000000 0.000000 0.025629 0.000000
# 6 0.000000 0.000000 0.000000 0.000000 0.000000 0.026862
#
#
# Mechanical properties :
#
#
# Convention : Reuss Voigt Hill
#
# Bulk Modulus (GPa) = 58.72602 64.84381 61.78491
# Shear Modulus (GPa) = 36.62713 39.59938 38.11325
#
# Velocity S-wave (km/s) = 3.92976 4.08610 4.00870
# Velocity P-wave (km/s) = 6.73434 7.04284 6.89032
#
# Compressibility (1/GPa) = 0.01702823
#
# Stress axis : x y z
#
# Youngs Moduli (GPa) = 101.37128 93.57279 141.90123
#
# Poissons Ratio (x) = 0.09011 0.43015
# Poissons Ratio (y) = 0.09762 0.18318
# Poissons Ratio (z) = 0.30729 0.12079
#
# Static dielectric constant tensor:
#      x y z
#    x 4.109810 0.000000 0.000000 
#    y 0.000000 4.439310 0.000000 
#    z 0.000000 0.000000 4.575750 
# 
# 
# High freq. dielectric constant tensor:
#      x y z
#    x 1.933840 0.000000 0.000000 
#    y 0.000000 1.935220 0.000000 
#    z 0.000000 0.000000 1.967460 
# 
# From -- ./inp_files/6234.got.cif
#   From: 2010.03.12/outbox.cif.g09.slc.cpg/sg24_4_cif.got.tgz:6234.got - 2010.04.14 03:06:53.
