data_PCOD8165956
_publ_section_title
;
Structure prediction by ZEFSAII (Michael W. Deem and Ramdas Pophale) SiO2 
 PCOD8165956
Probable space group: I 21 21 21
;
_chemical_formula_sum "Si O2"
_cell_formula_units_Z 20
_cell_length_a 5.423802
_cell_length_b 29.930113
_cell_length_c 4.899491
_cell_angle_alpha 90.000000
_cell_angle_beta 90.000000
_cell_angle_gamma 90.000000
_cell_volume 795.358905
_symmetry_space_group_name_H-M "I 21 21 21"
_symmetry_group_IT_number 24
_symmetry_cell_setting 'orthorhombic'
loop_
_space_group_symop_operation_xyz
x,y,z
-x,1/2-y,z
x,-y,1/2-z
1/2-x,y,-z
1/2+x,1/2+y,1/2+z
1/2-x,-y,1/2+z
1/2+x,1/2-y,-z
-x,1/2+y,1/2-z
loop_
_atom_site_type_symbol
_atom_site_label
_atom_site_fract_x
_atom_site_fract_y
_atom_site_fract_z
Si Si1 0.399222 0.500000 0.750000
Si Si2 0.001241 0.300339 0.167523
Si Si3 0.250000 0.867420 0.000000
Si Si4 0.250000 0.072440 0.000000
O O1 0.250000 0.478261 0.500000
O O2 0.541677 0.541047 0.620359
O O3 0.982592 0.335881 0.414644
O O4 0.000000 0.250000 0.287127
O O5 0.750000 0.308078 0.000000
O O6 0.250000 0.309706 0.000000
O O7 0.150827 0.897235 0.747800
#
# Coordination Sequence:
#
# PCOD8165956 Si02
#       4
#     4   8   4   4
#     4  12  26  52  84 112 154 212 254 326 410 496
#     4  10  24  49  79 112 162 224 275 330 401 471
#     4  12  25  50  76 120 160 214 266 348 383 484
#     4  12  27  52  80 118 162 198 270 328 407 478
#
# _framework density 25.145880999999999
#
# number of rings (size 3 to 8) (size 9 to 14) (size 15 to 20)
#    0.000    0.800    2.000    4.800    0.000    8.000 
#   14.400    0.000    0.000    0.000    0.000    0.000 
#    0.000    0.000    0.000    0.000    0.000    0.000 
#
# Total GULP energy -123956.181127 kJ/mol
# GULP energy per Si atom -12395.618113 kJ/mol
# Density = 2.508865 g / cm^3
# Si number density = 25.145881 Si / 1000 Ang^3
#
#
#
# Elastic Constant Matrix: (Units=GPa)
#
#
# Indices 1 2 3 4 5 6 
#
# 1 167.2163 77.1921 88.1846 -0.0056 0.0019 -0.0009
# 2 77.1921 213.2784 119.8243 -0.0029 -0.0155 0.0617
# 3 88.1846 119.8243 213.6010 0.0508 -0.0240 0.1156
# 4 -0.0056 -0.0029 0.0508 -2.0865 -0.0123 0.0288
# 5 0.0019 -0.0155 -0.0240 -0.0123 48.5279 0.0356
# 6 -0.0009 0.0617 0.1156 0.0288 0.0356 22.0404
#
#
#
# Elastic Compliance Matrix: (Units=1/GPa)
#
#
# Indices 1 2 3 4 5 6 
#
# 1 0.007965 -0.001512 -0.002440 -0.000078 -0.000002 0.000017
# 2 -0.001512 0.007133 -0.003377 -0.000088 0.000001 -0.000002
# 3 -0.002440 -0.003377 0.007584 0.000195 0.000003 -0.000031
# 4 -0.000078 -0.000088 0.000195 -0.479252 -0.000122 0.000625
# 5 -0.000002 0.000001 0.000003 -0.000122 0.020607 -0.000033
# 6 0.000017 -0.000002 -0.000031 0.000625 -0.000033 0.045371
#
#
# Mechanical properties :
#
#
# Convention : Reuss Voigt Hill
#
# Bulk Modulus (GPa) = 124.64007 129.38863 127.01435
# Shear Modulus (GPa) = -13.39552 34.28933 10.44691
#
# Velocity S-wave (km/s) = -2.31056 3.69672 2.04048
# Velocity P-wave (km/s) = 6.52351 8.35392 7.49480
#
# Compressibility (1/GPa) = 0.00802310
#
# Stress axis : x y z
#
# Youngs Moduli (GPa) = 125.54767 140.18514 131.86133
#
# Poissons Ratio (x) = 0.21194 0.32178
# Poissons Ratio (y) = 0.18981 0.44536
# Poissons Ratio (z) = 0.30637 0.47347
#
# Static dielectric constant tensor:
#      x y z
#    x 4.496010 -0.000060 -0.000350 
#    y -0.000060 5.014120 0.000030 
#    z -0.000350 0.000030 4.750470 
# 
# 
# High freq. dielectric constant tensor:
#      x y z
#    x 1.987090 0.000000 0.000000 
#    y 0.000000 2.025730 0.000000 
#    z 0.000000 0.000000 2.019060 
# 
# From -- ./inp_files/416.got.cif
#   From: 2010.03.12/outbox.cif.g09.slc.cpg/sg24_1_cif.got.tgz:416.got - 2010.04.14 03:06:53.
