data_PCOD8165715
_publ_section_title
;
Structure prediction by ZEFSAII (Michael W. Deem and Ramdas Pophale) SiO2 
 PCOD8165715
Probable space group: I 21 21 21
;
_chemical_formula_sum "Si O2"
_cell_formula_units_Z 64
_cell_length_a 9.840516
_cell_length_b 20.992843
_cell_length_c 15.278980
_cell_angle_alpha 90.000000
_cell_angle_beta 90.000000
_cell_angle_gamma 90.000000
_cell_volume 3156.337913
_symmetry_space_group_name_H-M "I 21 21 21"
_symmetry_group_IT_number 24
_symmetry_cell_setting 'orthorhombic'
loop_
_space_group_symop_operation_xyz
x,y,z
-x,1/2-y,z
x,-y,1/2-z
1/2-x,y,-z
1/2+x,1/2+y,1/2+z
1/2-x,-y,1/2+z
1/2+x,1/2-y,-z
-x,1/2+y,1/2-z
loop_
_atom_site_type_symbol
_atom_site_label
_atom_site_fract_x
_atom_site_fract_y
_atom_site_fract_z
Si Si1 0.798993 0.327907 0.763331
Si Si2 0.363408 0.498207 0.057211
Si Si3 0.869250 0.295798 0.566059
Si Si4 0.607684 0.569580 0.979855
Si Si5 0.083029 0.926932 0.218182
Si Si6 0.345489 0.265835 0.081997
Si Si7 0.224132 0.566090 0.200651
Si Si8 0.923482 0.114437 0.825840
O O1 0.815120 0.297866 0.666367
O O2 0.670778 0.376118 0.774138
O O3 0.785803 0.271410 0.833853
O O4 0.929952 0.367711 0.791147
O O5 0.274318 0.555505 0.100930
O O6 0.434261 0.454702 0.129756
O O7 0.250000 0.460401 0.000000
O O8 0.481716 0.523183 0.994238
O O9 0.750000 0.271055 0.500000
O O10 0.912390 0.366610 0.536635
O O11 0.000000 0.250000 0.559092
O O12 0.631086 0.584960 0.879331
O O13 0.750000 0.534301 0.000000
O O14 0.925714 0.906491 0.216100
O O15 0.105141 0.000000 0.250000
O O16 0.500000 0.250000 0.057378
O O17 0.351365 0.340156 0.104035
O O18 0.250000 0.251372 0.000000
O O19 0.234630 0.500000 0.250000
O O20 0.328085 0.616185 0.241163
#
# Coordination Sequence:
#
# PCOD8165715 Si02
#       8
#     8   8   8   8   8   8   8   8
#     4  11  23  44  65  92 127 172 216 271 326 389
#     4  11  21  37  62  93 129 164 212 269 328 395
#     4  11  23  44  66  91 130 170 219 270 320 385
#     4  11  23  41  61  93 130 167 213 267 318 390
#     4  11  23  41  61  91 135 165 206 269 324 383
#     4  10  23  45  65  92 126 164 219 275 323 391
#     4   9  20  37  57  89 122 164 210 258 319 386
#     4  10  22  40  65  89 121 172 217 257 331 395
#
# _framework density 20.276662000000002
#
# number of rings (size 3 to 8) (size 9 to 14) (size 15 to 20)
#    0.000    1.500    3.750    2.250    1.750    2.000 
#    9.000    0.625    0.000    0.000    0.000    0.000 
#    0.000    0.000    0.000    0.000    0.000    0.000 
#
# Total GULP energy -396530.627040 kJ/mol
# GULP energy per Si atom -12391.582095 kJ/mol
# Density = 2.023051 g / cm^3
# Si number density = 20.276662 Si / 1000 Ang^3
#
#
#
# Elastic Constant Matrix: (Units=GPa)
#
#
# Indices 1 2 3 4 5 6 
#
# 1 121.5407 41.0196 36.6520 -0.0002 0.0000 -0.0001
# 2 41.0196 52.0064 19.4835 -0.0012 0.0000 0.0001
# 3 36.6520 19.4835 111.9824 -0.0049 0.0000 0.0000
# 4 -0.0002 -0.0012 -0.0049-1953.8595 -0.0001 0.0183
# 5 0.0000 0.0000 0.0000 -0.0001 38.6817 0.0000
# 6 -0.0001 0.0001 0.0000 0.0183 0.0000 -68.9024
#
#
#
# Elastic Compliance Matrix: (Units=1/GPa)
#
#
# Indices 1 2 3 4 5 6 
#
# 1 0.011784 -0.008397 -0.002396 0.000000 0.000000 0.000000
# 2 -0.008397 0.026553 -0.001871 0.000000 0.000000 0.000000
# 3 -0.002396 -0.001871 0.010040 0.000000 0.000000 0.000000
# 4 0.000000 0.000000 0.000000 -0.000512 0.000000 0.000000
# 5 0.000000 0.000000 0.000000 0.000000 0.025852 0.000000
# 6 0.000000 0.000000 0.000000 0.000000 0.000000 -0.014513
#
#
# Mechanical properties :
#
#
# Convention : Reuss Voigt Hill
#
# Bulk Modulus (GPa) = 43.38848 53.31553 48.35200
# Shear Modulus (GPa) = 54.22105 -384.25773 -165.01834
#
# Velocity S-wave (km/s) = 5.17674 -13.78110 -9.03106
# Velocity P-wave (km/s) = 7.56150 15.06234 9.21134
#
# Compressibility (1/GPa) = 0.02304759
#
# Stress axis : x y z
#
# Youngs Moduli (GPa) = 84.85927 37.66110 99.60360
#
# Poissons Ratio (x) = 0.31624 0.23865
# Poissons Ratio (y) = 0.71257 0.18640
# Poissons Ratio (z) = 0.20332 0.07048
#
# Static dielectric constant tensor:
#      x y z
#    x 29.189200 0.000000 0.000040 
#    y 0.000000 3.515330 0.000000 
#    z 0.000040 0.000000 3.832500 
# 
# 
# High freq. dielectric constant tensor:
#      x y z
#    x 1.806650 0.000000 0.000000 
#    y 0.000000 1.771890 0.000000 
#    z 0.000000 0.000000 1.802970 
# 
# From -- ./inp_files/25222.got.cif
#   From: 2010.03.12/outbox.cif.g09.slc.cpg/sg24_13_cif.got.tgz:25222.got - 2010.04.14 03:06:53.
