data_PCOD8165592
_publ_section_title
;
Structure prediction by ZEFSAII (Michael W. Deem and Ramdas Pophale) SiO2 
 PCOD8165592
Probable space group: I 21 21 21
;
_chemical_formula_sum "Si O2"
_cell_formula_units_Z 56
_cell_length_a 14.751234
_cell_length_b 8.924413
_cell_length_c 19.797511
_cell_angle_alpha 90.000000
_cell_angle_beta 90.000000
_cell_angle_gamma 90.000000
_cell_volume 2606.265201
_symmetry_space_group_name_H-M "I 21 21 21"
_symmetry_group_IT_number 24
_symmetry_cell_setting 'orthorhombic'
loop_
_space_group_symop_operation_xyz
x,y,z
-x,1/2-y,z
x,-y,1/2-z
1/2-x,y,-z
1/2+x,1/2+y,1/2+z
1/2-x,-y,1/2+z
1/2+x,1/2-y,-z
-x,1/2+y,1/2-z
loop_
_atom_site_type_symbol
_atom_site_label
_atom_site_fract_x
_atom_site_fract_y
_atom_site_fract_z
Si Si1 0.163387 0.051942 0.464542
Si Si2 0.539714 0.414002 0.179123
Si Si3 0.873883 0.500000 0.250000
Si Si4 0.747886 0.374703 0.145625
Si Si5 0.000000 0.250000 0.213967
Si Si6 0.164627 0.574468 0.323279
Si Si7 0.494563 0.426451 0.451661
Si Si8 0.836453 0.876471 0.047494
O O1 0.250000 0.123870 0.500000
O O2 0.131040 0.208243 0.429280
O O3 0.085009 0.000329 0.515615
O O4 0.204916 0.906111 0.426633
O O5 0.500000 0.250000 0.190872
O O6 0.532438 0.500000 0.250000
O O7 0.643074 0.415369 0.152475
O O8 0.479707 0.494422 0.121062
O O9 0.808476 0.493007 0.186577
O O10 0.936173 0.353104 0.260482
O O11 0.760662 0.205006 0.170044
O O12 0.936436 0.144432 0.167694
O O13 0.175923 0.500000 0.250000
O O14 0.182120 0.457176 0.381827
O O15 0.500000 0.250000 0.436957
O O16 0.414557 0.459857 0.504312
O O17 0.750000 0.890301 0.000000
#
# Coordination Sequence:
#
# PCOD8165592 Si02
#       8
#     8   8   4   8   4   8   8   8
#     4  10  21  42  71  98 130 180 231 277 338 412
#     4  12  27  47  70 101 134 184 237 293 344 405
#     4  10  22  40  64  94 138 170 220 274 342 408
#     4  11  25  42  68 100 134 183 224 285 346 401
#     4  10  22  40  62  98 130 180 218 266 344 402
#     4  11  26  44  64 102 141 178 222 280 344 409
#     4  10  23  46  71  99 135 184 230 284 348 413
#     4  10  25  44  68 101 140 179 226 282 341 414
#
# _framework density 21.486685000000001
#
# number of rings (size 3 to 8) (size 9 to 14) (size 15 to 20)
#    0.000    1.429    2.857    0.429   10.000    2.286 
#    2.571    0.000    0.000    0.000    0.000    0.000 
#    0.000    0.000    0.000    0.000    0.000    0.000 
#
# Total GULP energy -346890.662073 kJ/mol
# GULP energy per Si atom -12388.952217 kJ/mol
# Density = 2.143778 g / cm^3
# Si number density = 21.486685 Si / 1000 Ang^3
#
#
#
# Elastic Constant Matrix: (Units=GPa)
#
#
# Indices 1 2 3 4 5 6 
#
# 1 97.2374 25.5840 36.6851 0.0000 0.0000 0.0000
# 2 25.5840 99.6107 60.4939 0.0000 0.0000 0.0000
# 3 36.6851 60.4939 144.0890 0.0000 0.0000 0.0000
# 4 0.0000 0.0000 0.0000 8.3623 0.0000 0.0000
# 5 0.0000 0.0000 0.0000 0.0000 132.9538 0.0000
# 6 0.0000 0.0000 0.0000 0.0000 0.0000 10.6984
#
#
#
# Elastic Compliance Matrix: (Units=1/GPa)
#
#
# Indices 1 2 3 4 5 6 
#
# 1 0.011561 -0.001586 -0.002277 0.000000 0.000000 0.000000
# 2 -0.001586 0.013692 -0.005345 0.000000 0.000000 0.000000
# 3 -0.002277 -0.005345 0.009764 0.000000 0.000000 0.000000
# 4 0.000000 0.000000 0.000000 0.119584 0.000000 0.000000
# 5 0.000000 0.000000 0.000000 0.000000 0.007521 0.000000
# 6 0.000000 0.000000 0.000000 0.000000 0.000000 0.093472
#
#
# Mechanical properties :
#
#
# Convention : Reuss Voigt Hill
#
# Bulk Modulus (GPa) = 60.23985 65.16257 62.70121
# Shear Modulus (GPa) = 17.88625 44.94784 31.41704
#
# Velocity S-wave (km/s) = 2.88832 4.57868 3.82797
# Velocity P-wave (km/s) = 6.26259 7.63841 6.98446
#
# Compressibility (1/GPa) = 0.01660031
#
# Stress axis : x y z
#
# Youngs Moduli (GPa) = 86.50034 73.03363 102.41817
#
# Poissons Ratio (x) = 0.11584 0.23325
# Poissons Ratio (y) = 0.13720 0.54740
# Poissons Ratio (z) = 0.19700 0.39034
#
# Static dielectric constant tensor:
#      x y z
#    x 3.982300 0.000000 0.000000 
#    y 0.000000 -3.734490 0.000000 
#    z 0.000000 0.000000 4.123370 
# 
# 
# High freq. dielectric constant tensor:
#      x y z
#    x 1.850970 0.000000 0.000000 
#    y 0.000000 1.845010 0.000000 
#    z 0.000000 0.000000 1.836270 
# 
# From -- ./inp_files/33800.got.cif
#   From: 2010.03.12/outbox.cif.g09.slc.cpg/sg24_17_cif.got.tgz:33800.got - 2010.04.14 03:06:53.
