data_PCOD8165253
_publ_section_title
;
Structure prediction by ZEFSAII (Michael W. Deem and Ramdas Pophale) SiO2 
 PCOD8165253
Probable space group: I 21 21 21
;
_chemical_formula_sum "Si O2"
_cell_formula_units_Z 56
_cell_length_a 8.889435
_cell_length_b 17.289580
_cell_length_c 17.093723
_cell_angle_alpha 90.000000
_cell_angle_beta 90.000000
_cell_angle_gamma 90.000000
_cell_volume 2627.212878
_symmetry_space_group_name_H-M "I 21 21 21"
_symmetry_group_IT_number 24
_symmetry_cell_setting 'orthorhombic'
loop_
_space_group_symop_operation_xyz
x,y,z
-x,1/2-y,z
x,-y,1/2-z
1/2-x,y,-z
1/2+x,1/2+y,1/2+z
1/2-x,-y,1/2+z
1/2+x,1/2-y,-z
-x,1/2+y,1/2-z
loop_
_atom_site_type_symbol
_atom_site_label
_atom_site_fract_x
_atom_site_fract_y
_atom_site_fract_z
Si Si1 0.675467 0.740563 0.419936
Si Si2 0.667806 0.876298 0.655883
Si Si3 0.164470 0.891430 0.343121
Si Si4 0.694176 0.531695 0.088052
Si Si5 0.331148 0.167285 0.667090
Si Si6 0.629057 0.015678 0.343210
Si Si7 0.332875 0.654973 0.831258
O O1 0.500000 0.750000 0.425605
O O2 0.750000 0.767186 0.500000
O O3 0.743769 0.796846 0.355059
O O4 0.715237 0.653164 0.397266
O O5 0.500238 0.874607 0.619824
O O6 0.642691 0.883725 0.747490
O O7 0.761736 0.948888 0.623852
O O8 0.182248 0.864418 0.254628
O O9 0.202264 0.981696 0.352676
O O10 0.718663 0.621360 0.110427
O O11 0.520957 0.510794 0.104713
O O12 0.750000 0.515243 0.000000
O O13 0.276422 0.256474 0.667618
O O14 0.499490 0.155398 0.631516
O O15 0.707814 0.097577 0.367542
O O16 0.595844 0.000000 0.250000
#
# Coordination Sequence:
#
# PCOD8165253 Si02
#       7
#     8   8   8   8   8   8   8
#     4  12  24  37  56  89 131 168 203 247 306 373
#     4  10  20  38  63  93 122 157 205 257 307 370
#     4  11  21  40  66  88 119 165 209 254 312 369
#     4  12  26  41  56  87 128 167 210 256 311 369
#     4  10  20  40  67  91 121 158 206 258 316 369
#     4  10  21  39  64  94 126 157 209 259 309 366
#     4   9  19  39  66  96 117 152 210 262 305 370
#
# _framework density 21.315363000000001
#
# number of rings (size 3 to 8) (size 9 to 14) (size 15 to 20)
#    0.000    1.429    1.429    4.714    0.000    5.143 
#    0.000    5.000    0.000    0.000    0.000    0.000 
#    0.000    0.000    0.000    0.000    0.000    0.000 
#
# Total GULP energy -347101.082935 kJ/mol
# GULP energy per Si atom -12396.467248 kJ/mol
# Density = 2.126685 g / cm^3
# Si number density = 21.315363 Si / 1000 Ang^3
#
#
#
# Elastic Constant Matrix: (Units=GPa)
#
#
# Indices 1 2 3 4 5 6 
#
# 1 145.6944 38.7480 29.4422 0.0000 0.0000 0.0000
# 2 38.7480 124.7099 13.5926 0.0000 0.0000 0.0000
# 3 29.4422 13.5926 44.8947 0.0000 0.0000 0.0000
# 4 0.0000 0.0000 0.0000 16.9649 0.0000 0.0000
# 5 0.0000 0.0000 0.0000 0.0000 27.6924 0.0000
# 6 0.0000 0.0000 0.0000 0.0000 0.0000 43.9447
#
#
#
# Elastic Compliance Matrix: (Units=1/GPa)
#
#
# Indices 1 2 3 4 5 6 
#
# 1 0.008403 -0.002079 -0.004881 0.000000 0.000000 0.000000
# 2 -0.002079 0.008807 -0.001303 0.000000 0.000000 0.000000
# 3 -0.004881 -0.001303 0.025870 0.000000 0.000000 0.000000
# 4 0.000000 0.000000 0.000000 0.058945 0.000000 0.000000
# 5 0.000000 0.000000 0.000000 0.000000 0.036111 0.000000
# 6 0.000000 0.000000 0.000000 0.000000 0.000000 0.022756
#
#
# Mechanical properties :
#
#
# Convention : Reuss Voigt Hill
#
# Bulk Modulus (GPa) = 37.66020 53.20718 45.43369
# Shear Modulus (GPa) = 26.84287 33.28814 30.06551
#
# Velocity S-wave (km/s) = 3.55254 3.95612 3.75975
# Velocity P-wave (km/s) = 5.87655 6.77377 6.34105
#
# Compressibility (1/GPa) = 0.02655323
#
# Stress axis : x y z
#
# Youngs Moduli (GPa) = 119.00552 113.55208 38.65477
#
# Poissons Ratio (x) = 0.23605 0.18869
# Poissons Ratio (y) = 0.24739 0.05037
# Poissons Ratio (z) = 0.58090 0.14796
#
# Static dielectric constant tensor:
#      x y z
#    x 3.998470 0.000000 0.000000 
#    y 0.000000 3.967810 0.000000 
#    z 0.000000 0.000000 3.443150 
# 
# 
# High freq. dielectric constant tensor:
#      x y z
#    x 1.843790 0.000000 0.000000 
#    y 0.000000 1.850860 0.000000 
#    z 0.000000 0.000000 1.796980 
# 
# From -- ./inp_files/32827.got.cif
#   From: 2010.03.12/outbox.cif.g09.slc.cpg/sg24_17_cif.got.tgz:32827.got - 2010.04.14 03:06:53.
