data_PCOD8165169
_publ_section_title
;
Structure prediction by ZEFSAII (Michael W. Deem and Ramdas Pophale) SiO2 
 PCOD8165169
Probable space group: I 21 21 21
;
_chemical_formula_sum "Si O2"
_cell_formula_units_Z 48
_cell_length_a 10.761422
_cell_length_b 25.121503
_cell_length_c 8.862047
_cell_angle_alpha 90.000000
_cell_angle_beta 90.000000
_cell_angle_gamma 90.000000
_cell_volume 2395.793215
_symmetry_space_group_name_H-M "I 21 21 21"
_symmetry_group_IT_number 24
_symmetry_cell_setting 'orthorhombic'
loop_
_space_group_symop_operation_xyz
x,y,z
-x,1/2-y,z
x,-y,1/2-z
1/2-x,y,-z
1/2+x,1/2+y,1/2+z
1/2-x,-y,1/2+z
1/2+x,1/2-y,-z
-x,1/2+y,1/2-z
loop_
_atom_site_type_symbol
_atom_site_label
_atom_site_fract_x
_atom_site_fract_y
_atom_site_fract_z
Si Si1 0.750000 0.393854 0.000000
Si Si2 0.250000 0.296321 0.500000
Si Si3 0.590684 0.441162 0.240624
Si Si4 0.113452 0.558892 0.193212
Si Si5 0.500000 0.250000 0.636766
Si Si6 0.250000 0.899258 0.000000
Si Si7 0.357910 0.603045 0.143745
Si Si8 0.915912 0.643286 0.244454
O O1 0.850496 0.432036 0.922658
O O2 0.687361 0.356174 0.874910
O O3 0.369137 0.259877 0.546428
O O4 0.307806 0.336605 0.375044
O O5 0.532505 0.500000 0.250000
O O6 0.694566 0.436770 0.370217
O O7 0.483953 0.396758 0.260623
O O8 0.077957 0.500000 0.250000
O O9 0.254669 0.571583 0.242319
O O10 0.014619 0.596728 0.275846
O O11 0.111280 0.571588 0.013015
O O12 0.484186 0.199633 0.745308
O O13 0.144854 0.862981 0.077922
#
# Coordination Sequence:
#
# PCOD8165169 Si02
#       8
#     4   4   8   8   4   4   8   8
#     4  10  27  40  54  89 133 158 219 254 328 390
#     4  10  21  38  68 107 121 164 220 285 312 388
#     4  11  21  36  60  88 124 172 209 263 313 386
#     4  10  20  36  62  87 127 159 202 261 315 374
#     4  12  20  40  70  94 130 164 220 274 340 372
#     4  10  20  38  58  86 122 162 211 269 312 368
#     4  10  20  40  58  96 127 158 221 264 312 388
#     4  11  22  41  63  89 122 166 210 264 317 388
#
# _framework density 20.035119999999999
#
# number of rings (size 3 to 8) (size 9 to 14) (size 15 to 20)
#    0.000    1.667    5.000    1.500    2.333    4.000 
#    0.000    1.667    0.000    2.000    0.000    0.000 
#    0.000    0.000    0.000    0.000    0.000    0.000 
#
# Total GULP energy -297388.619985 kJ/mol
# GULP energy per Si atom -12391.192499 kJ/mol
# Density = 1.998952 g / cm^3
# Si number density = 20.035120 Si / 1000 Ang^3
#
#
#
# Elastic Constant Matrix: (Units=GPa)
#
#
# Indices 1 2 3 4 5 6 
#
# 1 131.8353 48.2041 34.0605 0.0000 0.0000 0.0001
# 2 48.2041 130.5668 22.8637 0.0002 0.0000 0.0000
# 3 34.0605 22.8637 72.0420 0.0023 -0.0007 0.0000
# 4 0.0000 0.0002 0.0023 16.0407 -0.0002 -0.0001
# 5 0.0000 0.0000 -0.0007 -0.0002 34.8409 0.0001
# 6 0.0001 0.0000 0.0000 -0.0001 0.0001 36.1721
#
#
#
# Elastic Compliance Matrix: (Units=1/GPa)
#
#
# Indices 1 2 3 4 5 6 
#
# 1 0.009579 -0.002905 -0.003607 0.000001 0.000000 0.000000
# 2 -0.002905 0.008991 -0.001480 0.000000 0.000000 0.000000
# 3 -0.003607 -0.001480 0.016056 -0.000002 0.000000 0.000000
# 4 0.000001 0.000000 -0.000002 0.062342 0.000000 0.000000
# 5 0.000000 0.000000 0.000000 0.000000 0.028702 0.000000
# 6 0.000000 0.000000 0.000000 0.000000 0.000000 0.027646
#
#
# Mechanical properties :
#
#
# Convention : Reuss Voigt Hill
#
# Bulk Modulus (GPa) = 53.64251 60.52230 57.08241
# Shear Modulus (GPa) = 28.48802 32.69845 30.59323
#
# Velocity S-wave (km/s) = 3.77490 4.04425 3.91190
# Velocity P-wave (km/s) = 6.76995 7.21676 6.99692
#
# Compressibility (1/GPa) = 0.01864193
#
# Stress axis : x y z
#
# Youngs Moduli (GPa) = 104.39192 111.22799 62.28272
#
# Poissons Ratio (x) = 0.32311 0.22466
# Poissons Ratio (y) = 0.30325 0.09217
# Poissons Ratio (z) = 0.37654 0.16460
#
# Static dielectric constant tensor:
#      x y z
#    x 4.058650 0.000000 0.000000 
#    y 0.000000 3.485540 0.000000 
#    z 0.000000 0.000000 3.373820 
# 
# 
# High freq. dielectric constant tensor:
#      x y z
#    x 1.809080 0.000000 0.000000 
#    y 0.000000 1.768410 0.000000 
#    z 0.000000 0.000000 1.747530 
# 
# From -- ./inp_files/11343.got.cif
#   From: 2010.03.12/outbox.cif.g09.slc.cpg/sg24_6_cif.got.tgz:11343.got - 2010.04.14 03:06:53.
