data_PCOD8165980
_publ_section_title
;
Structure prediction by ZEFSAII (Michael W. Deem and Ramdas Pophale) SiO2 
 PCOD8165980
Probable space group: I 21 21 21
;
_chemical_formula_sum "Si O2"
_cell_formula_units_Z 40
_cell_length_a 6.262032
_cell_length_b 12.833357
_cell_length_c 23.651239
_cell_angle_alpha 90.000000
_cell_angle_beta 90.000000
_cell_angle_gamma 90.000000
_cell_volume 1900.681970
_symmetry_space_group_name_H-M "I 21 21 21"
_symmetry_group_IT_number 24
_symmetry_cell_setting 'orthorhombic'
loop_
_space_group_symop_operation_xyz
x,y,z
-x,1/2-y,z
x,-y,1/2-z
1/2-x,y,-z
1/2+x,1/2+y,1/2+z
1/2-x,-y,1/2+z
1/2+x,1/2-y,-z
-x,1/2+y,1/2-z
loop_
_atom_site_type_symbol
_atom_site_label
_atom_site_fract_x
_atom_site_fract_y
_atom_site_fract_z
Si Si1 0.750000 0.005722 0.000000
Si Si2 0.070375 0.359397 0.411688
Si Si3 0.900644 0.641100 0.554818
Si Si4 0.770573 0.498801 0.153001
Si Si5 0.895385 0.860644 0.814601
Si Si6 0.583196 0.000000 0.750000
O O1 0.894315 0.071805 0.958150
O O2 0.592045 0.936217 0.963729
O O3 0.286880 0.346808 0.375786
O O4 0.000000 0.250000 0.437733
O O5 0.875528 0.399618 0.374371
O O6 0.750000 0.654784 0.500000
O O7 0.771565 0.592187 0.607306
O O8 0.000000 0.750000 0.574578
O O9 0.558485 0.542659 0.182272
O O10 0.934328 0.454482 0.199767
O O11 0.721299 0.899244 0.768848
O O12 0.000000 0.750000 0.795524
#
# Coordination Sequence:
#
# PCOD8165980 Si02
#       6
#     4   8   8   8   8   4
#     4  12  24  40  68 104 140 176 228 282 340 418
#     4  11  23  38  68 104 134 176 224 274 347 423
#     4  12  25  44  73  99 140 190 233 287 349 412
#     4  11  23  45  70  98 142 179 227 294 344 413
#     4  11  22  43  73  94 136 182 220 284 355 406
#     4  10  26  44  70 102 134 178 238 286 350 418
#
# _framework density 21.045076000000002
#
# number of rings (size 3 to 8) (size 9 to 14) (size 15 to 20)
#    0.000    0.800    7.000    0.600    0.000    2.400 
#    0.000    6.000    4.400    0.000    0.000    0.000 
#    0.000    0.000    0.000    0.000    0.000    0.000 
#
# Total GULP energy -248038.619451 kJ/mol
# GULP energy per Si atom -12401.930973 kJ/mol
# Density = 2.099718 g / cm^3
# Si number density = 21.045076 Si / 1000 Ang^3
#
#
#
# Elastic Constant Matrix: (Units=GPa)
#
#
# Indices 1 2 3 4 5 6 
#
# 1 110.8225 55.1619 50.2988 0.0000 0.0000 0.0000
# 2 55.1619 136.5046 60.0202 0.0000 0.0000 0.0000
# 3 50.2988 60.0202 107.8504 0.0000 0.0000 0.0000
# 4 0.0000 0.0000 0.0000 -18.5242 0.0000 0.0000
# 5 0.0000 0.0000 0.0000 0.0000 43.2328 0.0000
# 6 0.0000 0.0000 0.0000 0.0000 0.0000 37.5710
#
#
#
# Elastic Compliance Matrix: (Units=1/GPa)
#
#
# Indices 1 2 3 4 5 6 
#
# 1 0.012468 -0.003286 -0.003986 0.000000 0.000000 0.000000
# 2 -0.003286 0.010565 -0.004347 0.000000 0.000000 0.000000
# 3 -0.003986 -0.004347 0.013550 0.000000 0.000000 0.000000
# 4 0.000000 0.000000 0.000000 -0.053983 0.000000 0.000000
# 5 0.000000 0.000000 0.000000 0.000000 0.023131 0.000000
# 6 0.000000 0.000000 0.000000 0.000000 0.000000 0.026616
#
#
# Mechanical properties :
#
#
# Convention : Reuss Voigt Hill
#
# Bulk Modulus (GPa) = 74.93304 76.23770 75.58537
# Shear Modulus (GPa) = 83.28642 25.10235 54.19438
#
# Velocity S-wave (km/s) = 6.29771 3.45743 5.08011
# Velocity P-wave (km/s) = 9.41089 7.22793 8.39070
#
# Compressibility (1/GPa) = 0.01334525
#
# Stress axis : x y z
#
# Youngs Moduli (GPa) = 80.20443 94.65280 73.79806
#
# Poissons Ratio (x) = 0.31100 0.29418
# Poissons Ratio (y) = 0.26352 0.32081
# Poissons Ratio (z) = 0.31972 0.41147
#
# Static dielectric constant tensor:
#      x y z
#    x 4.025720 0.000000 0.000000 
#    y 0.000000 3.659660 0.000000 
#    z 0.000000 0.000000 3.790120 
# 
# 
# High freq. dielectric constant tensor:
#      x y z
#    x 1.844400 0.000000 0.000000 
#    y 0.000000 1.820480 0.000000 
#    z 0.000000 0.000000 1.816630 
# 
# From -- ./inp_files/2487.got.cif
#   From: 2010.03.12/outbox.cif.g09.slc.cpg/sg24_2_cif.got.tgz:2487.got - 2010.04.14 03:06:53.
