data_PCOD8165541
_publ_section_title
;
Structure prediction by ZEFSAII (Michael W. Deem and Ramdas Pophale) SiO2 
 PCOD8165541
Probable space group: I 21 21 21
;
_chemical_formula_sum "Si O2"
_cell_formula_units_Z 64
_cell_length_a 20.801856
_cell_length_b 16.430784
_cell_length_c 9.148495
_cell_angle_alpha 90.000000
_cell_angle_beta 90.000000
_cell_angle_gamma 90.000000
_cell_volume 3126.871450
_symmetry_space_group_name_H-M "I 21 21 21"
_symmetry_group_IT_number 24
_symmetry_cell_setting 'orthorhombic'
loop_
_space_group_symop_operation_xyz
x,y,z
-x,1/2-y,z
x,-y,1/2-z
1/2-x,y,-z
1/2+x,1/2+y,1/2+z
1/2-x,-y,1/2+z
1/2+x,1/2-y,-z
-x,1/2+y,1/2-z
loop_
_atom_site_type_symbol
_atom_site_label
_atom_site_fract_x
_atom_site_fract_y
_atom_site_fract_z
Si Si1 0.454939 0.677867 0.380381
Si Si2 0.110520 0.387187 0.147140
Si Si3 0.395342 0.444187 0.537057
Si Si4 0.341511 0.691088 0.167317
Si Si5 0.277673 0.262061 0.846245
Si Si6 0.266797 0.094616 0.719262
Si Si7 0.851746 0.638816 0.946741
Si Si8 0.019372 0.931473 0.855702
O O1 0.500000 0.750000 0.430712
O O2 0.446902 0.630059 0.532782
O O3 0.384303 0.697353 0.314794
O O4 0.493103 0.638173 0.247937
O O5 0.085208 0.399553 0.312159
O O6 0.141398 0.471440 0.080734
O O7 0.155678 0.309196 0.161835
O O8 0.350507 0.391991 0.426213
O O9 0.462440 0.464905 0.457498
O O10 0.267425 0.702611 0.215825
O O11 0.361161 0.764203 0.059734
O O12 0.285980 0.162987 0.840275
O O13 0.250000 0.287337 0.000000
O O14 0.312656 0.115670 0.587472
O O15 0.190730 0.106982 0.690120
O O16 0.280513 0.000000 0.750000
O O17 0.921766 0.599050 0.953697
O O18 0.047034 0.000000 0.750000
#
# Coordination Sequence:
#
# PCOD8165541 Si02
#       8
#     8   8   8   8   8   8   8   8
#     4  11  21  40  64  93 124 165 220 268 320 390
#     4  11  23  46  59  98 132 171 211 274 340 379
#     4  10  24  42  67  89 140 166 215 277 324 395
#     4  10  21  42  67  94 123 173 220 262 322 397
#     4  11  23  42  68  93 135 169 219 274 330 397
#     4  10  23  42  63  96 132 167 212 276 334 395
#     4  10  21  40  66  93 126 167 221 262 328 403
#     4  11  21  40  67  93 123 175 219 268 324 393
#
# _framework density 20.467742999999999
#
# number of rings (size 3 to 8) (size 9 to 14) (size 15 to 20)
#    0.000    1.500    3.750    1.125    1.750    1.500 
#   13.500    0.000    0.000    0.000    0.000    0.000 
#    0.000    0.000    0.000    0.000    0.000    0.000 
#
# Total GULP energy -396484.619666 kJ/mol
# GULP energy per Si atom -12390.144365 kJ/mol
# Density = 2.042116 g / cm^3
# Si number density = 20.467743 Si / 1000 Ang^3
#
#
#
# Elastic Constant Matrix: (Units=GPa)
#
#
# Indices 1 2 3 4 5 6 
#
# 1 63.7518 23.8269 13.5635 0.0000 0.0000 0.0000
# 2 23.8269 107.8360 29.5755 0.0000 0.0000 0.0000
# 3 13.5635 29.5755 86.2639 0.0000 0.0000 0.0000
# 4 0.0000 0.0000 0.0000 32.0143 0.0000 0.0000
# 5 0.0000 0.0000 0.0000 0.0000 17.4104 0.0000
# 6 0.0000 0.0000 0.0000 0.0000 0.0000 22.3099
#
#
#
# Elastic Compliance Matrix: (Units=1/GPa)
#
#
# Indices 1 2 3 4 5 6 
#
# 1 0.017285 -0.003393 -0.001554 0.000000 0.000000 0.000000
# 2 -0.003393 0.010902 -0.003204 0.000000 0.000000 0.000000
# 3 -0.001554 -0.003204 0.012935 0.000000 0.000000 0.000000
# 4 0.000000 0.000000 0.000000 0.031236 0.000000 0.000000
# 5 0.000000 0.000000 0.000000 0.000000 0.057437 0.000000
# 6 0.000000 0.000000 0.000000 0.000000 0.000000 0.044823
#
#
# Mechanical properties :
#
#
# Convention : Reuss Voigt Hill
#
# Bulk Modulus (GPa) = 40.29215 43.53149 41.91182
# Shear Modulus (GPa) = 25.10121 27.07265 26.08693
#
# Velocity S-wave (km/s) = 3.50577 3.64084 3.57394
# Velocity P-wave (km/s) = 6.00963 6.24410 6.12799
#
# Compressibility (1/GPa) = 0.02481873
#
# Stress axis : x y z
#
# Youngs Moduli (GPa) = 57.85505 91.72803 77.30775
#
# Poissons Ratio (x) = 0.31121 0.12017
# Poissons Ratio (y) = 0.19629 0.24771
# Poissons Ratio (z) = 0.08994 0.29392
#
# Static dielectric constant tensor:
#      x y z
#    x 3.690210 0.000000 0.000000 
#    y 0.000000 4.331160 0.000000 
#    z 0.000000 0.000000 3.870710 
# 
# 
# High freq. dielectric constant tensor:
#      x y z
#    x 1.780270 0.000000 0.000000 
#    y 0.000000 1.810800 0.000000 
#    z 0.000000 0.000000 1.804530 
# 
# From -- ./inp_files/16031.got.cif
#   From: 2010.03.12/outbox.cif.g09.slc.cpg/sg24_9_cif.got.tgz:16031.got - 2010.04.14 03:06:53.
