data_PCOD8165373
_publ_section_title
;
Structure prediction by ZEFSAII (Michael W. Deem and Ramdas Pophale) SiO2 
 PCOD8165373
Probable space group: I 21 21 21
;
_chemical_formula_sum "Si O2"
_cell_formula_units_Z 32
_cell_length_a 21.286252
_cell_length_b 8.408723
_cell_length_c 7.711695
_cell_angle_alpha 90.000000
_cell_angle_beta 90.000000
_cell_angle_gamma 90.000000
_cell_volume 1380.317806
_symmetry_space_group_name_H-M "I 21 21 21"
_symmetry_group_IT_number 24
_symmetry_cell_setting 'orthorhombic'
loop_
_space_group_symop_operation_xyz
x,y,z
-x,1/2-y,z
x,-y,1/2-z
1/2-x,y,-z
1/2+x,1/2+y,1/2+z
1/2-x,-y,1/2+z
1/2+x,1/2-y,-z
-x,1/2+y,1/2-z
loop_
_atom_site_type_symbol
_atom_site_label
_atom_site_fract_x
_atom_site_fract_y
_atom_site_fract_z
Si Si1 0.125869 0.660455 0.354170
Si Si2 0.967811 0.018698 0.554501
Si Si3 0.683808 0.500000 0.250000
Si Si4 0.750000 0.726341 0.500000
Si Si5 0.093369 0.842578 0.033180
O O1 0.122953 0.500000 0.250000
O O2 0.067380 0.642443 0.488990
O O3 0.191136 0.663509 0.454849
O O4 0.119269 0.815071 0.229725
O O5 0.921503 0.170248 0.547126
O O6 0.030989 0.050406 0.445031
O O7 0.990332 0.000000 0.750000
O O8 0.730540 0.628337 0.330561
O O9 0.643011 0.430253 0.408840
#
# Coordination Sequence:
#
# PCOD8165373 Si02
#       5
#     8   8   4   4   8
#     4  10  24  45  66 101 132 177 227 278 337 400
#     4  10  20  43  68  99 135 174 222 279 344 406
#     4  12  24  44  66  98 136 176 230 274 342 410
#     4  12  26  44  68  94 134 184 224 274 326 414
#     4  10  22  42  65 102 134 174 219 283 346 401
#
# _framework density 23.183069
#
# number of rings (size 3 to 8) (size 9 to 14) (size 15 to 20)
#    0.000    1.500    1.250    3.000    0.000    5.000 
#   27.000    0.000    0.000    0.000    0.000    0.000 
#    0.000    0.000    0.000    0.000    0.000    0.000 
#
# Total GULP energy -198380.308123 kJ/mol
# GULP energy per Si atom -12398.769258 kJ/mol
# Density = 2.313030 g / cm^3
# Si number density = 23.183069 Si / 1000 Ang^3
#
#
#
# Elastic Constant Matrix: (Units=GPa)
#
#
# Indices 1 2 3 4 5 6 
#
# 1 141.2167 28.0885 55.8712 0.0000 0.0000 0.0000
# 2 28.0885 19.4157 10.1654 0.0000 0.0000 0.0000
# 3 55.8712 10.1654 115.8384 0.0000 0.0000 0.0000
# 4 0.0000 0.0000 0.0000 7.8213 0.0000 0.0000
# 5 0.0000 0.0000 0.0000 0.0000 43.7222 0.0000
# 6 0.0000 0.0000 0.0000 0.0000 0.0000 32.8741
#
#
#
# Elastic Compliance Matrix: (Units=1/GPa)
#
#
# Indices 1 2 3 4 5 6 
#
# 1 0.011730 -0.014683 -0.004369 0.000000 0.000000 0.000000
# 2 -0.014683 0.072363 0.000732 0.000000 0.000000 0.000000
# 3 -0.004369 0.000732 0.010676 0.000000 0.000000 0.000000
# 4 0.000000 0.000000 0.000000 0.127855 0.000000 0.000000
# 5 0.000000 0.000000 0.000000 0.000000 0.022872 0.000000
# 6 0.000000 0.000000 0.000000 0.000000 0.000000 0.030419
#
#
# Mechanical properties :
#
#
# Convention : Reuss Voigt Hill
#
# Bulk Modulus (GPa) = 17.20327 51.63565 34.41946
# Shear Modulus (GPa) = 15.06328 29.03990 22.05159
#
# Velocity S-wave (km/s) = 2.55179 3.54310 3.08749
# Velocity P-wave (km/s) = 4.01484 6.24975 5.25254
#
# Compressibility (1/GPa) = 0.05812849
#
# Stress axis : x y z
#
# Youngs Moduli (GPa) = 85.24811 13.81920 93.66847
#
# Poissons Ratio (x) = 0.20290 0.40927
# Poissons Ratio (y) = 1.25167 -0.06852
# Poissons Ratio (z) = 0.37248 -0.01011
#
# Static dielectric constant tensor:
#      x y z
#    x 4.295380 0.000000 0.000000 
#    y 0.000000 4.230790 0.000000 
#    z 0.000000 0.000000 4.495110 
# 
# 
# High freq. dielectric constant tensor:
#      x y z
#    x 1.922000 0.000000 0.000000 
#    y 0.000000 1.910550 0.000000 
#    z 0.000000 0.000000 1.926370 
# 
# From -- ./inp_files/8983.got.cif
#   From: 2010.03.12/outbox.cif.g09.slc.cpg/sg24_5_cif.got.tgz:8983.got - 2010.04.14 03:06:53.
