data_PCOD8165272
_publ_section_title
;
Structure prediction by ZEFSAII (Michael W. Deem and Ramdas Pophale) SiO2 
 PCOD8165272
Probable space group: I 21 21 21
;
_chemical_formula_sum "Si O2"
_cell_formula_units_Z 60
_cell_length_a 5.742928
_cell_length_b 19.657084
_cell_length_c 24.190333
_cell_angle_alpha 90.000000
_cell_angle_beta 90.000000
_cell_angle_gamma 90.000000
_cell_volume 2730.827778
_symmetry_space_group_name_H-M "I 21 21 21"
_symmetry_group_IT_number 24
_symmetry_cell_setting 'orthorhombic'
loop_
_space_group_symop_operation_xyz
x,y,z
-x,1/2-y,z
x,-y,1/2-z
1/2-x,y,-z
1/2+x,1/2+y,1/2+z
1/2-x,-y,1/2+z
1/2+x,1/2-y,-z
-x,1/2+y,1/2-z
loop_
_atom_site_type_symbol
_atom_site_label
_atom_site_fract_x
_atom_site_fract_y
_atom_site_fract_z
Si Si1 0.092047 0.447235 0.293636
Si Si2 0.091263 0.550382 0.447659
Si Si3 0.877354 0.180920 0.220403
Si Si4 0.816858 0.431725 0.407687
Si Si5 0.752463 0.277194 0.436433
Si Si6 0.500000 0.750000 0.344593
Si Si7 0.796692 0.633466 0.374406
Si Si8 0.549197 0.019267 0.138780
O O1 0.972689 0.500000 0.250000
O O2 0.141901 0.372458 0.269913
O O3 0.341622 0.481110 0.308552
O O4 0.931042 0.436172 0.346941
O O5 0.250000 0.568308 0.500000
O O6 0.246539 0.557040 0.393457
O O7 0.973573 0.475186 0.451400
O O8 0.890967 0.606885 0.434325
O O9 0.624554 0.198251 0.197185
O O10 0.000000 0.250000 0.242023
O O11 0.004634 0.146320 0.169487
O O12 0.772996 0.357563 0.430660
O O13 0.561914 0.464270 0.402995
O O14 0.500000 0.250000 0.410735
O O15 0.750000 0.254415 0.500000
O O16 0.000000 0.250000 0.409816
O O17 0.664499 0.705092 0.384450
O O18 0.639065 0.575923 0.344913
#
# Coordination Sequence:
#
# PCOD8165272 Si02
#       8
#     8   8   8   8   8   4   8   8
#     4  11  22  39  60  91 135 168 217 275 329 403
#     4  10  22  37  62  96 126 160 210 273 327 394
#     4  10  22  39  62  93 122 168 219 262 318 395
#     4  10  24  39  61  92 131 171 220 275 334 397
#     4  10  24  43  69  97 132 184 236 286 341 413
#     4  10  20  38  66  90 120 170 214 262 322 398
#     4  10  20  39  61  95 122 161 220 259 324 400
#     4  10  22  38  60  94 122 168 207 266 333 382
#
# _framework density 21.971359
#
# number of rings (size 3 to 8) (size 9 to 14) (size 15 to 20)
#    0.000    1.867    0.000    4.000    5.600    6.400 
#    0.000    1.333    0.000    0.000   78.000    0.000 
#    0.000    0.000    0.000    0.000    0.000    0.000 
#
# Total GULP energy -371716.757497 kJ/mol
# GULP energy per Si atom -12390.558583 kJ/mol
# Density = 2.192135 g / cm^3
# Si number density = 21.971359 Si / 1000 Ang^3
#
#
#
# Elastic Constant Matrix: (Units=GPa)
#
#
# Indices 1 2 3 4 5 6 
#
# 1 112.0685 38.4230 26.6236 0.0000 0.0000 0.0000
# 2 38.4230 114.7707 42.5039 0.0000 0.0000 0.0000
# 3 26.6236 42.5039 65.3054 0.0000 0.0000 0.0000
# 4 0.0000 0.0000 0.0000 33.4505 0.0000 0.0000
# 5 0.0000 0.0000 0.0000 0.0000 14.9164 0.0000
# 6 0.0000 0.0000 0.0000 0.0000 0.0000 43.3938
#
#
#
# Elastic Compliance Matrix: (Units=1/GPa)
#
#
# Indices 1 2 3 4 5 6 
#
# 1 0.010405 -0.002520 -0.002602 0.000000 0.000000 0.000000
# 2 -0.002520 0.012090 -0.006842 0.000000 0.000000 0.000000
# 3 -0.002602 -0.006842 0.020826 0.000000 0.000000 0.000000
# 4 0.000000 0.000000 0.000000 0.029895 0.000000 0.000000
# 5 0.000000 0.000000 0.000000 0.000000 0.067040 0.000000
# 6 0.000000 0.000000 0.000000 0.000000 0.000000 0.023045
#
#
# Mechanical properties :
#
#
# Convention : Reuss Voigt Hill
#
# Bulk Modulus (GPa) = 51.55994 56.36064 53.96029
# Shear Modulus (GPa) = 25.81394 30.65843 28.23618
#
# Velocity S-wave (km/s) = 3.43139 3.73953 3.58877
# Velocity P-wave (km/s) = 6.26235 6.65981 6.46413
#
# Compressibility (1/GPa) = 0.01939490
#
# Stress axis : x y z
#
# Youngs Moduli (GPa) = 96.10596 82.71047 48.01620
#
# Poissons Ratio (x) = 0.20842 0.12493
# Poissons Ratio (y) = 0.24217 0.32851
# Poissons Ratio (z) = 0.25006 0.56588
#
# Static dielectric constant tensor:
#      x y z
#    x 4.483070 0.000000 0.000000 
#    y 0.000000 4.194250 0.000000 
#    z 0.000000 0.000000 3.567060 
# 
# 
# High freq. dielectric constant tensor:
#      x y z
#    x 1.882520 0.000000 0.000000 
#    y 0.000000 1.875140 0.000000 
#    z 0.000000 0.000000 1.826350 
# 
# From -- ./inp_files/34799.got.cif
#   From: 2010.03.12/outbox.cif.g09.slc.cpg/sg24_18_cif.got.tgz:34799.got - 2010.04.14 03:06:53.
