data_PCOD8165328
_publ_section_title
;
Structure prediction by ZEFSAII (Michael W. Deem and Ramdas Pophale) SiO2 
 PCOD8165328
Probable space group: I 21 21 21
;
_chemical_formula_sum "Si O2"
_cell_formula_units_Z 32
_cell_length_a 18.360294
_cell_length_b 16.691045
_cell_length_c 5.115224
_cell_angle_alpha 90.000000
_cell_angle_beta 90.000000
_cell_angle_gamma 90.000000
_cell_volume 1567.573149
_symmetry_space_group_name_H-M "I 21 21 21"
_symmetry_group_IT_number 24
_symmetry_cell_setting 'orthorhombic'
loop_
_space_group_symop_operation_xyz
x,y,z
-x,1/2-y,z
x,-y,1/2-z
1/2-x,y,-z
1/2+x,1/2+y,1/2+z
1/2-x,-y,1/2+z
1/2+x,1/2-y,-z
-x,1/2+y,1/2-z
loop_
_atom_site_type_symbol
_atom_site_label
_atom_site_fract_x
_atom_site_fract_y
_atom_site_fract_z
Si Si1 0.874626 0.445796 0.496191
Si Si2 0.035280 0.552890 0.005834
Si Si3 0.819988 0.906733 0.824648
Si Si4 0.250000 0.179970 0.500000
Si Si5 0.250000 0.713080 0.500000
O O1 0.849791 0.500000 0.250000
O O2 0.820657 0.373327 0.550311
O O3 0.955574 0.408139 0.444045
O O4 0.873765 0.500000 0.750000
O O5 0.059021 0.500000 0.250000
O O6 0.027457 0.500000 0.750000
O O7 0.102932 0.614224 0.966105
O O8 0.816586 0.847475 0.574339
O O9 0.817904 0.000000 0.750000
O O10 0.750000 0.885247 0.000000
O O11 0.230591 0.232407 0.247316
#
# Coordination Sequence:
#
# PCOD8165328 Si02
#       5
#     8   8   8   4   4
#     4  10  20  40  66  93 117 157 204 252 301 364
#     4   9  20  34  61  93 118 143 200 260 298 343
#     4  11  21  38  65  85 115 156 206 249 295 357
#     4  12  24  40  62  88 130 160 200 248 308 364
#     4  12  26  38  58  90 124 162 202 254 298 364
#
# _framework density 20.413720000000001
#
# number of rings (size 3 to 8) (size 9 to 14) (size 15 to 20)
#    0.000    1.500    2.500    3.000    3.500    0.000 
#    0.000    1.250    5.500    0.000    0.000    0.000 
#    0.000    0.000    0.000    0.000    0.000    0.000 
#
# Total GULP energy -198244.620156 kJ/mol
# GULP energy per Si atom -12390.288760 kJ/mol
# Density = 2.036726 g / cm^3
# Si number density = 20.413720 Si / 1000 Ang^3
#
#
#
# Elastic Constant Matrix: (Units=GPa)
#
#
# Indices 1 2 3 4 5 6 
#
# 1 167.3145 64.1227 35.0191 0.0000 0.0000 0.0000
# 2 64.1227 99.9010 45.8001 0.0000 0.0000 0.0000
# 3 35.0191 45.8001 133.2318 0.0000 0.0000 0.0000
# 4 0.0000 0.0000 0.0000 41.3518 0.0000 0.0000
# 5 0.0000 0.0000 0.0000 0.0000 30.6377 0.0000
# 6 0.0000 0.0000 0.0000 0.0000 0.0000 -0.7151
#
#
#
# Elastic Compliance Matrix: (Units=1/GPa)
#
#
# Indices 1 2 3 4 5 6 
#
# 1 0.007944 -0.004917 -0.000398 0.000000 0.000000 0.000000
# 2 -0.004917 0.014926 -0.003839 0.000000 0.000000 0.000000
# 3 -0.000398 -0.003839 0.008930 0.000000 0.000000 0.000000
# 4 0.000000 0.000000 0.000000 0.024183 0.000000 0.000000
# 5 0.000000 0.000000 0.000000 0.000000 0.032639 0.000000
# 6 0.000000 0.000000 0.000000 0.000000 0.000000 -1.398407
#
#
# Mechanical properties :
#
#
# Convention : Reuss Voigt Hill
#
# Bulk Modulus (GPa) = 74.11036 76.70346 75.40691
# Shear Modulus (GPa) = -3.88506 31.28858 13.70176
#
# Velocity S-wave (km/s) = -1.38105 3.91925 2.59357
# Velocity P-wave (km/s) = 5.81721 7.62474 6.78147
#
# Compressibility (1/GPa) = 0.01349339
#
# Stress axis : x y z
#
# Youngs Moduli (GPa) = 125.87490 66.99903 111.98406
#
# Poissons Ratio (x) = 0.32942 0.04456
# Poissons Ratio (y) = 0.61890 0.42985
# Poissons Ratio (z) = 0.05009 0.25718
#
# Static dielectric constant tensor:
#      x y z
#    x 4.517950 0.000000 0.000000 
#    y 0.000000 3.426980 0.000000 
#    z 0.000000 0.000000 4.116630 
# 
# 
# High freq. dielectric constant tensor:
#      x y z
#    x 1.808260 0.000000 0.000000 
#    y 0.000000 1.759670 0.000000 
#    z 0.000000 0.000000 1.821410 
# 
# From -- ./inp_files/4315.got.cif
#   From: 2010.03.12/outbox.cif.g09.slc.cpg/sg24_3_cif.got.tgz:4315.got - 2010.04.14 03:06:53.
