data_PCOD8165300
_publ_section_title
;
Structure prediction by ZEFSAII (Michael W. Deem and Ramdas Pophale) SiO2 
 PCOD8165300
Probable space group: I 21 21 21
;
_chemical_formula_sum "Si O2"
_cell_formula_units_Z 40
_cell_length_a 28.384460
_cell_length_b 7.523852
_cell_length_c 9.118169
_cell_angle_alpha 90.000000
_cell_angle_beta 90.000000
_cell_angle_gamma 90.000000
_cell_volume 1947.280513
_symmetry_space_group_name_H-M "I 21 21 21"
_symmetry_group_IT_number 24
_symmetry_cell_setting 'orthorhombic'
loop_
_space_group_symop_operation_xyz
x,y,z
-x,1/2-y,z
x,-y,1/2-z
1/2-x,y,-z
1/2+x,1/2+y,1/2+z
1/2-x,-y,1/2+z
1/2+x,1/2-y,-z
-x,1/2+y,1/2-z
loop_
_atom_site_type_symbol
_atom_site_label
_atom_site_fract_x
_atom_site_fract_y
_atom_site_fract_z
Si Si1 0.960550 0.619529 0.880605
Si Si2 0.872402 0.797918 0.558807
Si Si3 0.200681 0.001138 0.579048
Si Si4 0.457886 0.128720 0.877177
Si Si5 0.370655 0.302804 0.406386
O O1 0.938935 0.500000 0.750000
O O2 0.919178 0.722027 0.968839
O O3 0.000000 0.750000 0.815393
O O4 0.984004 0.490394 0.999879
O O5 0.827756 0.672616 0.524748
O O6 0.915683 0.736825 0.456620
O O7 0.882135 0.794072 0.732455
O O8 0.860415 0.003965 0.524895
O O9 0.250000 0.005993 0.500000
O O10 0.172297 0.180456 0.541596
O O11 0.210888 0.000000 0.750000
O O12 0.500000 0.250000 0.812481
O O13 0.437605 0.000000 0.750000
#
# Coordination Sequence:
#
# PCOD8165300 Si02
#       5
#     8   8   8   8   8
#     4  12  22  36  62  94 128 170 224 272 320 381
#     4  10  21  39  66  93 126 168 220 275 323 380
#     4  10  21  41  66  95 130 165 208 274 336 394
#     4  12  25  42  59  89 138 183 219 266 332 393
#     4  10  20  39  65  97 126 159 222 283 320 377
#
# _framework density 20.541468999999999
#
# number of rings (size 3 to 8) (size 9 to 14) (size 15 to 20)
#    0.000    1.200    4.000    3.000    2.800    1.600 
#    0.000    0.000    0.000    0.000    0.000    0.000 
#    0.000    0.000    0.000    0.000    0.000    0.000 
#
# Total GULP energy -247880.404314 kJ/mol
# GULP energy per Si atom -12394.020216 kJ/mol
# Density = 2.049472 g / cm^3
# Si number density = 20.541469 Si / 1000 Ang^3
#
#
#
# Elastic Constant Matrix: (Units=GPa)
#
#
# Indices 1 2 3 4 5 6 
#
# 1 162.2595 89.8185 33.7277 0.0000 0.0000 0.0000
# 2 89.8185 191.2076 45.1849 0.0000 0.0000 0.0000
# 3 33.7277 45.1849 56.5496 0.0000 0.0000 0.0000
# 4 0.0000 0.0000 0.0000 28.0339 0.0000 0.0000
# 5 0.0000 0.0000 0.0000 0.0000 33.4393 0.0000
# 6 0.0000 0.0000 0.0000 0.0000 0.0000 29.6519
#
#
#
# Elastic Compliance Matrix: (Units=1/GPa)
#
#
# Indices 1 2 3 4 5 6 
#
# 1 0.008572 -0.003474 -0.002336 0.000000 0.000000 0.000000
# 2 -0.003474 0.007856 -0.004205 0.000000 0.000000 0.000000
# 3 -0.002336 -0.004205 0.022437 0.000000 0.000000 0.000000
# 4 0.000000 0.000000 0.000000 0.035671 0.000000 0.000000
# 5 0.000000 0.000000 0.000000 0.000000 0.029905 0.000000
# 6 0.000000 0.000000 0.000000 0.000000 0.000000 0.033725
#
#
# Mechanical properties :
#
#
# Convention : Reuss Voigt Hill
#
# Bulk Modulus (GPa) = 53.09719 83.05323 68.07521
# Shear Modulus (GPa) = 30.40003 34.31072 32.35537
#
# Velocity S-wave (km/s) = 3.85117 4.09138 3.97309
# Velocity P-wave (km/s) = 6.75871 7.92710 7.36611
#
# Compressibility (1/GPa) = 0.01883339
#
# Stress axis : x y z
#
# Youngs Moduli (GPa) = 116.66036 127.29696 44.56990
#
# Poissons Ratio (x) = 0.44229 0.10413
# Poissons Ratio (y) = 0.40534 0.18740
# Poissons Ratio (z) = 0.27255 0.53524
#
# Static dielectric constant tensor:
#      x y z
#    x 3.416960 0.000000 0.000000 
#    y 0.000000 4.193110 0.000000 
#    z 0.000000 0.000000 3.488310 
# 
# 
# High freq. dielectric constant tensor:
#      x y z
#    x 1.787300 0.000000 0.000000 
#    y 0.000000 1.827490 0.000000 
#    z 0.000000 0.000000 1.778870 
# 
# From -- ./inp_files/9486.got.cif
#   From: 2010.03.12/outbox.cif.g09.slc.cpg/sg24_5_cif.got.tgz:9486.got - 2010.04.14 03:06:53.
