data_PCOD8165147
_publ_section_title
;
Structure prediction by ZEFSAII (Michael W. Deem and Ramdas Pophale) SiO2 
 PCOD8165147
Probable space group: I 21 21 21
;
_chemical_formula_sum "Si O2"
_cell_formula_units_Z 40
_cell_length_a 11.778376
_cell_length_b 19.324380
_cell_length_c 9.071030
_cell_angle_alpha 90.000000
_cell_angle_beta 90.000000
_cell_angle_gamma 90.000000
_cell_volume 2064.655448
_symmetry_space_group_name_H-M "I 21 21 21"
_symmetry_group_IT_number 24
_symmetry_cell_setting 'orthorhombic'
loop_
_space_group_symop_operation_xyz
x,y,z
-x,1/2-y,z
x,-y,1/2-z
1/2-x,y,-z
1/2+x,1/2+y,1/2+z
1/2-x,-y,1/2+z
1/2+x,1/2-y,-z
-x,1/2+y,1/2-z
loop_
_atom_site_type_symbol
_atom_site_label
_atom_site_fract_x
_atom_site_fract_y
_atom_site_fract_z
Si Si1 0.381901 0.422288 0.776756
Si Si2 0.250000 0.795303 0.500000
Si Si3 0.509131 0.500000 0.250000
Si Si4 0.126728 0.598966 0.962065
Si Si5 0.536648 0.387190 0.031650
Si Si6 0.675287 0.825183 0.309009
O O1 0.340975 0.500000 0.750000
O O2 0.429170 0.387537 0.622783
O O3 0.273568 0.381315 0.842015
O O4 0.486668 0.424721 0.888649
O O5 0.140986 0.842457 0.473958
O O6 0.273319 0.749094 0.353899
O O7 0.433767 0.540699 0.133020
O O8 0.579985 0.443912 0.153617
O O9 0.140270 0.669727 0.864709
O O10 0.250000 0.568000 0.000000
O O11 0.437897 0.338656 0.096917
#
# Coordination Sequence:
#
# PCOD8165147 Si02
#       6
#     8   4   4   8   8   8
#     4  11  20  35  65 100 126 157 201 278 331 368
#     4  12  24  44  64  86 128 192 214 242 320 416
#     4  10  20  36  56  94 122 158 206 264 312 378
#     4   9  20  30  58  93 126 146 191 271 327 351
#     4  11  23  39  66  90 126 168 217 263 316 389
#     4  10  22  36  65  91 123 154 216 268 310 380
#
# _framework density 19.373691999999998
#
# number of rings (size 3 to 8) (size 9 to 14) (size 15 to 20)
#    0.000    1.600    4.000    0.600   12.600    0.000 
#    1.800    0.000   48.400    0.000    0.000    0.000 
#    0.000    0.000    0.000    0.000    0.000    0.000 
#
# Total GULP energy -247776.575010 kJ/mol
# GULP energy per Si atom -12388.828750 kJ/mol
# Density = 1.932960 g / cm^3
# Si number density = 19.373692 Si / 1000 Ang^3
#
#
#
# Elastic Constant Matrix: (Units=GPa)
#
#
# Indices 1 2 3 4 5 6 
#
# 1 82.9789 43.6772 30.2640 -0.0002 0.0001 0.0000
# 2 43.6772 85.8041 29.0960 -0.0003 0.0002 0.0000
# 3 30.2640 29.0960 119.5467 -0.0004 0.0006 0.0002
# 4 -0.0002 -0.0003 -0.0004 39.0120 0.0005 0.0001
# 5 0.0001 0.0002 0.0006 0.0005 14.1534 -0.0002
# 6 0.0000 0.0000 0.0002 0.0001 -0.0002 19.9812
#
#
#
# Elastic Compliance Matrix: (Units=1/GPa)
#
#
# Indices 1 2 3 4 5 6 
#
# 1 0.017074 -0.007876 -0.002406 0.000000 0.000000 0.000000
# 2 -0.007876 0.016335 -0.001982 0.000000 0.000000 0.000000
# 3 -0.002406 -0.001982 0.009456 0.000000 0.000000 0.000000
# 4 0.000000 0.000000 0.000000 0.025633 -0.000001 0.000000
# 5 0.000000 0.000000 0.000000 -0.000001 0.070655 0.000001
# 6 0.000000 0.000000 0.000000 0.000000 0.000001 0.050047
#
#
# Mechanical properties :
#
#
# Convention : Reuss Voigt Hill
#
# Bulk Modulus (GPa) = 54.52737 54.93378 54.73057
# Shear Modulus (GPa) = 22.74379 26.98214 24.86296
#
# Velocity S-wave (km/s) = 3.43002 3.73597 3.58625
# Velocity P-wave (km/s) = 6.62517 6.85757 6.74237
#
# Compressibility (1/GPa) = 0.01833941
#
# Stress axis : x y z
#
# Youngs Moduli (GPa) = 58.56848 61.21644 105.74917
#
# Poissons Ratio (x) = 0.48211 0.25439
# Poissons Ratio (y) = 0.46126 0.20960
# Poissons Ratio (z) = 0.14089 0.12134
#
# Static dielectric constant tensor:
#      x y z
#    x 3.172970 0.000000 0.000000 
#    y 0.000000 3.446730 0.000000 
#    z 0.000000 0.000000 4.482940 
# 
# 
# High freq. dielectric constant tensor:
#      x y z
#    x 1.714380 0.000000 0.000000 
#    y 0.000000 1.733250 0.000000 
#    z 0.000000 0.000000 1.775510 
# 
# From -- ./inp_files/11046.got.cif
#   From: 2010.03.12/outbox.cif.g09.slc.cpg/sg24_6_cif.got.tgz:11046.got - 2010.04.14 03:06:53.
