data_PCOD8165790
_publ_section_title
;
Structure prediction by ZEFSAII (Michael W. Deem and Ramdas Pophale) SiO2 
 PCOD8165790
Probable space group: I 21 21 21
;
_chemical_formula_sum "Si O2"
_cell_formula_units_Z 28
_cell_length_a 8.024940
_cell_length_b 10.507479
_cell_length_c 13.529641
_cell_angle_alpha 90.000000
_cell_angle_beta 90.000000
_cell_angle_gamma 90.000000
_cell_volume 1140.844880
_symmetry_space_group_name_H-M "I 21 21 21"
_symmetry_group_IT_number 24
_symmetry_cell_setting 'orthorhombic'
loop_
_space_group_symop_operation_xyz
x,y,z
-x,1/2-y,z
x,-y,1/2-z
1/2-x,y,-z
1/2+x,1/2+y,1/2+z
1/2-x,-y,1/2+z
1/2+x,1/2-y,-z
-x,1/2+y,1/2-z
loop_
_atom_site_type_symbol
_atom_site_label
_atom_site_fract_x
_atom_site_fract_y
_atom_site_fract_z
Si Si1 0.072864 0.969672 0.464687
Si Si2 0.000000 0.250000 0.173189
Si Si3 0.263238 0.190292 0.656059
Si Si4 0.584794 0.935019 0.150421
O O1 0.250000 0.910636 0.500000
O O2 0.974449 0.876968 0.391356
O O3 0.112908 0.109848 0.415948
O O4 0.944988 0.975645 0.556051
O O5 0.159243 0.218819 0.238192
O O6 0.213784 0.327503 0.611080
O O7 0.096232 0.115926 0.681178
O O8 0.658625 0.000000 0.250000
#
# Coordination Sequence:
#
# PCOD8165790 Si02
#       4
#     8   4   8   8
#     4  10  23  44  68  98 133 175 220 272 331 393
#     4  12  24  42  70 100 134 170 218 282 332 382
#     4  10  23  43  66  96 135 176 217 269 331 397
#     4  10  22  44  70  95 131 177 224 270 326 393
#
# _framework density 24.543213000000002
#
# number of rings (size 3 to 8) (size 9 to 14) (size 15 to 20)
#    0.000    1.714    0.000    4.286    0.000   13.714 
#    0.000    5.714    0.000    0.000    0.000    0.000 
#    0.000    0.000    0.000    0.000    0.000    0.000 
#
# Total GULP energy -173504.840428 kJ/mol
# GULP energy per Si atom -12393.202888 kJ/mol
# Density = 2.448735 g / cm^3
# Si number density = 24.543213 Si / 1000 Ang^3
#
#
#
# Elastic Constant Matrix: (Units=GPa)
#
#
# Indices 1 2 3 4 5 6 
#
# 1 44.7134 23.6306 39.3314 0.0000 0.0000 0.0000
# 2 23.6306 92.2475 55.2339 0.0000 0.0000 0.0000
# 3 39.3314 55.2339 157.4286 0.0000 0.0000 0.0000
# 4 0.0000 0.0000 0.0000 56.6162 0.0000 0.0000
# 5 0.0000 0.0000 0.0000 0.0000 22.2752 0.0000
# 6 0.0000 0.0000 0.0000 0.0000 0.0000 14.1040
#
#
#
# Elastic Compliance Matrix: (Units=1/GPa)
#
#
# Indices 1 2 3 4 5 6 
#
# 1 0.029797 -0.004020 -0.006034 0.000000 0.000000 0.000000
# 2 -0.004020 0.014266 -0.004001 0.000000 0.000000 0.000000
# 3 -0.006034 -0.004001 0.009263 0.000000 0.000000 0.000000
# 4 0.000000 0.000000 0.000000 0.017663 0.000000 0.000000
# 5 0.000000 0.000000 0.000000 0.000000 0.044893 0.000000
# 6 0.000000 0.000000 0.000000 0.000000 0.000000 0.070902
#
#
# Mechanical properties :
#
#
# Convention : Reuss Voigt Hill
#
# Bulk Modulus (GPa) = 39.65683 58.97569 49.31626
# Shear Modulus (GPa) = 22.39156 30.34532 26.36844
#
# Velocity S-wave (km/s) = 3.02376 3.52007 3.28131
# Velocity P-wave (km/s) = 5.32765 6.37202 5.87310
#
# Compressibility (1/GPa) = 0.02521634
#
# Stress axis : x y z
#
# Youngs Moduli (GPa) = 33.56056 70.09825 107.95359
#
# Poissons Ratio (x) = 0.28180 0.65138
# Poissons Ratio (y) = 0.13492 0.43190
# Poissons Ratio (z) = 0.20250 0.28045
#
# Static dielectric constant tensor:
#      x y z
#    x 4.419450 0.000000 0.000000 
#    y 0.000000 4.495020 0.000000 
#    z 0.000000 0.000000 4.399750 
# 
# 
# High freq. dielectric constant tensor:
#      x y z
#    x 1.970870 0.000000 0.000000 
#    y 0.000000 1.964530 0.000000 
#    z 0.000000 0.000000 1.984920 
# 
# From -- ./inp_files/17963.got.cif
#   From: 2010.03.12/outbox.cif.g09.slc.cpg/sg24_9_cif.got.tgz:17963.got - 2010.04.14 03:06:53.
