data_PCOD8165140
_publ_section_title
;
Structure prediction by ZEFSAII (Michael W. Deem and Ramdas Pophale) SiO2 
 PCOD8165140
Probable space group: I 21 21 21
;
_chemical_formula_sum "Si O2"
_cell_formula_units_Z 48
_cell_length_a 29.193640
_cell_length_b 9.006469
_cell_length_c 9.949380
_cell_angle_alpha 90.000000
_cell_angle_beta 90.000000
_cell_angle_gamma 90.000000
_cell_volume 2616.006538
_symmetry_space_group_name_H-M "I 21 21 21"
_symmetry_group_IT_number 24
_symmetry_cell_setting 'orthorhombic'
loop_
_space_group_symop_operation_xyz
x,y,z
-x,1/2-y,z
x,-y,1/2-z
1/2-x,y,-z
1/2+x,1/2+y,1/2+z
1/2-x,-y,1/2+z
1/2+x,1/2-y,-z
-x,1/2+y,1/2-z
loop_
_atom_site_type_symbol
_atom_site_label
_atom_site_fract_x
_atom_site_fract_y
_atom_site_fract_z
Si Si1 0.454132 0.323172 0.867367
Si Si2 0.123955 0.400211 0.623688
Si Si3 0.766488 0.862716 0.348679
Si Si4 0.644156 0.815047 0.526069
Si Si5 0.315543 0.826695 0.276985
Si Si6 0.956309 0.837390 0.066907
O O1 0.500000 0.250000 0.926649
O O2 0.444721 0.270747 0.713800
O O3 0.465072 0.492757 0.897626
O O4 0.407745 0.272860 0.939801
O O5 0.106133 0.500000 0.750000
O O6 0.149250 0.515098 0.525245
O O7 0.159035 0.270282 0.663053
O O8 0.082542 0.319657 0.545870
O O9 0.750000 0.903408 0.500000
O O10 0.819796 0.810012 0.349913
O O11 0.736759 0.727061 0.290082
O O12 0.758918 0.000000 0.250000
O O13 0.658102 0.695050 0.416267
O O14 0.316376 0.000000 0.250000
O O15 0.000000 0.750000 0.007370
#
# Coordination Sequence:
#
# PCOD8165140 Si02
#       6
#     8   8   8   8   8   8
#     4   9  18  33  55  78 106 136 172 222 273 310
#     4   9  18  35  55  78 103 142 183 219 260 317
#     4  10  20  36  59  84 108 141 189 231 268 326
#     4   9  19  35  58  79 105 139 187 222 257 324
#     4  10  20  36  54  76 114 145 169 221 279 319
#     4   9  18  32  53  78 107 137 172 222 264 320
#
# _framework density 18.348578
#
# number of rings (size 3 to 8) (size 9 to 14) (size 15 to 20)
#    0.000    2.667    0.000    2.500    4.667    1.333 
#    0.000   15.833    7.333    0.000    0.000    0.000 
#    0.000    0.000    0.000    0.000    0.000    0.000 
#
# Total GULP energy -297376.916319 kJ/mol
# GULP energy per Si atom -12390.704847 kJ/mol
# Density = 1.830682 g / cm^3
# Si number density = 18.348578 Si / 1000 Ang^3
#
#
#
# Elastic Constant Matrix: (Units=GPa)
#
#
# Indices 1 2 3 4 5 6 
#
# 1 167.2884 71.4562 58.2539 0.0000 0.0000 0.0000
# 2 71.4562 96.9169 42.7327 0.0000 0.0000 0.0000
# 3 58.2539 42.7327 64.6911 0.0000 0.0000 0.0000
# 4 0.0000 0.0000 0.0000 18.9790 0.0000 0.0000
# 5 0.0000 0.0000 0.0000 0.0000 30.8515 0.0000
# 6 0.0000 0.0000 0.0000 0.0000 0.0000 26.8373
#
#
#
# Elastic Compliance Matrix: (Units=1/GPa)
#
#
# Indices 1 2 3 4 5 6 
#
# 1 0.010101 -0.004849 -0.005893 0.000000 0.000000 0.000000
# 2 -0.004849 0.016886 -0.006788 0.000000 0.000000 0.000000
# 3 -0.005893 -0.006788 0.025248 0.000000 0.000000 0.000000
# 4 0.000000 0.000000 0.000000 0.052690 0.000000 0.000000
# 5 0.000000 0.000000 0.000000 0.000000 0.032413 0.000000
# 6 0.000000 0.000000 0.000000 0.000000 0.000000 0.037262
#
#
# Mechanical properties :
#
#
# Convention : Reuss Voigt Hill
#
# Bulk Modulus (GPa) = 58.22046 74.86466 66.54256
# Shear Modulus (GPa) = 23.21427 25.76381 24.48904
#
# Velocity S-wave (km/s) = 3.56080 3.75124 3.65726
# Velocity P-wave (km/s) = 6.97888 7.72349 7.36061
#
# Compressibility (1/GPa) = 0.01717609
#
# Stress axis : x y z
#
# Youngs Moduli (GPa) = 99.00048 59.21965 39.60687
#
# Poissons Ratio (x) = 0.28717 0.23339
# Poissons Ratio (y) = 0.48007 0.26884
# Poissons Ratio (z) = 0.58337 0.40197
#
# Static dielectric constant tensor:
#      x y z
#    x 3.638310 0.000000 0.000000 
#    y 0.000000 3.129070 0.000000 
#    z 0.000000 0.000000 3.506810 
# 
# 
# High freq. dielectric constant tensor:
#      x y z
#    x 1.720780 0.000000 0.000000 
#    y 0.000000 1.689550 0.000000 
#    z 0.000000 0.000000 1.705720 
# 
# From -- ./inp_files/22882.got.cif
#   From: 2010.03.12/outbox.cif.g09.slc.cpg/sg24_12_cif.got.tgz:22882.got - 2010.04.14 03:06:53.
