data_PCOD8165240
_publ_section_title
;
Structure prediction by ZEFSAII (Michael W. Deem and Ramdas Pophale) SiO2 
 PCOD8165240
Probable space group: I 21 21 21
;
_chemical_formula_sum "Si O2"
_cell_formula_units_Z 52
_cell_length_a 7.460525
_cell_length_b 12.415409
_cell_length_c 27.563429
_cell_angle_alpha 90.000000
_cell_angle_beta 90.000000
_cell_angle_gamma 90.000000
_cell_volume 2553.075545
_symmetry_space_group_name_H-M "I 21 21 21"
_symmetry_group_IT_number 24
_symmetry_cell_setting 'orthorhombic'
loop_
_space_group_symop_operation_xyz
x,y,z
-x,1/2-y,z
x,-y,1/2-z
1/2-x,y,-z
1/2+x,1/2+y,1/2+z
1/2-x,-y,1/2+z
1/2+x,1/2-y,-z
-x,1/2+y,1/2-z
loop_
_atom_site_type_symbol
_atom_site_label
_atom_site_fract_x
_atom_site_fract_y
_atom_site_fract_z
Si Si1 0.478177 0.513800 0.543190
Si Si2 0.572403 0.996144 0.062791
Si Si3 0.255522 0.509454 0.805255
Si Si4 0.000000 0.750000 0.418236
Si Si5 0.049378 0.127617 0.369517
Si Si6 0.660701 0.818410 0.367964
Si Si7 0.444852 0.870419 0.151860
O O1 0.277805 0.470630 0.551014
O O2 0.540483 0.495133 0.487496
O O3 0.492922 0.642015 0.550072
O O4 0.589217 0.444129 0.582218
O O5 0.567043 0.112161 0.089195
O O6 0.494988 0.903216 0.096950
O O7 0.317983 0.500000 0.750000
O O8 0.391640 0.581808 0.836111
O O9 0.255062 0.390538 0.827287
O O10 0.054266 0.556806 0.809709
O O11 0.818975 0.741264 0.386748
O O12 0.232622 0.119627 0.338824
O O13 0.000000 0.250000 0.384142
O O14 0.500000 0.750000 0.344219
O O15 0.500000 0.750000 0.161453
#
# Coordination Sequence:
#
# PCOD8165240 Si02
#       7
#     8   8   8   4   8   8   8
#     4  10  20  38  62  93 129 176 213 260 312 381
#     4   9  20  38  59  93 131 166 216 256 309 381
#     4  11  25  47  65  94 127 159 221 274 325 398
#     4  10  20  38  60  86 132 170 208 254 318 376
#     4  12  23  44  68  92 131 173 210 268 327 382
#     4  10  22  40  61  90 128 166 204 266 321 377
#     4  11  22  42  69  91 126 171 210 266 328 381
#
# _framework density 20.367591000000001
#
# number of rings (size 3 to 8) (size 9 to 14) (size 15 to 20)
#    0.000    1.538    6.154    0.000    5.385    2.462 
#    1.385    0.000    0.000    0.000    0.000    0.000 
#    0.000    0.000    0.000    0.000    0.000    0.000 
#
# Total GULP energy -322330.413449 kJ/mol
# GULP energy per Si atom -12397.323594 kJ/mol
# Density = 2.032123 g / cm^3
# Si number density = 20.367591 Si / 1000 Ang^3
#
#
#
# Elastic Constant Matrix: (Units=GPa)
#
#
# Indices 1 2 3 4 5 6 
#
# 1 55.8923 -4.6194 0.9445 0.0000 0.0000 0.0000
# 2 -4.6194 59.4443 23.5537 0.0000 0.0000 0.0000
# 3 0.9445 23.5537 115.8268 0.0000 0.0000 0.0000
# 4 0.0000 0.0000 0.0000 6.5348 0.0000 0.0000
# 5 0.0000 0.0000 0.0000 0.0000 -2.1448 0.0000
# 6 0.0000 0.0000 0.0000 0.0000 0.0000 35.3810
#
#
#
# Elastic Compliance Matrix: (Units=1/GPa)
#
#
# Indices 1 2 3 4 5 6 
#
# 1 0.018031 0.001587 -0.000470 0.000000 0.000000 0.000000
# 2 0.001587 0.018436 -0.003762 0.000000 0.000000 0.000000
# 3 -0.000470 -0.003762 0.009402 0.000000 0.000000 0.000000
# 4 0.000000 0.000000 0.000000 0.153027 0.000000 0.000000
# 5 0.000000 0.000000 0.000000 0.000000 -0.466252 0.000000
# 6 0.000000 0.000000 0.000000 0.000000 0.000000 0.028264
#
#
# Mechanical properties :
#
#
# Convention : Reuss Voigt Hill
#
# Bulk Modulus (GPa) = 24.64237 30.10232 27.37234
# Shear Modulus (GPa) = -22.69880 22.03985 -0.32947
#
# Velocity S-wave (km/s) = -3.34197 3.29310 -0.40264
# Velocity P-wave (km/s) = 1.66331 5.41027 3.64036
#
# Compressibility (1/GPa) = 0.04058052
#
# Stress axis : x y z
#
# Youngs Moduli (GPa) = 55.46098 54.24029 106.35542
#
# Poissons Ratio (x) = -0.08610 0.04997
# Poissons Ratio (y) = -0.08803 0.40012
# Poissons Ratio (z) = 0.02606 0.20406
#
# Static dielectric constant tensor:
#      x y z
#    x 3.860660 0.000000 0.000000 
#    y 0.000000 3.624720 0.000000 
#    z 0.000000 0.000000 3.596490 
# 
# 
# High freq. dielectric constant tensor:
#      x y z
#    x 1.803950 0.000000 0.000000 
#    y 0.000000 1.796110 0.000000 
#    z 0.000000 0.000000 1.772020 
# 
# From -- ./inp_files/36873.got.cif
#   From: 2010.03.12/outbox.cif.g09.slc.cpg/sg24_19_cif.got.tgz:36873.got - 2010.04.14 03:06:53.
