data_PCOD8165420
_publ_section_title
;
Structure prediction by ZEFSAII (Michael W. Deem and Ramdas Pophale) SiO2 
 PCOD8165420
Probable space group: I 21 21 21
;
_chemical_formula_sum "Si O2"
_cell_formula_units_Z 52
_cell_length_a 13.566475
_cell_length_b 11.781854
_cell_length_c 18.223171
_cell_angle_alpha 90.000000
_cell_angle_beta 90.000000
_cell_angle_gamma 90.000000
_cell_volume 2912.759357
_symmetry_space_group_name_H-M "I 21 21 21"
_symmetry_group_IT_number 24
_symmetry_cell_setting 'orthorhombic'
loop_
_space_group_symop_operation_xyz
x,y,z
-x,1/2-y,z
x,-y,1/2-z
1/2-x,y,-z
1/2+x,1/2+y,1/2+z
1/2-x,-y,1/2+z
1/2+x,1/2-y,-z
-x,1/2+y,1/2-z
loop_
_atom_site_type_symbol
_atom_site_label
_atom_site_fract_x
_atom_site_fract_y
_atom_site_fract_z
Si Si1 0.917895 0.500000 0.250000
Si Si2 0.335823 0.616287 0.208149
Si Si3 0.232843 0.515043 0.585404
Si Si4 0.350207 0.758113 0.391012
Si Si5 0.000000 0.250000 0.770396
Si Si6 0.065837 0.596933 0.360001
Si Si7 0.500000 0.750000 0.514278
Si Si8 0.187722 0.779826 0.289008
O O1 0.847167 0.609426 0.244978
O O2 0.986134 0.514743 0.321898
O O3 0.311892 0.500000 0.250000
O O4 0.319718 0.595084 0.121179
O O5 0.449415 0.654058 0.219752
O O6 0.262635 0.713354 0.236666
O O7 0.250000 0.496769 0.500000
O O8 0.163310 0.622044 0.604148
O O9 0.337174 0.524165 0.626058
O O10 0.417782 0.801634 0.324245
O O11 0.404252 0.791570 0.466737
O O12 0.242296 0.808948 0.368536
O O13 0.091443 0.705184 0.308344
O O14 0.024636 0.640254 0.437640
#
# Coordination Sequence:
#
# PCOD8165420 Si02
#       8
#     4   8   8   8   4   8   4   8
#     4  12  22  36  54  86 120 146 202 240 282 342
#     4  11  19  37  61  83 114 150 198 239 289 354
#     4  11  20  34  59  84 112 157 193 238 294 355
#     4   9  19  34  55  89 117 136 191 251 305 345
#     4   9  18  34  56  90 107 140 188 244 293 326
#     4  11  20  33  56  86 114 152 194 240 290 344
#     4  11  18  32  54  88 125 138 186 252 309 348
#     4  10  21  37  57  85 113 157 191 238 294 342
#
# _framework density 17.852488999999998
#
# number of rings (size 3 to 8) (size 9 to 14) (size 15 to 20)
#    0.000    1.538    7.692    0.923    0.000    0.000 
#    5.538    0.000    3.385    0.000    0.000    0.000 
#    0.000    0.000    0.000    0.000    0.000    0.000 
#
# Total GULP energy -322114.473697 kJ/mol
# GULP energy per Si atom -12389.018219 kJ/mol
# Density = 1.781186 g / cm^3
# Si number density = 17.852489 Si / 1000 Ang^3
#
#
#
# Elastic Constant Matrix: (Units=GPa)
#
#
# Indices 1 2 3 4 5 6 
#
# 1 96.2817 49.8595 57.4383 0.0000 0.0000 0.0000
# 2 49.8595 83.1394 57.7770 0.0000 0.0000 0.0000
# 3 57.4383 57.7770 108.6211 0.0000 0.0000 0.0000
# 4 0.0000 0.0000 0.0000 32.2542 0.0000 0.0000
# 5 0.0000 0.0000 0.0000 0.0000 39.4863 0.0000
# 6 0.0000 0.0000 0.0000 0.0000 0.0000 36.5558
#
#
#
# Elastic Compliance Matrix: (Units=1/GPa)
#
#
# Indices 1 2 3 4 5 6 
#
# 1 0.017008 -0.006266 -0.005661 0.000000 0.000000 0.000000
# 2 -0.006266 0.021390 -0.008064 0.000000 0.000000 0.000000
# 3 -0.005661 -0.008064 0.016489 0.000000 0.000000 0.000000
# 4 0.000000 0.000000 0.000000 0.031004 0.000000 0.000000
# 5 0.000000 0.000000 0.000000 0.000000 0.025325 0.000000
# 6 0.000000 0.000000 0.000000 0.000000 0.000000 0.027355
#
#
# Mechanical properties :
#
#
# Convention : Reuss Voigt Hill
#
# Bulk Modulus (GPa) = 67.09061 68.68798 67.88929
# Shear Modulus (GPa) = 27.24472 29.85708 28.55090
#
# Velocity S-wave (km/s) = 3.91077 4.09398 4.00342
# Velocity P-wave (km/s) = 7.61934 7.80425 7.71235
#
# Compressibility (1/GPa) = 0.01490522
#
# Stress axis : x y z
#
# Youngs Moduli (GPa) = 58.79561 46.75110 60.64591
#
# Poissons Ratio (x) = 0.29294 0.34331
# Poissons Ratio (y) = 0.36841 0.48906
# Poissons Ratio (z) = 0.33283 0.37701
#
# Static dielectric constant tensor:
#      x y z
#    x 3.725190 0.000000 0.000000 
#    y 0.000000 3.041430 0.000000 
#    z 0.000000 0.000000 3.442950 
# 
# 
# High freq. dielectric constant tensor:
#      x y z
#    x 1.711280 0.000000 0.000000 
#    y 0.000000 1.643330 0.000000 
#    z 0.000000 0.000000 1.684110 
# 
# From -- ./inp_files/30843.got.cif
#   From: 2010.03.12/outbox.cif.g09.slc.cpg/sg24_16_cif.got.tgz:30843.got - 2010.04.14 03:06:53.
