data_PCOD8165204
_publ_section_title
;
Structure prediction by ZEFSAII (Michael W. Deem and Ramdas Pophale) SiO2 
 PCOD8165204
Probable space group: I 21 21 21
;
_chemical_formula_sum "Si O2"
_cell_formula_units_Z 40
_cell_length_a 4.921398
_cell_length_b 27.556360
_cell_length_c 14.001742
_cell_angle_alpha 90.000000
_cell_angle_beta 90.000000
_cell_angle_gamma 90.000000
_cell_volume 1898.857653
_symmetry_space_group_name_H-M "I 21 21 21"
_symmetry_group_IT_number 24
_symmetry_cell_setting 'orthorhombic'
loop_
_space_group_symop_operation_xyz
x,y,z
-x,1/2-y,z
x,-y,1/2-z
1/2-x,y,-z
1/2+x,1/2+y,1/2+z
1/2-x,-y,1/2+z
1/2+x,1/2-y,-z
-x,1/2+y,1/2-z
loop_
_atom_site_type_symbol
_atom_site_label
_atom_site_fract_x
_atom_site_fract_y
_atom_site_fract_z
Si Si1 0.758683 0.347588 0.308358
Si Si2 0.000000 0.750000 0.439580
Si Si3 0.267800 0.670598 0.311635
Si Si4 0.307374 0.947775 0.279835
Si Si5 0.701648 0.928266 0.605928
Si Si6 0.750000 0.713497 0.000000
O O1 0.561783 0.318741 0.234904
O O2 0.689341 0.405966 0.303521
O O3 0.718011 0.323516 0.411558
O O4 0.069106 0.341434 0.276650
O O5 0.250000 0.774125 0.500000
O O6 0.159206 0.714130 0.372318
O O7 0.301542 0.627077 0.386622
O O8 0.609380 0.957777 0.320027
O O9 0.113716 0.930526 0.366137
O O10 0.191384 0.000000 0.250000
O O11 0.750000 0.948426 0.500000
O O12 0.500000 0.750000 0.987163
#
# Coordination Sequence:
#
# PCOD8165204 Si02
#       6
#     8   4   8   8   8   4
#     4  10  23  42  61  91 119 166 206 263 309 369
#     4  12  24  36  56  92 122 158 200 246 300 364
#     4  10  22  38  62  83 125 159 195 251 305 369
#     4  10  21  40  65  88 127 157 200 253 322 375
#     4  10  20  37  60  90 118 157 198 240 301 376
#     4  12  26  42  66  92 128 168 228 268 308 372
#
# _framework density 21.065296
#
# number of rings (size 3 to 8) (size 9 to 14) (size 15 to 20)
#    0.000    1.600    0.000    4.200    4.200    3.200 
#    3.600    0.000    0.000    0.000    0.000    0.000 
#    0.000    0.000    0.000    0.000    0.000    0.000 
#
# Total GULP energy -247874.959498 kJ/mol
# GULP energy per Si atom -12393.747975 kJ/mol
# Density = 2.101735 g / cm^3
# Si number density = 21.065296 Si / 1000 Ang^3
#
#
#
# Elastic Constant Matrix: (Units=GPa)
#
#
# Indices 1 2 3 4 5 6 
#
# 1 98.2084 24.1786 17.4435 0.0000 0.0000 0.0000
# 2 24.1786 108.4852 64.7350 0.0000 0.0000 0.0000
# 3 17.4435 64.7350 101.0662 -0.0002 0.0000 0.0000
# 4 0.0000 0.0000 -0.0002 21.0693 0.0000 0.0000
# 5 0.0000 0.0000 0.0000 0.0000 29.8219 0.0000
# 6 0.0000 0.0000 0.0000 0.0000 0.0000 26.4014
#
#
#
# Elastic Compliance Matrix: (Units=1/GPa)
#
#
# Indices 1 2 3 4 5 6 
#
# 1 0.010791 -0.002094 -0.000521 0.000000 0.000000 0.000000
# 2 -0.002094 0.015327 -0.009456 0.000000 0.000000 0.000000
# 3 -0.000521 -0.009456 0.016041 0.000000 0.000000 0.000000
# 4 0.000000 0.000000 0.000000 0.047462 0.000000 0.000000
# 5 0.000000 0.000000 0.000000 0.000000 0.033532 0.000000
# 6 0.000000 0.000000 0.000000 0.000000 0.000000 0.037877
#
#
# Mechanical properties :
#
#
# Convention : Reuss Voigt Hill
#
# Bulk Modulus (GPa) = 55.50403 57.83043 56.66723
# Shear Modulus (GPa) = 26.15365 28.88535 27.51950
#
# Velocity S-wave (km/s) = 3.52739 3.70703 3.61832
# Velocity P-wave (km/s) = 6.55711 6.77018 6.66450
#
# Compressibility (1/GPa) = 0.01801671
#
# Stress axis : x y z
#
# Youngs Moduli (GPa) = 92.67391 65.24433 62.33978
#
# Poissons Ratio (x) = 0.13662 0.03249
# Poissons Ratio (y) = 0.19405 0.58948
# Poissons Ratio (z) = 0.04830 0.61694
#
# Static dielectric constant tensor:
#      x y z
#    x 3.822470 0.000000 0.000000 
#    y 0.000000 3.638610 0.000000 
#    z 0.000000 0.000000 3.638190 
# 
# 
# High freq. dielectric constant tensor:
#      x y z
#    x 1.851290 0.000000 0.000000 
#    y 0.000000 1.814900 0.000000 
#    z 0.000000 0.000000 1.806980 
# 
# From -- ./inp_files/2517.got.cif
#   From: 2010.03.12/outbox.cif.g09.slc.cpg/sg24_2_cif.got.tgz:2517.got - 2010.04.14 03:06:53.
