data_PCOD8165284
_publ_section_title
;
Structure prediction by ZEFSAII (Michael W. Deem and Ramdas Pophale) SiO2 
 PCOD8165284
Probable space group: I 21 21 21
;
_chemical_formula_sum "Si O2"
_cell_formula_units_Z 40
_cell_length_a 12.483697
_cell_length_b 17.741263
_cell_length_c 8.822362
_cell_angle_alpha 90.000000
_cell_angle_beta 90.000000
_cell_angle_gamma 90.000000
_cell_volume 1953.946314
_symmetry_space_group_name_H-M "I 21 21 21"
_symmetry_group_IT_number 24
_symmetry_cell_setting 'orthorhombic'
loop_
_space_group_symop_operation_xyz
x,y,z
-x,1/2-y,z
x,-y,1/2-z
1/2-x,y,-z
1/2+x,1/2+y,1/2+z
1/2-x,-y,1/2+z
1/2+x,1/2-y,-z
-x,1/2+y,1/2-z
loop_
_atom_site_type_symbol
_atom_site_label
_atom_site_fract_x
_atom_site_fract_y
_atom_site_fract_z
Si Si1 0.719340 0.301267 0.839877
Si Si2 0.163112 0.629078 0.334967
Si Si3 0.028626 0.837480 0.147082
Si Si4 0.940619 0.673888 0.818453
Si Si5 0.888715 0.076845 0.835661
O O1 0.675146 0.217337 0.876115
O O2 0.627229 0.350671 0.761527
O O3 0.821746 0.305063 0.731927
O O4 0.750000 0.339132 0.000000
O O5 0.276303 0.603913 0.262225
O O6 0.130681 0.579206 0.482562
O O7 0.073208 0.615578 0.207647
O O8 0.000000 0.750000 0.142023
O O9 0.060765 0.869240 0.981016
O O10 0.000000 0.750000 0.853154
O O11 0.008405 0.629315 0.693225
O O12 0.917575 0.000000 0.750000
#
# Coordination Sequence:
#
# PCOD8165284 Si02
#       5
#     8   8   8   8   8
#     4  11  18  34  61  87 117 153 206 258 306 367
#     4  10  20  39  55  85 122 165 206 242 311 374
#     4   9  21  32  55  89 119 152 199 260 312 359
#     4  11  20  36  58  88 121 155 204 262 311 369
#     4  11  23  38  60  89 123 166 208 252 311 381
#
# _framework density 20.471392000000002
#
# number of rings (size 3 to 8) (size 9 to 14) (size 15 to 20)
#    0.000    1.600    4.000    1.800    0.000    5.600 
#    0.000    0.000    0.000    8.400    0.000    0.000 
#    0.000    0.000    0.000    0.000    0.000    0.000 
#
# Total GULP energy -247843.200893 kJ/mol
# GULP energy per Si atom -12392.160045 kJ/mol
# Density = 2.042480 g / cm^3
# Si number density = 20.471392 Si / 1000 Ang^3
#
#
#
# Elastic Constant Matrix: (Units=GPa)
#
#
# Indices 1 2 3 4 5 6 
#
# 1 106.5263 2.9578 39.1317 0.0000 0.0000 0.0000
# 2 2.9578 36.9932 8.6344 0.0000 0.0000 0.0000
# 3 39.1317 8.6344 110.1331 0.0000 0.0000 0.0000
# 4 0.0000 0.0000 0.0000 33.7660 0.0000 0.0000
# 5 0.0000 0.0000 0.0000 0.0000 4.2532 0.0000
# 6 0.0000 0.0000 0.0000 0.0000 0.0000 14.5011
#
#
#
# Elastic Compliance Matrix: (Units=1/GPa)
#
#
# Indices 1 2 3 4 5 6 
#
# 1 0.010797 0.000033 -0.003839 0.000000 0.000000 0.000000
# 2 0.000033 0.027536 -0.002170 0.000000 0.000000 0.000000
# 3 -0.003839 -0.002170 0.010614 0.000000 0.000000 0.000000
# 4 0.000000 0.000000 0.000000 0.029616 0.000000 0.000000
# 5 0.000000 0.000000 0.000000 0.000000 0.235118 0.000000
# 6 0.000000 0.000000 0.000000 0.000000 0.000000 0.068960
#
#
# Mechanical properties :
#
#
# Convention : Reuss Voigt Hill
#
# Bulk Modulus (GPa) = 27.03161 39.45558 33.24360
# Shear Modulus (GPa) = 12.28731 24.03263 18.15997
#
# Velocity S-wave (km/s) = 2.45259 3.43003 2.98164
# Velocity P-wave (km/s) = 4.61016 5.91626 5.30357
#
# Compressibility (1/GPa) = 0.03699373
#
# Stress axis : x y z
#
# Youngs Moduli (GPa) = 92.62196 36.31611 94.21493
#
# Poissons Ratio (x) = -0.00119 0.36166
# Poissons Ratio (y) = -0.00303 0.20449
# Poissons Ratio (z) = 0.35555 0.07882
#
# Static dielectric constant tensor:
#      x y z
#    x 3.865860 0.000000 0.000000 
#    y 0.000000 3.174080 0.000000 
#    z 0.000000 0.000000 3.931090 
# 
# 
# High freq. dielectric constant tensor:
#      x y z
#    x 1.816990 0.000000 0.000000 
#    y 0.000000 1.737860 0.000000 
#    z 0.000000 0.000000 1.809570 
# 
# From -- ./inp_files/10680.got.cif
#   From: 2010.03.12/outbox.cif.g09.slc.cpg/sg24_6_cif.got.tgz:10680.got - 2010.04.14 03:06:53.
