data_PCOD8165852
_publ_section_title
;
Structure prediction by ZEFSAII (Michael W. Deem and Ramdas Pophale) SiO2 
 PCOD8165852
Probable space group: I 21 21 21
;
_chemical_formula_sum "Si O2"
_cell_formula_units_Z 32
_cell_length_a 8.999465
_cell_length_b 18.981730
_cell_length_c 8.192092
_cell_angle_alpha 90.000000
_cell_angle_beta 90.000000
_cell_angle_gamma 90.000000
_cell_volume 1399.417514
_symmetry_space_group_name_H-M "I 21 21 21"
_symmetry_group_IT_number 24
_symmetry_cell_setting 'orthorhombic'
loop_
_space_group_symop_operation_xyz
x,y,z
-x,1/2-y,z
x,-y,1/2-z
1/2-x,y,-z
1/2+x,1/2+y,1/2+z
1/2-x,-y,1/2+z
1/2+x,1/2-y,-z
-x,1/2+y,1/2-z
loop_
_atom_site_type_symbol
_atom_site_label
_atom_site_fract_x
_atom_site_fract_y
_atom_site_fract_z
Si Si1 0.872710 0.552054 0.110217
Si Si2 0.635886 0.056984 0.379646
Si Si3 0.165875 0.830012 0.331848
Si Si4 0.183417 0.330912 0.174527
O O1 0.936890 0.500000 0.250000
O O2 0.780117 0.616809 0.191458
O O3 0.750000 0.511387 0.000000
O O4 0.001105 0.582694 0.993328
O O5 0.750000 0.016555 0.500000
O O6 0.723950 0.123715 0.304995
O O7 0.577931 0.000000 0.250000
O O8 0.250000 0.847063 0.500000
O O9 0.201753 0.750844 0.276545
O O10 0.990413 0.848502 0.342236
O O11 0.250000 0.346881 0.000000
#
# Coordination Sequence:
#
# PCOD8165852 Si02
#       4
#     8   8   8   8
#     4  12  27  46  68 102 141 187 233 289 354 421
#     4  12  25  43  71 104 137 179 232 296 346 411
#     4  10  23  45  69  99 141 185 228 282 350 422
#     4  10  23  43  71 103 137 181 233 285 347 417
#
# _framework density 22.866657
#
# number of rings (size 3 to 8) (size 9 to 14) (size 15 to 20)
#    0.000    1.000    2.500    3.000    7.000    1.000 
#    0.000    0.000    0.000    0.000    0.000    0.000 
#    0.000    0.000    0.000    0.000    0.000    0.000 
#
# Total GULP energy -198304.378168 kJ/mol
# GULP energy per Si atom -12394.023636 kJ/mol
# Density = 2.281461 g / cm^3
# Si number density = 22.866657 Si / 1000 Ang^3
#
#
#
# Elastic Constant Matrix: (Units=GPa)
#
#
# Indices 1 2 3 4 5 6 
#
# 1 119.8573 44.9220 71.3180 0.0002 -0.0001 0.0000
# 2 44.9220 118.5499 75.5169 0.0002 0.0000 0.0000
# 3 71.3180 75.5169 144.5659 0.0024 -0.0011 -0.0001
# 4 0.0002 0.0002 0.0024 26.6649 -0.0004 0.0000
# 5 -0.0001 0.0000 -0.0011 -0.0004 59.2188 0.0001
# 6 0.0000 0.0000 -0.0001 0.0000 0.0001 25.4079
#
#
#
# Elastic Compliance Matrix: (Units=1/GPa)
#
#
# Indices 1 2 3 4 5 6 
#
# 1 0.011915 -0.001155 -0.005274 0.000000 0.000000 0.000000
# 2 -0.001155 0.012754 -0.006092 0.000000 0.000000 0.000000
# 3 -0.005274 -0.006092 0.012702 -0.000001 0.000000 0.000000
# 4 0.000000 0.000000 -0.000001 0.037502 0.000000 0.000000
# 5 0.000000 0.000000 0.000000 0.000000 0.016887 0.000000
# 6 0.000000 0.000000 0.000000 0.000000 0.000000 0.039358
#
#
# Mechanical properties :
#
#
# Convention : Reuss Voigt Hill
#
# Bulk Modulus (GPa) = 81.12601 85.16522 83.14562
# Shear Modulus (GPa) = 31.19746 35.00608 33.10177
#
# Velocity S-wave (km/s) = 3.69768 3.91689 3.80886
# Velocity P-wave (km/s) = 7.33385 7.60139 7.46882
#
# Compressibility (1/GPa) = 0.01232650
#
# Stress axis : x y z
#
# Youngs Moduli (GPa) = 83.93117 78.40778 78.72902
#
# Poissons Ratio (x) = 0.09055 0.41525
# Poissons Ratio (y) = 0.09693 0.47965
# Poissons Ratio (z) = 0.44269 0.47770
#
# Static dielectric constant tensor:
#      x y z
#    x 4.295660 0.000000 0.000000 
#    y 0.000000 4.017760 0.000000 
#    z 0.000000 0.000000 4.353600 
# 
# 
# High freq. dielectric constant tensor:
#      x y z
#    x 1.907600 0.000000 0.000000 
#    y 0.000000 1.899460 0.000000 
#    z 0.000000 0.000000 1.918690 
# 
# From -- ./inp_files/8953.got.cif
#   From: 2010.03.12/outbox.cif.g09.slc.cpg/sg24_5_cif.got.tgz:8953.got - 2010.04.14 03:06:53.
