data_PCOD8165716
_publ_section_title
;
Structure prediction by ZEFSAII (Michael W. Deem and Ramdas Pophale) SiO2 
 PCOD8165716
Probable space group: I 21 21 21
;
_chemical_formula_sum "Si O2"
_cell_formula_units_Z 60
_cell_length_a 11.824195
_cell_length_b 21.482769
_cell_length_c 11.521468
_cell_angle_alpha 90.000000
_cell_angle_beta 90.000000
_cell_angle_gamma 90.000000
_cell_volume 2926.642398
_symmetry_space_group_name_H-M "I 21 21 21"
_symmetry_group_IT_number 24
_symmetry_cell_setting 'orthorhombic'
loop_
_space_group_symop_operation_xyz
x,y,z
-x,1/2-y,z
x,-y,1/2-z
1/2-x,y,-z
1/2+x,1/2+y,1/2+z
1/2-x,-y,1/2+z
1/2+x,1/2-y,-z
-x,1/2+y,1/2-z
loop_
_atom_site_type_symbol
_atom_site_label
_atom_site_fract_x
_atom_site_fract_y
_atom_site_fract_z
Si Si1 0.157345 0.212813 0.817597
Si Si2 0.421513 0.343182 0.153105
Si Si3 0.994961 0.844457 0.189374
Si Si4 0.834323 0.056920 0.673909
Si Si5 0.086103 0.460482 0.420086
Si Si6 0.010237 0.094346 0.068809
Si Si7 0.250000 0.874126 0.500000
Si Si8 0.686360 0.749394 0.879825
O O1 0.138951 0.278727 0.882411
O O2 0.242727 0.170564 0.889399
O O3 0.208266 0.227990 0.694560
O O4 0.043721 0.173862 0.795603
O O5 0.353841 0.379757 0.253699
O O6 0.429632 0.382294 0.034765
O O7 0.003344 0.911838 0.130753
O O8 0.009132 0.854232 0.328178
O O9 0.872711 0.813059 0.163863
O O10 0.092191 0.804404 0.127475
O O11 0.905416 0.054760 0.555904
O O12 0.703101 0.048211 0.647012
O O13 0.880411 0.000000 0.750000
O O14 0.039539 0.528815 0.390288
O O15 0.138022 0.084440 0.020232
O O16 0.750000 0.761380 0.000000
#
# Coordination Sequence:
#
# PCOD8165716 Si02
#       8
#     8   8   8   8   8   8   4   8
#     4  10  22  40  65  98 129 164 213 278 326 403
#     4  10  23  38  70  96 132 165 214 278 338 396
#     4  11  25  43  68  92 132 178 223 275 337 404
#     4  11  22  43  62  97 130 172 217 272 335 399
#     4  11  25  41  67  94 134 175 218 273 331 406
#     4  11  22  46  67 100 133 171 222 282 336 409
#     4  10  22  42  70  98 132 168 218 272 348 392
#     4  11  26  43  63  95 132 177 222 276 332 404
#
# _framework density 20.501308999999999
#
# number of rings (size 3 to 8) (size 9 to 14) (size 15 to 20)
#    0.000    1.333    2.667    2.000    7.467    2.133 
#    1.200    0.000    2.933    0.000    0.000    0.000 
#    0.000    0.000    0.000    0.000    0.000    0.000 
#
# Total GULP energy -371959.157986 kJ/mol
# GULP energy per Si atom -12398.638600 kJ/mol
# Density = 2.045465 g / cm^3
# Si number density = 20.501309 Si / 1000 Ang^3
#
#
#
# Elastic Constant Matrix: (Units=GPa)
#
#
# Indices 1 2 3 4 5 6 
#
# 1 83.6478 42.9205 40.9434 0.0001 0.0000 0.0000
# 2 42.9205 116.1239 33.7303 0.0001 0.0000 0.0001
# 3 40.9434 33.7303 111.4338 0.0002 0.0000 0.0002
# 4 0.0001 0.0001 0.0002 34.4587 0.0000 0.0001
# 5 0.0000 0.0000 0.0000 0.0000 32.3228 0.0000
# 6 0.0000 0.0001 0.0002 0.0001 0.0000 27.2911
#
#
#
# Elastic Compliance Matrix: (Units=1/GPa)
#
#
# Indices 1 2 3 4 5 6 
#
# 1 0.016721 -0.004819 -0.004685 0.000000 0.000000 0.000000
# 2 -0.004819 0.010831 -0.001508 0.000000 0.000000 0.000000
# 3 -0.004685 -0.001508 0.011152 0.000000 0.000000 0.000000
# 4 0.000000 0.000000 0.000000 0.029020 0.000000 0.000000
# 5 0.000000 0.000000 0.000000 0.000000 0.030938 0.000000
# 6 0.000000 0.000000 0.000000 0.000000 0.000000 0.036642
#
#
# Mechanical properties :
#
#
# Convention : Reuss Voigt Hill
#
# Bulk Modulus (GPa) = 59.95400 60.71044 60.33222
# Shear Modulus (GPa) = 30.69613 31.72192 31.20903
#
# Velocity S-wave (km/s) = 3.87366 3.93786 3.90589
# Velocity P-wave (km/s) = 7.02243 7.09598 7.05930
#
# Compressibility (1/GPa) = 0.01667945
#
# Stress axis : x y z
#
# Youngs Moduli (GPa) = 59.80551 92.33013 89.67318
#
# Poissons Ratio (x) = 0.44497 0.42011
# Poissons Ratio (y) = 0.28823 0.13519
# Poissons Ratio (z) = 0.28018 0.13920
#
# Static dielectric constant tensor:
#      x y z
#    x 3.761000 0.000000 0.000000 
#    y 0.000000 3.817700 0.000000 
#    z 0.000000 0.000000 3.831650 
# 
# 
# High freq. dielectric constant tensor:
#      x y z
#    x 1.798870 0.000000 0.000000 
#    y 0.000000 1.807330 0.000000 
#    z 0.000000 0.000000 1.808550 
# 
# From -- ./inp_files/20006.got.cif
#   From: 2010.03.12/outbox.cif.g09.slc.cpg/sg24_11_cif.got.tgz:20006.got - 2010.04.14 03:06:53.
