data_PCOD8165388
_publ_section_title
;
Structure prediction by ZEFSAII (Michael W. Deem and Ramdas Pophale) SiO2 
 PCOD8165388
Probable space group: I 21 21 21
;
_chemical_formula_sum "Si O2"
_cell_formula_units_Z 40
_cell_length_a 9.649536
_cell_length_b 26.862188
_cell_length_c 8.545728
_cell_angle_alpha 90.000000
_cell_angle_beta 90.000000
_cell_angle_gamma 90.000000
_cell_volume 2215.118074
_symmetry_space_group_name_H-M "I 21 21 21"
_symmetry_group_IT_number 24
_symmetry_cell_setting 'orthorhombic'
loop_
_space_group_symop_operation_xyz
x,y,z
-x,1/2-y,z
x,-y,1/2-z
1/2-x,y,-z
1/2+x,1/2+y,1/2+z
1/2-x,-y,1/2+z
1/2+x,1/2-y,-z
-x,1/2+y,1/2-z
loop_
_atom_site_type_symbol
_atom_site_label
_atom_site_fract_x
_atom_site_fract_y
_atom_site_fract_z
Si Si1 0.891772 0.706592 0.578122
Si Si2 0.787599 0.950022 0.324601
Si Si3 0.286838 0.133656 0.326427
Si Si4 0.538947 0.610938 0.602139
Si Si5 0.019332 0.943510 0.717461
O O1 0.750000 0.726997 0.500000
O O2 0.850693 0.681807 0.742274
O O3 0.968502 0.666587 0.466805
O O4 0.000000 0.750000 0.610845
O O5 0.750000 0.964603 0.500000
O O6 0.643093 0.934437 0.244075
O O7 0.895286 0.904159 0.312861
O O8 0.852937 0.000000 0.250000
O O9 0.250000 0.151193 0.500000
O O10 0.160758 0.109385 0.228715
O O11 0.401246 0.090614 0.341726
O O12 0.564036 0.572160 0.459511
O O13 0.062226 0.000000 0.750000
#
# Coordination Sequence:
#
# PCOD8165388 Si02
#       5
#     8   8   8   8   8
#     4   9  19  37  60  79  98 130 173 218 264 314
#     4   9  18  31  49  74 106 139 175 213 250 297
#     4  10  21  35  51  77 110 137 169 214 260 313
#     4   9  19  35  53  77 106 136 176 216 256 313
#     4   9  18  32  50  75 105 142 182 215 248 297
#
# _framework density 18.057728000000001
#
# number of rings (size 3 to 8) (size 9 to 14) (size 15 to 20)
#    0.000    2.800    0.000    1.800    0.000   11.200 
#    0.000    4.000    0.000    0.000    0.000    0.000 
#    0.000    0.000    0.000    0.000    0.000    0.000 
#
# Total GULP energy -247910.104739 kJ/mol
# GULP energy per Si atom -12395.505237 kJ/mol
# Density = 1.801663 g / cm^3
# Si number density = 18.057728 Si / 1000 Ang^3
#
#
#
# Elastic Constant Matrix: (Units=GPa)
#
#
# Indices 1 2 3 4 5 6 
#
# 1 120.9171 80.5741 53.0132 -0.0028 0.0005 -0.0013
# 2 80.5741 111.1171 48.8231 -0.0005 0.0014 -0.0012
# 3 53.0132 48.8231 70.0933 -0.0164 0.0098 -0.0151
# 4 -0.0028 -0.0005 -0.0164 15.6621 0.0018 -0.0002
# 5 0.0005 0.0014 0.0098 0.0018 18.0905 -0.0034
# 6 -0.0013 -0.0012 -0.0151 -0.0002 -0.0034 41.2150
#
#
#
# Elastic Compliance Matrix: (Units=1/GPa)
#
#
# Indices 1 2 3 4 5 6 
#
# 1 0.017821 -0.010087 -0.006452 -0.000004 0.000004 -0.000002
# 2 -0.010087 0.018679 -0.005381 -0.000007 0.000002 -0.000002
# 3 -0.006452 -0.005381 0.022895 0.000023 -0.000012 0.000008
# 4 -0.000004 -0.000007 0.000023 0.063848 -0.000006 0.000000
# 5 0.000004 0.000002 -0.000012 -0.000006 0.055278 0.000005
# 6 -0.000002 -0.000002 0.000008 0.000000 0.000005 0.024263
#
#
# Mechanical properties :
#
#
# Convention : Reuss Voigt Hill
#
# Bulk Modulus (GPa) = 64.29605 74.10537 69.20071
# Shear Modulus (GPa) = 19.85642 22.97465 21.41554
#
# Velocity S-wave (km/s) = 3.31963 3.57079 3.44750
# Velocity P-wave (km/s) = 7.09763 7.62416 7.36560
#
# Compressibility (1/GPa) = 0.01555306
#
# Stress axis : x y z
#
# Youngs Moduli (GPa) = 56.11494 53.53735 43.67852
#
# Poissons Ratio (x) = 0.54005 0.28180
# Poissons Ratio (y) = 0.56605 0.23504
# Poissons Ratio (z) = 0.36204 0.28809
#
# Static dielectric constant tensor:
#      x y z
#    x 3.737980 0.000010 -0.000010 
#    y 0.000010 3.153720 -0.000010 
#    z -0.000010 -0.000010 3.234790 
# 
# 
# High freq. dielectric constant tensor:
#      x y z
#    x 1.709440 0.000000 0.000000 
#    y 0.000000 1.682310 0.000000 
#    z 0.000000 0.000000 1.684090 
# 
# From -- ./inp_files/9290.got.cif
#   From: 2010.03.12/outbox.cif.g09.slc.cpg/sg24_5_cif.got.tgz:9290.got - 2010.04.14 03:06:53.
