data_PCOD8165594
_publ_section_title
;
Structure prediction by ZEFSAII (Michael W. Deem and Ramdas Pophale) SiO2 
 PCOD8165594
Probable space group: I 21 21 21
;
_chemical_formula_sum "Si O2"
_cell_formula_units_Z 32
_cell_length_a 20.080621
_cell_length_b 9.386810
_cell_length_c 7.600836
_cell_angle_alpha 90.000000
_cell_angle_beta 90.000000
_cell_angle_gamma 90.000000
_cell_volume 1432.704183
_symmetry_space_group_name_H-M "I 21 21 21"
_symmetry_group_IT_number 24
_symmetry_cell_setting 'orthorhombic'
loop_
_space_group_symop_operation_xyz
x,y,z
-x,1/2-y,z
x,-y,1/2-z
1/2-x,y,-z
1/2+x,1/2+y,1/2+z
1/2-x,-y,1/2+z
1/2+x,1/2-y,-z
-x,1/2+y,1/2-z
loop_
_atom_site_type_symbol
_atom_site_label
_atom_site_fract_x
_atom_site_fract_y
_atom_site_fract_z
Si Si1 0.498763 0.077302 0.423365
Si Si2 0.250000 0.202148 0.000000
Si Si3 0.913620 0.000000 0.250000
Si Si4 0.205633 0.306701 0.351456
Si Si5 0.858686 0.523557 0.053948
O O1 0.500000 0.250000 0.423733
O O2 0.538983 0.999452 0.580121
O O3 0.421530 0.037041 0.428926
O O4 0.528274 0.000000 0.250000
O O5 0.249615 0.295973 0.823443
O O6 0.316598 0.109601 0.013631
O O7 0.864566 0.131794 0.284743
O O8 0.250000 0.392339 0.500000
O O9 0.189413 0.159577 0.449259
O O10 0.885729 0.500000 0.250000
#
# Coordination Sequence:
#
# PCOD8165594 Si02
#       5
#     8   4   4   8   8
#     4  12  28  47  75 111 147 200 246 304 373 445
#     4  10  24  42  72 108 138 190 242 310 346 432
#     4  12  28  50  70 104 158 188 242 304 372 448
#     4  11  25  43  71 103 143 185 238 296 368 427
#     4  10  21  42  73 103 139 181 246 301 352 426
#
# _framework density 22.335384000000001
#
# number of rings (size 3 to 8) (size 9 to 14) (size 15 to 20)
#    0.000    1.000    5.000    0.000    5.250    7.000 
#    0.000    0.000    0.000    0.000    0.000    0.000 
#    0.000    0.000    0.000    0.000    0.000    0.000 
#
# Total GULP energy -198242.230081 kJ/mol
# GULP energy per Si atom -12390.139380 kJ/mol
# Density = 2.228455 g / cm^3
# Si number density = 22.335384 Si / 1000 Ang^3
#
#
#
# Elastic Constant Matrix: (Units=GPa)
#
#
# Indices 1 2 3 4 5 6 
#
# 1 117.8863 23.7652 83.0542 0.0000 0.0000 0.0000
# 2 23.7652 47.1355 45.6337 0.0000 0.0000 0.0000
# 3 83.0542 45.6337 181.4698 0.0000 0.0000 0.0000
# 4 0.0000 0.0000 0.0000 27.2878 0.0000 0.0000
# 5 0.0000 0.0000 0.0000 0.0000 33.6482 0.0000
# 6 0.0000 0.0000 0.0000 0.0000 0.0000 30.8390
#
#
#
# Elastic Compliance Matrix: (Units=1/GPa)
#
#
# Indices 1 2 3 4 5 6 
#
# 1 0.012556 -0.001014 -0.005492 0.000000 0.000000 0.000000
# 2 -0.001014 0.028124 -0.006608 0.000000 0.000000 0.000000
# 3 -0.005492 -0.006608 0.009686 0.000000 0.000000 0.000000
# 4 0.000000 0.000000 0.000000 0.036646 0.000000 0.000000
# 5 0.000000 0.000000 0.000000 0.000000 0.029719 0.000000
# 6 0.000000 0.000000 0.000000 0.000000 0.000000 0.032427
#
#
# Mechanical properties :
#
#
# Convention : Reuss Voigt Hill
#
# Bulk Modulus (GPa) = 41.42769 72.37754 56.90262
# Shear Modulus (GPa) = 27.25796 31.29090 29.27443
#
# Velocity S-wave (km/s) = 3.49720 3.74700 3.62425
# Velocity P-wave (km/s) = 5.90724 7.15508 6.56090
#
# Compressibility (1/GPa) = 0.02413844
#
# Stress axis : x y z
#
# Youngs Moduli (GPa) = 79.64193 35.55624 103.24470
#
# Poissons Ratio (x) = 0.03605 0.56699
# Poissons Ratio (y) = 0.08076 0.68227
# Poissons Ratio (z) = 0.43737 0.23497
#
# Static dielectric constant tensor:
#      x y z
#    x 4.130050 0.000000 0.000000 
#    y 0.000000 3.927490 0.000000 
#    z 0.000000 0.000000 4.206790 
# 
# 
# High freq. dielectric constant tensor:
#      x y z
#    x 1.891790 0.000000 0.000000 
#    y 0.000000 1.864030 0.000000 
#    z 0.000000 0.000000 1.893100 
# 
# From -- ./inp_files/14784.got.cif
#   From: 2010.03.12/outbox.cif.g09.slc.cpg/sg24_8_cif.got.tgz:14784.got - 2010.04.14 03:06:53.
