data_PCOD8165865
_publ_section_title
;
Structure prediction by ZEFSAII (Michael W. Deem and Ramdas Pophale) SiO2 
 PCOD8165865
Probable space group: I 21 21 21
;
_chemical_formula_sum "Si O2"
_cell_formula_units_Z 56
_cell_length_a 11.916023
_cell_length_b 12.376618
_cell_length_c 17.100890
_cell_angle_alpha 90.000000
_cell_angle_beta 90.000000
_cell_angle_gamma 90.000000
_cell_volume 2522.040364
_symmetry_space_group_name_H-M "I 21 21 21"
_symmetry_group_IT_number 24
_symmetry_cell_setting 'orthorhombic'
loop_
_space_group_symop_operation_xyz
x,y,z
-x,1/2-y,z
x,-y,1/2-z
1/2-x,y,-z
1/2+x,1/2+y,1/2+z
1/2-x,-y,1/2+z
1/2+x,1/2-y,-z
-x,1/2+y,1/2-z
loop_
_atom_site_type_symbol
_atom_site_label
_atom_site_fract_x
_atom_site_fract_y
_atom_site_fract_z
Si Si1 0.334675 0.275650 0.868219
Si Si2 0.837333 0.080584 0.936551
Si Si3 0.333754 0.892704 0.931827
Si Si4 0.481993 0.903340 0.562791
Si Si5 0.595585 0.500000 0.250000
Si Si6 0.500000 0.250000 0.488289
Si Si7 0.224542 0.197188 0.723548
Si Si8 0.085356 0.610776 0.852507
O O1 0.210092 0.308679 0.898281
O O2 0.383282 0.185336 0.927703
O O3 0.420544 0.377079 0.873358
O O4 0.325916 0.241271 0.777241
O O5 0.832772 0.989594 0.868716
O O6 0.750000 0.037462 0.000000
O O7 0.960439 0.099190 0.975934
O O8 0.266771 0.863437 0.853751
O O9 0.428632 0.981872 0.916352
O O10 0.250000 0.933168 0.000000
O O11 0.395906 0.784164 0.958296
O O12 0.669103 0.603318 0.278187
O O13 0.523559 0.555583 0.183189
O O14 0.544814 0.152843 0.435872
O O15 0.139571 0.294921 0.700587
#
# Coordination Sequence:
#
# PCOD8165865 Si02
#       8
#     8   8   8   8   4   4   8   8
#     4  10  24  47  66 102 145 185 233 283 354 432
#     4  10  23  44  69 103 138 185 234 293 345 418
#     4  12  25  44  75 106 136 183 237 302 349 417
#     4  10  23  45  70  97 141 184 238 286 347 424
#     4  12  24  44  66 104 136 184 236 288 352 418
#     4  12  24  44  70 106 136 178 234 292 354 412
#     4  12  26  45  70 102 145 186 227 299 354 423
#     4  12  23  44  69 101 141 179 239 289 356 413
#
# _framework density 22.204246000000001
#
# number of rings (size 3 to 8) (size 9 to 14) (size 15 to 20)
#    0.000    0.857    4.286    1.714    2.000    4.000 
#   12.857    4.286    0.000    0.000    0.000    0.000 
#    0.000    0.000    0.000    0.000    0.000    0.000 
#
# Total GULP energy -347002.843986 kJ/mol
# GULP energy per Si atom -12392.958714 kJ/mol
# Density = 2.215371 g / cm^3
# Si number density = 22.204246 Si / 1000 Ang^3
#
#
#
# Elastic Constant Matrix: (Units=GPa)
#
#
# Indices 1 2 3 4 5 6 
#
# 1 102.1938 66.4443 49.9714 0.0000 0.0000 0.0000
# 2 66.4443 134.5576 67.2008 0.0000 0.0000 0.0000
# 3 49.9714 67.2008 88.4696 0.0000 0.0000 0.0000
# 4 0.0000 0.0000 0.0000 9.7263 0.0000 0.0000
# 5 0.0000 0.0000 0.0000 0.0000 9.6898 0.0000
# 6 0.0000 0.0000 0.0000 0.0000 0.0000 57.6027
#
#
#
# Elastic Compliance Matrix: (Units=1/GPa)
#
#
# Indices 1 2 3 4 5 6 
#
# 1 0.015564 -0.005309 -0.004759 0.000000 0.000000 0.000000
# 2 -0.005309 0.013785 -0.007472 0.000000 0.000000 0.000000
# 3 -0.004759 -0.007472 0.019667 0.000000 0.000000 0.000000
# 4 0.000000 0.000000 0.000000 0.102814 0.000000 0.000000
# 5 0.000000 0.000000 0.000000 0.000000 0.103202 0.000000
# 6 0.000000 0.000000 0.000000 0.000000 0.000000 0.017360
#
#
# Mechanical properties :
#
#
# Convention : Reuss Voigt Hill
#
# Bulk Modulus (GPa) = 71.75415 76.93932 74.34674
# Shear Modulus (GPa) = 16.01960 24.84405 20.43182
#
# Velocity S-wave (km/s) = 2.68893 3.34861 3.03673
# Velocity P-wave (km/s) = 6.48275 7.04818 6.77137
#
# Compressibility (1/GPa) = 0.01393648
#
# Stress axis : x y z
#
# Youngs Moduli (GPa) = 64.25100 72.54176 50.84632
#
# Poissons Ratio (x) = 0.38512 0.24196
# Poissons Ratio (y) = 0.34110 0.37994
# Poissons Ratio (z) = 0.30574 0.54206
#
# Static dielectric constant tensor:
#      x y z
#    x 4.206120 0.000000 0.000000 
#    y 0.000000 4.506250 0.000000 
#    z 0.000000 0.000000 3.651290 
# 
# 
# High freq. dielectric constant tensor:
#      x y z
#    x 1.879600 0.000000 0.000000 
#    y 0.000000 1.886130 0.000000 
#    z 0.000000 0.000000 1.858500 
# 
# From -- ./inp_files/33417.got.cif
#   From: 2010.03.12/outbox.cif.g09.slc.cpg/sg24_17_cif.got.tgz:33417.got - 2010.04.14 03:06:53.
