data_PCOD8165145
_publ_section_title
;
Structure prediction by ZEFSAII (Michael W. Deem and Ramdas Pophale) SiO2 
 PCOD8165145
Probable space group: I 21 21 21
;
_chemical_formula_sum "Si O2"
_cell_formula_units_Z 56
_cell_length_a 14.245516
_cell_length_b 20.174696
_cell_length_c 8.945987
_cell_angle_alpha 90.000000
_cell_angle_beta 90.000000
_cell_angle_gamma 90.000000
_cell_volume 2571.067312
_symmetry_space_group_name_H-M "I 21 21 21"
_symmetry_group_IT_number 24
_symmetry_cell_setting 'orthorhombic'
loop_
_space_group_symop_operation_xyz
x,y,z
-x,1/2-y,z
x,-y,1/2-z
1/2-x,y,-z
1/2+x,1/2+y,1/2+z
1/2-x,-y,1/2+z
1/2+x,1/2-y,-z
-x,1/2+y,1/2-z
loop_
_atom_site_type_symbol
_atom_site_label
_atom_site_fract_x
_atom_site_fract_y
_atom_site_fract_z
Si Si1 0.397220 0.383624 0.567980
Si Si2 0.722256 0.722151 0.655085
Si Si3 0.892560 0.761439 0.864500
Si Si4 0.330094 0.364858 0.882455
Si Si5 0.538718 0.021031 0.922792
Si Si6 0.840619 0.491493 0.423636
Si Si7 0.606706 0.348376 0.607462
O O1 0.373150 0.335314 0.429570
O O2 0.320193 0.383056 0.703812
O O3 0.405509 0.458737 0.501695
O O4 0.496331 0.358817 0.639955
O O5 0.750000 0.687050 0.500000
O O6 0.817243 0.748113 0.735581
O O7 0.656920 0.785736 0.613946
O O8 0.660850 0.668038 0.739949
O O9 0.000000 0.750000 0.806439
O O10 0.872260 0.712049 0.999118
O O11 0.416502 0.407295 0.948246
O O12 0.250000 0.386366 0.000000
O O13 0.531646 0.000000 0.750000
O O14 0.433326 0.028094 0.986450
O O15 0.827810 0.500000 0.250000
O O16 0.750000 0.523155 0.500000
O O17 0.849952 0.413961 0.465387
#
# Coordination Sequence:
#
# PCOD8165145 Si02
#       7
#     8   8   8   8   8   8   8
#     4   9  18  36  62  88 114 161 208 247 304 352
#     4  11  23  38  58  92 127 159 199 242 309 365
#     4  10  20  38  62  90 118 153 204 255 297 353
#     4  10  20  36  55  87 125 163 204 244 290 357
#     4   8  17  36  57  84 119 161 207 244 297 361
#     4  10  20  36  64  89 120 154 199 254 306 361
#     4  10  20  38  66  89 117 160 204 254 299 364
#
# _framework density 21.780836000000001
#
# number of rings (size 3 to 8) (size 9 to 14) (size 15 to 20)
#    0.000    2.286    1.429    2.143    0.000    0.571 
#   12.857    0.000   18.857    0.000    0.000    0.000 
#    0.000    0.000    0.000    0.000    0.000    0.000 
#
# Total GULP energy -346896.945058 kJ/mol
# GULP energy per Si atom -12389.176609 kJ/mol
# Density = 2.173126 g / cm^3
# Si number density = 21.780836 Si / 1000 Ang^3
#
#
#
# Elastic Constant Matrix: (Units=GPa)
#
#
# Indices 1 2 3 4 5 6 
#
# 1 101.4900 27.2319 35.8617 0.0000 0.0000 0.0000
# 2 27.2319 66.7798 1.2711 0.0000 0.0000 0.0000
# 3 35.8617 1.2711 66.5287 0.0001 0.0000 0.0000
# 4 0.0000 0.0000 0.0001 10.6979 0.0000 0.0000
# 5 0.0000 0.0000 0.0000 0.0000 30.3357 0.0000
# 6 0.0000 0.0000 0.0000 0.0000 0.0000 26.8687
#
#
#
# Elastic Compliance Matrix: (Units=1/GPa)
#
#
# Indices 1 2 3 4 5 6 
#
# 1 0.013966 -0.005554 -0.007422 0.000000 0.000000 0.000000
# 2 -0.005554 0.017189 0.002665 0.000000 0.000000 0.000000
# 3 -0.007422 0.002665 0.018981 0.000000 0.000000 0.000000
# 4 0.000000 0.000000 0.000000 0.093476 0.000000 0.000000
# 5 0.000000 0.000000 0.000000 0.000000 0.032964 0.000000
# 6 0.000000 0.000000 0.000000 0.000000 0.000000 0.037218
#
#
# Mechanical properties :
#
#
# Convention : Reuss Voigt Hill
#
# Bulk Modulus (GPa) = 33.88179 40.39198 37.13689
# Shear Modulus (GPa) = 20.47052 24.94272 22.70662
#
# Velocity S-wave (km/s) = 3.06901 3.38770 3.23229
# Velocity P-wave (km/s) = 5.30547 5.82126 5.56934
#
# Compressibility (1/GPa) = 0.02951438
#
# Stress axis : x y z
#
# Youngs Moduli (GPa) = 71.60214 58.17795 52.68411
#
# Poissons Ratio (x) = 0.32311 0.39103
# Poissons Ratio (y) = 0.39767 -0.14042
# Poissons Ratio (z) = 0.53144 -0.15507
#
# Static dielectric constant tensor:
#      x y z
#    x 4.161200 0.000000 0.000000 
#    y 0.000000 4.249080 0.000000 
#    z 0.000000 0.000000 3.436910 
# 
# 
# High freq. dielectric constant tensor:
#      x y z
#    x 1.854640 0.000000 0.000000 
#    y 0.000000 1.862150 0.000000 
#    z 0.000000 0.000000 1.822290 
# 
# From -- ./inp_files/13120.got.cif
#   From: 2010.03.12/outbox.cif.g09.slc.cpg/sg24_7_cif.got.tgz:13120.got - 2010.04.14 03:06:53.
