data_PCOD8165336
_publ_section_title
;
Structure prediction by ZEFSAII (Michael W. Deem and Ramdas Pophale) SiO2 
 PCOD8165336
Probable space group: I 21 21 21
;
_chemical_formula_sum "Si O2"
_cell_formula_units_Z 56
_cell_length_a 9.324230
_cell_length_b 16.397194
_cell_length_c 17.796650
_cell_angle_alpha 90.000000
_cell_angle_beta 90.000000
_cell_angle_gamma 90.000000
_cell_volume 2720.951321
_symmetry_space_group_name_H-M "I 21 21 21"
_symmetry_group_IT_number 24
_symmetry_cell_setting 'orthorhombic'
loop_
_space_group_symop_operation_xyz
x,y,z
-x,1/2-y,z
x,-y,1/2-z
1/2-x,y,-z
1/2+x,1/2+y,1/2+z
1/2-x,-y,1/2+z
1/2+x,1/2-y,-z
-x,1/2+y,1/2-z
loop_
_atom_site_type_symbol
_atom_site_label
_atom_site_fract_x
_atom_site_fract_y
_atom_site_fract_z
Si Si1 0.537781 0.101648 0.819496
Si Si2 0.917135 0.168153 0.017736
Si Si3 0.504061 0.429433 0.608780
Si Si4 0.091971 0.981851 0.531755
Si Si5 0.238898 0.645439 0.191088
Si Si6 0.800532 0.335834 0.289581
Si Si7 0.532989 0.563230 0.188079
O O1 0.570138 0.150568 0.894578
O O2 0.678582 0.102224 0.766700
O O3 0.407706 0.148313 0.779189
O O4 0.492374 0.009284 0.837737
O O5 0.000000 0.250000 0.995793
O O6 0.750000 0.176173 0.000000
O O7 0.990727 0.097407 0.968206
O O8 0.520988 0.450193 0.521701
O O9 0.354697 0.382408 0.619524
O O10 0.632799 0.370151 0.633246
O O11 0.250000 0.959172 0.500000
O O12 0.097221 0.018028 0.615048
O O13 0.229617 0.741330 0.201935
O O14 0.398916 0.620321 0.169510
O O15 0.652835 0.381321 0.273075
O O16 0.480012 0.500000 0.250000
#
# Coordination Sequence:
#
# PCOD8165336 Si02
#       7
#     8   8   8   8   8   8   8
#     4  10  21  41  69  95 130 177 222 260 324 416
#     4  11  25  44  70 101 137 173 218 277 342 396
#     4  10  20  40  69  88 125 173 220 265 328 399
#     4  11  25  45  67  94 130 174 229 268 325 411
#     4  11  23  39  63  99 133 161 222 279 336 390
#     4  11  21  41  64  97 126 173 219 274 324 394
#     4  12  26  42  65  93 131 173 218 275 338 394
#
# _framework density 20.581036999999998
#
# number of rings (size 3 to 8) (size 9 to 14) (size 15 to 20)
#    0.000    1.143    1.429    6.857    8.000    0.000 
#    2.571    4.286    0.000    0.000    0.000    0.000 
#    0.000    0.000    0.000    0.000    0.000    0.000 
#
# Total GULP energy -347284.719357 kJ/mol
# GULP energy per Si atom -12403.025691 kJ/mol
# Density = 2.053419 g / cm^3
# Si number density = 20.581037 Si / 1000 Ang^3
#
#
#
# Elastic Constant Matrix: (Units=GPa)
#
#
# Indices 1 2 3 4 5 6 
#
# 1 153.4967 48.1049 19.8522 0.0000 0.0000 0.0000
# 2 48.1049 95.7621 30.0540 0.0000 0.0000 0.0000
# 3 19.8522 30.0540 85.0850 0.0000 0.0000 0.0000
# 4 0.0000 0.0000 0.0000 12.6711 0.0000 0.0000
# 5 0.0000 0.0000 0.0000 0.0000 16.7802 0.0000
# 6 0.0000 0.0000 0.0000 0.0000 0.0000 35.3824
#
#
#
# Elastic Compliance Matrix: (Units=1/GPa)
#
#
# Indices 1 2 3 4 5 6 
#
# 1 0.007750 -0.003740 -0.000487 0.000000 0.000000 0.000000
# 2 -0.003740 0.013550 -0.003913 0.000000 0.000000 0.000000
# 3 -0.000487 -0.003913 0.013249 0.000000 0.000000 0.000000
# 4 0.000000 0.000000 0.000000 0.078920 0.000000 0.000000
# 5 0.000000 0.000000 0.000000 0.000000 0.059594 0.000000
# 6 0.000000 0.000000 0.000000 0.000000 0.000000 0.028263
#
#
# Mechanical properties :
#
#
# Convention : Reuss Voigt Hill
#
# Bulk Modulus (GPa) = 54.74332 58.92956 56.83644
# Shear Modulus (GPa) = 22.35184 28.72225 25.53705
#
# Velocity S-wave (km/s) = 3.29909 3.73978 3.52633
# Velocity P-wave (km/s) = 6.41628 6.88063 6.65251
#
# Compressibility (1/GPa) = 0.01826707
#
# Stress axis : x y z
#
# Youngs Moduli (GPa) = 129.03296 73.80312 75.47796
#
# Poissons Ratio (x) = 0.27604 0.03677
# Poissons Ratio (y) = 0.48261 0.29537
# Poissons Ratio (z) = 0.06285 0.28882
#
# Static dielectric constant tensor:
#      x y z
#    x 3.893190 0.000000 0.000000 
#    y 0.000000 3.825790 0.000000 
#    z 0.000000 0.000000 3.649950 
# 
# 
# High freq. dielectric constant tensor:
#      x y z
#    x 1.816830 0.000000 0.000000 
#    y 0.000000 1.813770 0.000000 
#    z 0.000000 0.000000 1.794260 
# 
# From -- ./inp_files/32829.got.cif
#   From: 2010.03.12/outbox.cif.g09.slc.cpg/sg24_17_cif.got.tgz:32829.got - 2010.04.14 03:06:53.
