data_PCOD8165738
_publ_section_title
;
Structure prediction by ZEFSAII (Michael W. Deem and Ramdas Pophale) SiO2 
 PCOD8165738
Probable space group: I 21 21 21
;
_chemical_formula_sum "Si O2"
_cell_formula_units_Z 64
_cell_length_a 14.983513
_cell_length_b 24.156177
_cell_length_c 8.757046
_cell_angle_alpha 90.000000
_cell_angle_beta 90.000000
_cell_angle_gamma 90.000000
_cell_volume 3169.563691
_symmetry_space_group_name_H-M "I 21 21 21"
_symmetry_group_IT_number 24
_symmetry_cell_setting 'orthorhombic'
loop_
_space_group_symop_operation_xyz
x,y,z
-x,1/2-y,z
x,-y,1/2-z
1/2-x,y,-z
1/2+x,1/2+y,1/2+z
1/2-x,-y,1/2+z
1/2+x,1/2-y,-z
-x,1/2+y,1/2-z
loop_
_atom_site_type_symbol
_atom_site_label
_atom_site_fract_x
_atom_site_fract_y
_atom_site_fract_z
Si Si1 0.681115 0.551145 0.359532
Si Si2 0.675652 0.951746 0.375408
Si Si3 0.899801 0.245700 0.656494
Si Si4 0.495726 0.955014 0.547533
Si Si5 0.346134 0.659415 0.924934
Si Si6 0.495140 0.080498 0.624436
Si Si7 0.840792 0.368398 0.587891
Si Si8 0.271350 0.668929 0.329305
O O1 0.709718 0.500000 0.250000
O O2 0.750000 0.558331 0.500000
O O3 0.584642 0.542895 0.429801
O O4 0.672453 0.604843 0.253972
O O5 0.750000 0.969118 0.500000
O O6 0.583969 0.936086 0.459664
O O7 0.700573 0.894382 0.291637
O O8 0.664821 0.000000 0.250000
O O9 0.897403 0.210087 0.502356
O O10 0.858895 0.304703 0.618762
O O11 0.845853 0.213252 0.785112
O O12 0.000000 0.250000 0.717405
O O13 0.475470 0.914021 0.692465
O O14 0.512090 0.016744 0.600373
O O15 0.411335 0.607419 0.922993
O O16 0.322317 0.680001 0.755745
O O17 0.250000 0.644698 0.000000
O O18 0.416965 0.104249 0.517831
O O19 0.750000 0.376886 0.500000
O O20 0.250000 0.680335 0.500000
#
# Coordination Sequence:
#
# PCOD8165738 Si02
#       8
#     8   8   8   8   8   8   8   8
#     4  12  26  44  69  97 131 173 219 271 344 398
#     4  11  26  39  64  99 140 179 226 265 328 400
#     4  11  24  43  72  96 123 170 230 270 330 392
#     4  11  26  40  63  98 135 176 212 272 322 394
#     4  10  22  41  67  95 127 177 219 265 323 388
#     4  11  23  41  65  95 136 173 223 261 329 388
#     4  12  25  45  69  97 128 169 222 283 321 400
#     4  10  23  43  64  92 138 173 210 273 339 386
#
# _framework density 20.192053999999999
#
# number of rings (size 3 to 8) (size 9 to 14) (size 15 to 20)
#    0.000    1.000    2.500    4.125   10.500    0.500 
#    0.000    1.875    0.000    0.000    0.000    0.000 
#    0.000    0.000    0.000    0.000    0.000    0.000 
#
# Total GULP energy -396686.913406 kJ/mol
# GULP energy per Si atom -12396.466044 kJ/mol
# Density = 2.014610 g / cm^3
# Si number density = 20.192054 Si / 1000 Ang^3
#
#
#
# Elastic Constant Matrix: (Units=GPa)
#
#
# Indices 1 2 3 4 5 6 
#
# 1 131.0861 33.3455 45.2343 0.0004 -0.0001 -0.0004
# 2 33.3455 112.6078 55.5245 0.0026 -0.0005 -0.0005
# 3 45.2343 55.5245 130.0124 0.0078 -0.0013 -0.0003
# 4 0.0004 0.0026 0.0078 25.7405 -0.0010 -0.0007
# 5 -0.0001 -0.0005 -0.0013 -0.0010 24.2798 0.0009
# 6 -0.0004 -0.0005 -0.0003 -0.0007 0.0009 26.0188
#
#
#
# Elastic Compliance Matrix: (Units=1/GPa)
#
#
# Indices 1 2 3 4 5 6 
#
# 1 0.008839 -0.001395 -0.002480 0.000001 0.000000 0.000000
# 2 -0.001395 0.011469 -0.004413 0.000000 0.000000 0.000000
# 3 -0.002480 -0.004413 0.010439 -0.000003 0.000000 0.000000
# 4 0.000001 0.000000 -0.000003 0.038849 0.000002 0.000001
# 5 0.000000 0.000000 0.000000 0.000002 0.041186 -0.000001
# 6 0.000000 0.000000 0.000000 0.000001 -0.000001 0.038434
#
#
# Mechanical properties :
#
#
# Convention : Reuss Voigt Hill
#
# Bulk Modulus (GPa) = 70.55867 71.32386 70.94126
# Shear Modulus (GPa) = 29.32283 31.18130 30.25207
#
# Velocity S-wave (km/s) = 3.81490 3.93394 3.87488
# Velocity P-wave (km/s) = 7.37728 7.48558 7.43163
#
# Compressibility (1/GPa) = 0.01417260
#
# Stress axis : x y z
#
# Youngs Moduli (GPa) = 113.13463 87.18911 95.79520
#
# Poissons Ratio (x) = 0.12161 0.23754
# Poissons Ratio (y) = 0.15780 0.42274
# Poissons Ratio (z) = 0.28053 0.38476
#
# Static dielectric constant tensor:
#      x y z
#    x 3.892420 0.000000 -0.000010 
#    y 0.000000 3.675780 0.000000 
#    z -0.000010 0.000000 4.242610 
# 
# 
# High freq. dielectric constant tensor:
#      x y z
#    x 1.801340 0.000000 0.000000 
#    y 0.000000 1.785190 0.000000 
#    z 0.000000 0.000000 1.805320 
# 
# From -- ./inp_files/13352.got.cif
#   From: 2010.03.12/outbox.cif.g09.slc.cpg/sg24_7_cif.got.tgz:13352.got - 2010.04.14 03:06:53.
