data_PCOD8165193
_publ_section_title
;
Structure prediction by ZEFSAII (Michael W. Deem and Ramdas Pophale) SiO2 
 PCOD8165193
Probable space group: I 21 21 21
;
_chemical_formula_sum "Si O2"
_cell_formula_units_Z 40
_cell_length_a 5.073488
_cell_length_b 23.205809
_cell_length_c 15.548536
_cell_angle_alpha 90.000000
_cell_angle_beta 90.000000
_cell_angle_gamma 90.000000
_cell_volume 1830.597456
_symmetry_space_group_name_H-M "I 21 21 21"
_symmetry_group_IT_number 24
_symmetry_cell_setting 'orthorhombic'
loop_
_space_group_symop_operation_xyz
x,y,z
-x,1/2-y,z
x,-y,1/2-z
1/2-x,y,-z
1/2+x,1/2+y,1/2+z
1/2-x,-y,1/2+z
1/2+x,1/2-y,-z
-x,1/2+y,1/2-z
loop_
_atom_site_type_symbol
_atom_site_label
_atom_site_fract_x
_atom_site_fract_y
_atom_site_fract_z
Si Si1 0.736911 0.598075 0.098243
Si Si2 0.634316 0.349511 0.764265
Si Si3 0.735852 0.023885 0.598349
Si Si4 0.000000 0.750000 0.368881
Si Si5 0.880328 0.097236 0.842694
Si Si6 0.750000 0.162317 0.000000
O O1 0.815880 0.651183 0.161172
O O2 0.445556 0.574312 0.118815
O O3 0.943137 0.546670 0.116743
O O4 0.750000 0.620411 0.000000
O O5 0.696219 0.285910 0.805216
O O6 0.335334 0.366614 0.788449
O O7 0.834283 0.397480 0.800112
O O8 0.750000 0.003858 0.500000
O O9 0.792394 0.969077 0.658266
O O10 0.106069 0.702022 0.432139
O O11 0.926472 0.120875 0.940205
#
# Coordination Sequence:
#
# PCOD8165193 Si02
#       6
#     8   8   8   4   8   4
#     4  10  22  39  60  82 120 159 199 247 308 349
#     4  11  24  38  59  88 114 159 203 257 291 350
#     4  10  20  37  58  88 122 162 193 239 295 369
#     4  10  22  40  62  86 124 156 208 248 300 348
#     4  11  22  36  60  90 123 153 199 235 298 371
#     4  10  20  38  60  88 120 164 184 240 302 366
#
# _framework density 21.850788999999999
#
# number of rings (size 3 to 8) (size 9 to 14) (size 15 to 20)
#    0.000    1.600    1.000    3.600    0.000    9.600 
#    0.000    0.000    0.000    8.400    0.000    0.000 
#    0.000    0.000    0.000    0.000    0.000    0.000 
#
# Total GULP energy -247829.376250 kJ/mol
# GULP energy per Si atom -12391.468813 kJ/mol
# Density = 2.180106 g / cm^3
# Si number density = 21.850789 Si / 1000 Ang^3
#
#
#
# Elastic Constant Matrix: (Units=GPa)
#
#
# Indices 1 2 3 4 5 6 
#
# 1 85.3012 8.1200 20.7804 0.0000 0.0000 0.0000
# 2 8.1200 49.7864 59.9239 -0.0003 0.0000 0.0000
# 3 20.7804 59.9239 138.1549 0.0000 0.0000 0.0000
# 4 0.0000 -0.0003 0.0000 106.7630 -0.0001 0.0000
# 5 0.0000 0.0000 0.0000 -0.0001 26.2204 0.0000
# 6 0.0000 0.0000 0.0000 0.0000 0.0000 18.7070
#
#
#
# Elastic Compliance Matrix: (Units=1/GPa)
#
#
# Indices 1 2 3 4 5 6 
#
# 1 0.012174 0.000457 -0.002029 0.000000 0.000000 0.000000
# 2 0.000457 0.042043 -0.018305 0.000000 0.000000 0.000000
# 3 -0.002029 -0.018305 0.015483 0.000000 0.000000 0.000000
# 4 0.000000 0.000000 0.000000 0.009367 0.000000 0.000000
# 5 0.000000 0.000000 0.000000 0.000000 0.038138 0.000000
# 6 0.000000 0.000000 0.000000 0.000000 0.000000 0.053456
#
#
# Mechanical properties :
#
#
# Convention : Reuss Voigt Hill
#
# Bulk Modulus (GPa) = 33.39318 50.09899 41.74609
# Shear Modulus (GPa) = 22.68628 42.63261 32.65945
#
# Velocity S-wave (km/s) = 3.22566 4.42189 3.87027
# Velocity P-wave (km/s) = 5.40266 7.00346 6.25448
#
# Compressibility (1/GPa) = 0.02994623
#
# Stress axis : x y z
#
# Youngs Moduli (GPa) = 82.14197 23.78501 64.58658
#
# Poissons Ratio (x) = -0.01087 0.13107
# Poissons Ratio (y) = -0.03755 1.18224
# Poissons Ratio (z) = 0.16670 0.43538
#
# Static dielectric constant tensor:
#      x y z
#    x 1.227870 0.000000 0.000000 
#    y 0.000000 4.108840 0.000000 
#    z 0.000000 0.000000 4.779960 
# 
# 
# High freq. dielectric constant tensor:
#      x y z
#    x 1.850480 0.000000 0.000000 
#    y 0.000000 1.831590 0.000000 
#    z 0.000000 0.000000 1.875500 
# 
# From -- ./inp_files/23753.got.cif
#   From: 2010.03.12/outbox.cif.g09.slc.cpg/sg24_12_cif.got.tgz:23753.got - 2010.04.14 03:06:53.
