data_PCOD8165802
_publ_section_title
;
Structure prediction by ZEFSAII (Michael W. Deem and Ramdas Pophale) SiO2 
 PCOD8165802
Probable space group: I 21 21 21
;
_chemical_formula_sum "Si O2"
_cell_formula_units_Z 56
_cell_length_a 15.213725
_cell_length_b 9.352344
_cell_length_c 18.456259
_cell_angle_alpha 90.000000
_cell_angle_beta 90.000000
_cell_angle_gamma 90.000000
_cell_volume 2626.030166
_symmetry_space_group_name_H-M "I 21 21 21"
_symmetry_group_IT_number 24
_symmetry_cell_setting 'orthorhombic'
loop_
_space_group_symop_operation_xyz
x,y,z
-x,1/2-y,z
x,-y,1/2-z
1/2-x,y,-z
1/2+x,1/2+y,1/2+z
1/2-x,-y,1/2+z
1/2+x,1/2-y,-z
-x,1/2+y,1/2-z
loop_
_atom_site_type_symbol
_atom_site_label
_atom_site_fract_x
_atom_site_fract_y
_atom_site_fract_z
Si Si1 0.788106 0.992360 0.424628
Si Si2 0.626201 0.518631 0.831105
Si Si3 0.232231 0.216105 0.852185
Si Si4 0.739646 0.763090 0.184319
Si Si5 0.061690 0.877763 0.808935
Si Si6 0.490225 0.590679 0.569428
Si Si7 0.550105 0.611415 0.407649
O O1 0.750000 0.055305 0.500000
O O2 0.760776 0.089995 0.356540
O O3 0.742080 0.841351 0.410282
O O4 0.891712 0.967509 0.434122
O O5 0.591836 0.500000 0.750000
O O6 0.684464 0.385810 0.856462
O O7 0.679064 0.664610 0.837463
O O8 0.540768 0.524512 0.881518
O O9 0.226192 0.281475 0.770964
O O10 0.149224 0.124450 0.878283
O O11 0.649629 0.690834 0.157341
O O12 0.000000 0.750000 0.778732
O O13 0.085279 0.000000 0.750000
O O14 0.011689 0.964533 0.873002
O O15 0.500000 0.750000 0.603931
O O16 0.539920 0.597650 0.492945
O O17 0.500000 0.750000 0.377586
#
# Coordination Sequence:
#
# PCOD8165802 Si02
#       7
#     8   8   8   8   8   8   8
#     4  12  27  44  67 104 142 182 235 292 360 430
#     4  10  22  45  72  95 132 176 228 290 349 429
#     4  11  22  45  73  98 136 183 234 285 356 428
#     4  11  25  45  68 102 140 180 233 293 364 425
#     4  12  25  43  68 101 143 183 233 293 359 434
#     4  11  24  45  68 101 136 183 241 289 357 438
#     4  11  24  43  70 101 138 183 238 290 354 434
#
# _framework density 21.324964000000001
#
# number of rings (size 3 to 8) (size 9 to 14) (size 15 to 20)
#    0.000    0.857    4.286    3.000    4.000    2.857 
#    0.000    0.000    0.000    0.000    0.000    0.000 
#    0.000    0.000    0.000    0.000    0.000    0.000 
#
# Total GULP energy -347123.000507 kJ/mol
# GULP energy per Si atom -12397.250018 kJ/mol
# Density = 2.127643 g / cm^3
# Si number density = 21.324964 Si / 1000 Ang^3
#
#
#
# Elastic Constant Matrix: (Units=GPa)
#
#
# Indices 1 2 3 4 5 6 
#
# 1 125.9070 41.8447 49.9058 0.0000 0.0000 0.0000
# 2 41.8447 91.6963 41.5371 0.0000 0.0000 0.0000
# 3 49.9058 41.5371 86.7006 0.0000 0.0000 0.0000
# 4 0.0000 0.0000 0.0000 40.6827 0.0000 0.0000
# 5 0.0000 0.0000 0.0000 0.0000 39.7349 0.0000
# 6 0.0000 0.0000 0.0000 0.0000 0.0000 21.8285
#
#
#
# Elastic Compliance Matrix: (Units=1/GPa)
#
#
# Indices 1 2 3 4 5 6 
#
# 1 0.010787 -0.002695 -0.004918 0.000000 0.000000 0.000000
# 2 -0.002695 0.014601 -0.005444 0.000000 0.000000 0.000000
# 3 -0.004918 -0.005444 0.016973 0.000000 0.000000 0.000000
# 4 0.000000 0.000000 0.000000 0.024580 0.000000 0.000000
# 5 0.000000 0.000000 0.000000 0.000000 0.025167 0.000000
# 6 0.000000 0.000000 0.000000 0.000000 0.000000 0.045812
#
#
# Mechanical properties :
#
#
# Convention : Reuss Voigt Hill
#
# Bulk Modulus (GPa) = 61.54805 63.43100 62.48952
# Shear Modulus (GPa) = 29.50696 31.85031 30.67864
#
# Velocity S-wave (km/s) = 3.72382 3.86886 3.79704
# Velocity P-wave (km/s) = 6.88577 7.05457 6.97068
#
# Compressibility (1/GPa) = 0.01624747
#
# Stress axis : x y z
#
# Youngs Moduli (GPa) = 92.70024 68.48633 58.91632
#
# Poissons Ratio (x) = 0.18456 0.28977
# Poissons Ratio (y) = 0.24981 0.32075
# Poissons Ratio (z) = 0.45593 0.37285
#
# Static dielectric constant tensor:
#      x y z
#    x 3.784010 0.000000 0.000000 
#    y 0.000000 4.127860 0.000000 
#    z 0.000000 0.000000 3.876400 
# 
# 
# High freq. dielectric constant tensor:
#      x y z
#    x 1.838770 0.000000 0.000000 
#    y 0.000000 1.839170 0.000000 
#    z 0.000000 0.000000 1.836600 
# 
# From -- ./inp_files/33759.got.cif
#   From: 2010.03.12/outbox.cif.g09.slc.cpg/sg24_17_cif.got.tgz:33759.got - 2010.04.14 03:06:53.
