data_PCOD8165793
_publ_section_title
;
Structure prediction by ZEFSAII (Michael W. Deem and Ramdas Pophale) SiO2 
 PCOD8165793
Probable space group: I 21 21 21
;
_chemical_formula_sum "Si O2"
_cell_formula_units_Z 28
_cell_length_a 4.957965
_cell_length_b 14.975799
_cell_length_c 16.668971
_cell_angle_alpha 90.000000
_cell_angle_beta 90.000000
_cell_angle_gamma 90.000000
_cell_volume 1237.662550
_symmetry_space_group_name_H-M "I 21 21 21"
_symmetry_group_IT_number 24
_symmetry_cell_setting 'orthorhombic'
loop_
_space_group_symop_operation_xyz
x,y,z
-x,1/2-y,z
x,-y,1/2-z
1/2-x,y,-z
1/2+x,1/2+y,1/2+z
1/2-x,-y,1/2+z
1/2+x,1/2-y,-z
-x,1/2+y,1/2-z
loop_
_atom_site_type_symbol
_atom_site_label
_atom_site_fract_x
_atom_site_fract_y
_atom_site_fract_z
Si Si1 0.700899 0.089361 0.138158
Si Si2 0.216041 0.982846 0.089595
Si Si3 0.000000 0.750000 0.336935
Si Si4 0.395463 0.844014 0.220309
O O1 0.423208 0.065780 0.093764
O O2 0.801668 0.188157 0.109343
O O3 0.632058 0.100352 0.233687
O O4 0.918065 0.013681 0.115544
O O5 0.292978 0.902709 0.147728
O O6 0.250000 0.944857 0.000000
O O7 0.841105 0.677077 0.283440
O O8 0.500000 0.750000 0.184939
#
# Coordination Sequence:
#
# PCOD8165793 Si02
#       4
#     8   8   4   8
#     4  11  24  44  73  99 133 184 235 279 331 403
#     4  12  27  45  68 107 145 179 217 285 356 412
#     4  10  22  44  72 104 126 176 246 286 320 392
#     4  10  24  43  75 103 132 180 239 282 333 404
#
# _framework density 22.623289
#
# number of rings (size 3 to 8) (size 9 to 14) (size 15 to 20)
#    0.000    1.143    2.857    1.714   12.000    0.000 
#    2.571    2.857    3.143    0.000    0.000    0.000 
#    0.000    0.000    0.000    0.000    0.000    0.000 
#
# Total GULP energy -173489.749652 kJ/mol
# GULP energy per Si atom -12392.124975 kJ/mol
# Density = 2.257180 g / cm^3
# Si number density = 22.623289 Si / 1000 Ang^3
#
#
#
# Elastic Constant Matrix: (Units=GPa)
#
#
# Indices 1 2 3 4 5 6 
#
# 1 106.2821 19.5624 20.5429 0.0000 0.0000 0.0000
# 2 19.5624 66.8873 33.3110 0.0000 0.0000 0.0000
# 3 20.5429 33.3110 84.9224 0.0000 0.0000 0.0000
# 4 0.0000 0.0000 0.0000 -2.9815 0.0000 0.0000
# 5 0.0000 0.0000 0.0000 0.0000 18.7789 0.0000
# 6 0.0000 0.0000 0.0000 0.0000 0.0000 43.2861
#
#
#
# Elastic Compliance Matrix: (Units=1/GPa)
#
#
# Indices 1 2 3 4 5 6 
#
# 1 0.010116 -0.002162 -0.001599 0.000000 0.000000 0.000000
# 2 -0.002162 0.019042 -0.006946 0.000000 0.000000 0.000000
# 3 -0.001599 -0.006946 0.014887 0.000000 0.000000 0.000000
# 4 0.000000 0.000000 0.000000 -0.335403 0.000000 0.000000
# 5 0.000000 0.000000 0.000000 0.000000 0.053251 0.000000
# 6 0.000000 0.000000 0.000000 0.000000 0.000000 0.023102
#
#
# Mechanical properties :
#
#
# Convention : Reuss Voigt Hill
#
# Bulk Modulus (GPa) = 44.18885 44.99161 44.59023
# Shear Modulus (GPa) = -26.87509 24.12839 -1.37335
#
# Velocity S-wave (km/s) = -3.45039 3.26932 -0.77998
# Velocity P-wave (km/s) = 1.92387 5.84651 4.35218
#
# Compressibility (1/GPa) = 0.02263014
#
# Stress axis : x y z
#
# Youngs Moduli (GPa) = 98.85363 52.51463 67.17290
#
# Poissons Ratio (x) = 0.11355 0.10740
# Poissons Ratio (y) = 0.21375 0.46660
# Poissons Ratio (z) = 0.15806 0.36478
#
# Static dielectric constant tensor:
#      x y z
#    x 4.610400 0.000000 0.000000 
#    y 0.000000 4.166650 0.000000 
#    z 0.000000 0.000000 3.678100 
# 
# 
# High freq. dielectric constant tensor:
#      x y z
#    x 1.919570 0.000000 0.000000 
#    y 0.000000 1.897170 0.000000 
#    z 0.000000 0.000000 1.846660 
# 
# From -- ./inp_files/4280.got.cif
#   From: 2010.03.12/outbox.cif.g09.slc.cpg/sg24_3_cif.got.tgz:4280.got - 2010.04.14 03:06:53.
