data_PCOD8165243
_publ_section_title
;
Structure prediction by ZEFSAII (Michael W. Deem and Ramdas Pophale) SiO2 
 PCOD8165243
Probable space group: I 21 21 21
;
_chemical_formula_sum "Si O2"
_cell_formula_units_Z 52
_cell_length_a 18.484026
_cell_length_b 16.841525
_cell_length_c 8.655085
_cell_angle_alpha 90.000000
_cell_angle_beta 90.000000
_cell_angle_gamma 90.000000
_cell_volume 2694.320915
_symmetry_space_group_name_H-M "I 21 21 21"
_symmetry_group_IT_number 24
_symmetry_cell_setting 'orthorhombic'
loop_
_space_group_symop_operation_xyz
x,y,z
-x,1/2-y,z
x,-y,1/2-z
1/2-x,y,-z
1/2+x,1/2+y,1/2+z
1/2-x,-y,1/2+z
1/2+x,1/2-y,-z
-x,1/2+y,1/2-z
loop_
_atom_site_type_symbol
_atom_site_label
_atom_site_fract_x
_atom_site_fract_y
_atom_site_fract_z
Si Si1 0.153675 0.620444 0.372257
Si Si2 0.500000 0.250000 0.268943
Si Si3 0.024601 0.400031 0.531288
Si Si4 0.250000 0.753734 0.500000
Si Si5 0.571037 0.500000 0.250000
Si Si6 0.002387 0.840974 0.304296
Si Si7 0.672990 0.046047 0.542099
Si Si8 0.889365 0.653118 0.576902
O O1 0.206954 0.696360 0.380793
O O2 0.155608 0.578403 0.209257
O O3 0.176748 0.549411 0.486331
O O4 0.070225 0.644243 0.405847
O O5 0.475431 0.318202 0.381327
O O6 0.435424 0.220655 0.161202
O O7 0.107284 0.424639 0.561302
O O8 0.975800 0.466979 0.608870
O O9 0.998055 0.393225 0.352831
O O10 0.191581 0.812342 0.575069
O O11 0.617613 0.571567 0.324738
O O12 0.073202 0.861735 0.408492
O O13 0.000000 0.750000 0.251184
O O14 0.750000 0.083973 0.500000
#
# Coordination Sequence:
#
# PCOD8165243 Si02
#       8
#     8   4   8   4   4   8   8   8
#     4  10  21  35  56  86 122 156 199 236 292 375
#     4  10  20  38  60  94 118 156 202 256 290 364
#     4  10  22  37  65  88 125 158 203 246 305 360
#     4  12  22  38  62  86 116 162 204 258 310 360
#     4  10  24  44  58  92 116 158 208 264 306 356
#     4  11  19  39  63  91 116 160 203 245 290 376
#     4  10  21  35  52  88 128 158 184 234 303 371
#     4  11  23  39  64  87 120 158 208 257 311 360
#
# _framework density 19.299852999999999
#
# number of rings (size 3 to 8) (size 9 to 14) (size 15 to 20)
#    0.000    1.538    3.846    0.923    2.154    4.308 
#    0.000    1.538    0.000    0.000    0.000    0.000 
#    0.000    0.000    0.000    0.000    0.000    0.000 
#
# Total GULP energy -322162.255593 kJ/mol
# GULP energy per Si atom -12390.855984 kJ/mol
# Density = 1.925593 g / cm^3
# Si number density = 19.299853 Si / 1000 Ang^3
#
#
#
# Elastic Constant Matrix: (Units=GPa)
#
#
# Indices 1 2 3 4 5 6 
#
# 1 134.0571 61.1009 36.6593 0.0000 0.0000 0.0000
# 2 61.1009 94.0083 30.2493 0.0000 0.0000 0.0000
# 3 36.6593 30.2493 74.2447 0.0000 0.0000 0.0000
# 4 0.0000 0.0000 0.0000 15.8741 0.0000 0.0000
# 5 0.0000 0.0000 0.0000 0.0000 15.2542 0.0000
# 6 0.0000 0.0000 0.0000 0.0000 0.0000 18.1570
#
#
#
# Elastic Compliance Matrix: (Units=1/GPa)
#
#
# Indices 1 2 3 4 5 6 
#
# 1 0.011128 -0.006289 -0.002932 0.000000 0.000000 0.000000
# 2 -0.006289 0.015797 -0.003331 0.000000 0.000000 0.000000
# 3 -0.002932 -0.003331 0.016274 0.000000 0.000000 0.000000
# 4 0.000000 0.000000 0.000000 0.062996 0.000000 0.000000
# 5 0.000000 0.000000 0.000000 0.000000 0.065556 0.000000
# 6 0.000000 0.000000 0.000000 0.000000 0.000000 0.055075
#
#
# Mechanical properties :
#
#
# Convention : Reuss Voigt Hill
#
# Bulk Modulus (GPa) = 55.26560 62.03656 58.65108
# Shear Modulus (GPa) = 19.38285 21.47710 20.42998
#
# Velocity S-wave (km/s) = 3.17251 3.33950 3.25708
# Velocity P-wave (km/s) = 6.48977 6.86171 6.67833
#
# Compressibility (1/GPa) = 0.01809444
#
# Stress axis : x y z
#
# Youngs Moduli (GPa) = 89.86531 63.30456 61.44855
#
# Poissons Ratio (x) = 0.39812 0.18018
# Poissons Ratio (y) = 0.56517 0.20467
# Poissons Ratio (z) = 0.26350 0.21085
#
# Static dielectric constant tensor:
#      x y z
#    x 3.607300 0.000000 0.000000 
#    y 0.000000 4.418820 0.000000 
#    z 0.000000 0.000000 3.457070 
# 
# 
# High freq. dielectric constant tensor:
#      x y z
#    x 1.742580 0.000000 0.000000 
#    y 0.000000 1.765350 0.000000 
#    z 0.000000 0.000000 1.741450 
# 
# From -- ./inp_files/14439.got.cif
#   From: 2010.03.12/outbox.cif.g09.slc.cpg/sg24_8_cif.got.tgz:14439.got - 2010.04.14 03:06:53.
