data_PCOD8165399
_publ_section_title
;
Structure prediction by ZEFSAII (Michael W. Deem and Ramdas Pophale) SiO2 
 PCOD8165399
Probable space group: I 21 21 21
;
_chemical_formula_sum "Si O2"
_cell_formula_units_Z 64
_cell_length_a 24.742198
_cell_length_b 14.095053
_cell_length_c 9.398475
_cell_angle_alpha 90.000000
_cell_angle_beta 90.000000
_cell_angle_gamma 90.000000
_cell_volume 3277.648534
_symmetry_space_group_name_H-M "I 21 21 21"
_symmetry_group_IT_number 24
_symmetry_cell_setting 'orthorhombic'
loop_
_space_group_symop_operation_xyz
x,y,z
-x,1/2-y,z
x,-y,1/2-z
1/2-x,y,-z
1/2+x,1/2+y,1/2+z
1/2-x,-y,1/2+z
1/2+x,1/2-y,-z
-x,1/2+y,1/2-z
loop_
_atom_site_type_symbol
_atom_site_label
_atom_site_fract_x
_atom_site_fract_y
_atom_site_fract_z
Si Si1 0.657980 0.247607 0.254471
Si Si2 0.168979 0.753686 0.286291
Si Si3 0.591731 0.250403 0.527666
Si Si4 0.499103 0.392248 0.912744
Si Si5 0.242677 0.098835 0.830526
Si Si6 0.499663 0.890604 0.923697
Si Si7 0.585137 0.249393 0.014062
Si Si8 0.745726 0.900889 0.330100
O O1 0.642402 0.248967 0.420469
O O2 0.688981 0.342685 0.207501
O O3 0.599018 0.243634 0.180459
O O4 0.691486 0.154039 0.213736
O O5 0.118522 0.754718 0.181703
O O6 0.206486 0.845305 0.264625
O O7 0.143936 0.758864 0.443037
O O8 0.203325 0.657762 0.271227
O O9 0.554580 0.156522 0.517415
O O10 0.553195 0.342025 0.507271
O O11 0.499719 0.499903 0.965235
O O12 0.503938 0.377876 0.745141
O O13 0.549083 0.341385 0.987385
O O14 0.443249 0.346966 0.964080
O O15 0.238967 0.000000 0.750000
O O16 0.250000 0.085457 0.000000
O O17 0.750000 0.914194 0.500000
O O18 0.745948 0.000000 0.250000
#
# Coordination Sequence:
#
# PCOD8165399 Si02
#       8
#     8   8   8   8   8   8   8   8
#     4  11  25  43  61  87 133 163 200 253 314 368
#     4  11  21  41  67  84 125 167 203 244 307 369
#     4  11  23  39  63  90 124 162 204 253 306 359
#     4  10  21  35  65  90 119 157 212 250 300 365
#     4  11  25  42  63  93 125 158 207 258 304 366
#     4  10  21  39  57  96 125 149 201 267 298 355
#     4  11  19  41  61  87 112 170 202 241 299 369
#     4  11  25  42  63  93 125 158 207 258 304 366
#
# _framework density 19.526195000000001
#
# number of rings (size 3 to 8) (size 9 to 14) (size 15 to 20)
#    0.000    1.250    5.000    1.500    3.500    7.000 
#    0.000    1.250    0.000    0.000    0.000    0.000 
#    0.000    0.000    0.000    0.000    0.000    0.000 
#
# Total GULP energy -396847.635614 kJ/mol
# GULP energy per Si atom -12401.488613 kJ/mol
# Density = 1.948175 g / cm^3
# Si number density = 19.526195 Si / 1000 Ang^3
#
#
#
# Elastic Constant Matrix: (Units=GPa)
#
#
# Indices 1 2 3 4 5 6 
#
# 1 100.3788 48.0405 30.0360 0.0000 0.0000 0.0000
# 2 48.0405 160.3314 41.1247 0.0000 0.0000 0.0000
# 3 30.0360 41.1247 67.4531 0.0000 0.0000 0.0000
# 4 0.0000 0.0000 0.0000 9.4677 0.0000 0.0000
# 5 0.0000 0.0000 0.0000 0.0000 36.2201 0.0000
# 6 0.0000 0.0000 0.0000 0.0000 0.0000 1.6827
#
#
#
# Elastic Compliance Matrix: (Units=1/GPa)
#
#
# Indices 1 2 3 4 5 6 
#
# 1 0.012427 -0.002731 -0.003868 0.000000 0.000000 0.000000
# 2 -0.002731 0.007994 -0.003657 0.000000 0.000000 0.000000
# 3 -0.003868 -0.003657 0.018777 0.000000 0.000000 0.000000
# 4 0.000000 0.000000 0.000000 0.105623 0.000000 0.000000
# 5 0.000000 0.000000 0.000000 0.000000 0.027609 0.000000
# 6 0.000000 0.000000 0.000000 0.000000 0.000000 0.594291
#
#
# Mechanical properties :
#
#
# Convention : Reuss Voigt Hill
#
# Bulk Modulus (GPa) = 53.52159 62.95175 58.23667
# Shear Modulus (GPa) = 6.30149 23.40489 14.85319
#
# Velocity S-wave (km/s) = 1.79839 3.46590 2.76104
# Velocity P-wave (km/s) = 5.63755 6.95170 6.32883
#
# Compressibility (1/GPa) = 0.01868405
#
# Stress axis : x y z
#
# Youngs Moduli (GPa) = 80.47027 125.10086 53.25552
#
# Poissons Ratio (x) = 0.34169 0.20601
# Poissons Ratio (y) = 0.21979 0.19477
# Poissons Ratio (z) = 0.31129 0.45753
#
# Static dielectric constant tensor:
#      x y z
#    x 3.562260 0.000000 0.000000 
#    y 0.000000 3.554930 0.000000 
#    z 0.000000 0.000000 3.446710 
# 
# 
# High freq. dielectric constant tensor:
#      x y z
#    x 1.772870 0.000000 0.000000 
#    y 0.000000 1.761060 0.000000 
#    z 0.000000 0.000000 1.757830 
# 
# From -- ./inp_files/16038.got.cif
#   From: 2010.03.12/outbox.cif.g09.slc.cpg/sg24_9_cif.got.tgz:16038.got - 2010.04.14 03:06:53.
