data_PCOD8165580
_publ_section_title
;
Structure prediction by ZEFSAII (Michael W. Deem and Ramdas Pophale) SiO2 
 PCOD8165580
Probable space group: I 21 21 21
;
_chemical_formula_sum "Si O2"
_cell_formula_units_Z 48
_cell_length_a 8.562227
_cell_length_b 13.184366
_cell_length_c 19.301622
_cell_angle_alpha 90.000000
_cell_angle_beta 90.000000
_cell_angle_gamma 90.000000
_cell_volume 2178.912520
_symmetry_space_group_name_H-M "I 21 21 21"
_symmetry_group_IT_number 24
_symmetry_cell_setting 'orthorhombic'
loop_
_space_group_symop_operation_xyz
x,y,z
-x,1/2-y,z
x,-y,1/2-z
1/2-x,y,-z
1/2+x,1/2+y,1/2+z
1/2-x,-y,1/2+z
1/2+x,1/2-y,-z
-x,1/2+y,1/2-z
loop_
_atom_site_type_symbol
_atom_site_label
_atom_site_fract_x
_atom_site_fract_y
_atom_site_fract_z
Si Si1 0.747846 0.664000 0.131867
Si Si2 0.319725 0.232332 0.222413
Si Si3 0.748565 0.058279 0.177051
Si Si4 0.750000 0.546227 0.500000
Si Si5 0.476855 0.433033 0.580512
Si Si6 0.750000 0.793594 0.000000
Si Si7 0.892843 0.444125 0.865328
O O1 0.710807 0.736470 0.196068
O O2 0.935196 0.642809 0.133691
O O3 0.692285 0.723557 0.063204
O O4 0.651574 0.561050 0.139904
O O5 0.500000 0.250000 0.205190
O O6 0.214480 0.322184 0.189089
O O7 0.289948 0.120697 0.189969
O O8 0.577163 0.054067 0.144789
O O9 0.755288 0.000000 0.250000
O O10 0.869972 0.012978 0.121654
O O11 0.621640 0.481437 0.540430
O O12 0.846564 0.606033 0.559464
O O13 0.387140 0.367170 0.524338
#
# Coordination Sequence:
#
# PCOD8165580 Si02
#       7
#     8   8   8   4   8   4   8
#     4  11  23  40  64  96 130 167 209 265 325 391
#     4  10  22  41  68  96 125 171 219 263 322 388
#     4  11  23  42  66  96 132 170 217 272 327 390
#     4  10  23  44  65  88 130 176 217 274 331 388
#     4  11  25  41  62  94 131 168 215 271 329 388
#     4  12  25  42  65  96 128 168 215 268 329 390
#     4  10  21  42  67  95 129 169 215 265 324 387
#
# _framework density 22.029339
#
# number of rings (size 3 to 8) (size 9 to 14) (size 15 to 20)
#    0.000    1.333    0.000    7.000    0.000    8.000 
#    0.000   12.500    0.000    0.000    0.000    0.000 
#    0.000    0.000    0.000    0.000    0.000    0.000 
#
# Total GULP energy -297374.032098 kJ/mol
# GULP energy per Si atom -12390.584671 kJ/mol
# Density = 2.197920 g / cm^3
# Si number density = 22.029339 Si / 1000 Ang^3
#
#
#
# Elastic Constant Matrix: (Units=GPa)
#
#
# Indices 1 2 3 4 5 6 
#
# 1 102.5901 50.7650 52.7153 0.0000 0.0000 0.0000
# 2 50.7650 120.4746 76.4751 0.0000 0.0000 0.0000
# 3 52.7153 76.4751 150.9919 0.0000 0.0000 0.0000
# 4 0.0000 0.0000 0.0000 37.3532 0.0000 0.0000
# 5 0.0000 0.0000 0.0000 0.0000 43.8603 0.0000
# 6 0.0000 0.0000 0.0000 0.0000 0.0000 -9.0611
#
#
#
# Elastic Compliance Matrix: (Units=1/GPa)
#
#
# Indices 1 2 3 4 5 6 
#
# 1 0.012970 -0.003819 -0.002594 0.000000 0.000000 0.000000
# 2 -0.003819 0.013358 -0.005432 0.000000 0.000000 0.000000
# 3 -0.002594 -0.005432 0.010280 0.000000 0.000000 0.000000
# 4 0.000000 0.000000 0.000000 0.026771 0.000000 0.000000
# 5 0.000000 0.000000 0.000000 0.000000 0.022800 0.000000
# 6 0.000000 0.000000 0.000000 0.000000 0.000000 -0.110361
#
#
# Mechanical properties :
#
#
# Convention : Reuss Voigt Hill
#
# Bulk Modulus (GPa) = 77.41292 81.55193 79.48242
# Shear Modulus (GPa) = 1310.98820 27.37055 669.17938
#
# Velocity S-wave (km/s) = 24.42134 3.52868 17.44783
# Velocity P-wave (km/s) = 28.81701 7.32817 21.02525
#
# Compressibility (1/GPa) = 0.01291774
#
# Stress axis : x y z
#
# Youngs Moduli (GPa) = 77.10068 74.86173 97.27611
#
# Poissons Ratio (x) = 0.28586 0.25235
# Poissons Ratio (y) = 0.29441 0.52845
# Poissons Ratio (z) = 0.20001 0.40668
#
# Static dielectric constant tensor:
#      x y z
#    x 4.167900 0.000000 0.000000 
#    y 0.000000 4.232390 0.000000 
#    z 0.000000 0.000000 4.413550 
# 
# 
# High freq. dielectric constant tensor:
#      x y z
#    x 1.866880 0.000000 0.000000 
#    y 0.000000 1.863780 0.000000 
#    z 0.000000 0.000000 1.877400 
# 
# From -- ./inp_files/29534.got.cif
#   From: 2010.03.12/outbox.cif.g09.slc.cpg/sg24_15_cif.got.tgz:29534.got - 2010.04.14 03:06:53.
