data_PCOD8165588
_publ_section_title
;
Structure prediction by ZEFSAII (Michael W. Deem and Ramdas Pophale) SiO2 
 PCOD8165588
Probable space group: I 21 21 21
;
_chemical_formula_sum "Si O2"
_cell_formula_units_Z 56
_cell_length_a 19.713563
_cell_length_b 8.481222
_cell_length_c 15.366550
_cell_angle_alpha 90.000000
_cell_angle_beta 90.000000
_cell_angle_gamma 90.000000
_cell_volume 2569.211929
_symmetry_space_group_name_H-M "I 21 21 21"
_symmetry_group_IT_number 24
_symmetry_cell_setting 'orthorhombic'
loop_
_space_group_symop_operation_xyz
x,y,z
-x,1/2-y,z
x,-y,1/2-z
1/2-x,y,-z
1/2+x,1/2+y,1/2+z
1/2-x,-y,1/2+z
1/2+x,1/2-y,-z
-x,1/2+y,1/2-z
loop_
_atom_site_type_symbol
_atom_site_label
_atom_site_fract_x
_atom_site_fract_y
_atom_site_fract_z
Si Si1 0.210471 0.963735 0.153290
Si Si2 0.743755 0.878833 0.897615
Si Si3 0.876485 0.010774 0.847928
Si Si4 0.696095 0.287911 0.064732
Si Si5 0.908530 0.629301 0.426257
Si Si6 0.030470 0.421750 0.493146
Si Si7 0.884942 0.036215 0.151598
O O1 0.265295 0.057411 0.096928
O O2 0.133374 0.016481 0.137344
O O3 0.232262 0.000000 0.250000
O O4 0.209460 0.780786 0.133272
O O5 0.819640 0.876217 0.858288
O O6 0.696953 0.022531 0.859221
O O7 0.750000 0.888661 0.000000
O O8 0.937111 0.989206 0.917331
O O9 0.906926 0.000000 0.750000
O O10 0.832505 0.170670 0.862064
O O11 0.750000 0.198066 0.000000
O O12 0.629983 0.346868 0.016024
O O13 0.915428 0.794548 0.375136
O O14 0.978601 0.550020 0.454369
O O15 0.086536 0.406226 0.417061
O O16 0.000000 0.250000 0.512875
O O17 0.908080 0.000000 0.250000
#
# Coordination Sequence:
#
# PCOD8165588 Si02
#       7
#     8   8   8   8   8   8   8
#     4  11  23  38  66 109 140 174 226 289 349 419
#     4  12  21  40  71 104 143 178 220 293 359 409
#     4  12  25  45  70 100 135 184 237 290 345 414
#     4  10  21  42  69 100 133 179 227 278 355 421
#     4  11  23  45  68  92 142 188 228 274 347 420
#     4  12  28  47  67  96 142 187 237 288 345 413
#     4  12  25  44  74 107 135 180 232 287 350 422
#
# _framework density 21.796567
#
# number of rings (size 3 to 8) (size 9 to 14) (size 15 to 20)
#    0.000    0.571    2.857    6.857    2.000    1.714 
#    2.571    0.000    0.000    0.000    0.000    0.000 
#    0.000    0.000    0.000    0.000    0.000    0.000 
#
# Total GULP energy -347098.527855 kJ/mol
# GULP energy per Si atom -12396.375995 kJ/mol
# Density = 2.174696 g / cm^3
# Si number density = 21.796567 Si / 1000 Ang^3
#
#
#
# Elastic Constant Matrix: (Units=GPa)
#
#
# Indices 1 2 3 4 5 6 
#
# 1 94.0089 42.3943 41.1440 0.0000 0.0000 0.0000
# 2 42.3943 110.5839 31.4961 0.0000 0.0000 0.0000
# 3 41.1440 31.4961 163.3334 0.0000 0.0000 0.0000
# 4 0.0000 0.0000 0.0000 1.4608 0.0000 0.0000
# 5 0.0000 0.0000 0.0000 0.0000 32.1610 0.0000
# 6 0.0000 0.0000 0.0000 0.0000 0.0000 35.3805
#
#
#
# Elastic Compliance Matrix: (Units=1/GPa)
#
#
# Indices 1 2 3 4 5 6 
#
# 1 0.013835 -0.004562 -0.002605 0.000000 0.000000 0.000000
# 2 -0.004562 0.011073 -0.000986 0.000000 0.000000 0.000000
# 3 -0.002605 -0.000986 0.006969 0.000000 0.000000 0.000000
# 4 0.000000 0.000000 0.000000 0.684544 0.000000 0.000000
# 5 0.000000 0.000000 0.000000 0.000000 0.031094 0.000000
# 6 0.000000 0.000000 0.000000 0.000000 0.000000 0.028264
#
#
# Mechanical properties :
#
#
# Convention : Reuss Voigt Hill
#
# Bulk Modulus (GPa) = 64.22643 66.44390 65.33517
# Shear Modulus (GPa) = 6.27137 30.65992 18.46565
#
# Velocity S-wave (km/s) = 1.69808 3.75459 2.91380
# Velocity P-wave (km/s) = 5.77710 7.02465 6.43120
#
# Compressibility (1/GPa) = 0.01556991
#
# Stress axis : x y z
#
# Youngs Moduli (GPa) = 72.28201 90.31332 143.49510
#
# Poissons Ratio (x) = 0.41198 0.37385
# Poissons Ratio (y) = 0.32973 0.14149
# Poissons Ratio (z) = 0.18832 0.08905
#
# Static dielectric constant tensor:
#      x y z
#    x 4.097260 0.000000 0.000000 
#    y 0.000000 3.963820 0.000000 
#    z 0.000000 0.000000 4.062370 
# 
# 
# High freq. dielectric constant tensor:
#      x y z
#    x 1.858110 0.000000 0.000000 
#    y 0.000000 1.859900 0.000000 
#    z 0.000000 0.000000 1.859490 
# 
# From -- ./inp_files/27564.got.cif
#   From: 2010.03.12/outbox.cif.g09.slc.cpg/sg24_14_cif.got.tgz:27564.got - 2010.04.14 03:06:53.
