data_PCOD8165609
_publ_section_title
;
Structure prediction by ZEFSAII (Michael W. Deem and Ramdas Pophale) SiO2 
 PCOD8165609
Probable space group: I 21 21 21
;
_chemical_formula_sum "Si O2"
_cell_formula_units_Z 56
_cell_length_a 8.806901
_cell_length_b 15.257584
_cell_length_c 20.750153
_cell_angle_alpha 90.000000
_cell_angle_beta 90.000000
_cell_angle_gamma 90.000000
_cell_volume 2788.240219
_symmetry_space_group_name_H-M "I 21 21 21"
_symmetry_group_IT_number 24
_symmetry_cell_setting 'orthorhombic'
loop_
_space_group_symop_operation_xyz
x,y,z
-x,1/2-y,z
x,-y,1/2-z
1/2-x,y,-z
1/2+x,1/2+y,1/2+z
1/2-x,-y,1/2+z
1/2+x,1/2-y,-z
-x,1/2+y,1/2-z
loop_
_atom_site_type_symbol
_atom_site_label
_atom_site_fract_x
_atom_site_fract_y
_atom_site_fract_z
Si Si1 0.286833 0.887881 0.072603
Si Si2 0.995816 0.953620 0.563659
Si Si3 0.000000 0.250000 0.640632
Si Si4 0.901535 0.165743 0.041848
Si Si5 0.270200 0.421682 0.156867
Si Si6 0.262884 0.377345 0.299110
Si Si7 0.531695 0.154954 0.599184
Si Si8 0.250000 0.435011 0.500000
O O1 0.385607 0.806840 0.097649
O O2 0.126457 0.897361 0.109961
O O3 0.363771 0.983426 0.077992
O O4 0.250000 0.863815 0.000000
O O5 0.019914 0.890960 0.502014
O O6 0.940547 0.901293 0.628002
O O7 0.841037 0.007632 0.550940
O O8 0.088735 0.321150 0.683128
O O9 0.858852 0.110730 0.106041
O O10 0.000000 0.250000 0.062393
O O11 0.750000 0.189185 0.000000
O O12 0.245549 0.368324 0.222446
O O13 0.267359 0.524115 0.174547
O O14 0.114824 0.336373 0.332346
O O15 0.500000 0.250000 0.572141
O O16 0.631022 0.118171 0.541259
#
# Coordination Sequence:
#
# PCOD8165609 Si02
#       8
#     8   8   4   8   8   8   8   4
#     4  12  26  35  63  99 138 168 214 271 340 394
#     4  11  20  42  68  92 127 174 216 271 337 404
#     4  12  24  44  62  98 134 178 224 274 316 424
#     4  10  22  43  69 100 129 167 222 285 344 389
#     4  10  21  43  72  86 122 188 224 265 338 395
#     4  11  23  42  69  89 131 180 229 264 330 407
#     4  12  25  36  59  98 133 171 213 268 323 392
#     4  12  20  38  62  86 132 172 210 254 330 408
#
# _framework density 20.084354000000001
#
# number of rings (size 3 to 8) (size 9 to 14) (size 15 to 20)
#    0.000    0.857    7.857    0.000    2.000    1.143 
#    5.143    0.000    6.286    0.000    0.000    0.000 
#    0.000    0.000    0.000    0.000    0.000    0.000 
#
# Total GULP energy -346962.189588 kJ/mol
# GULP energy per Si atom -12391.506771 kJ/mol
# Density = 2.003864 g / cm^3
# Si number density = 20.084354 Si / 1000 Ang^3
#
#
#
# Elastic Constant Matrix: (Units=GPa)
#
#
# Indices 1 2 3 4 5 6 
#
# 1 126.0633 46.2700 44.7424 0.0000 0.0000 0.0000
# 2 46.2700 101.8151 37.3622 0.0000 0.0000 0.0000
# 3 44.7424 37.3622 128.4487 0.0000 0.0000 0.0000
# 4 0.0000 0.0000 0.0000 30.2588 0.0000 0.0000
# 5 0.0000 0.0000 0.0000 0.0000 10.4775 0.0000
# 6 0.0000 0.0000 0.0000 0.0000 0.0000 77.7752
#
#
#
# Elastic Compliance Matrix: (Units=1/GPa)
#
#
# Indices 1 2 3 4 5 6 
#
# 1 0.010171 -0.003719 -0.002461 0.000000 0.000000 0.000000
# 2 -0.003719 0.012355 -0.002298 0.000000 0.000000 0.000000
# 3 -0.002461 -0.002298 0.009311 0.000000 0.000000 0.000000
# 4 0.000000 0.000000 0.000000 0.033048 0.000000 0.000000
# 5 0.000000 0.000000 0.000000 0.000000 0.095443 0.000000
# 6 0.000000 0.000000 0.000000 0.000000 0.000000 0.012858
#
#
# Mechanical properties :
#
#
# Convention : Reuss Voigt Hill
#
# Bulk Modulus (GPa) = 67.20313 68.11958 67.66135
# Shear Modulus (GPa) = 25.62747 38.89913 32.26330
#
# Velocity S-wave (km/s) = 3.57598 4.40567 4.01233
# Velocity P-wave (km/s) = 7.11219 7.73759 7.43147
#
# Compressibility (1/GPa) = 0.01488026
#
# Stress axis : x y z
#
# Youngs Moduli (GPa) = 98.31802 80.93702 107.39984
#
# Poissons Ratio (x) = 0.30102 0.26432
# Poissons Ratio (y) = 0.36566 0.24684
# Poissons Ratio (z) = 0.24197 0.18602
#
# Static dielectric constant tensor:
#      x y z
#    x 3.797980 0.000000 0.000000 
#    y 0.000000 3.727200 0.000000 
#    z 0.000000 0.000000 3.782300 
# 
# 
# High freq. dielectric constant tensor:
#      x y z
#    x 1.781190 0.000000 0.000000 
#    y 0.000000 1.781790 0.000000 
#    z 0.000000 0.000000 1.779550 
# 
# From -- ./inp_files/32854.got.cif
#   From: 2010.03.12/outbox.cif.g09.slc.cpg/sg24_17_cif.got.tgz:32854.got - 2010.04.14 03:06:53.
