data_PCOD8165274
_publ_section_title
;
Structure prediction by ZEFSAII (Michael W. Deem and Ramdas Pophale) SiO2 
 PCOD8165274
Probable space group: I 21 21 21
;
_chemical_formula_sum "Si O2"
_cell_formula_units_Z 20
_cell_length_a 4.934102
_cell_length_b 8.344725
_cell_length_c 22.511699
_cell_angle_alpha 90.000000
_cell_angle_beta 90.000000
_cell_angle_gamma 90.000000
_cell_volume 926.890488
_symmetry_space_group_name_H-M "I 21 21 21"
_symmetry_group_IT_number 24
_symmetry_cell_setting 'orthorhombic'
loop_
_space_group_symop_operation_xyz
x,y,z
-x,1/2-y,z
x,-y,1/2-z
1/2-x,y,-z
1/2+x,1/2+y,1/2+z
1/2-x,-y,1/2+z
1/2+x,1/2-y,-z
-x,1/2+y,1/2-z
loop_
_atom_site_type_symbol
_atom_site_label
_atom_site_fract_x
_atom_site_fract_y
_atom_site_fract_z
Si Si1 0.750000 0.360202 0.000000
Si Si2 0.078757 0.934275 0.623841
Si Si3 0.083416 0.566829 0.187034
O O1 0.500000 0.250000 0.978642
O O2 0.662661 0.471075 0.055566
O O3 0.672876 0.537046 0.667622
O O4 0.000000 0.750000 0.630481
O O5 0.828075 0.048783 0.640251
O O6 0.186726 0.500000 0.250000
O O7 0.000000 0.750000 0.191320
#
# Coordination Sequence:
#
# PCOD8165274 Si02
#       3
#     4   8   8
#     4  10  20  38  66  98 126 162 210 258 308 374
#     4  11  22  41  67  94 125 167 212 258 308 372
#     4  12  25  42  63  94 130 168 209 260 317 375
#
# _framework density 21.577522999999999
#
# number of rings (size 3 to 8) (size 9 to 14) (size 15 to 20)
#    0.000    0.800    0.000   10.800    0.000    0.000 
#    0.000    4.000    0.000    2.400    0.000    0.000 
#    0.000    0.000    0.000    0.000    0.000    0.000 
#
# Total GULP energy -124064.562645 kJ/mol
# GULP energy per Si atom -12406.456264 kJ/mol
# Density = 2.152841 g / cm^3
# Si number density = 21.577523 Si / 1000 Ang^3
#
#
#
# Elastic Constant Matrix: (Units=GPa)
#
#
# Indices 1 2 3 4 5 6 
#
# 1 149.8939 35.5726 60.5515 0.0000 0.0000 0.0000
# 2 35.5726 74.3734 78.1154 0.0000 0.0000 0.0000
# 3 60.5515 78.1154 147.8097 0.0000 0.0000 0.0000
# 4 0.0000 0.0000 0.0000 30.7512 0.0000 0.0000
# 5 0.0000 0.0000 0.0000 0.0000 50.7524 0.0000
# 6 0.0000 0.0000 0.0000 0.0000 0.0000 21.3303
#
#
#
# Elastic Compliance Matrix: (Units=1/GPa)
#
#
# Indices 1 2 3 4 5 6 
#
# 1 0.008019 -0.000866 -0.002828 0.000000 0.000000 0.000000
# 2 -0.000866 0.030314 -0.015666 0.000000 0.000000 0.000000
# 3 -0.002828 -0.015666 0.016203 0.000000 0.000000 0.000000
# 4 0.000000 0.000000 0.000000 0.032519 0.000000 0.000000
# 5 0.000000 0.000000 0.000000 0.000000 0.019703 0.000000
# 6 0.000000 0.000000 0.000000 0.000000 0.000000 0.046882
#
#
# Mechanical properties :
#
#
# Convention : Reuss Voigt Hill
#
# Bulk Modulus (GPa) = 63.22031 80.06179 71.64105
# Shear Modulus (GPa) = 25.29976 33.75594 29.52785
#
# Velocity S-wave (km/s) = 3.42790 3.95954 3.70328
# Velocity P-wave (km/s) = 6.71045 7.62160 7.18049
#
# Compressibility (1/GPa) = 0.01581770
#
# Stress axis : x y z
#
# Youngs Moduli (GPa) = 124.70295 32.98846 61.71727
#
# Poissons Ratio (x) = 0.02856 0.17451
# Poissons Ratio (y) = 0.10795 0.96685
# Poissons Ratio (z) = 0.35261 0.51679
#
# Static dielectric constant tensor:
#      x y z
#    x 4.175610 0.000000 0.000000 
#    y 0.000000 3.572740 0.000000 
#    z 0.000000 0.000000 4.191060 
# 
# 
# High freq. dielectric constant tensor:
#      x y z
#    x 1.873170 0.000000 0.000000 
#    y 0.000000 1.821470 0.000000 
#    z 0.000000 0.000000 1.859310 
# 
# From -- ./inp_files/34423.got.cif
#   From: 2010.03.12/outbox.cif.g09.slc.cpg/sg24_18_cif.got.tgz:34423.got - 2010.04.14 03:06:53.
