data_PCOD8165102
_publ_section_title
;
Structure prediction by ZEFSAII (Michael W. Deem and Ramdas Pophale) SiO2 
 PCOD8165102
Probable space group: I 21 21 21
;
_chemical_formula_sum "Si O2"
_cell_formula_units_Z 52
_cell_length_a 23.330012
_cell_length_b 8.398019
_cell_length_c 13.502587
_cell_angle_alpha 90.000000
_cell_angle_beta 90.000000
_cell_angle_gamma 90.000000
_cell_volume 2645.506295
_symmetry_space_group_name_H-M "I 21 21 21"
_symmetry_group_IT_number 24
_symmetry_cell_setting 'orthorhombic'
loop_
_space_group_symop_operation_xyz
x,y,z
-x,1/2-y,z
x,-y,1/2-z
1/2-x,y,-z
1/2+x,1/2+y,1/2+z
1/2-x,-y,1/2+z
1/2+x,1/2-y,-z
-x,1/2+y,1/2-z
loop_
_atom_site_type_symbol
_atom_site_label
_atom_site_fract_x
_atom_site_fract_y
_atom_site_fract_z
Si Si1 0.609514 0.626748 0.007173
Si Si2 0.191874 0.716771 0.843116
Si Si3 0.936786 0.306720 0.923671
Si Si4 0.500000 0.250000 0.401638
Si Si5 0.830674 0.132409 0.878018
Si Si6 0.026572 0.000000 0.750000
Si Si7 0.250000 0.144681 0.000000
Si Si8 0.306272 0.089888 0.649097
O O1 0.655342 0.652482 0.096613
O O2 0.587072 0.444758 0.004848
O O3 0.555411 0.739916 0.028450
O O4 0.637060 0.671730 0.899912
O O5 0.190298 0.547146 0.899358
O O6 0.165716 0.683580 0.736196
O O7 0.256991 0.779492 0.834145
O O8 0.893724 0.156718 0.925684
O O9 0.935754 0.372694 0.810383
O O10 0.000000 0.250000 0.956986
O O11 0.489596 0.405619 0.332405
O O12 0.785978 0.249102 0.926805
O O13 0.208651 0.037127 0.065212
O O14 0.321906 0.000000 0.750000
#
# Coordination Sequence:
#
# PCOD8165102 Si02
#       8
#     8   8   8   4   8   4   4   8
#     4  11  24  40  62  92 124 175 211 260 313 389
#     4  11  24  38  64  93 131 163 210 261 319 380
#     4  11  22  36  58  87 134 169 206 242 319 391
#     4  10  22  36  60  90 134 158 212 252 316 382
#     4  11  24  38  57  99 132 164 200 267 318 380
#     4  10  20  34  56  88 126 174 192 244 312 390
#     4  12  22  40  64  88 126 162 208 266 326 370
#     4  12  23  44  68  89 121 173 222 265 317 384
#
# _framework density 19.655971000000001
#
# number of rings (size 3 to 8) (size 9 to 14) (size 15 to 20)
#    0.000    0.923    5.385    1.846    6.462    0.000 
#    0.000    0.000    1.692    0.000    0.000    0.000 
#    0.000    0.000    0.000    0.000    0.000    0.000 
#
# Total GULP energy -322306.913777 kJ/mol
# GULP energy per Si atom -12396.419761 kJ/mol
# Density = 1.961123 g / cm^3
# Si number density = 19.655971 Si / 1000 Ang^3
#
#
#
# Elastic Constant Matrix: (Units=GPa)
#
#
# Indices 1 2 3 4 5 6 
#
# 1 114.7970 33.7538 31.1072 0.0000 0.0000 0.0000
# 2 33.7538 89.5174 16.9756 0.0000 0.0000 0.0000
# 3 31.1072 16.9756 71.9712 0.0000 0.0000 0.0000
# 4 0.0000 0.0000 0.0000 1.5955 0.0000 0.0000
# 5 0.0000 0.0000 0.0000 0.0000 26.2555 0.0000
# 6 0.0000 0.0000 0.0000 0.0000 0.0000 23.9184
#
#
#
# Elastic Compliance Matrix: (Units=1/GPa)
#
#
# Indices 1 2 3 4 5 6 
#
# 1 0.010731 -0.003315 -0.003856 0.000000 0.000000 0.000000
# 2 -0.003315 0.012718 -0.001567 0.000000 0.000000 0.000000
# 3 -0.003856 -0.001567 0.015931 0.000000 0.000000 0.000000
# 4 0.000000 0.000000 0.000000 0.626766 0.000000 0.000000
# 5 0.000000 0.000000 0.000000 0.000000 0.038087 0.000000
# 6 0.000000 0.000000 0.000000 0.000000 0.000000 0.041809
#
#
# Mechanical properties :
#
#
# Convention : Reuss Voigt Hill
#
# Bulk Modulus (GPa) = 45.65491 48.88431 47.26961
# Shear Modulus (GPa) = 6.48661 23.31714 14.90187
#
# Velocity S-wave (km/s) = 1.81858 3.44795 2.75641
# Velocity P-wave (km/s) = 5.26185 6.38554 5.85073
#
# Compressibility (1/GPa) = 0.02190345
#
# Stress axis : x y z
#
# Youngs Moduli (GPa) = 93.19134 78.62810 62.77175
#
# Poissons Ratio (x) = 0.26064 0.24205
# Poissons Ratio (y) = 0.30892 0.09836
# Poissons Ratio (z) = 0.35935 0.12321
#
# Static dielectric constant tensor:
#      x y z
#    x 3.706330 0.000000 0.000000 
#    y 0.000000 3.796610 0.000000 
#    z 0.000000 0.000000 3.516310 
# 
# 
# High freq. dielectric constant tensor:
#      x y z
#    x 1.766450 0.000000 0.000000 
#    y 0.000000 1.774340 0.000000 
#    z 0.000000 0.000000 1.731330 
# 
# From -- ./inp_files/27502.got.cif
#   From: 2010.03.12/outbox.cif.g09.slc.cpg/sg24_14_cif.got.tgz:27502.got - 2010.04.14 03:06:53.
