data_PCOD8165124
_publ_section_title
;
Structure prediction by ZEFSAII (Michael W. Deem and Ramdas Pophale) SiO2 
 PCOD8165124
Probable space group: I 21 21 21
;
_chemical_formula_sum "Si O2"
_cell_formula_units_Z 64
_cell_length_a 9.320678
_cell_length_b 20.231197
_cell_length_c 17.200585
_cell_angle_alpha 90.000000
_cell_angle_beta 90.000000
_cell_angle_gamma 90.000000
_cell_volume 3243.488045
_symmetry_space_group_name_H-M "I 21 21 21"
_symmetry_group_IT_number 24
_symmetry_cell_setting 'orthorhombic'
loop_
_space_group_symop_operation_xyz
x,y,z
-x,1/2-y,z
x,-y,1/2-z
1/2-x,y,-z
1/2+x,1/2+y,1/2+z
1/2-x,-y,1/2+z
1/2+x,1/2-y,-z
-x,1/2+y,1/2-z
loop_
_atom_site_type_symbol
_atom_site_label
_atom_site_fract_x
_atom_site_fract_y
_atom_site_fract_z
Si Si1 0.089081 0.183007 0.031384
Si Si2 0.679567 0.500924 0.333423
Si Si3 0.561760 0.396764 0.817349
Si Si4 0.201091 0.118947 0.415805
Si Si5 0.039488 0.444955 0.955581
Si Si6 0.335284 0.735764 0.926522
Si Si7 0.333777 0.481560 0.888655
Si Si8 0.421131 0.617557 0.840917
O O1 0.098330 0.161344 0.121845
O O2 0.000000 0.250000 0.024136
O O3 0.250000 0.193112 0.000000
O O4 0.002672 0.129072 0.980752
O O5 0.596306 0.500000 0.250000
O O6 0.818197 0.546929 0.321272
O O7 0.724394 0.425908 0.350462
O O8 0.590490 0.526665 0.406006
O O9 0.408970 0.429563 0.833399
O O10 0.529766 0.369082 0.731364
O O11 0.250000 0.094461 0.500000
O O12 0.242115 0.195923 0.400718
O O13 0.029437 0.109813 0.413589
O O14 0.180203 0.447989 0.902505
O O15 0.072068 0.488657 0.032124
O O16 0.500000 0.750000 0.949507
O O17 0.323993 0.682594 0.856005
O O18 0.250000 0.705865 0.000000
O O19 0.322254 0.551835 0.843360
#
# Coordination Sequence:
#
# PCOD8165124 Si02
#       8
#     8   8   8   8   8   8   8   8
#     4  11  25  43  70  97 127 169 217 271 323 391
#     4  12  21  37  62  94 126 159 210 263 318 378
#     4  11  22  39  63  97 127 162 211 265 319 387
#     4  10  20  35  58  86 117 161 205 260 304 358
#     4  10  24  40  62  96 127 158 217 263 319 381
#     4   9  21  38  59  85 120 163 213 263 305 375
#     4  10  21  38  62  91 127 166 206 264 317 381
#     4  11  20  37  63  90 127 163 211 260 320 383
#
# _framework density 19.731843999999999
#
# number of rings (size 3 to 8) (size 9 to 14) (size 15 to 20)
#    0.000    1.500    3.750    1.125    7.000    2.500 
#    0.000    0.000    0.000    0.000    0.000    0.000 
#    0.000    0.000    0.000    0.000    0.000    0.000 
#
# Total GULP energy -396569.071273 kJ/mol
# GULP energy per Si atom -12392.783477 kJ/mol
# Density = 1.968693 g / cm^3
# Si number density = 19.731844 Si / 1000 Ang^3
#
#
#
# Elastic Constant Matrix: (Units=GPa)
#
#
# Indices 1 2 3 4 5 6 
#
# 1 77.3877 45.0819 40.9837 0.0000 0.0000 0.0000
# 2 45.0819 125.6208 55.9915 0.0000 0.0000 0.0000
# 3 40.9837 55.9915 88.7902 0.0000 0.0000 0.0000
# 4 0.0000 0.0000 0.0000 22.0203 0.0000 0.0000
# 5 0.0000 0.0000 0.0000 0.0000 33.9359 0.0000
# 6 0.0000 0.0000 0.0000 0.0000 0.0000 29.1380
#
#
#
# Elastic Compliance Matrix: (Units=1/GPa)
#
#
# Indices 1 2 3 4 5 6 
#
# 1 0.018392 -0.003918 -0.006019 0.000000 0.000000 0.000000
# 2 -0.003918 0.011907 -0.005700 0.000000 0.000000 0.000000
# 3 -0.006019 -0.005700 0.017635 0.000000 0.000000 0.000000
# 4 0.000000 0.000000 0.000000 0.045413 0.000000 0.000000
# 5 0.000000 0.000000 0.000000 0.000000 0.029467 0.000000
# 6 0.000000 0.000000 0.000000 0.000000 0.000000 0.034319
#
#
# Mechanical properties :
#
#
# Convention : Reuss Voigt Hill
#
# Bulk Modulus (GPa) = 60.02186 63.99033 62.00609
# Shear Modulus (GPa) = 25.77844 27.00161 26.39002
#
# Velocity S-wave (km/s) = 3.61839 3.70324 3.66106
# Velocity P-wave (km/s) = 6.92400 7.12641 7.02593
#
# Compressibility (1/GPa) = 0.01666060
#
# Stress axis : x y z
#
# Youngs Moduli (GPa) = 54.37265 83.98298 56.70436
#
# Poissons Ratio (x) = 0.32901 0.34129
# Poissons Ratio (y) = 0.21301 0.32324
# Poissons Ratio (z) = 0.32725 0.47874
#
# Static dielectric constant tensor:
#      x y z
#    x 3.524480 0.000000 0.000000 
#    y 0.000000 3.684430 0.000000 
#    z 0.000000 0.000000 3.910450 
# 
# 
# High freq. dielectric constant tensor:
#      x y z
#    x 1.754280 0.000000 0.000000 
#    y 0.000000 1.769660 0.000000 
#    z 0.000000 0.000000 1.770410 
# 
# From -- ./inp_files/29842.got.cif
#   From: 2010.03.12/outbox.cif.g09.slc.cpg/sg24_15_cif.got.tgz:29842.got - 2010.04.14 03:06:53.
