data_PCOD8165693
_publ_section_title
;
Structure prediction by ZEFSAII (Michael W. Deem and Ramdas Pophale) SiO2 
 PCOD8165693
Probable space group: I 21 21 21
;
_chemical_formula_sum "Si O2"
_cell_formula_units_Z 48
_cell_length_a 20.990759
_cell_length_b 5.820554
_cell_length_c 17.205164
_cell_angle_alpha 90.000000
_cell_angle_beta 90.000000
_cell_angle_gamma 90.000000
_cell_volume 2102.089882
_symmetry_space_group_name_H-M "I 21 21 21"
_symmetry_group_IT_number 24
_symmetry_cell_setting 'orthorhombic'
loop_
_space_group_symop_operation_xyz
x,y,z
-x,1/2-y,z
x,-y,1/2-z
1/2-x,y,-z
1/2+x,1/2+y,1/2+z
1/2-x,-y,1/2+z
1/2+x,1/2-y,-z
-x,1/2+y,1/2-z
loop_
_atom_site_type_symbol
_atom_site_label
_atom_site_fract_x
_atom_site_fract_y
_atom_site_fract_z
Si Si1 0.851847 0.753819 0.229008
Si Si2 0.109215 0.026175 0.666669
Si Si3 0.929345 0.297076 0.983688
Si Si4 0.759777 0.271085 0.849498
Si Si5 0.160820 0.410679 0.573825
Si Si6 0.330855 0.906074 0.935331
O O1 0.884071 0.500000 0.250000
O O2 0.784220 0.761568 0.273935
O O3 0.842517 0.766134 0.136656
O O4 0.887631 0.000000 0.250000
O O5 0.123726 0.290256 0.645294
O O6 0.073864 0.000000 0.750000
O O7 0.064678 0.922440 0.599633
O O8 0.174491 0.884874 0.675669
O O9 0.000000 0.250000 0.015071
O O10 0.888139 0.067896 0.973537
O O11 0.895942 0.453817 0.048624
O O12 0.725666 0.420605 0.915263
O O13 0.776679 0.031440 0.891191
O O14 0.188172 0.223409 0.514099
#
# Coordination Sequence:
#
# PCOD8165693 Si02
#       6
#     8   8   8   8   8   8
#     4  10  23  40  62  97 139 182 219 270 347 427
#     4  10  22  40  60  94 134 175 225 275 346 416
#     4  10  24  45  63  93 125 171 244 291 343 410
#     4  10  23  38  59  99 137 174 216 277 342 440
#     4  10  24  40  65  91 137 176 220 283 346 414
#     4  10  23  41  62  98 129 181 229 279 353 430
#
# _framework density 22.834419
#
# number of rings (size 3 to 8) (size 9 to 14) (size 15 to 20)
#    0.000    2.000    0.000    1.500   11.667   12.000 
#    3.000    0.000    0.000    0.000   39.000    0.000 
#    0.000    0.000    0.000    0.000    0.000    0.000 
#
# Total GULP energy -297461.582531 kJ/mol
# GULP energy per Si atom -12394.232605 kJ/mol
# Density = 2.278245 g / cm^3
# Si number density = 22.834419 Si / 1000 Ang^3
#
#
#
# Elastic Constant Matrix: (Units=GPa)
#
#
# Indices 1 2 3 4 5 6 
#
# 1 55.4638 13.6359 15.4168 0.0000 0.0000 0.0000
# 2 13.6359 141.9283 44.6087 0.0000 0.0000 0.0000
# 3 15.4168 44.6087 111.8674 0.0000 0.0000 0.0000
# 4 0.0000 0.0000 0.0000 29.3313 0.0000 0.0000
# 5 0.0000 0.0000 0.0000 0.0000 16.9275 0.0000
# 6 0.0000 0.0000 0.0000 0.0000 0.0000 17.6740
#
#
#
# Elastic Compliance Matrix: (Units=1/GPa)
#
#
# Indices 1 2 3 4 5 6 
#
# 1 0.018908 -0.001141 -0.002151 0.000000 0.000000 0.000000
# 2 -0.001141 0.008124 -0.003082 0.000000 0.000000 0.000000
# 3 -0.002151 -0.003082 0.010465 0.000000 0.000000 0.000000
# 4 0.000000 0.000000 0.000000 0.034093 0.000000 0.000000
# 5 0.000000 0.000000 0.000000 0.000000 0.059076 0.000000
# 6 0.000000 0.000000 0.000000 0.000000 0.000000 0.056580
#
#
# Mechanical properties :
#
#
# Convention : Reuss Voigt Hill
#
# Bulk Modulus (GPa) = 40.40554 50.73137 45.56845
# Shear Modulus (GPa) = 24.01029 28.49308 26.25168
#
# Velocity S-wave (km/s) = 3.24620 3.53627 3.39433
# Velocity P-wave (km/s) = 5.63771 6.24011 5.94654
#
# Compressibility (1/GPa) = 0.02474908
#
# Stress axis : x y z
#
# Youngs Moduli (GPa) = 52.88748 123.08868 95.55877
#
# Poissons Ratio (x) = 0.14039 0.20554
# Poissons Ratio (y) = 0.06032 0.29456
# Poissons Ratio (z) = 0.11376 0.37942
#
# Static dielectric constant tensor:
#      x y z
#    x 3.444850 0.000000 0.000000 
#    y 0.000000 4.864160 0.000000 
#    z 0.000000 0.000000 4.284920 
# 
# 
# High freq. dielectric constant tensor:
#      x y z
#    x 1.838970 0.000000 0.000000 
#    y 0.000000 1.922620 0.000000 
#    z 0.000000 0.000000 1.914050 
# 
# From -- ./inp_files/31508.got.cif
#   From: 2010.03.12/outbox.cif.g09.slc.cpg/sg24_16_cif.got.tgz:31508.got - 2010.04.14 03:06:53.
