data_PCOD8165021
_publ_section_title
;
Structure prediction by ZEFSAII (Michael W. Deem and Ramdas Pophale) SiO2 
 PCOD8165021
Probable space group: I 21 21 21
;
_chemical_formula_sum "Si O2"
_cell_formula_units_Z 64
_cell_length_a 8.679169
_cell_length_b 10.307267
_cell_length_c 34.769661
_cell_angle_alpha 90.000000
_cell_angle_beta 90.000000
_cell_angle_gamma 90.000000
_cell_volume 3110.442143
_symmetry_space_group_name_H-M "I 21 21 21"
_symmetry_group_IT_number 24
_symmetry_cell_setting 'orthorhombic'
loop_
_space_group_symop_operation_xyz
x,y,z
-x,1/2-y,z
x,-y,1/2-z
1/2-x,y,-z
1/2+x,1/2+y,1/2+z
1/2-x,-y,1/2+z
1/2+x,1/2-y,-z
-x,1/2+y,1/2-z
loop_
_atom_site_type_symbol
_atom_site_label
_atom_site_fract_x
_atom_site_fract_y
_atom_site_fract_z
Si Si1 0.323153 0.980770 0.589298
Si Si2 0.319801 0.766238 0.111912
Si Si3 0.818118 0.254492 0.307867
Si Si4 0.380320 0.872296 0.669103
Si Si5 0.680311 0.990296 0.596989
Si Si6 0.318898 0.759865 0.270624
Si Si7 0.316856 0.260026 0.958242
Si Si8 0.178579 0.471580 0.184292
O O1 0.221442 0.111827 0.584436
O O2 0.502770 0.017001 0.586526
O O3 0.301041 0.904101 0.629083
O O4 0.259955 0.879736 0.557432
O O5 0.500000 0.750000 0.118132
O O6 0.239375 0.813577 0.151884
O O7 0.259078 0.631784 0.093696
O O8 0.743656 0.316285 0.269828
O O9 0.000000 0.250000 0.305520
O O10 0.747250 0.109379 0.307403
O O11 0.500000 0.750000 0.667000
O O12 0.235599 0.860644 0.697239
O O13 0.490254 0.985791 0.686398
O O14 0.743542 0.881494 0.567544
O O15 0.710812 0.930774 0.639651
O O16 0.500000 0.750000 0.269727
O O17 0.244800 0.623100 0.283312
O O18 0.500000 0.250000 0.958382
O O19 0.250000 0.284601 0.000000
#
# Coordination Sequence:
#
# PCOD8165021 Si02
#       8
#     8   8   8   8   8   8   8   8
#     4  10  19  38  63  85 114 153 196 231 274 343
#     4  11  23  37  57  88 119 148 187 239 292 337
#     4  11  21  37  56  73 103 148 195 236 279 338
#     4   9  17  33  56  78 101 141 196 240 278 335
#     4   9  19  39  63  85 113 154 195 232 276 342
#     4  11  22  33  47  75 112 144 181 239 300 339
#     4  10  21  38  64  95 123 151 188 232 279 333
#     4   9  18  35  56  75  98 141 195 235 275 333
#
# _framework density 20.575851
#
# number of rings (size 3 to 8) (size 9 to 14) (size 15 to 20)
#    0.000    2.000    0.000    7.125    0.000    3.000 
#    0.000    7.500    0.000    0.000    0.000    0.000 
#    0.000    0.000    0.000    0.000    0.000    0.000 
#
# Total GULP energy -396508.105076 kJ/mol
# GULP energy per Si atom -12390.878284 kJ/mol
# Density = 2.052902 g / cm^3
# Si number density = 20.575851 Si / 1000 Ang^3
#
#
#
# Elastic Constant Matrix: (Units=GPa)
#
#
# Indices 1 2 3 4 5 6 
#
# 1 99.1116 22.7941 40.1638 0.0000 0.0000 0.0000
# 2 22.7941 85.3084 47.3057 0.0000 0.0000 0.0000
# 3 40.1638 47.3057 101.4221 0.0000 0.0000 0.0000
# 4 0.0000 0.0000 0.0000 17.6288 0.0000 0.0000
# 5 0.0000 0.0000 0.0000 0.0000 29.8192 0.0000
# 6 0.0000 0.0000 0.0000 0.0000 0.0000 20.0835
#
#
#
# Elastic Compliance Matrix: (Units=1/GPa)
#
#
# Indices 1 2 3 4 5 6 
#
# 1 0.012056 -0.000774 -0.004413 0.000000 0.000000 0.000000
# 2 -0.000774 0.015862 -0.007092 0.000000 0.000000 0.000000
# 3 -0.004413 -0.007092 0.014915 0.000000 0.000000 0.000000
# 4 0.000000 0.000000 0.000000 0.056725 0.000000 0.000000
# 5 0.000000 0.000000 0.000000 0.000000 0.033535 0.000000
# 6 0.000000 0.000000 0.000000 0.000000 0.000000 0.049792
#
#
# Mechanical properties :
#
#
# Convention : Reuss Voigt Hill
#
# Bulk Modulus (GPa) = 54.72011 56.26326 55.49169
# Shear Modulus (GPa) = 23.41537 25.21155 24.31346
#
# Velocity S-wave (km/s) = 3.37709 3.50422 3.44124
# Velocity P-wave (km/s) = 6.46980 6.61638 6.54350
#
# Compressibility (1/GPa) = 0.01827482
#
# Stress axis : x y z
#
# Youngs Moduli (GPa) = 82.94576 63.04571 67.04587
#
# Poissons Ratio (x) = 0.04880 0.29589
# Poissons Ratio (y) = 0.06421 0.47547
# Poissons Ratio (z) = 0.36606 0.44710
#
# Static dielectric constant tensor:
#      x y z
#    x 3.519410 0.000000 0.000000 
#    y 0.000000 4.283810 0.000000 
#    z 0.000000 0.000000 3.708210 
# 
# 
# High freq. dielectric constant tensor:
#      x y z
#    x 1.784100 0.000000 0.000000 
#    y 0.000000 1.818840 0.000000 
#    z 0.000000 0.000000 1.785170 
# 
# From -- ./inp_files/38437.got.cif
#   From: 2010.03.12/outbox.cif.g09.slc.cpg/sg24_20_cif.got.tgz:38437.got - 2010.04.14 03:06:53.
