data_PCOD8165663
_publ_section_title
;
Structure prediction by ZEFSAII (Michael W. Deem and Ramdas Pophale) SiO2 
 PCOD8165663
Probable space group: I 21 21 21
;
_chemical_formula_sum "Si O2"
_cell_formula_units_Z 44
_cell_length_a 20.725892
_cell_length_b 11.959243
_cell_length_c 8.736522
_cell_angle_alpha 90.000000
_cell_angle_beta 90.000000
_cell_angle_gamma 90.000000
_cell_volume 2165.486577
_symmetry_space_group_name_H-M "I 21 21 21"
_symmetry_group_IT_number 24
_symmetry_cell_setting 'orthorhombic'
loop_
_space_group_symop_operation_xyz
x,y,z
-x,1/2-y,z
x,-y,1/2-z
1/2-x,y,-z
1/2+x,1/2+y,1/2+z
1/2-x,-y,1/2+z
1/2+x,1/2-y,-z
-x,1/2+y,1/2-z
loop_
_atom_site_type_symbol
_atom_site_label
_atom_site_fract_x
_atom_site_fract_y
_atom_site_fract_z
Si Si1 0.000000 0.750000 0.045646
Si Si2 0.783717 0.846829 0.754254
Si Si3 0.426641 0.625242 0.205289
Si Si4 0.000000 0.750000 0.544343
Si Si5 0.250000 0.499389 0.000000
Si Si6 0.425255 0.125416 0.793827
Si Si7 0.275558 0.116219 0.832109
O O1 0.057499 0.797505 0.149544
O O2 0.029674 0.652676 0.941118
O O3 0.852223 0.853159 0.840723
O O4 0.761695 0.719283 0.745568
O O5 0.796186 0.908914 0.588464
O O6 0.731056 0.915959 0.859663
O O7 0.442337 0.500000 0.250000
O O8 0.443134 0.701798 0.350805
O O9 0.968435 0.654000 0.440685
O O10 0.350822 0.144067 0.833366
O O11 0.441557 0.000000 0.750000
O O12 0.259376 0.000000 0.750000
O O13 0.250000 0.099940 0.000000
#
# Coordination Sequence:
#
# PCOD8165663 Si02
#       7
#     4   8   8   4   4   8   8
#     4  10  24  40  62  90 118 164 200 252 296 360
#     4  11  23  40  63  95 127 159 208 250 319 368
#     4  11  22  40  63  90 123 156 205 250 305 364
#     4  10  22  38  62  86 120 164 198 254 296 356
#     4  10  22  40  62  94 128 158 194 260 312 380
#     4  10  22  42  61  87 122 158 206 248 298 360
#     4  11  25  41  63  91 127 167 207 254 307 374
#
# _framework density 20.318757999999999
#
# number of rings (size 3 to 8) (size 9 to 14) (size 15 to 20)
#    0.000    1.455    2.727    2.182    3.818    1.455 
#    0.000    4.545    0.000    0.000    0.000    0.000 
#    0.000    0.000    0.000    0.000    0.000    0.000 
#
# Total GULP energy -272549.412014 kJ/mol
# GULP energy per Si atom -12388.609637 kJ/mol
# Density = 2.027251 g / cm^3
# Si number density = 20.318758 Si / 1000 Ang^3
#
#
#
# Elastic Constant Matrix: (Units=GPa)
#
#
# Indices 1 2 3 4 5 6 
#
# 1 93.6741 46.6317 52.3980 0.0000 0.0000 0.0000
# 2 46.6317 139.7616 50.7155 0.0000 0.0000 0.0000
# 3 52.3980 50.7155 123.1763 0.0000 0.0000 0.0000
# 4 0.0000 0.0000 0.0000 23.8790 0.0000 0.0000
# 5 0.0000 0.0000 0.0000 0.0000 50.1134 0.0000
# 6 0.0000 0.0000 0.0000 0.0000 0.0000 26.6542
#
#
#
# Elastic Compliance Matrix: (Units=1/GPa)
#
#
# Indices 1 2 3 4 5 6 
#
# 1 0.015128 -0.003189 -0.005122 0.000000 0.000000 0.000000
# 2 -0.003189 0.009084 -0.002384 0.000000 0.000000 0.000000
# 3 -0.005122 -0.002384 0.011279 0.000000 0.000000 0.000000
# 4 0.000000 0.000000 0.000000 0.041878 0.000000 0.000000
# 5 0.000000 0.000000 0.000000 0.000000 0.019955 0.000000
# 6 0.000000 0.000000 0.000000 0.000000 0.000000 0.037518
#
#
# Mechanical properties :
#
#
# Convention : Reuss Voigt Hill
#
# Bulk Modulus (GPa) = 70.91590 72.90027 71.90808
# Shear Modulus (GPa) = 31.06922 33.92042 32.49482
#
# Velocity S-wave (km/s) = 3.91460 4.09028 4.00340
# Velocity P-wave (km/s) = 7.44376 7.63305 7.53900
#
# Compressibility (1/GPa) = 0.01410121
#
# Stress axis : x y z
#
# Youngs Moduli (GPa) = 66.10274 110.08445 88.66106
#
# Poissons Ratio (x) = 0.35103 0.45416
# Poissons Ratio (y) = 0.21078 0.21134
# Poissons Ratio (z) = 0.33860 0.26241
#
# Static dielectric constant tensor:
#      x y z
#    x 3.524170 0.000000 0.000000 
#    y 0.000000 3.974310 0.000000 
#    z 0.000000 0.000000 3.890810 
# 
# 
# High freq. dielectric constant tensor:
#      x y z
#    x 1.772900 0.000000 0.000000 
#    y 0.000000 1.813110 0.000000 
#    z 0.000000 0.000000 1.807910 
# 
# From -- ./inp_files/15799.got.cif
#   From: 2010.03.12/outbox.cif.g09.slc.cpg/sg24_8_cif.got.tgz:15799.got - 2010.04.14 03:06:53.
