data_PCOD8165202
_publ_section_title
;
Structure prediction by ZEFSAII (Michael W. Deem and Ramdas Pophale) SiO2 
 PCOD8165202
Probable space group: I 21 21 21
;
_chemical_formula_sum "Si O2"
_cell_formula_units_Z 40
_cell_length_a 8.688054
_cell_length_b 7.835959
_cell_length_c 27.440122
_cell_angle_alpha 90.000000
_cell_angle_beta 90.000000
_cell_angle_gamma 90.000000
_cell_volume 1868.102512
_symmetry_space_group_name_H-M "I 21 21 21"
_symmetry_group_IT_number 24
_symmetry_cell_setting 'orthorhombic'
loop_
_space_group_symop_operation_xyz
x,y,z
-x,1/2-y,z
x,-y,1/2-z
1/2-x,y,-z
1/2+x,1/2+y,1/2+z
1/2-x,-y,1/2+z
1/2+x,1/2-y,-z
-x,1/2+y,1/2-z
loop_
_atom_site_type_symbol
_atom_site_label
_atom_site_fract_x
_atom_site_fract_y
_atom_site_fract_z
Si Si1 0.750000 0.635627 0.000000
Si Si2 0.971807 0.062922 0.969001
Si Si3 0.069668 0.575974 0.341652
Si Si4 0.665168 0.177511 0.222247
Si Si5 0.336476 0.568048 0.938025
Si Si6 0.859030 0.500000 0.250000
O O1 0.636547 0.528359 0.033942
O O2 0.645464 0.745283 0.962375
O O3 0.000000 0.250000 0.948521
O O4 0.913022 0.068764 0.025184
O O5 0.847033 0.970018 0.934485
O O6 0.240847 0.627707 0.325500
O O7 0.083337 0.438945 0.385228
O O8 0.000000 0.750000 0.362989
O O9 0.968889 0.498974 0.297448
O O10 0.500000 0.250000 0.206797
O O11 0.757310 0.326461 0.252184
O O12 0.642701 0.000000 0.250000
#
# Coordination Sequence:
#
# PCOD8165202 Si02
#       6
#     4   8   8   8   8   4
#     4  10  20  40  60  94 122 162 208 260 314 382
#     4  10  20  37  63  86 124 165 204 249 316 376
#     4  10  22  40  65  95 130 169 222 263 324 395
#     4  11  22  42  68  94 129 171 221 270 340 389
#     4  10  20  37  60  89 125 158 203 262 308 371
#     4  10  22  44  70  92 130 178 216 284 320 396
#
# _framework density 21.412102000000001
#
# number of rings (size 3 to 8) (size 9 to 14) (size 15 to 20)
#    0.000    2.000    2.000    4.200    0.000    0.800 
#    7.200    4.000    0.000    0.000    0.000    0.000 
#    0.000    0.000    0.000    0.000    0.000    0.000 
#
# Total GULP energy -247886.750770 kJ/mol
# GULP energy per Si atom -12394.337538 kJ/mol
# Density = 2.136337 g / cm^3
# Si number density = 21.412102 Si / 1000 Ang^3
#
#
#
# Elastic Constant Matrix: (Units=GPa)
#
#
# Indices 1 2 3 4 5 6 
#
# 1 110.6016 21.1605 22.5018 0.0000 0.0000 0.0000
# 2 21.1605 107.1409 20.8609 0.0000 0.0000 0.0000
# 3 22.5018 20.8609 99.2851 0.0000 0.0000 0.0000
# 4 0.0000 0.0000 0.0000 15.2993 0.0000 0.0000
# 5 0.0000 0.0000 0.0000 0.0000 14.7640 0.0000
# 6 0.0000 0.0000 0.0000 0.0000 0.0000 36.8102
#
#
#
# Elastic Compliance Matrix: (Units=1/GPa)
#
#
# Indices 1 2 3 4 5 6 
#
# 1 0.009721 -0.001554 -0.001876 0.000000 0.000000 0.000000
# 2 -0.001554 0.009980 -0.001745 0.000000 0.000000 0.000000
# 3 -0.001876 -0.001745 0.010864 0.000000 0.000000 0.000000
# 4 0.000000 0.000000 0.000000 0.065362 0.000000 0.000000
# 5 0.000000 0.000000 0.000000 0.000000 0.067732 0.000000
# 6 0.000000 0.000000 0.000000 0.000000 0.000000 0.027166
#
#
# Mechanical properties :
#
#
# Convention : Reuss Voigt Hill
#
# Bulk Modulus (GPa) = 49.47183 49.56378 49.51781
# Shear Modulus (GPa) = 24.04832 30.20833 27.12832
#
# Velocity S-wave (km/s) = 3.35493 3.76014 3.56330
# Velocity P-wave (km/s) = 6.17756 6.48455 6.33291
#
# Compressibility (1/GPa) = 0.02021352
#
# Stress axis : x y z
#
# Youngs Moduli (GPa) = 102.87398 100.19831 92.04837
#
# Poissons Ratio (x) = 0.15576 0.17272
# Poissons Ratio (y) = 0.15992 0.16059
# Poissons Ratio (z) = 0.19304 0.17481
#
# Static dielectric constant tensor:
#      x y z
#    x 4.093690 0.000000 0.000000 
#    y 0.000000 3.952060 0.000000 
#    z 0.000000 0.000000 3.419560 
# 
# 
# High freq. dielectric constant tensor:
#      x y z
#    x 1.861850 0.000000 0.000000 
#    y 0.000000 1.846290 0.000000 
#    z 0.000000 0.000000 1.796930 
# 
# From -- ./inp_files/38199.got.cif
#   From: 2010.03.12/outbox.cif.g09.slc.cpg/sg24_20_cif.got.tgz:38199.got - 2010.04.14 03:06:53.
