data_PCOD8165667
_publ_section_title
;
Structure prediction by ZEFSAII (Michael W. Deem and Ramdas Pophale) SiO2 
 PCOD8165667
Probable space group: I 21 21 21
;
_chemical_formula_sum "Si O2"
_cell_formula_units_Z 48
_cell_length_a 16.657772
_cell_length_b 5.295082
_cell_length_c 24.863433
_cell_angle_alpha 90.000000
_cell_angle_beta 90.000000
_cell_angle_gamma 90.000000
_cell_volume 2193.060925
_symmetry_space_group_name_H-M "I 21 21 21"
_symmetry_group_IT_number 24
_symmetry_cell_setting 'orthorhombic'
loop_
_space_group_symop_operation_xyz
x,y,z
-x,1/2-y,z
x,-y,1/2-z
1/2-x,y,-z
1/2+x,1/2+y,1/2+z
1/2-x,-y,1/2+z
1/2+x,1/2-y,-z
-x,1/2+y,1/2-z
loop_
_atom_site_type_symbol
_atom_site_label
_atom_site_fract_x
_atom_site_fract_y
_atom_site_fract_z
Si Si1 0.302511 0.446015 0.573481
Si Si2 0.633832 0.950289 0.460513
Si Si3 0.374048 0.911392 0.365470
Si Si4 0.303680 0.044744 0.863816
Si Si5 0.000000 0.250000 0.588502
Si Si6 0.962423 0.499458 0.188430
Si Si7 0.500000 0.750000 0.286088
O O1 0.353788 0.566196 0.524451
O O2 0.209150 0.384793 0.560207
O O3 0.331838 0.169959 0.592945
O O4 0.309875 0.665548 0.617438
O O5 0.638568 0.690189 0.426734
O O6 0.544945 0.056125 0.450561
O O7 0.419883 0.722742 0.324048
O O8 0.287456 0.999323 0.342691
O O9 0.433524 0.145703 0.370851
O O10 0.365872 0.009209 0.815225
O O11 0.989340 0.500000 0.250000
O O12 0.000000 0.750000 0.160487
O O13 0.000000 0.250000 0.159948
O O14 0.506081 0.500000 0.250000
#
# Coordination Sequence:
#
# PCOD8165667 Si02
#       7
#     8   8   8   8   4   8   4
#     4  10  23  39  63  96 132 166 221 265 323 371
#     4  10  22  38  63  90 129 181 216 262 314 406
#     4  11  24  42  66  93 134 182 225 267 340 393
#     4  11  23  43  67  97 131 169 209 283 327 391
#     4  12  19  40  66  88 132 182 228 245 322 402
#     4  10  22  44  69  92 122 164 208 259 333 407
#     4  12  27  44  66  98 138 178 234 295 324 380
#
# _framework density 21.887217
#
# number of rings (size 3 to 8) (size 9 to 14) (size 15 to 20)
#    0.000    1.333    3.333    1.500    2.333    2.000 
#    4.500    2.500    0.000    0.000    0.000    0.000 
#    0.000    0.000    0.000    0.000    0.000    0.000 
#
# Total GULP energy -297344.305075 kJ/mol
# GULP energy per Si atom -12389.346045 kJ/mol
# Density = 2.183740 g / cm^3
# Si number density = 21.887217 Si / 1000 Ang^3
#
#
#
# Elastic Constant Matrix: (Units=GPa)
#
#
# Indices 1 2 3 4 5 6 
#
# 1 165.3895 40.7972 24.6260 0.0000 0.0000 0.0000
# 2 40.7972 121.3186 17.8326 0.0000 0.0000 0.0000
# 3 24.6260 17.8326 49.5133 0.0000 0.0000 0.0000
# 4 0.0000 0.0000 0.0000 21.8227 0.0000 0.0000
# 5 0.0000 0.0000 0.0000 0.0000 33.8035 0.0000
# 6 0.0000 0.0000 0.0000 0.0000 0.0000 34.4671
#
#
#
# Elastic Compliance Matrix: (Units=1/GPa)
#
#
# Indices 1 2 3 4 5 6 
#
# 1 0.006931 -0.001926 -0.002754 0.000000 0.000000 0.000000
# 2 -0.001926 0.009239 -0.002369 0.000000 0.000000 0.000000
# 3 -0.002754 -0.002369 0.022420 0.000000 0.000000 0.000000
# 4 0.000000 0.000000 0.000000 0.045824 0.000000 0.000000
# 5 0.000000 0.000000 0.000000 0.000000 0.029583 0.000000
# 6 0.000000 0.000000 0.000000 0.000000 0.000000 0.029013
#
#
# Mechanical properties :
#
#
# Convention : Reuss Voigt Hill
#
# Bulk Modulus (GPa) = 40.83101 55.85923 48.34512
# Shear Modulus (GPa) = 30.25319 34.88305 32.56812
#
# Velocity S-wave (km/s) = 3.72187 3.99653 3.86164
# Velocity P-wave (km/s) = 6.09635 6.84639 6.48223
#
# Compressibility (1/GPa) = 0.02449119
#
# Stress axis : x y z
#
# Youngs Moduli (GPa) = 144.26918 108.23956 44.60393
#
# Poissons Ratio (x) = 0.20849 0.12283
# Poissons Ratio (y) = 0.27789 0.10569
# Poissons Ratio (z) = 0.39728 0.25646
#
# Static dielectric constant tensor:
#      x y z
#    x 4.259870 0.000000 0.000000 
#    y 0.000000 4.018190 0.000000 
#    z 0.000000 0.000000 3.715040 
# 
# 
# High freq. dielectric constant tensor:
#      x y z
#    x 1.870300 0.000000 0.000000 
#    y 0.000000 1.863850 0.000000 
#    z 0.000000 0.000000 1.825670 
# 
# From -- ./inp_files/37381.got.cif
#   From: 2010.03.12/outbox.cif.g09.slc.cpg/sg24_19_cif.got.tgz:37381.got - 2010.04.14 03:06:53.
