data_PCOD8165796
_publ_section_title
;
Structure prediction by ZEFSAII (Michael W. Deem and Ramdas Pophale) SiO2 
 PCOD8165796
Probable space group: I 21 21 21
;
_chemical_formula_sum "Si O2"
_cell_formula_units_Z 20
_cell_length_a 22.001834
_cell_length_b 7.834329
_cell_length_c 5.116590
_cell_angle_alpha 90.000000
_cell_angle_beta 90.000000
_cell_angle_gamma 90.000000
_cell_volume 881.944603
_symmetry_space_group_name_H-M "I 21 21 21"
_symmetry_group_IT_number 24
_symmetry_cell_setting 'orthorhombic'
loop_
_space_group_symop_operation_xyz
x,y,z
-x,1/2-y,z
x,-y,1/2-z
1/2-x,y,-z
1/2+x,1/2+y,1/2+z
1/2-x,-y,1/2+z
1/2+x,1/2-y,-z
-x,1/2+y,1/2-z
loop_
_atom_site_type_symbol
_atom_site_label
_atom_site_fract_x
_atom_site_fract_y
_atom_site_fract_z
Si Si1 0.119077 0.821733 0.909517
Si Si2 0.451603 0.500000 0.250000
Si Si3 0.465690 0.000000 0.750000
Si Si4 0.250000 0.114384 0.500000
O O1 0.090518 0.665603 0.754918
O O2 0.189243 0.772110 0.966713
O O3 0.115954 0.000000 0.750000
O O4 0.079300 0.842123 0.175850
O O5 0.493410 0.536479 0.499071
O O6 0.262698 0.000000 0.750000
#
# Coordination Sequence:
#
# PCOD8165796 Si02
#       4
#     8   4   4   4
#     4  11  26  47  72 103 140 192 231 299 343 429
#     4  12  30  42  72 106 146 182 242 282 364 420
#     4  12  26  44  72 106 142 188 230 296 348 426
#     4  10  22  44  74 100 134 188 240 286 350 416
#
# _framework density 22.677161000000002
#
# number of rings (size 3 to 8) (size 9 to 14) (size 15 to 20)
#    0.000    0.800    4.000    1.200   11.200    0.000 
#    0.000   10.000    0.000    0.000    0.000    0.000 
#    0.000    0.000    0.000    0.000    0.000    0.000 
#
# Total GULP energy -123930.760928 kJ/mol
# GULP energy per Si atom -12393.076093 kJ/mol
# Density = 2.262555 g / cm^3
# Si number density = 22.677161 Si / 1000 Ang^3
#
#
#
# Elastic Constant Matrix: (Units=GPa)
#
#
# Indices 1 2 3 4 5 6 
#
# 1 260.8302 79.7757 79.3480 0.0001 0.0001 0.0001
# 2 79.7757 117.6812 35.9752 -0.0005 -0.0007 -0.0004
# 3 79.3480 35.9752 143.6641 -0.0009 -0.0020 -0.0011
# 4 0.0001 -0.0005 -0.0009 25.1955 -0.0017 -0.0009
# 5 0.0001 -0.0007 -0.0020 -0.0017 7.9540 -0.0020
# 6 0.0001 -0.0004 -0.0011 -0.0009 -0.0020 7.5014
#
#
#
# Elastic Compliance Matrix: (Units=1/GPa)
#
#
# Indices 1 2 3 4 5 6 
#
# 1 0.005435 -0.002996 -0.002252 0.000000 -0.000001 -0.000001
# 2 -0.002996 0.010854 -0.001063 0.000000 0.000001 0.000000
# 3 -0.002252 -0.001063 0.008471 0.000000 0.000002 0.000001
# 4 0.000000 0.000000 0.000000 0.039690 0.000008 0.000005
# 5 -0.000001 0.000001 0.000002 0.000008 0.125722 0.000034
# 6 -0.000001 0.000000 0.000001 0.000005 0.000034 0.133309
#
#
# Mechanical properties :
#
#
# Convention : Reuss Voigt Hill
#
# Bulk Modulus (GPa) = 82.38893 101.37482 91.88187
# Shear Modulus (GPa) = 14.69948 29.93528 22.31738
#
# Velocity S-wave (km/s) = 2.54875 3.63721 3.14050
# Velocity P-wave (km/s) = 6.71354 7.90187 7.33182
#
# Compressibility (1/GPa) = 0.01213755
#
# Stress axis : x y z
#
# Youngs Moduli (GPa) = 183.98169 92.13505 118.05628
#
# Poissons Ratio (x) = 0.27606 0.26583
# Poissons Ratio (y) = 0.55125 0.12550
# Poissons Ratio (z) = 0.41428 0.09794
#
# Static dielectric constant tensor:
#      x y z
#    x 4.800760 0.000000 0.000000 
#    y 0.000000 4.126100 0.000050 
#    z 0.000000 0.000050 3.380940 
# 
# 
# High freq. dielectric constant tensor:
#      x y z
#    x 1.926640 0.000000 0.000000 
#    y 0.000000 1.855000 0.000000 
#    z 0.000000 0.000000 1.909370 
# 
# From -- ./inp_files/761.got.cif
#   From: 2010.03.12/outbox.cif.g09.slc.cpg/sg24_1_cif.got.tgz:761.got - 2010.04.14 03:06:53.
