data_PCOD8165056
_publ_section_title
;
Structure prediction by ZEFSAII (Michael W. Deem and Ramdas Pophale) SiO2 
 PCOD8165056
Probable space group: I 21 21 21
;
_chemical_formula_sum "Si O2"
_cell_formula_units_Z 52
_cell_length_a 12.469791
_cell_length_b 7.379617
_cell_length_c 27.889737
_cell_angle_alpha 90.000000
_cell_angle_beta 90.000000
_cell_angle_gamma 90.000000
_cell_volume 2566.477233
_symmetry_space_group_name_H-M "I 21 21 21"
_symmetry_group_IT_number 24
_symmetry_cell_setting 'orthorhombic'
loop_
_space_group_symop_operation_xyz
x,y,z
-x,1/2-y,z
x,-y,1/2-z
1/2-x,y,-z
1/2+x,1/2+y,1/2+z
1/2-x,-y,1/2+z
1/2+x,1/2-y,-z
-x,1/2+y,1/2-z
loop_
_atom_site_type_symbol
_atom_site_label
_atom_site_fract_x
_atom_site_fract_y
_atom_site_fract_z
Si Si1 0.487128 0.460489 0.943970
Si Si2 0.741257 0.389921 0.353823
Si Si3 0.500000 0.750000 0.767932
Si Si4 0.540685 0.437918 0.838562
Si Si5 0.082761 0.900052 0.704010
Si Si6 0.823647 0.265810 0.454651
Si Si7 0.769679 0.204437 0.256946
O O1 0.500000 0.250000 0.962321
O O2 0.475778 0.467428 0.887125
O O3 0.378309 0.565913 0.959402
O O4 0.589506 0.575122 0.960251
O O5 0.832587 0.544910 0.349033
O O6 0.622599 0.476506 0.341457
O O7 0.751664 0.295368 0.406180
O O8 0.762637 0.238123 0.313946
O O9 0.491528 0.573093 0.800188
O O10 0.388396 0.758464 0.738054
O O11 0.500000 0.250000 0.816758
O O12 0.191807 0.824971 0.725769
O O13 0.000000 0.750000 0.684112
O O14 0.025994 0.000000 0.750000
O O15 0.750000 0.289055 0.500000
O O16 0.736553 0.000000 0.250000
#
# Coordination Sequence:
#
# PCOD8165056 Si02
#       7
#     8   8   4   8   8   8   8
#     4   9  18  35  60  88 120 162 199 238 310 385
#     4   9  20  38  57  87 114 153 211 249 307 380
#     4  10  20  32  48  86 126 144 188 244 300 360
#     4   9  17  31  55  83 118 153 185 236 299 365
#     4  10  21  39  60  80 115 164 215 258 306 369
#     4  10  20  38  64  89 125 159 198 259 316 374
#     4  10  21  35  56  81 116 158 200 252 310 367
#
# _framework density 20.261234000000002
#
# number of rings (size 3 to 8) (size 9 to 14) (size 15 to 20)
#    0.000    2.462    0.000    3.231    2.154    3.692 
#    2.769    0.769   20.308    0.000    0.000    0.000 
#    0.000    0.000    0.000    0.000    0.000    0.000 
#
# Total GULP energy -322122.201004 kJ/mol
# GULP energy per Si atom -12389.315423 kJ/mol
# Density = 2.021512 g / cm^3
# Si number density = 20.261234 Si / 1000 Ang^3
#
#
#
# Elastic Constant Matrix: (Units=GPa)
#
#
# Indices 1 2 3 4 5 6 
#
# 1 85.8761 37.8674 49.2254 0.0000 0.0000 0.0000
# 2 37.8674 129.8603 39.0165 0.0000 0.0000 0.0000
# 3 49.2254 39.0165 114.7401 0.0000 0.0000 0.0000
# 4 0.0000 0.0000 0.0000 42.7459 0.0000 0.0000
# 5 0.0000 0.0000 0.0000 0.0000 418.8721 0.0000
# 6 0.0000 0.0000 0.0000 0.0000 0.0000 34.5657
#
#
#
# Elastic Compliance Matrix: (Units=1/GPa)
#
#
# Indices 1 2 3 4 5 6 
#
# 1 0.016413 -0.002974 -0.006030 0.000000 0.000000 0.000000
# 2 -0.002974 0.009116 -0.001824 0.000000 0.000000 0.000000
# 3 -0.006030 -0.001824 0.011922 0.000000 0.000000 0.000000
# 4 0.000000 0.000000 0.000000 0.023394 0.000000 0.000000
# 5 0.000000 0.000000 0.000000 0.000000 0.002387 0.000000
# 6 0.000000 0.000000 0.000000 0.000000 0.000000 0.028930
#
#
# Mechanical properties :
#
#
# Convention : Reuss Voigt Hill
#
# Bulk Modulus (GPa) = 63.31107 64.74390 64.02748
# Shear Modulus (GPa) = 41.98730 112.86121 77.42426
#
# Velocity S-wave (km/s) = 4.55719 7.47154 6.18837
# Velocity P-wave (km/s) = 7.68153 10.31775 9.09565
#
# Compressibility (1/GPa) = 0.01579503
#
# Stress axis : x y z
#
# Youngs Moduli (GPa) = 60.92872 109.69929 83.87546
#
# Poissons Ratio (x) = 0.32627 0.50576
# Poissons Ratio (y) = 0.18122 0.15297
# Poissons Ratio (z) = 0.36739 0.20007
#
# Static dielectric constant tensor:
#      x y z
#    x 3.577650 0.000000 0.000000 
#    y 0.000000 -33.084200 0.000000 
#    z 0.000000 0.000000 3.580340 
# 
# 
# High freq. dielectric constant tensor:
#      x y z
#    x 1.783440 0.000000 0.000000 
#    y 0.000000 1.801410 0.000000 
#    z 0.000000 0.000000 1.771410 
# 
# From -- ./inp_files/37164.got.cif
#   From: 2010.03.12/outbox.cif.g09.slc.cpg/sg24_19_cif.got.tgz:37164.got - 2010.04.14 03:06:53.
