data_PCOD8165640
_publ_section_title
;
Structure prediction by ZEFSAII (Michael W. Deem and Ramdas Pophale) SiO2 
 PCOD8165640
Probable space group: I 21 21 21
;
_chemical_formula_sum "Si O2"
_cell_formula_units_Z 40
_cell_length_a 5.305347
_cell_length_b 18.320486
_cell_length_c 20.782727
_cell_angle_alpha 90.000000
_cell_angle_beta 90.000000
_cell_angle_gamma 90.000000
_cell_volume 2020.009061
_symmetry_space_group_name_H-M "I 21 21 21"
_symmetry_group_IT_number 24
_symmetry_cell_setting 'orthorhombic'
loop_
_space_group_symop_operation_xyz
x,y,z
-x,1/2-y,z
x,-y,1/2-z
1/2-x,y,-z
1/2+x,1/2+y,1/2+z
1/2-x,-y,1/2+z
1/2+x,1/2-y,-z
-x,1/2+y,1/2-z
loop_
_atom_site_type_symbol
_atom_site_label
_atom_site_fract_x
_atom_site_fract_y
_atom_site_fract_z
Si Si1 0.500000 0.750000 0.321270
Si Si2 0.804087 0.970345 0.851845
Si Si3 0.349681 0.136344 0.877682
Si Si4 0.000000 0.750000 0.461493
Si Si5 0.229679 0.611410 0.276755
Si Si6 0.784918 0.515844 0.073879
O O1 0.653581 0.701113 0.370239
O O2 0.345931 0.692785 0.276826
O O3 0.724195 0.914107 0.796494
O O4 0.568815 0.968594 0.901394
O O5 0.061722 0.943304 0.886233
O O6 0.867818 0.050744 0.821957
O O7 0.568154 0.176964 0.919025
O O8 0.447298 0.113067 0.806455
O O9 0.233225 0.070029 0.917882
O O10 0.250000 0.770053 0.500000
O O11 0.750000 0.539463 0.000000
#
# Coordination Sequence:
#
# PCOD8165640 Si02
#       6
#     4   8   8   4   8   8
#     4  12  19  38  60  86 130 151 198 242 300 360
#     4  10  23  39  61  88 118 159 204 251 303 343
#     4  11  23  36  55  86 122 162 202 241 292 347
#     4  12  25  36  52  80 124 171 204 228 274 346
#     4  10  22  36  61  85 123 157 200 256 300 348
#     4  11  23  40  60  85 121 162 204 244 291 361
#
# _framework density 19.801891000000001
#
# number of rings (size 3 to 8) (size 9 to 14) (size 15 to 20)
#    0.000    1.200    4.000    1.800    2.800    4.800 
#    0.000    0.000    0.000    0.000    0.000    2.800 
#    0.000    0.000    0.000    0.000    0.000    0.000 
#
# Total GULP energy -247797.854857 kJ/mol
# GULP energy per Si atom -12389.892743 kJ/mol
# Density = 1.975682 g / cm^3
# Si number density = 19.801891 Si / 1000 Ang^3
#
#
#
# Elastic Constant Matrix: (Units=GPa)
#
#
# Indices 1 2 3 4 5 6 
#
# 1 83.5851 0.8159 29.4599 0.0000 0.0000 0.0000
# 2 0.8159 34.5614 13.0191 0.0000 0.0000 0.0000
# 3 29.4599 13.0191 113.4475 0.0000 0.0000 0.0000
# 4 0.0000 0.0000 0.0000 24.7263 0.0000 0.0000
# 5 0.0000 0.0000 0.0000 0.0000 31.1179 0.0000
# 6 0.0000 0.0000 0.0000 0.0000 0.0000 22.6894
#
#
#
# Elastic Compliance Matrix: (Units=1/GPa)
#
#
# Indices 1 2 3 4 5 6 
#
# 1 0.013204 0.001024 -0.003546 0.000000 0.000000 0.000000
# 2 0.001024 0.030321 -0.003746 0.000000 0.000000 0.000000
# 3 -0.003546 -0.003746 0.010165 0.000000 0.000000 0.000000
# 4 0.000000 0.000000 0.000000 0.040443 0.000000 0.000000
# 5 0.000000 0.000000 0.000000 0.000000 0.032136 0.000000
# 6 0.000000 0.000000 0.000000 0.000000 0.000000 0.044073
#
#
# Mechanical properties :
#
#
# Convention : Reuss Voigt Hill
#
# Bulk Modulus (GPa) = 24.29861 35.35376 29.82618
# Shear Modulus (GPa) = 25.43294 28.26000 26.84647
#
# Velocity S-wave (km/s) = 3.58770 3.78184 3.68605
# Velocity P-wave (km/s) = 5.42767 6.07966 5.76289
#
# Compressibility (1/GPa) = 0.04115462
#
# Stress axis : x y z
#
# Youngs Moduli (GPa) = 75.73601 32.98067 98.37323
#
# Poissons Ratio (x) = -0.03378 0.34886
# Poissons Ratio (y) = -0.07756 0.36846
# Poissons Ratio (z) = 0.26858 0.12353
#
# Static dielectric constant tensor:
#      x y z
#    x 3.610850 0.000000 0.000000 
#    y 0.000000 3.519630 0.000000 
#    z 0.000000 0.000000 3.597250 
# 
# 
# High freq. dielectric constant tensor:
#      x y z
#    x 1.779090 0.000000 0.000000 
#    y 0.000000 1.739480 0.000000 
#    z 0.000000 0.000000 1.764820 
# 
# From -- ./inp_files/4550.got.cif
#   From: 2010.03.12/outbox.cif.g09.slc.cpg/sg24_3_cif.got.tgz:4550.got - 2010.04.14 03:06:53.
