data_PCOD8165954
_publ_section_title
;
Structure prediction by ZEFSAII (Michael W. Deem and Ramdas Pophale) SiO2 
 PCOD8165954
Probable space group: I 21 21 21
;
_chemical_formula_sum "Si O2"
_cell_formula_units_Z 28
_cell_length_a 7.377172
_cell_length_b 12.367291
_cell_length_c 11.423430
_cell_angle_alpha 90.000000
_cell_angle_beta 90.000000
_cell_angle_gamma 90.000000
_cell_volume 1042.223866
_symmetry_space_group_name_H-M "I 21 21 21"
_symmetry_group_IT_number 24
_symmetry_cell_setting 'orthorhombic'
loop_
_space_group_symop_operation_xyz
x,y,z
-x,1/2-y,z
x,-y,1/2-z
1/2-x,y,-z
1/2+x,1/2+y,1/2+z
1/2-x,-y,1/2+z
1/2+x,1/2-y,-z
-x,1/2+y,1/2-z
loop_
_atom_site_type_symbol
_atom_site_label
_atom_site_fract_x
_atom_site_fract_y
_atom_site_fract_z
Si Si1 0.289530 0.226804 0.766901
Si Si2 0.637738 0.500000 0.250000
Si Si3 0.250000 0.353990 0.000000
Si Si4 0.541456 0.477096 0.490305
Si Si5 0.000000 0.250000 0.567978
O O1 0.500000 0.250000 0.753184
O O2 0.205473 0.281824 0.885559
O O3 0.177421 0.261272 0.650873
O O4 0.272241 0.097902 0.781457
O O5 0.497604 0.472061 0.352066
O O6 0.085611 0.431132 0.044944
O O7 0.750000 0.511480 0.500000
O O8 0.508192 0.351390 0.524929
#
# Coordination Sequence:
#
# PCOD8165954 Si02
#       5
#     8   4   4   8   4
#     4  11  25  43  74 104 145 197 248 307 378 448
#     4  10  24  48  66 102 158 180 230 328 374 418
#     4  12  26  40  76 112 138 192 270 296 370 458
#     4  11  25  45  72 105 149 196 248 315 375 446
#     4  10  26  48  68 102 156 192 248 312 386 438
#
# _framework density 26.865631
#
# number of rings (size 3 to 8) (size 9 to 14) (size 15 to 20)
#    0.000    1.143    0.000    5.143   10.000    6.857 
#    2.571    1.429    0.000    0.000    0.000    0.000 
#    0.000    0.000    0.000    0.000    0.000    0.000 
#
# Total GULP energy -173458.804283 kJ/mol
# GULP energy per Si atom -12389.914592 kJ/mol
# Density = 2.680448 g / cm^3
# Si number density = 26.865631 Si / 1000 Ang^3
#
#
#
# Elastic Constant Matrix: (Units=GPa)
#
#
# Indices 1 2 3 4 5 6 
#
# 1 142.2554 48.4415 -17.2569 0.0000 0.0000 0.0000
# 2 48.4415 193.1458 4.2611 0.0000 0.0000 0.0000
# 3 -17.2569 4.2611 21.7289 0.0000 0.0000 0.0000
# 4 0.0000 0.0000 0.0000 18.3630 0.0000 0.0000
# 5 0.0000 0.0000 0.0000 0.0000 32.5025 0.0000
# 6 0.0000 0.0000 0.0000 0.0000 0.0000 38.0106
#
#
#
# Elastic Compliance Matrix: (Units=1/GPa)
#
#
# Indices 1 2 3 4 5 6 
#
# 1 0.008727 -0.002352 0.007392 0.000000 0.000000 0.000000
# 2 -0.002352 0.005834 -0.003012 0.000000 0.000000 0.000000
# 3 0.007392 -0.003012 0.052483 0.000000 0.000000 0.000000
# 4 0.000000 0.000000 0.000000 0.054457 0.000000 0.000000
# 5 0.000000 0.000000 0.000000 0.000000 0.030767 0.000000
# 6 0.000000 0.000000 0.000000 0.000000 0.000000 0.026308
#
#
# Mechanical properties :
#
#
# Convention : Reuss Voigt Hill
#
# Bulk Modulus (GPa) = 14.06442 47.55794 30.81118
# Shear Modulus (GPa) = 25.22445 39.22085 32.22265
#
# Velocity S-wave (km/s) = 3.06749 3.82500 3.46699
# Velocity P-wave (km/s) = 4.21811 6.10312 5.24597
#
# Compressibility (1/GPa) = 0.07110141
#
# Stress axis : x y z
#
# Youngs Moduli (GPa) = 114.58363 171.41643 19.05367
#
# Poissons Ratio (x) = 0.40316 -0.14085
# Poissons Ratio (y) = 0.26949 0.05739
# Poissons Ratio (z) = -0.84704 0.51629
#
# Static dielectric constant tensor:
#      x y z
#    x 4.550740 0.000000 0.000000 
#    y 0.000000 5.647810 0.000000 
#    z 0.000000 0.000000 5.434940 
# 
# 
# High freq. dielectric constant tensor:
#      x y z
#    x 2.071150 0.000000 0.000000 
#    y 0.000000 2.102800 0.000000 
#    z 0.000000 0.000000 2.079650 
# 
# From -- ./inp_files/24293.got.cif
#   From: 2010.03.12/outbox.cif.g09.slc.cpg/sg24_13_cif.got.tgz:24293.got - 2010.04.14 03:06:53.
