data_PCOD8165403
_publ_section_title
;
Structure prediction by ZEFSAII (Michael W. Deem and Ramdas Pophale) SiO2 
 PCOD8165403
Probable space group: I 21 21 21
;
_chemical_formula_sum "Si O2"
_cell_formula_units_Z 56
_cell_length_a 21.197794
_cell_length_b 25.952226
_cell_length_c 5.106128
_cell_angle_alpha 90.000000
_cell_angle_beta 90.000000
_cell_angle_gamma 90.000000
_cell_volume 2809.033893
_symmetry_space_group_name_H-M "I 21 21 21"
_symmetry_group_IT_number 24
_symmetry_cell_setting 'orthorhombic'
loop_
_space_group_symop_operation_xyz
x,y,z
-x,1/2-y,z
x,-y,1/2-z
1/2-x,y,-z
1/2+x,1/2+y,1/2+z
1/2-x,-y,1/2+z
1/2+x,1/2-y,-z
-x,1/2+y,1/2-z
loop_
_atom_site_type_symbol
_atom_site_label
_atom_site_fract_x
_atom_site_fract_y
_atom_site_fract_z
Si Si1 0.469537 0.966101 0.994783
Si Si2 0.250000 0.033549 0.500000
Si Si3 0.824333 0.212486 0.015765
Si Si4 0.325166 0.172043 0.987935
Si Si5 0.387093 0.549318 0.059166
Si Si6 0.790632 0.000000 0.250000
Si Si7 0.324782 0.651708 0.022313
Si Si8 0.860602 0.389037 0.519169
O O1 0.541958 0.949408 0.955320
O O2 0.429738 0.914159 0.020863
O O3 0.460539 0.000000 0.250000
O O4 0.446574 0.000000 0.750000
O O5 0.190574 0.067463 0.584898
O O6 0.230146 0.000000 0.250000
O O7 0.849017 0.270193 0.073275
O O8 0.848397 0.172782 0.240110
O O9 0.750000 0.213606 0.000000
O O10 0.844039 0.196293 0.724986
O O11 0.349718 0.134492 0.764503
O O12 0.250000 0.168394 0.000000
O O13 0.355825 0.154952 0.262125
O O14 0.375515 0.500000 0.250000
O O15 0.338126 0.546508 0.815256
O O16 0.365124 0.605119 0.157248
O O17 0.750000 0.982875 0.500000
O O18 0.250000 0.638228 0.000000
#
# Coordination Sequence:
#
# PCOD8165403 Si02
#       8
#     8   4   8   8   8   4   8   8
#     4  11  24  43  60  82 122 170 209 236 292 363
#     4  12  22  34  52  86 124 146 186 248 312 342
#     4   9  20  36  58  85 119 154 184 250 308 368
#     4  11  20  38  61  90 119 148 206 251 310 362
#     4  11  25  41  63  88 125 166 207 244 290 367
#     4  12  24  38  60  92 120 152 196 252 296 328
#     4  10  21  36  57  88 118 150 192 239 314 354
#     4  12  22  37  61  88 118 160 202 253 296 362
#
# _framework density 19.935677999999999
#
# number of rings (size 3 to 8) (size 9 to 14) (size 15 to 20)
#    0.000    1.143    2.857    3.857    2.000    2.857 
#    0.000    0.000    0.000    5.143    0.000    0.000 
#    0.000    0.000    0.000    0.000    0.000    0.000 
#
# Total GULP energy -347051.803003 kJ/mol
# GULP energy per Si atom -12394.707250 kJ/mol
# Density = 1.989030 g / cm^3
# Si number density = 19.935678 Si / 1000 Ang^3
#
#
#
# Elastic Constant Matrix: (Units=GPa)
#
#
# Indices 1 2 3 4 5 6 
#
# 1 98.2749 42.9986 29.3769 0.0000 0.0000 0.0000
# 2 42.9986 114.2856 33.1790 0.0000 0.0000 0.0000
# 3 29.3769 33.1790 114.9659 0.0000 0.0000 0.0000
# 4 0.0000 0.0000 0.0000 33.7430 0.0000 0.0000
# 5 0.0000 0.0000 0.0000 0.0000 14.5743 0.0000
# 6 0.0000 0.0000 0.0000 0.0000 0.0000 13.4170
#
#
#
# Elastic Compliance Matrix: (Units=1/GPa)
#
#
# Indices 1 2 3 4 5 6 
#
# 1 0.012596 -0.004153 -0.002020 0.000000 0.000000 0.000000
# 2 -0.004153 0.010919 -0.002090 0.000000 0.000000 0.000000
# 3 -0.002020 -0.002090 0.009818 0.000000 0.000000 0.000000
# 4 0.000000 0.000000 0.000000 0.029636 0.000000 0.000000
# 5 0.000000 0.000000 0.000000 0.000000 0.068614 0.000000
# 6 0.000000 0.000000 0.000000 0.000000 0.000000 0.074532
#
#
# Mechanical properties :
#
#
# Convention : Reuss Voigt Hill
#
# Bulk Modulus (GPa) = 59.49881 59.84838 59.67360
# Shear Modulus (GPa) = 21.90638 27.14498 24.52568
#
# Velocity S-wave (km/s) = 3.31849 3.69403 3.51128
# Velocity P-wave (km/s) = 6.67783 6.94841 6.81446
#
# Compressibility (1/GPa) = 0.01680706
#
# Stress axis : x y z
#
# Youngs Moduli (GPa) = 79.38771 91.58163 101.85717
#
# Poissons Ratio (x) = 0.38031 0.20578
# Poissons Ratio (y) = 0.32968 0.21290
# Poissons Ratio (z) = 0.16038 0.19142
#
# Static dielectric constant tensor:
#      x y z
#    x 3.537480 0.000000 0.000000 
#    y 0.000000 3.834130 0.000000 
#    z 0.000000 0.000000 4.120610 
# 
# 
# High freq. dielectric constant tensor:
#      x y z
#    x 1.746500 0.000000 0.000000 
#    y 0.000000 1.782260 0.000000 
#    z 0.000000 0.000000 1.793150 
# 
# From -- ./inp_files/5811.got.cif
#   From: 2010.03.12/outbox.cif.g09.slc.cpg/sg24_3_cif.got.tgz:5811.got - 2010.04.14 03:06:53.
