data_PCOD8165235
_publ_section_title
;
Structure prediction by ZEFSAII (Michael W. Deem and Ramdas Pophale) SiO2 
 PCOD8165235
Probable space group: I 21 21 21
;
_chemical_formula_sum "Si O2"
_cell_formula_units_Z 40
_cell_length_a 22.502921
_cell_length_b 14.070917
_cell_length_c 6.157107
_cell_angle_alpha 90.000000
_cell_angle_beta 90.000000
_cell_angle_gamma 90.000000
_cell_volume 1949.566249
_symmetry_space_group_name_H-M "I 21 21 21"
_symmetry_group_IT_number 24
_symmetry_cell_setting 'orthorhombic'
loop_
_space_group_symop_operation_xyz
x,y,z
-x,1/2-y,z
x,-y,1/2-z
1/2-x,y,-z
1/2+x,1/2+y,1/2+z
1/2-x,-y,1/2+z
1/2+x,1/2-y,-z
-x,1/2+y,1/2-z
loop_
_atom_site_type_symbol
_atom_site_label
_atom_site_fract_x
_atom_site_fract_y
_atom_site_fract_z
Si Si1 0.307446 0.408263 0.363634
Si Si2 0.250000 0.288029 0.000000
Si Si3 0.356542 0.266724 0.714229
Si Si4 0.467496 0.660152 0.547073
Si Si5 0.934552 0.406654 0.372205
Si Si6 0.996468 0.500000 0.750000
O O1 0.339049 0.500000 0.250000
O O2 0.250000 0.443537 0.500000
O O3 0.347992 0.345716 0.525492
O O4 0.291221 0.346715 0.157653
O O5 0.296285 0.233025 0.840306
O O6 0.401098 0.313472 0.886577
O O7 0.382930 0.171345 0.610129
O O8 0.500000 0.750000 0.430209
O O9 0.507027 0.634473 0.756051
O O10 0.462003 0.568982 0.391616
O O11 0.909855 0.500000 0.250000
O O12 0.952757 0.433317 0.613977
#
# Coordination Sequence:
#
# PCOD8165235 Si02
#       6
#     8   4   8   8   8   4
#     4  10  20  38  58  81 118 161 207 244 296 365
#     4  10  22  40  60  84 118 164 208 246 306 356
#     4  10  22  39  63  89 126 164 206 259 312 373
#     4   9  20  39  59  90 125 157 202 257 307 374
#     4   9  20  40  62  90 121 157 208 261 317 374
#     4  10  20  38  66  90 120 162 208 250 320 372
#
# _framework density 20.517382000000001
#
# number of rings (size 3 to 8) (size 9 to 14) (size 15 to 20)
#    0.000    2.400    1.000    0.000    0.000    8.800 
#   14.400    0.000    6.600    0.000    0.000    0.000 
#    0.000    0.000    0.000    0.000    0.000    0.000 
#
# Total GULP energy -247839.328724 kJ/mol
# GULP energy per Si atom -12391.966436 kJ/mol
# Density = 2.047068 g / cm^3
# Si number density = 20.517382 Si / 1000 Ang^3
#
#
#
# Elastic Constant Matrix: (Units=GPa)
#
#
# Indices 1 2 3 4 5 6 
#
# 1 92.4347 56.0055 29.8573 0.0000 0.0000 0.0000
# 2 56.0055 122.8411 35.6878 0.0000 0.0000 0.0000
# 3 29.8573 35.6878 78.6897 0.0000 0.0000 0.0000
# 4 0.0000 0.0000 0.0000 32.3576 0.0000 0.0000
# 5 0.0000 0.0000 0.0000 0.0000 7.7454 0.0000
# 6 0.0000 0.0000 0.0000 0.0000 0.0000 36.0764
#
#
#
# Elastic Compliance Matrix: (Units=1/GPa)
#
#
# Indices 1 2 3 4 5 6 
#
# 1 0.015577 -0.006202 -0.003098 0.000000 0.000000 0.000000
# 2 -0.006202 0.011845 -0.003019 0.000000 0.000000 0.000000
# 3 -0.003098 -0.003019 0.015253 0.000000 0.000000 0.000000
# 4 0.000000 0.000000 0.000000 0.030905 0.000000 0.000000
# 5 0.000000 0.000000 0.000000 0.000000 0.129109 0.000000
# 6 0.000000 0.000000 0.000000 0.000000 0.000000 0.027719
#
#
# Mechanical properties :
#
#
# Convention : Reuss Voigt Hill
#
# Bulk Modulus (GPa) = 55.43905 59.67405 57.55655
# Shear Modulus (GPa) = 19.15293 26.73019 22.94156
#
# Velocity S-wave (km/s) = 3.05863 3.61336 3.34751
# Velocity P-wave (km/s) = 6.28911 6.82321 6.56160
#
# Compressibility (1/GPa) = 0.01803783
#
# Stress axis : x y z
#
# Youngs Moduli (GPa) = 64.19894 84.42273 65.56243
#
# Poissons Ratio (x) = 0.52357 0.20309
# Poissons Ratio (y) = 0.39814 0.19793
# Poissons Ratio (z) = 0.19886 0.25487
#
# Static dielectric constant tensor:
#      x y z
#    x 3.598810 0.000000 0.000000 
#    y 0.000000 3.884500 0.000000 
#    z 0.000000 0.000000 3.678750 
# 
# 
# High freq. dielectric constant tensor:
#      x y z
#    x 1.785580 0.000000 0.000000 
#    y 0.000000 1.796710 0.000000 
#    z 0.000000 0.000000 1.811760 
# 
# From -- ./inp_files/6325.got.cif
#   From: 2010.03.12/outbox.cif.g09.slc.cpg/sg24_4_cif.got.tgz:6325.got - 2010.04.14 03:06:53.
