data_PCOD8165312
_publ_section_title
;
Structure prediction by ZEFSAII (Michael W. Deem and Ramdas Pophale) SiO2 
 PCOD8165312
Probable space group: I 21 21 21
;
_chemical_formula_sum "Si O2"
_cell_formula_units_Z 28
_cell_length_a 9.762393
_cell_length_b 8.322277
_cell_length_c 17.433472
_cell_angle_alpha 90.000000
_cell_angle_beta 90.000000
_cell_angle_gamma 90.000000
_cell_volume 1416.388338
_symmetry_space_group_name_H-M "I 21 21 21"
_symmetry_group_IT_number 24
_symmetry_cell_setting 'orthorhombic'
loop_
_space_group_symop_operation_xyz
x,y,z
-x,1/2-y,z
x,-y,1/2-z
1/2-x,y,-z
1/2+x,1/2+y,1/2+z
1/2-x,-y,1/2+z
1/2+x,1/2-y,-z
-x,1/2+y,1/2-z
loop_
_atom_site_type_symbol
_atom_site_label
_atom_site_fract_x
_atom_site_fract_y
_atom_site_fract_z
Si Si1 0.000000 0.750000 0.339332
Si Si2 0.349733 0.267601 0.355508
Si Si3 0.173398 0.001535 0.421823
Si Si4 0.000000 0.750000 0.001064
Si Si5 0.178986 0.500000 0.250000
O O1 0.881926 0.664104 0.388273
O O2 0.920467 0.873925 0.287606
O O3 0.500000 0.250000 0.315120
O O4 0.267094 0.097366 0.358953
O O5 0.375242 0.311588 0.445885
O O6 0.271027 0.410143 0.313292
O O7 0.250000 0.956558 0.500000
O O8 0.042037 0.108578 0.442249
#
# Coordination Sequence:
#
# PCOD8165312 Si02
#       5
#     4   8   8   4   4
#     4  12  26  37  60  83 116 158 188 240 274 336
#     4   9  21  38  62  85 114 155 181 236 285 336
#     4  10  20  40  60  89 111 146 194 239 288 331
#     4   8  18  39  64  85 112 148 188 238 292 328
#     4  12  24  40  56  86 118 156 194 222 282 346
#
# _framework density 19.76859
#
# number of rings (size 3 to 8) (size 9 to 14) (size 15 to 20)
#    0.857    1.143    0.000    3.429    0.000    4.571 
#    0.000    0.000    0.000    0.000    0.000    0.000 
#    0.000    0.000    0.000    0.000    0.000    0.000 
#
# Total GULP energy -173468.696889 kJ/mol
# GULP energy per Si atom -12390.621206 kJ/mol
# Density = 1.972360 g / cm^3
# Si number density = 19.768590 Si / 1000 Ang^3
#
#
#
# Elastic Constant Matrix: (Units=GPa)
#
#
# Indices 1 2 3 4 5 6 
#
# 1 121.2525 82.9807 49.4620 0.0000 0.0000 0.0000
# 2 82.9807 144.2525 67.7515 0.0000 0.0000 0.0000
# 3 49.4620 67.7515 78.9795 0.0000 0.0000 0.0000
# 4 0.0000 0.0000 0.0000 53.3217 0.0000 0.0000
# 5 0.0000 0.0000 0.0000 0.0000 32.2138 0.0000
# 6 0.0000 0.0000 0.0000 0.0000 0.0000 48.4568
#
#
#
# Elastic Compliance Matrix: (Units=1/GPa)
#
#
# Indices 1 2 3 4 5 6 
#
# 1 0.014048 -0.006614 -0.003124 0.000000 0.000000 0.000000
# 2 -0.006614 0.014724 -0.008489 0.000000 0.000000 0.000000
# 3 -0.003124 -0.008489 0.021900 0.000000 0.000000 0.000000
# 4 0.000000 0.000000 0.000000 0.018754 0.000000 0.000000
# 5 0.000000 0.000000 0.000000 0.000000 0.031043 0.000000
# 6 0.000000 0.000000 0.000000 0.000000 0.000000 0.020637
#
#
# Mechanical properties :
#
#
# Convention : Reuss Voigt Hill
#
# Bulk Modulus (GPa) = 70.33099 82.76365 76.54732
# Shear Modulus (GPa) = 30.80767 36.41782 33.61274
#
# Velocity S-wave (km/s) = 3.95196 4.29675 4.12796
# Velocity P-wave (km/s) = 7.51521 8.15924 7.84384
#
# Compressibility (1/GPa) = 0.01421848
#
# Stress axis : x y z
#
# Youngs Moduli (GPa) = 71.18557 67.91834 45.66220
#
# Poissons Ratio (x) = 0.44918 0.14266
# Poissons Ratio (y) = 0.47079 0.38761
# Poissons Ratio (z) = 0.22240 0.57653
#
# Static dielectric constant tensor:
#      x y z
#    x 3.812580 0.000000 0.000000 
#    y 0.000000 3.367000 0.000000 
#    z 0.000000 0.000000 3.511190 
# 
# 
# High freq. dielectric constant tensor:
#      x y z
#    x 1.787910 0.000000 0.000000 
#    y 0.000000 1.754460 0.000000 
#    z 0.000000 0.000000 1.765060 
# 
# From -- ./inp_files/8892.got.cif
#   From: 2010.03.12/outbox.cif.g09.slc.cpg/sg24_5_cif.got.tgz:8892.got - 2010.04.14 03:06:53.
