data_PCOD8165704
_publ_section_title
;
Structure prediction by ZEFSAII (Michael W. Deem and Ramdas Pophale) SiO2 
 PCOD8165704
Probable space group: I 21 21 21
;
_chemical_formula_sum "Si O2"
_cell_formula_units_Z 60
_cell_length_a 9.229441
_cell_length_b 16.525450
_cell_length_c 20.634190
_cell_angle_alpha 90.000000
_cell_angle_beta 90.000000
_cell_angle_gamma 90.000000
_cell_volume 3147.140396
_symmetry_space_group_name_H-M "I 21 21 21"
_symmetry_group_IT_number 24
_symmetry_cell_setting 'orthorhombic'
loop_
_space_group_symop_operation_xyz
x,y,z
-x,1/2-y,z
x,-y,1/2-z
1/2-x,y,-z
1/2+x,1/2+y,1/2+z
1/2-x,-y,1/2+z
1/2+x,1/2-y,-z
-x,1/2+y,1/2-z
loop_
_atom_site_type_symbol
_atom_site_label
_atom_site_fract_x
_atom_site_fract_y
_atom_site_fract_z
Si Si1 0.658750 0.481486 0.820936
Si Si2 0.218348 0.752647 0.178079
Si Si3 0.150952 0.207000 0.178425
Si Si4 0.017780 0.622325 0.132703
Si Si5 0.146529 0.982453 0.558114
Si Si6 0.416800 0.399500 0.487166
Si Si7 0.500000 0.750000 0.100506
Si Si8 0.151256 0.793629 0.559028
O O1 0.723500 0.500000 0.750000
O O2 0.615018 0.388045 0.824366
O O3 0.514214 0.535661 0.833436
O O4 0.780927 0.505082 0.873268
O O5 0.222432 0.762302 0.255231
O O6 0.107195 0.816009 0.149998
O O7 0.371754 0.777217 0.147993
O O8 0.169610 0.660725 0.158496
O O9 0.267310 0.230498 0.124561
O O10 0.000000 0.250000 0.164357
O O11 0.009530 0.612923 0.056135
O O12 0.250000 0.011861 0.500000
O O13 0.117024 0.887958 0.553483
O O14 0.992489 0.027006 0.551228
O O15 0.250000 0.420863 0.500000
O O16 0.437745 0.319630 0.445047
O O17 0.250000 0.763807 0.500000
O O18 0.000000 0.750000 0.556025
#
# Coordination Sequence:
#
# PCOD8165704 Si02
#       8
#     8   8   8   8   8   8   4   8
#     4  11  20  37  66  92 119 166 216 253 314 375
#     4  11  22  39  61  91 130 162 212 254 310 369
#     4  11  22  40  65  93 123 166 210 261 319 378
#     4  11  21  40  64  88 123 166 211 257 299 383
#     4  10  22  40  64  90 119 159 208 258 310 375
#     4  12  25  40  61  93 133 166 210 255 316 367
#     4  12  26  36  60  96 128 176 206 254 310 380
#     4  10  23  43  64  91 120 159 211 265 323 382
#
# _framework density 19.064927000000001
#
# number of rings (size 3 to 8) (size 9 to 14) (size 15 to 20)
#    0.000    1.067    5.333    2.000    0.933    0.533 
#    2.400    0.000    0.000    0.000    3.467    0.000 
#    0.000    0.000    0.000    0.000    0.000    0.000 
#
# Total GULP energy -372038.377877 kJ/mol
# GULP energy per Si atom -12401.279263 kJ/mol
# Density = 1.902153 g / cm^3
# Si number density = 19.064927 Si / 1000 Ang^3
#
#
#
# Elastic Constant Matrix: (Units=GPa)
#
#
# Indices 1 2 3 4 5 6 
#
# 1 114.0950 42.4429 63.5311 0.0000 0.0000 0.0000
# 2 42.4429 76.6294 52.4496 0.0000 0.0000 0.0000
# 3 63.5311 52.4496 152.1078 0.0000 0.0000 0.0000
# 4 0.0000 0.0000 0.0000 24.4048 0.0000 0.0000
# 5 0.0000 0.0000 0.0000 0.0000 14.1369 0.0000
# 6 0.0000 0.0000 0.0000 0.0000 0.0000 46.4724
#
#
#
# Elastic Compliance Matrix: (Units=1/GPa)
#
#
# Indices 1 2 3 4 5 6 
#
# 1 0.012445 -0.004365 -0.003693 0.000000 0.000000 0.000000
# 2 -0.004365 0.018613 -0.004595 0.000000 0.000000 0.000000
# 3 -0.003693 -0.004595 0.009701 0.000000 0.000000 0.000000
# 4 0.000000 0.000000 0.000000 0.040975 0.000000 0.000000
# 5 0.000000 0.000000 0.000000 0.000000 0.070737 0.000000
# 6 0.000000 0.000000 0.000000 0.000000 0.000000 0.021518
#
#
# Mechanical properties :
#
#
# Convention : Reuss Voigt Hill
#
# Bulk Modulus (GPa) = 64.71256 73.29772 69.00514
# Shear Modulus (GPa) = 24.45649 29.29672 26.87661
#
# Velocity S-wave (km/s) = 3.58551 3.92431 3.75872
# Velocity P-wave (km/s) = 7.15249 7.68527 7.42366
#
# Compressibility (1/GPa) = 0.01545295
#
# Stress axis : x y z
#
# Youngs Moduli (GPa) = 80.35613 53.72729 103.08358
#
# Poissons Ratio (x) = 0.23454 0.38064
# Poissons Ratio (y) = 0.35078 0.47363
# Poissons Ratio (z) = 0.29672 0.24686
#
# Static dielectric constant tensor:
#      x y z
#    x 3.478750 0.000000 0.000000 
#    y 0.000000 3.825110 0.000000 
#    z 0.000000 0.000000 3.682410 
# 
# 
# High freq. dielectric constant tensor:
#      x y z
#    x 1.729130 0.000000 0.000000 
#    y 0.000000 1.742660 0.000000 
#    z 0.000000 0.000000 1.761040 
# 
# From -- ./inp_files/29701.got.cif
#   From: 2010.03.12/outbox.cif.g09.slc.cpg/sg24_15_cif.got.tgz:29701.got - 2010.04.14 03:06:53.
