data_PCOD8165455
_publ_section_title
;
Structure prediction by ZEFSAII (Michael W. Deem and Ramdas Pophale) SiO2 
 PCOD8165455
Probable space group: I 21 21 21
;
_chemical_formula_sum "Si O2"
_cell_formula_units_Z 32
_cell_length_a 34.424589
_cell_length_b 4.949299
_cell_length_c 8.727684
_cell_angle_alpha 90.000000
_cell_angle_beta 90.000000
_cell_angle_gamma 90.000000
_cell_volume 1487.001713
_symmetry_space_group_name_H-M "I 21 21 21"
_symmetry_group_IT_number 24
_symmetry_cell_setting 'orthorhombic'
loop_
_space_group_symop_operation_xyz
x,y,z
-x,1/2-y,z
x,-y,1/2-z
1/2-x,y,-z
1/2+x,1/2+y,1/2+z
1/2-x,-y,1/2+z
1/2+x,1/2-y,-z
-x,1/2+y,1/2-z
loop_
_atom_site_type_symbol
_atom_site_label
_atom_site_fract_x
_atom_site_fract_y
_atom_site_fract_z
Si Si1 0.608327 0.017090 0.427986
Si Si2 0.141952 0.987838 0.419525
Si Si3 0.724993 0.733453 0.852475
Si Si4 0.026536 0.502143 0.426600
O O1 0.638188 0.816363 0.515756
O O2 0.616359 0.000000 0.250000
O O3 0.616535 0.323994 0.472862
O O4 0.563834 0.960401 0.466957
O O5 0.185978 0.092389 0.414115
O O6 0.123550 0.000000 0.250000
O O7 0.746225 0.500000 0.750000
O O8 0.716714 0.000000 0.750000
O O9 0.750000 0.817815 0.000000
O O10 0.040207 0.500000 0.250000
O O11 0.000000 0.250000 0.470358
O O12 0.000000 0.750000 0.465989
#
# Coordination Sequence:
#
# PCOD8165455 Si02
#       4
#     8   8   8   8
#     4  12  25  40  63  96 129 164 209 269 326 369
#     4  11  23  43  65  89 126 172 215 254 311 391
#     4  11  24  43  67  97 129 168 214 266 325 383
#     4  10  21  38  61  88 120 164 212 255 310 383
#
# _framework density 21.519815000000001
#
# number of rings (size 3 to 8) (size 9 to 14) (size 15 to 20)
#    0.000    1.000    0.000    8.250    0.000    6.000 
#    0.000    0.000    0.000    0.000    0.000    0.000 
#    0.000    0.000    0.000    0.000    0.000    0.000 
#
# Total GULP energy -198422.792907 kJ/mol
# GULP energy per Si atom -12401.424557 kJ/mol
# Density = 2.147084 g / cm^3
# Si number density = 21.519815 Si / 1000 Ang^3
#
#
#
# Elastic Constant Matrix: (Units=GPa)
#
#
# Indices 1 2 3 4 5 6 
#
# 1 84.9329 22.4292 34.0122 0.0000 0.0000 0.0000
# 2 22.4292 111.6453 23.4090 0.0000 0.0000 0.0000
# 3 34.0122 23.4090 131.5802 0.0000 0.0000 0.0000
# 4 0.0000 0.0000 0.0000 39.1916 0.0000 0.0000
# 5 0.0000 0.0000 0.0000 0.0000 22.9903 0.0000
# 6 0.0000 0.0000 0.0000 0.0000 0.0000 71.6353
#
#
#
# Elastic Compliance Matrix: (Units=1/GPa)
#
#
# Indices 1 2 3 4 5 6 
#
# 1 0.013579 -0.002069 -0.003142 0.000000 0.000000 0.000000
# 2 -0.002069 0.009619 -0.001176 0.000000 0.000000 0.000000
# 3 -0.003142 -0.001176 0.008621 0.000000 0.000000 0.000000
# 4 0.000000 0.000000 0.000000 0.025516 0.000000 0.000000
# 5 0.000000 0.000000 0.000000 0.000000 0.043497 0.000000
# 6 0.000000 0.000000 0.000000 0.000000 0.000000 0.013960
#
#
# Mechanical properties :
#
#
# Convention : Reuss Voigt Hill
#
# Bulk Modulus (GPa) = 52.50898 54.20657 53.35778
# Shear Modulus (GPa) = 37.33735 43.31729 40.32732
#
# Velocity S-wave (km/s) = 4.16988 4.49141 4.33362
# Velocity P-wave (km/s) = 6.90196 7.22086 7.06321
#
# Compressibility (1/GPa) = 0.01904436
#
# Stress axis : x y z
#
# Youngs Moduli (GPa) = 73.64535 103.95768 115.99095
#
# Poissons Ratio (x) = 0.21510 0.36442
# Poissons Ratio (y) = 0.15238 0.13646
# Poissons Ratio (z) = 0.23138 0.12230
#
# Static dielectric constant tensor:
#      x y z
#    x 3.655230 0.000000 0.000000 
#    y 0.000000 4.162750 0.000000 
#    z 0.000000 0.000000 3.888870 
# 
# 
# High freq. dielectric constant tensor:
#      x y z
#    x 1.838440 0.000000 0.000000 
#    y 0.000000 1.867840 0.000000 
#    z 0.000000 0.000000 1.844880 
# 
# From -- ./inp_files/1159.got.cif
#   From: 2010.03.12/outbox.cif.g09.slc.cpg/sg24_1_cif.got.tgz:1159.got - 2010.04.14 03:06:53.
