data_PCOD8165696
_publ_section_title
;
Structure prediction by ZEFSAII (Michael W. Deem and Ramdas Pophale) SiO2 
 PCOD8165696
Probable space group: I 21 21 21
;
_chemical_formula_sum "Si O2"
_cell_formula_units_Z 64
_cell_length_a 10.447709
_cell_length_b 18.385349
_cell_length_c 16.886891
_cell_angle_alpha 90.000000
_cell_angle_beta 90.000000
_cell_angle_gamma 90.000000
_cell_volume 3243.714679
_symmetry_space_group_name_H-M "I 21 21 21"
_symmetry_group_IT_number 24
_symmetry_cell_setting 'orthorhombic'
loop_
_space_group_symop_operation_xyz
x,y,z
-x,1/2-y,z
x,-y,1/2-z
1/2-x,y,-z
1/2+x,1/2+y,1/2+z
1/2-x,-y,1/2+z
1/2+x,1/2-y,-z
-x,1/2+y,1/2-z
loop_
_atom_site_type_symbol
_atom_site_label
_atom_site_fract_x
_atom_site_fract_y
_atom_site_fract_z
Si Si1 0.291199 0.956176 0.170186
Si Si2 0.955156 0.523706 0.072999
Si Si3 0.141219 0.361015 0.845576
Si Si4 0.918398 0.424900 0.936433
Si Si5 0.859087 0.267982 0.943589
Si Si6 0.136377 0.403850 0.552079
Si Si7 0.796622 0.987959 0.340804
Si Si8 0.999484 0.335877 0.690607
O O1 0.362614 0.878513 0.184800
O O2 0.164366 0.938917 0.117820
O O3 0.253938 0.000000 0.250000
O O4 0.383178 0.009065 0.121138
O O5 0.057737 0.506636 0.140740
O O6 0.019406 0.572787 0.004798
O O7 0.907738 0.450609 0.028169
O O8 0.155464 0.274850 0.860369
O O9 0.277467 0.401158 0.850971
O O10 0.060339 0.398365 0.916027
O O11 0.072824 0.375000 0.762109
O O12 0.830914 0.352899 0.926128
O O13 0.000000 0.250000 0.979718
O O14 0.750000 0.236206 0.000000
O O15 0.250000 0.368141 0.500000
O O16 0.196405 0.470420 0.602101
O O17 0.080609 0.343637 0.610382
O O18 0.763314 0.000000 0.250000
O O19 0.000000 0.250000 0.707208
#
# Coordination Sequence:
#
# PCOD8165696 Si02
#       8
#     8   8   8   8   8   8   8   8
#     4  12  24  40  65  90 126 162 207 259 315 371
#     4  11  23  37  64  98 124 156 207 260 321 368
#     4  11  22  37  62  92 121 164 211 256 301 378
#     4  11  21  39  61  91 125 162 205 257 308 372
#     4  10  23  37  58  88 132 167 206 254 316 381
#     4  10  22  40  62  90 120 154 208 266 309 367
#     4  11  21  38  65  91 125 160 209 262 311 366
#     4  12  24  43  65  90 119 167 213 256 313 371
#
# _framework density 19.730466
#
# number of rings (size 3 to 8) (size 9 to 14) (size 15 to 20)
#    0.000    1.000    5.000    2.625    3.500    0.000 
#    2.250    0.000    0.000    0.000    0.000    0.000 
#    0.000    0.000    0.000    0.000    0.000    0.000 
#
# Total GULP energy -396514.332381 kJ/mol
# GULP energy per Si atom -12391.072887 kJ/mol
# Density = 1.968556 g / cm^3
# Si number density = 19.730466 Si / 1000 Ang^3
#
#
#
# Elastic Constant Matrix: (Units=GPa)
#
#
# Indices 1 2 3 4 5 6 
#
# 1 75.4522 35.5975 31.8602 0.0000 0.0000 0.0000
# 2 35.5975 82.5424 17.8456 0.0000 0.0000 0.0000
# 3 31.8602 17.8456 95.0981 -0.0001 0.0000 0.0000
# 4 0.0000 0.0000 -0.0001 26.5959 0.0000 0.0000
# 5 0.0000 0.0000 0.0000 0.0000 33.2157 0.0000
# 6 0.0000 0.0000 0.0000 0.0000 0.0000 18.5288
#
#
#
# Elastic Compliance Matrix: (Units=1/GPa)
#
#
# Indices 1 2 3 4 5 6 
#
# 1 0.018622 -0.006965 -0.004932 0.000000 0.000000 0.000000
# 2 -0.006965 0.015232 -0.000525 0.000000 0.000000 0.000000
# 3 -0.004932 -0.000525 0.012266 0.000000 0.000000 0.000000
# 4 0.000000 0.000000 0.000000 0.037600 0.000000 0.000000
# 5 0.000000 0.000000 0.000000 0.000000 0.030106 0.000000
# 6 0.000000 0.000000 0.000000 0.000000 0.000000 0.053970
#
#
# Mechanical properties :
#
#
# Convention : Reuss Voigt Hill
#
# Bulk Modulus (GPa) = 46.99880 47.07771 47.03826
# Shear Modulus (GPa) = 25.03361 26.85404 25.94383
#
# Velocity S-wave (km/s) = 3.56586 3.69324 3.63011
# Velocity P-wave (km/s) = 6.38952 6.48836 6.43913
#
# Compressibility (1/GPa) = 0.02127714
#
# Stress axis : x y z
#
# Youngs Moduli (GPa) = 53.70065 65.65087 81.52447
#
# Poissons Ratio (x) = 0.45723 0.40206
# Poissons Ratio (y) = 0.37401 0.04280
# Poissons Ratio (z) = 0.26484 0.03447
#
# Static dielectric constant tensor:
#      x y z
#    x 3.596750 0.000000 0.000000 
#    y 0.000000 3.523760 0.000000 
#    z 0.000000 0.000000 3.812600 
# 
# 
# High freq. dielectric constant tensor:
#      x y z
#    x 1.763950 0.000000 0.000000 
#    y 0.000000 1.750570 0.000000 
#    z 0.000000 0.000000 1.778500 
# 
# From -- ./inp_files/26034.got.cif
#   From: 2010.03.12/outbox.cif.g09.slc.cpg/sg24_14_cif.got.tgz:26034.got - 2010.04.14 03:06:53.
