data_PCOD8165111
_publ_section_title
;
Structure prediction by ZEFSAII (Michael W. Deem and Ramdas Pophale) SiO2 
 PCOD8165111
Probable space group: I 21 21 21
;
_chemical_formula_sum "Si O2"
_cell_formula_units_Z 56
_cell_length_a 8.690786
_cell_length_b 20.925735
_cell_length_c 18.071523
_cell_angle_alpha 90.000000
_cell_angle_beta 90.000000
_cell_angle_gamma 90.000000
_cell_volume 3286.506776
_symmetry_space_group_name_H-M "I 21 21 21"
_symmetry_group_IT_number 24
_symmetry_cell_setting 'orthorhombic'
loop_
_space_group_symop_operation_xyz
x,y,z
-x,1/2-y,z
x,-y,1/2-z
1/2-x,y,-z
1/2+x,1/2+y,1/2+z
1/2-x,-y,1/2+z
1/2+x,1/2-y,-z
-x,1/2+y,1/2-z
loop_
_atom_site_type_symbol
_atom_site_label
_atom_site_fract_x
_atom_site_fract_y
_atom_site_fract_z
Si Si1 0.317466 0.003101 0.422681
Si Si2 0.335343 0.563381 0.797510
Si Si3 0.322696 0.506077 0.422309
Si Si4 0.822426 0.377175 0.145310
Si Si5 0.326250 0.934282 0.793775
Si Si6 0.181702 0.750439 0.579899
Si Si7 0.313382 0.629121 0.653731
O O1 0.250000 0.028062 0.500000
O O2 0.495739 0.987626 0.429335
O O3 0.224722 0.939968 0.399804
O O4 0.292405 0.059449 0.361886
O O5 0.353352 0.500000 0.750000
O O6 0.219701 0.551055 0.865259
O O7 0.505116 0.582206 0.827209
O O8 0.274323 0.617319 0.740626
O O9 0.250000 0.486442 0.500000
O O10 0.258601 0.574341 0.397390
O O11 0.774528 0.381821 0.232475
O O12 0.736375 0.318341 0.109177
O O13 0.005083 0.369288 0.138495
O O14 0.334404 0.000000 0.750000
O O15 0.250000 0.735398 0.500000
O O16 0.238687 0.696709 0.636116
O O17 0.000000 0.750000 0.574163
#
# Coordination Sequence:
#
# PCOD8165111 Si02
#       7
#     8   8   8   8   8   8   8
#     4  11  20  30  47  71  99 127 158 196 238 282
#     4   8  16  31  49  68  92 122 155 193 237 284
#     4  11  20  30  47  71  99 127 158 196 238 282
#     4  10  20  35  51  68  95 128 161 196 237 282
#     4   8  16  31  49  68  92 122 155 193 237 284
#     4  12  24  36  50  70  97 128 165 200 232 274
#     4  10  20  35  51  68  95 128 161 196 237 282
#
# _framework density 17.039369000000001
#
# number of rings (size 3 to 8) (size 9 to 14) (size 15 to 20)
#    0.000    2.000    0.000    7.286    0.000    6.286 
#    0.000    0.000    0.000    0.000    0.000    1.000 
#    0.000    0.000    0.000    0.000    0.000    0.000 
#
# Total GULP energy -347118.362575 kJ/mol
# GULP energy per Si atom -12397.084378 kJ/mol
# Density = 1.700059 g / cm^3
# Si number density = 17.039369 Si / 1000 Ang^3
#
#
#
# Elastic Constant Matrix: (Units=GPa)
#
#
# Indices 1 2 3 4 5 6 
#
# 1 108.7798 11.0447 39.9958 0.0000 0.0000 0.0000
# 2 11.0447 33.0504 22.6240 0.0000 0.0000 0.0000
# 3 39.9958 22.6240 100.7875 0.0000 0.0000 0.0000
# 4 0.0000 0.0000 0.0000 27.1746 0.0000 0.0000
# 5 0.0000 0.0000 0.0000 0.0000 28.6632 0.0000
# 6 0.0000 0.0000 0.0000 0.0000 0.0000 24.4143
#
#
#
# Elastic Compliance Matrix: (Units=1/GPa)
#
#
# Indices 1 2 3 4 5 6 
#
# 1 0.010781 -0.000797 -0.004099 0.000000 0.000000 0.000000
# 2 -0.000797 0.035809 -0.007722 0.000000 0.000000 0.000000
# 3 -0.004099 -0.007722 0.013282 0.000000 0.000000 0.000000
# 4 0.000000 0.000000 0.000000 0.036799 0.000000 0.000000
# 5 0.000000 0.000000 0.000000 0.000000 0.034888 0.000000
# 6 0.000000 0.000000 0.000000 0.000000 0.000000 0.040960
#
#
# Mechanical properties :
#
#
# Convention : Reuss Voigt Hill
#
# Bulk Modulus (GPa) = 28.87176 43.32741 36.09958
# Shear Modulus (GPa) = 23.88915 27.31397 25.60156
#
# Velocity S-wave (km/s) = 3.74839 4.00808 3.88041
# Velocity P-wave (km/s) = 5.97619 6.84855 6.42719
#
# Compressibility (1/GPa) = 0.03463592
#
# Stress axis : x y z
#
# Youngs Moduli (GPa) = 92.75540 27.92600 75.28962
#
# Poissons Ratio (x) = 0.02225 0.30865
# Poissons Ratio (y) = 0.07389 0.58139
# Poissons Ratio (z) = 0.38025 0.21564
#
# Static dielectric constant tensor:
#      x y z
#    x 3.282430 0.000000 0.000000 
#    y 0.000000 3.087990 0.000000 
#    z 0.000000 0.000000 3.493980 
# 
# 
# High freq. dielectric constant tensor:
#      x y z
#    x 1.670050 0.000000 0.000000 
#    y 0.000000 1.614800 0.000000 
#    z 0.000000 0.000000 1.661890 
# 
# From -- ./inp_files/29761.got.cif
#   From: 2010.03.12/outbox.cif.g09.slc.cpg/sg24_15_cif.got.tgz:29761.got - 2010.04.14 03:06:53.
