data_PCOD8165090
_publ_section_title
;
Structure prediction by ZEFSAII (Michael W. Deem and Ramdas Pophale) SiO2 
 PCOD8165090
Probable space group: I 21 21 21
;
_chemical_formula_sum "Si O2"
_cell_formula_units_Z 40
_cell_length_a 22.392399
_cell_length_b 14.176109
_cell_length_c 6.221083
_cell_angle_alpha 90.000000
_cell_angle_beta 90.000000
_cell_angle_gamma 90.000000
_cell_volume 1974.802478
_symmetry_space_group_name_H-M "I 21 21 21"
_symmetry_group_IT_number 24
_symmetry_cell_setting 'orthorhombic'
loop_
_space_group_symop_operation_xyz
x,y,z
-x,1/2-y,z
x,-y,1/2-z
1/2-x,y,-z
1/2+x,1/2+y,1/2+z
1/2-x,-y,1/2+z
1/2+x,1/2-y,-z
-x,1/2+y,1/2-z
loop_
_atom_site_type_symbol
_atom_site_label
_atom_site_fract_x
_atom_site_fract_y
_atom_site_fract_z
Si Si1 0.644074 0.230353 0.712730
Si Si2 0.750000 0.213729 0.000000
Si Si3 0.003976 0.000000 0.750000
Si Si4 0.556805 0.089884 0.872196
Si Si5 0.806503 0.091665 0.638780
Si Si6 0.962005 0.339945 0.451570
O O1 0.603819 0.174744 0.885623
O O2 0.654109 0.155737 0.519085
O O3 0.606166 0.315971 0.613411
O O4 0.703140 0.269533 0.840239
O O5 0.710585 0.153457 0.158310
O O6 0.959534 0.936706 0.611713
O O7 0.044506 0.074468 0.620401
O O8 0.496086 0.121800 0.756109
O O9 0.585637 0.000000 0.750000
O O10 0.750000 0.055031 0.500000
O O11 0.838502 0.000000 0.750000
O O12 0.000000 0.250000 0.542773
#
# Coordination Sequence:
#
# PCOD8165090 Si02
#       6
#     8   4   4   8   8   8
#     4  10  22  36  54  83 126 160 201 251 298 365
#     4  10  22  34  52  78 118 166 202 240 292 352
#     4  10  20  38  66  86 114 164 206 246 308 366
#     4   9  20  35  54  82 117 153 198 249 299 357
#     4  10  20  34  51  77 117 158 204 235 283 355
#     4   9  20  39  55  86 125 155 202 255 305 367
#
# _framework density 20.255189999999999
#
# number of rings (size 3 to 8) (size 9 to 14) (size 15 to 20)
#    0.000    2.400    1.000    0.000    2.800    8.800 
#    7.200    0.000    0.000    0.000    0.000    0.000 
#  216.000    0.000    0.000    0.000    0.000    0.000 
#
# Total GULP energy -247765.842917 kJ/mol
# GULP energy per Si atom -12388.292146 kJ/mol
# Density = 2.020909 g / cm^3
# Si number density = 20.255190 Si / 1000 Ang^3
#
#
#
# Elastic Constant Matrix: (Units=GPa)
#
#
# Indices 1 2 3 4 5 6 
#
# 1 95.8028 40.4495 44.6705 0.0000 0.0000 0.0000
# 2 40.4495 80.4995 41.7578 0.0000 0.0000 0.0000
# 3 44.6705 41.7578 108.3192 0.0000 0.0000 0.0000
# 4 0.0000 0.0000 0.0000 31.3537 0.0000 0.0000
# 5 0.0000 0.0000 0.0000 0.0000 9.8850 0.0000
# 6 0.0000 0.0000 0.0000 0.0000 0.0000 29.9055
#
#
#
# Elastic Compliance Matrix: (Units=1/GPa)
#
#
# Indices 1 2 3 4 5 6 
#
# 1 0.014492 -0.005227 -0.003961 0.000000 0.000000 0.000000
# 2 -0.005227 0.017413 -0.004557 0.000000 0.000000 0.000000
# 3 -0.003961 -0.004557 0.012622 0.000000 0.000000 0.000000
# 4 0.000000 0.000000 0.000000 0.031894 0.000000 0.000000
# 5 0.000000 0.000000 0.000000 0.000000 0.101164 0.000000
# 6 0.000000 0.000000 0.000000 0.000000 0.000000 0.033439
#
#
# Mechanical properties :
#
#
# Convention : Reuss Voigt Hill
#
# Bulk Modulus (GPa) = 58.69869 59.81966 59.25918
# Shear Modulus (GPa) = 20.47551 24.74509 22.61030
#
# Velocity S-wave (km/s) = 3.18288 3.49903 3.34469
# Velocity P-wave (km/s) = 6.52305 6.77653 6.65100
#
# Compressibility (1/GPa) = 0.01703616
#
# Stress axis : x y z
#
# Youngs Moduli (GPa) = 69.00265 57.42869 79.22378
#
# Poissons Ratio (x) = 0.30019 0.31384
# Poissons Ratio (y) = 0.36068 0.36103
# Poissons Ratio (z) = 0.27335 0.26171
#
# Static dielectric constant tensor:
#      x y z
#    x 3.691970 0.000000 0.000000 
#    y 0.000000 3.576760 0.000000 
#    z 0.000000 0.000000 5.197540 
# 
# 
# High freq. dielectric constant tensor:
#      x y z
#    x 1.775890 0.000000 0.000000 
#    y 0.000000 1.752690 0.000000 
#    z 0.000000 0.000000 1.806410 
# 
# From -- ./inp_files/5511.got.cif
#   From: 2010.03.12/outbox.cif.g09.slc.cpg/sg24_3_cif.got.tgz:5511.got - 2010.04.14 03:06:53.
