data_PCOD8165940
_publ_section_title
;
Structure prediction by ZEFSAII (Michael W. Deem and Ramdas Pophale) SiO2 
 PCOD8165940
Probable space group: I 21 21 21
;
_chemical_formula_sum "Si O2"
_cell_formula_units_Z 56
_cell_length_a 12.850517
_cell_length_b 13.710672
_cell_length_c 14.483944
_cell_angle_alpha 90.000000
_cell_angle_beta 90.000000
_cell_angle_gamma 90.000000
_cell_volume 2551.914848
_symmetry_space_group_name_H-M "I 21 21 21"
_symmetry_group_IT_number 24
_symmetry_cell_setting 'orthorhombic'
loop_
_space_group_symop_operation_xyz
x,y,z
-x,1/2-y,z
x,-y,1/2-z
1/2-x,y,-z
1/2+x,1/2+y,1/2+z
1/2-x,-y,1/2+z
1/2+x,1/2-y,-z
-x,1/2+y,1/2-z
loop_
_atom_site_type_symbol
_atom_site_label
_atom_site_fract_x
_atom_site_fract_y
_atom_site_fract_z
Si Si1 0.869095 0.848540 0.417012
Si Si2 0.766463 0.348012 0.107906
Si Si3 0.968679 0.094572 0.521108
Si Si4 0.346103 0.779072 0.060827
Si Si5 0.954647 0.469354 0.147574
Si Si6 0.656855 0.079208 0.105627
Si Si7 0.621175 0.243087 0.237814
O O1 0.832776 0.748738 0.371492
O O2 0.782904 0.935800 0.399815
O O3 0.876994 0.839844 0.528319
O O4 0.980253 0.872023 0.373963
O O5 0.832054 0.442623 0.140769
O O6 0.661034 0.329269 0.167554
O O7 0.750000 0.363688 0.000000
O O8 0.893013 0.186497 0.505418
O O9 0.072954 0.131557 0.571176
O O10 0.909490 0.018351 0.588346
O O11 0.004952 0.051326 0.423180
O O12 0.315415 0.751160 0.165786
O O13 0.250000 0.816709 0.000000
O O14 0.981940 0.500000 0.250000
O O15 0.634773 0.131914 0.202352
O O16 0.500000 0.250000 0.259582
#
# Coordination Sequence:
#
# PCOD8165940 Si02
#       7
#     8   8   8   8   8   8   8
#     4   9  18  41  67 100 135 167 218 289 357 409
#     4  11  23  42  69 103 138 177 224 299 367 407
#     4  10  24  46  67 101 139 184 235 300 351 422
#     4  11  26  48  70  95 145 197 243 284 362 430
#     4  11  26  42  64 105 137 181 237 276 363 429
#     4   9  19  37  71 102 127 163 230 293 347 400
#     4  11  23  44  70 101 132 184 238 286 354 441
#
# _framework density 21.944306000000001
#
# number of rings (size 3 to 8) (size 9 to 14) (size 15 to 20)
#    0.000    1.714    4.286    0.429   10.000    3.429 
#    2.571    0.000    0.000    0.000    0.000    0.000 
#    0.000    0.000    0.000    0.000    0.000    0.000 
#
# Total GULP energy -346983.136847 kJ/mol
# GULP energy per Si atom -12392.254887 kJ/mol
# Density = 2.189436 g / cm^3
# Si number density = 21.944306 Si / 1000 Ang^3
#
#
#
# Elastic Constant Matrix: (Units=GPa)
#
#
# Indices 1 2 3 4 5 6 
#
# 1 91.9547 13.5954 35.6099 0.0000 0.0000 0.0000
# 2 13.5954 52.8464 23.7276 0.0000 0.0000 0.0000
# 3 35.6099 23.7276 138.6459 0.0000 0.0000 0.0000
# 4 0.0000 0.0000 0.0000 19.7943 0.0000 0.0000
# 5 0.0000 0.0000 0.0000 0.0000 28.8190 0.0000
# 6 0.0000 0.0000 0.0000 0.0000 0.0000 30.2550
#
#
#
# Elastic Compliance Matrix: (Units=1/GPa)
#
#
# Indices 1 2 3 4 5 6 
#
# 1 0.012247 -0.001883 -0.002823 0.000000 0.000000 0.000000
# 2 -0.001883 0.020787 -0.003074 0.000000 0.000000 0.000000
# 3 -0.002823 -0.003074 0.008464 0.000000 0.000000 0.000000
# 4 0.000000 0.000000 0.000000 0.050520 0.000000 0.000000
# 5 0.000000 0.000000 0.000000 0.000000 0.034699 0.000000
# 6 0.000000 0.000000 0.000000 0.000000 0.000000 0.033052
#
#
# Mechanical properties :
#
#
# Convention : Reuss Voigt Hill
#
# Bulk Modulus (GPa) = 38.55403 47.70141 43.12772
# Shear Modulus (GPa) = 27.17760 29.80794 28.49277
#
# Velocity S-wave (km/s) = 3.52302 3.68957 3.60726
# Velocity P-wave (km/s) = 5.84432 6.31944 6.08652
#
# Compressibility (1/GPa) = 0.02593762
#
# Stress axis : x y z
#
# Youngs Moduli (GPa) = 81.65524 48.10621 118.15046
#
# Poissons Ratio (x) = 0.09058 0.33356
# Poissons Ratio (y) = 0.15376 0.36318
# Poissons Ratio (z) = 0.23053 0.14787
#
# Static dielectric constant tensor:
#      x y z
#    x 4.112830 0.000000 0.000000 
#    y 0.000000 3.893920 0.000000 
#    z 0.000000 0.000000 3.824930 
# 
# 
# High freq. dielectric constant tensor:
#      x y z
#    x 1.865760 0.000000 0.000000 
#    y 0.000000 1.843880 0.000000 
#    z 0.000000 0.000000 1.856710 
# 
# From -- ./inp_files/25821.got.cif
#   From: 2010.03.12/outbox.cif.g09.slc.cpg/sg24_13_cif.got.tgz:25821.got - 2010.04.14 03:06:53.
