data_PCOD8165085
_publ_section_title
;
Structure prediction by ZEFSAII (Michael W. Deem and Ramdas Pophale) SiO2 
 PCOD8165085
Probable space group: I 21 21 21
;
_chemical_formula_sum "Si O2"
_cell_formula_units_Z 32
_cell_length_a 7.250315
_cell_length_b 9.670404
_cell_length_c 15.762081
_cell_angle_alpha 90.000000
_cell_angle_beta 90.000000
_cell_angle_gamma 90.000000
_cell_volume 1105.134275
_symmetry_space_group_name_H-M "I 21 21 21"
_symmetry_group_IT_number 24
_symmetry_cell_setting 'orthorhombic'
loop_
_space_group_symop_operation_xyz
x,y,z
-x,1/2-y,z
x,-y,1/2-z
1/2-x,y,-z
1/2+x,1/2+y,1/2+z
1/2-x,-y,1/2+z
1/2+x,1/2-y,-z
-x,1/2+y,1/2-z
loop_
_atom_site_type_symbol
_atom_site_label
_atom_site_fract_x
_atom_site_fract_y
_atom_site_fract_z
Si Si1 0.787982 0.766044 0.351956
Si Si2 0.912026 0.528094 0.561057
Si Si3 0.863701 0.049666 0.408180
Si Si4 0.770869 0.671615 0.159971
O O1 0.640414 0.683722 0.409617
O O2 0.768458 0.721714 0.255768
O O3 0.000000 0.750000 0.385619
O O4 0.738923 0.929083 0.362686
O O5 0.750000 0.473065 0.500000
O O6 0.908614 0.422638 0.641497
O O7 0.099627 0.502337 0.506658
O O8 0.764969 0.197980 0.404060
O O9 0.052631 0.070077 0.354198
#
# Coordination Sequence:
#
# PCOD8165085 Si02
#       4
#     8   8   8   8
#     4  12  19  32  57  86 111 147 197 240 282 344
#     4  10  21  34  51  86 120 149 182 242 301 338
#     4  10  21  35  55  83 120 150 185 242 298 337
#     4  10  20  33  58  85 112 148 198 240 283 342
#
# _framework density 28.955753999999999
#
# number of rings (size 3 to 8) (size 9 to 14) (size 15 to 20)
#    0.000    1.500    7.500    1.500    0.000    0.000 
#    0.000    8.750    0.000    0.000    0.000  115.500 
#    0.000    0.000    0.000    0.000    0.000    0.000 
#
# Total GULP energy -198362.310851 kJ/mol
# GULP energy per Si atom -12397.644428 kJ/mol
# Density = 2.888985 g / cm^3
# Si number density = 28.955754 Si / 1000 Ang^3
#
#
#
# Elastic Constant Matrix: (Units=GPa)
#
#
# Indices 1 2 3 4 5 6 
#
# 1 113.9737 67.3513 43.1265 0.0000 0.0000 0.0000
# 2 67.3513 235.1768 85.7265 0.0000 0.0000 0.0000
# 3 43.1265 85.7265 156.7272 0.0000 0.0000 0.0000
# 4 0.0000 0.0000 0.0000 49.4670 0.0000 0.0000
# 5 0.0000 0.0000 0.0000 0.0000 36.6829 0.0000
# 6 0.0000 0.0000 0.0000 0.0000 0.0000 34.4243
#
#
#
# Elastic Compliance Matrix: (Units=1/GPa)
#
#
# Indices 1 2 3 4 5 6 
#
# 1 0.010877 -0.002528 -0.001610 0.000000 0.000000 0.000000
# 2 -0.002528 0.005899 -0.002531 0.000000 0.000000 0.000000
# 3 -0.001610 -0.002531 0.008208 0.000000 0.000000 0.000000
# 4 0.000000 0.000000 0.000000 0.020215 0.000000 0.000000
# 5 0.000000 0.000000 0.000000 0.000000 0.027261 0.000000
# 6 0.000000 0.000000 0.000000 0.000000 0.000000 0.029049
#
#
# Mechanical properties :
#
#
# Convention : Reuss Voigt Hill
#
# Bulk Modulus (GPa) = 85.87032 99.80959 92.83995
# Shear Modulus (GPa) = 42.11262 44.75973 43.43618
#
# Velocity S-wave (km/s) = 3.81777 3.93593 3.87730
# Velocity P-wave (km/s) = 7.01098 7.42966 7.22336
#
# Compressibility (1/GPa) = 0.01164547
#
# Stress axis : x y z
#
# Youngs Moduli (GPa) = 91.93535 169.53011 121.83396
#
# Poissons Ratio (x) = 0.42859 0.19618
# Poissons Ratio (y) = 0.23242 0.30834
# Poissons Ratio (z) = 0.14804 0.42904
#
# Static dielectric constant tensor:
#      x y z
#    x 6.315520 0.000000 0.000000 
#    y 0.000000 5.749390 0.000000 
#    z 0.000000 0.000000 5.633090 
# 
# 
# High freq. dielectric constant tensor:
#      x y z
#    x 2.192420 0.000000 0.000000 
#    y 0.000000 2.194660 0.000000 
#    z 0.000000 0.000000 2.177760 
# 
# From -- ./inp_files/30011.got.cif
#   From: 2010.03.12/outbox.cif.g09.slc.cpg/sg24_16_cif.got.tgz:30011.got - 2010.04.14 03:06:53.
