data_PCOD8165779
_publ_section_title
;
Structure prediction by ZEFSAII (Michael W. Deem and Ramdas Pophale) SiO2 
 PCOD8165779
Probable space group: I 21 21 21
;
_chemical_formula_sum "Si O2"
_cell_formula_units_Z 32
_cell_length_a 5.092681
_cell_length_b 13.509210
_cell_length_c 19.437332
_cell_angle_alpha 90.000000
_cell_angle_beta 90.000000
_cell_angle_gamma 90.000000
_cell_volume 1337.251454
_symmetry_space_group_name_H-M "I 21 21 21"
_symmetry_group_IT_number 24
_symmetry_cell_setting 'orthorhombic'
loop_
_space_group_symop_operation_xyz
x,y,z
-x,1/2-y,z
x,-y,1/2-z
1/2-x,y,-z
1/2+x,1/2+y,1/2+z
1/2-x,-y,1/2+z
1/2+x,1/2-y,-z
-x,1/2+y,1/2-z
loop_
_atom_site_type_symbol
_atom_site_label
_atom_site_fract_x
_atom_site_fract_y
_atom_site_fract_z
Si Si1 0.845490 0.563151 0.927232
Si Si2 0.870278 0.141650 0.357190
Si Si3 0.411328 0.636433 0.432353
Si Si4 0.253633 0.682877 0.708632
O O1 0.611351 0.569832 0.872620
O O2 0.115232 0.619391 0.904971
O O3 0.861751 0.444490 0.934480
O O4 0.750000 0.609581 0.000000
O O5 0.787203 0.120548 0.278455
O O6 0.000000 0.250000 0.368580
O O7 0.500000 0.750000 0.433818
O O8 0.250000 0.613016 0.500000
O O9 0.265473 0.614635 0.359576
O O10 0.500000 0.750000 0.694127
O O11 0.000000 0.750000 0.719059
#
# Coordination Sequence:
#
# PCOD8165779 Si02
#       4
#     8   8   8   8
#     4  12  26  45  70 103 137 179 235 278 333 414
#     4  11  24  47  72  99 140 180 223 286 342 396
#     4  11  24  45  72 102 140 182 223 282 342 400
#     4  10  22  43  72 103 135 178 229 275 337 413
#
# _framework density 23.929679
#
# number of rings (size 3 to 8) (size 9 to 14) (size 15 to 20)
#    0.000    1.000    0.000    7.500    0.000    9.000 
#    0.000   12.500    0.000    0.000    0.000    0.000 
#    0.000    0.000    0.000    0.000    0.000    0.000 
#
# Total GULP energy -198262.119674 kJ/mol
# GULP energy per Si atom -12391.382480 kJ/mol
# Density = 2.387521 g / cm^3
# Si number density = 23.929679 Si / 1000 Ang^3
#
#
#
# Elastic Constant Matrix: (Units=GPa)
#
#
# Indices 1 2 3 4 5 6 
#
# 1 183.5025 50.0986 88.3901 0.0000 0.0000 0.0000
# 2 50.0986 87.2923 77.7437 0.0000 0.0000 0.0000
# 3 88.3901 77.7437 206.9521 0.0000 0.0000 0.0000
# 4 0.0000 0.0000 0.0000 22.3234 0.0000 0.0000
# 5 0.0000 0.0000 0.0000 0.0000 29.5366 0.0000
# 6 0.0000 0.0000 0.0000 0.0000 0.0000 38.9046
#
#
#
# Elastic Compliance Matrix: (Units=1/GPa)
#
#
# Indices 1 2 3 4 5 6 
#
# 1 0.007100 -0.002065 -0.002257 0.000000 0.000000 0.000000
# 2 -0.002065 0.017816 -0.005811 0.000000 0.000000 0.000000
# 3 -0.002257 -0.005811 0.007979 0.000000 0.000000 0.000000
# 4 0.000000 0.000000 0.000000 0.044796 0.000000 0.000000
# 5 0.000000 0.000000 0.000000 0.000000 0.033856 0.000000
# 6 0.000000 0.000000 0.000000 0.000000 0.000000 0.025704
#
#
# Mechanical properties :
#
#
# Convention : Reuss Voigt Hill
#
# Bulk Modulus (GPa) = 79.17715 101.13464 90.15590
# Shear Modulus (GPa) = 30.91631 35.58723 33.25177
#
# Velocity S-wave (km/s) = 3.59829 3.86055 3.73173
# Velocity P-wave (km/s) = 7.10091 7.88840 7.50499
#
# Compressibility (1/GPa) = 0.01262991
#
# Stress axis : x y z
#
# Youngs Moduli (GPa) = 140.83730 56.12894 125.33155
#
# Poissons Ratio (x) = 0.11591 0.28285
# Poissons Ratio (y) = 0.29084 0.72828
# Poissons Ratio (z) = 0.31785 0.32615
#
# Static dielectric constant tensor:
#      x y z
#    x 4.365430 0.000000 0.000000 
#    y 0.000000 4.214440 0.000000 
#    z 0.000000 0.000000 5.023160 
# 
# 
# High freq. dielectric constant tensor:
#      x y z
#    x 1.961280 0.000000 0.000000 
#    y 0.000000 1.936770 0.000000 
#    z 0.000000 0.000000 1.976080 
# 
# From -- ./inp_files/28502.got.cif
#   From: 2010.03.12/outbox.cif.g09.slc.cpg/sg24_15_cif.got.tgz:28502.got - 2010.04.14 03:06:53.
