data_PCOD8165013
_publ_section_title
;
Structure prediction by ZEFSAII (Michael W. Deem and Ramdas Pophale) SiO2 
 PCOD8165013
Probable space group: I 21 21 21
;
_chemical_formula_sum "Si O2"
_cell_formula_units_Z 48
_cell_length_a 14.285121
_cell_length_b 7.722413
_cell_length_c 19.621333
_cell_angle_alpha 90.000000
_cell_angle_beta 90.000000
_cell_angle_gamma 90.000000
_cell_volume 2164.539203
_symmetry_space_group_name_H-M "I 21 21 21"
_symmetry_group_IT_number 24
_symmetry_cell_setting 'orthorhombic'
loop_
_space_group_symop_operation_xyz
x,y,z
-x,1/2-y,z
x,-y,1/2-z
1/2-x,y,-z
1/2+x,1/2+y,1/2+z
1/2-x,-y,1/2+z
1/2+x,1/2-y,-z
-x,1/2+y,1/2-z
loop_
_atom_site_type_symbol
_atom_site_label
_atom_site_fract_x
_atom_site_fract_y
_atom_site_fract_z
Si Si1 0.402309 0.661156 0.617852
Si Si2 0.344245 0.500000 0.750000
Si Si3 0.198836 0.025941 0.071708
Si Si4 0.503257 0.947970 0.980888
Si Si5 0.039731 0.558333 0.872793
Si Si6 0.923108 0.500000 0.750000
Si Si7 0.207427 0.252780 0.673305
O O1 0.500000 0.750000 0.598563
O O2 0.409043 0.591978 0.694387
O O3 0.405270 0.500317 0.564196
O O4 0.310697 0.783776 0.607517
O O5 0.288921 0.346304 0.713819
O O6 0.252424 0.889487 0.119952
O O7 0.092135 0.978251 0.059237
O O8 0.250000 0.042680 0.000000
O O9 0.500000 0.750000 0.999333
O O10 0.514095 0.036787 0.055767
O O11 0.151747 0.589749 0.864301
O O12 0.000000 0.750000 0.866388
O O13 0.990837 0.445300 0.813058
O O14 0.857651 0.339168 0.729460
#
# Coordination Sequence:
#
# PCOD8165013 Si02
#       7
#     8   4   8   8   8   4   8
#     4  10  25  42  60  89 121 164 215 260 326 397
#     4  12  25  40  61  92 124 160 216 274 325 390
#     4  11  22  40  64  91 126 166 212 270 327 381
#     4  10  20  40  65  89 121 165 212 262 322 393
#     4   9  19  36  60  89 121 162 206 246 309 392
#     4  10  19  38  61  88 128 168 200 246 319 392
#     4  11  23  38  61  93 125 163 210 263 322 379
#
# _framework density 22.175619000000001
#
# number of rings (size 3 to 8) (size 9 to 14) (size 15 to 20)
#    0.000    1.667    0.000    5.500    0.000    4.667 
#    0.000   16.667    0.000    0.000    0.000    0.000 
#    0.000    0.000    0.000    0.000    0.000    0.000 
#
# Total GULP energy -297329.815381 kJ/mol
# GULP energy per Si atom -12388.742308 kJ/mol
# Density = 2.212515 g / cm^3
# Si number density = 22.175619 Si / 1000 Ang^3
#
#
#
# Elastic Constant Matrix: (Units=GPa)
#
#
# Indices 1 2 3 4 5 6 
#
# 1 70.8777 21.4387 35.5730 0.0000 0.0000 0.0000
# 2 21.4387 62.7211 36.9448 0.0000 0.0000 0.0000
# 3 35.5730 36.9448 163.6559 0.0000 0.0000 0.0000
# 4 0.0000 0.0000 0.0000 30.1985 0.0000 0.0000
# 5 0.0000 0.0000 0.0000 0.0000 39.6767 0.0000
# 6 0.0000 0.0000 0.0000 0.0000 0.0000 11.3632
#
#
#
# Elastic Compliance Matrix: (Units=1/GPa)
#
#
# Indices 1 2 3 4 5 6 
#
# 1 0.016711 -0.004120 -0.002702 0.000000 0.000000 0.000000
# 2 -0.004120 0.019405 -0.003485 0.000000 0.000000 0.000000
# 3 -0.002702 -0.003485 0.007484 0.000000 0.000000 0.000000
# 4 0.000000 0.000000 0.000000 0.033114 0.000000 0.000000
# 5 0.000000 0.000000 0.000000 0.000000 0.025204 0.000000
# 6 0.000000 0.000000 0.000000 0.000000 0.000000 0.088003
#
#
# Mechanical properties :
#
#
# Convention : Reuss Voigt Hill
#
# Bulk Modulus (GPa) = 43.50591 53.90750 48.70671
# Shear Modulus (GPa) = 22.91489 29.80091 26.35790
#
# Velocity S-wave (km/s) = 3.21804 3.66985 3.45135
# Velocity P-wave (km/s) = 5.78525 6.50532 6.15582
#
# Compressibility (1/GPa) = 0.02298538
#
# Stress axis : x y z
#
# Youngs Moduli (GPa) = 59.83943 51.53384 133.60993
#
# Poissons Ratio (x) = 0.21234 0.36105
# Poissons Ratio (y) = 0.24656 0.46562
# Poissons Ratio (z) = 0.16170 0.17959
#
# Static dielectric constant tensor:
#      x y z
#    x 4.408810 0.000000 0.000000 
#    y 0.000000 4.733150 0.000000 
#    z 0.000000 0.000000 4.350260 
# 
# 
# High freq. dielectric constant tensor:
#      x y z
#    x 1.865630 0.000000 0.000000 
#    y 0.000000 1.864070 0.000000 
#    z 0.000000 0.000000 1.889270 
# 
# From -- ./inp_files/29535.got.cif
#   From: 2010.03.12/outbox.cif.g09.slc.cpg/sg24_15_cif.got.tgz:29535.got - 2010.04.14 03:06:53.
