data_PCOD8165214
_publ_section_title
;
Structure prediction by ZEFSAII (Michael W. Deem and Ramdas Pophale) SiO2 
 PCOD8165214
Probable space group: I 21 21 21
;
_chemical_formula_sum "Si O2"
_cell_formula_units_Z 40
_cell_length_a 9.118322
_cell_length_b 27.555194
_cell_length_c 7.729897
_cell_angle_alpha 90.000000
_cell_angle_beta 90.000000
_cell_angle_gamma 90.000000
_cell_volume 1942.191748
_symmetry_space_group_name_H-M "I 21 21 21"
_symmetry_group_IT_number 24
_symmetry_cell_setting 'orthorhombic'
loop_
_space_group_symop_operation_xyz
x,y,z
-x,1/2-y,z
x,-y,1/2-z
1/2-x,y,-z
1/2+x,1/2+y,1/2+z
1/2-x,-y,1/2+z
1/2+x,1/2-y,-z
-x,1/2+y,1/2-z
loop_
_atom_site_type_symbol
_atom_site_label
_atom_site_fract_x
_atom_site_fract_y
_atom_site_fract_z
Si Si1 0.591931 0.522104 0.444455
Si Si2 0.582799 0.418418 0.536159
Si Si3 0.069492 0.606600 0.380786
Si Si4 0.342464 0.628392 0.170980
Si Si5 0.402779 0.297023 0.075856
O O1 0.589102 0.500000 0.250000
O O2 0.750000 0.544241 0.500000
O O3 0.563137 0.475826 0.567556
O O4 0.469878 0.562996 0.485746
O O5 0.750000 0.403707 0.500000
O O6 0.529933 0.393024 0.710126
O O7 0.487520 0.403028 0.367767
O O8 0.243415 0.604138 0.325907
O O9 0.031019 0.658045 0.466888
O O10 0.386496 0.682776 0.228451
O O11 0.250000 0.633000 0.000000
O O12 0.500000 0.250000 0.073615
O O13 0.250000 0.279236 0.000000
#
# Coordination Sequence:
#
# PCOD8165214 Si02
#       5
#     8   8   8   8   8
#     4  11  21  35  58  88 121 157 203 251 296 353
#     4  10  20  37  61  91 123 158 200 244 291 348
#     4  10  21  39  60  84 120 158 196 245 301 357
#     4   9  20  41  61  84 120 154 193 247 301 358
#     4  10  22  40  61  85 114 151 197 247 299 354
#
# _framework density 20.595289999999999
#
# number of rings (size 3 to 8) (size 9 to 14) (size 15 to 20)
#    0.000    2.000    0.000    4.200    0.000    2.400 
#    0.000   33.000    0.000    1.200    0.000    0.000 
#    0.000    0.000    0.000    0.000    0.000    0.000 
#
# Total GULP energy -247900.113616 kJ/mol
# GULP energy per Si atom -12395.005681 kJ/mol
# Density = 2.054841 g / cm^3
# Si number density = 20.595290 Si / 1000 Ang^3
#
#
#
# Elastic Constant Matrix: (Units=GPa)
#
#
# Indices 1 2 3 4 5 6 
#
# 1 140.1664 91.4541 47.1964 -0.0012 0.0013 0.0005
# 2 91.4541 129.5095 37.3454 -0.0007 0.0018 0.0007
# 3 47.1964 37.3454 93.0329 -0.0017 0.0183 0.0010
# 4 -0.0012 -0.0007 -0.0017 23.3592 0.0017 0.0001
# 5 0.0013 0.0018 0.0183 0.0017 14.1640 -0.0004
# 6 0.0005 0.0007 0.0010 0.0001 -0.0004 42.2700
#
#
#
# Elastic Compliance Matrix: (Units=1/GPa)
#
#
# Indices 1 2 3 4 5 6 
#
# 1 0.014222 -0.009005 -0.003600 0.000000 0.000004 0.000000
# 2 -0.009005 0.014434 -0.001226 0.000000 0.000001 0.000000
# 3 -0.003600 -0.001226 0.013067 0.000001 -0.000016 0.000000
# 4 0.000000 0.000000 0.000001 0.042810 -0.000005 0.000000
# 5 0.000004 0.000001 -0.000016 -0.000005 0.070601 0.000001
# 6 0.000000 0.000000 0.000000 0.000000 0.000001 0.023657
#
#
# Mechanical properties :
#
#
# Convention : Reuss Voigt Hill
#
# Bulk Modulus (GPa) = 71.11641 79.41118 75.26379
# Shear Modulus (GPa) = 23.68094 28.40617 26.04355
#
# Velocity S-wave (km/s) = 3.39458 3.71786 3.55989
# Velocity P-wave (km/s) = 7.06892 7.55458 7.31578
#
# Compressibility (1/GPa) = 0.01406145
#
# Stress axis : x y z
#
# Youngs Moduli (GPa) = 70.31377 69.28224 76.52650
#
# Poissons Ratio (x) = 0.62387 0.27551
# Poissons Ratio (y) = 0.63316 0.09381
# Poissons Ratio (z) = 0.25314 0.08493
#
# Static dielectric constant tensor:
#      x y z
#    x 3.914790 0.000000 -0.000010 
#    y 0.000000 3.564720 0.000000 
#    z -0.000010 0.000000 4.164650 
# 
# 
# High freq. dielectric constant tensor:
#      x y z
#    x 1.810840 0.000000 0.000000 
#    y 0.000000 1.781330 0.000000 
#    z 0.000000 0.000000 1.830380 
# 
# From -- ./inp_files/9285.got.cif
#   From: 2010.03.12/outbox.cif.g09.slc.cpg/sg24_5_cif.got.tgz:9285.got - 2010.04.14 03:06:53.
