data_PCOD8165265
_publ_section_title
;
Structure prediction by ZEFSAII (Michael W. Deem and Ramdas Pophale) SiO2 
 PCOD8165265
Probable space group: I 21 21 21
;
_chemical_formula_sum "Si O2"
_cell_formula_units_Z 60
_cell_length_a 11.936872
_cell_length_b 9.733530
_cell_length_c 23.768149
_cell_angle_alpha 90.000000
_cell_angle_beta 90.000000
_cell_angle_gamma 90.000000
_cell_volume 2761.571360
_symmetry_space_group_name_H-M "I 21 21 21"
_symmetry_group_IT_number 24
_symmetry_cell_setting 'orthorhombic'
loop_
_space_group_symop_operation_xyz
x,y,z
-x,1/2-y,z
x,-y,1/2-z
1/2-x,y,-z
1/2+x,1/2+y,1/2+z
1/2-x,-y,1/2+z
1/2+x,1/2-y,-z
-x,1/2+y,1/2-z
loop_
_atom_site_type_symbol
_atom_site_label
_atom_site_fract_x
_atom_site_fract_y
_atom_site_fract_z
Si Si1 0.082871 0.856732 0.814246
Si Si2 0.226137 0.000000 0.250000
Si Si3 0.784779 0.749259 0.916028
Si Si4 0.430569 0.112755 0.846545
Si Si5 0.936156 0.108532 0.403383
Si Si6 0.243621 0.944999 0.436833
Si Si7 0.017893 0.902147 0.616388
Si Si8 0.369226 0.513883 0.016773
O O1 0.193807 0.887256 0.778597
O O2 0.120014 0.780846 0.870934
O O3 0.000000 0.750000 0.782181
O O4 0.012344 0.994202 0.830473
O O5 0.150290 0.919838 0.294481
O O6 0.693704 0.856501 0.891094
O O7 0.723693 0.609641 0.936204
O O8 0.846835 0.826198 0.967211
O O9 0.500000 0.250000 0.834255
O O10 0.356706 0.129159 0.903170
O O11 0.516736 0.986066 0.853286
O O12 0.000000 0.250000 0.406649
O O13 0.948873 0.022401 0.461931
O O14 0.250000 0.888064 0.500000
O O15 0.358539 0.910405 0.407388
O O16 0.000000 0.750000 0.640227
O O17 0.927498 0.932528 0.567505
O O18 0.250000 0.442383 0.000000
#
# Coordination Sequence:
#
# PCOD8165265 Si02
#       8
#     8   4   8   8   8   8   8   8
#     4  11  23  46  78  98 132 175 241 305 363 429
#     4  12  26  54  72 106 136 186 256 320 362 438
#     4  10  20  38  65 106 136 183 237 293 339 422
#     4  12  28  48  72 104 146 191 243 302 377 439
#     4  11  21  37  66  99 141 186 235 285 343 431
#     4  11  22  40  68 100 145 187 234 284 360 437
#     4  11  24  39  64  98 141 186 220 285 361 431
#     4  10  22  35  62 107 149 182 239 284 349 436
#
# _framework density 21.726761
#
# number of rings (size 3 to 8) (size 9 to 14) (size 15 to 20)
#    0.000    1.067    5.333    2.000    3.733    6.933 
#    0.000    0.000    0.000    0.000    0.000    0.000 
#    0.000    0.000    0.000    0.000    0.000    0.000 
#
# Total GULP energy -371977.530416 kJ/mol
# GULP energy per Si atom -12399.251014 kJ/mol
# Density = 2.167731 g / cm^3
# Si number density = 21.726761 Si / 1000 Ang^3
#
#
#
# Elastic Constant Matrix: (Units=GPa)
#
#
# Indices 1 2 3 4 5 6 
#
# 1 112.0280 68.5091 40.2501 0.0000 0.0000 0.0000
# 2 68.5091 120.4234 47.5417 0.0000 0.0000 0.0000
# 3 40.2501 47.5417 82.0610 0.0000 0.0000 0.0000
# 4 0.0000 0.0000 0.0000 1103.8971 0.0000 0.0000
# 5 0.0000 0.0000 0.0000 0.0000 40.4190 0.0000
# 6 0.0000 0.0000 0.0000 0.0000 0.0000 45.6308
#
#
#
# Elastic Compliance Matrix: (Units=1/GPa)
#
#
# Indices 1 2 3 4 5 6 
#
# 1 0.014225 -0.006921 -0.002968 0.000000 0.000000 0.000000
# 2 -0.006921 0.014134 -0.004794 0.000000 0.000000 0.000000
# 3 -0.002968 -0.004794 0.016419 0.000000 0.000000 0.000000
# 4 0.000000 0.000000 0.000000 0.000906 0.000000 0.000000
# 5 0.000000 0.000000 0.000000 0.000000 0.024741 0.000000
# 6 0.000000 0.000000 0.000000 0.000000 0.000000 0.021915
#
#
# Mechanical properties :
#
#
# Convention : Reuss Voigt Hill
#
# Bulk Modulus (GPa) = 64.87981 69.67936 67.27958
# Shear Modulus (GPa) = 39.41916 248.53684 143.97800
#
# Velocity S-wave (km/s) = 4.26410 10.70702 8.14932
# Velocity P-wave (km/s) = 7.36002 13.60126 10.93536
#
# Compressibility (1/GPa) = 0.01541312
#
# Stress axis : x y z
#
# Youngs Moduli (GPa) = 70.29865 70.75157 60.90579
#
# Poissons Ratio (x) = 0.48968 0.18074
# Poissons Ratio (y) = 0.48654 0.29196
# Poissons Ratio (z) = 0.20861 0.33916
#
# Static dielectric constant tensor:
#      x y z
#    x 0.822880 0.000000 0.000000 
#    y 0.000000 4.019250 0.000000 
#    z 0.000000 0.000000 4.006030 
# 
# 
# High freq. dielectric constant tensor:
#      x y z
#    x 1.868710 0.000000 0.000000 
#    y 0.000000 1.844340 0.000000 
#    z 0.000000 0.000000 1.833170 
# 
# From -- ./inp_files/37238.got.cif
#   From: 2010.03.12/outbox.cif.g09.slc.cpg/sg24_19_cif.got.tgz:37238.got - 2010.04.14 03:06:53.
