data_PCOD8165608
_publ_section_title
;
Structure prediction by ZEFSAII (Michael W. Deem and Ramdas Pophale) SiO2 
 PCOD8165608
Probable space group: I 21 21 21
;
_chemical_formula_sum "Si O2"
_cell_formula_units_Z 40
_cell_length_a 14.589782
_cell_length_b 7.697091
_cell_length_c 15.897177
_cell_angle_alpha 90.000000
_cell_angle_beta 90.000000
_cell_angle_gamma 90.000000
_cell_volume 1785.235168
_symmetry_space_group_name_H-M "I 21 21 21"
_symmetry_group_IT_number 24
_symmetry_cell_setting 'orthorhombic'
loop_
_space_group_symop_operation_xyz
x,y,z
-x,1/2-y,z
x,-y,1/2-z
1/2-x,y,-z
1/2+x,1/2+y,1/2+z
1/2-x,-y,1/2+z
1/2+x,1/2-y,-z
-x,1/2+y,1/2-z
loop_
_atom_site_type_symbol
_atom_site_label
_atom_site_fract_x
_atom_site_fract_y
_atom_site_fract_z
Si Si1 0.249204 0.303603 0.767440
Si Si2 0.141121 0.966862 0.495223
Si Si3 0.426410 0.112277 0.821969
Si Si4 0.333046 0.387074 0.059349
Si Si5 0.600266 0.758773 0.126752
O O1 0.278353 0.500000 0.750000
O O2 0.339852 0.190197 0.771337
O O3 0.200733 0.292035 0.856769
O O4 0.179901 0.232977 0.695517
O O5 0.250000 0.978355 0.500000
O O6 0.105677 0.005047 0.400944
O O7 0.109746 0.767061 0.514421
O O8 0.099804 0.106936 0.558178
O O9 0.500000 0.250000 0.855065
O O10 0.476908 0.000000 0.750000
O O11 0.392865 0.556012 0.079445
O O12 0.250000 0.450792 0.000000
O O13 0.500000 0.750000 0.171004
#
# Coordination Sequence:
#
# PCOD8165608 Si02
#       5
#     8   8   8   8   8
#     4  10  22  46  69  98 141 181 229 288 354 417
#     4  11  23  45  72 100 137 187 230 289 355 418
#     4  12  26  44  70 104 138 185 239 294 357 422
#     4  10  21  43  71  97 136 185 230 283 349 416
#     4  11  26  42  69 109 139 183 233 289 353 423
#
# _framework density 22.406013000000002
#
# number of rings (size 3 to 8) (size 9 to 14) (size 15 to 20)
#    0.000    1.200    4.000    2.400    2.800    2.400 
#   10.800    0.000    0.000    0.000    0.000    0.000 
#    0.000    0.000    0.000    0.000    0.000    0.000 
#
# Total GULP energy -247960.221962 kJ/mol
# GULP energy per Si atom -12398.011098 kJ/mol
# Density = 2.235502 g / cm^3
# Si number density = 22.406013 Si / 1000 Ang^3
#
#
#
# Elastic Constant Matrix: (Units=GPa)
#
#
# Indices 1 2 3 4 5 6 
#
# 1 99.8155 34.2779 42.0076 0.0000 0.0000 0.0000
# 2 34.2779 61.2079 18.0391 0.0000 0.0000 0.0000
# 3 42.0076 18.0391 138.2952 0.0000 0.0000 0.0000
# 4 0.0000 0.0000 0.0000 81.0482 0.0000 0.0000
# 5 0.0000 0.0000 0.0000 0.0000 19.8296 0.0000
# 6 0.0000 0.0000 0.0000 0.0000 0.0000 -111.7874
#
#
#
# Elastic Compliance Matrix: (Units=1/GPa)
#
#
# Indices 1 2 3 4 5 6 
#
# 1 0.013705 -0.006706 -0.003288 0.000000 0.000000 0.000000
# 2 -0.006706 0.020272 -0.000607 0.000000 0.000000 0.000000
# 3 -0.003288 -0.000607 0.008309 0.000000 0.000000 0.000000
# 4 0.000000 0.000000 0.000000 0.012338 0.000000 0.000000
# 5 0.000000 0.000000 0.000000 0.000000 0.050430 0.000000
# 6 0.000000 0.000000 0.000000 0.000000 0.000000 -0.008946
#
#
# Mechanical properties :
#
#
# Convention : Reuss Voigt Hill
#
# Bulk Modulus (GPa) = 47.43130 54.21863 50.82496
# Shear Modulus (GPa) = 40.21222 11.48436 25.84829
#
# Velocity S-wave (km/s) = 4.24099 2.26643 3.40020
# Velocity P-wave (km/s) = 6.72282 5.57671 6.17641
#
# Compressibility (1/GPa) = 0.02108312
#
# Stress axis : x y z
#
# Youngs Moduli (GPa) = 72.96408 49.32821 120.35213
#
# Poissons Ratio (x) = 0.33081 0.39575
# Poissons Ratio (y) = 0.48931 0.07309
# Poissons Ratio (z) = 0.23993 0.02996
#
# Static dielectric constant tensor:
#      x y z
#    x 2.526890 0.000000 0.000000 
#    y 0.000000 4.205460 0.000000 
#    z 0.000000 0.000000 4.300040 
# 
# 
# High freq. dielectric constant tensor:
#      x y z
#    x 1.872810 0.000000 0.000000 
#    y 0.000000 1.885980 0.000000 
#    z 0.000000 0.000000 1.895840 
# 
# From -- ./inp_files/12309.got.cif
#   From: 2010.03.12/outbox.cif.g09.slc.cpg/sg24_7_cif.got.tgz:12309.got - 2010.04.14 03:06:53.
