data_PCOD8165184
_publ_section_title
;
Structure prediction by ZEFSAII (Michael W. Deem and Ramdas Pophale) SiO2 
 PCOD8165184
Probable space group: I 21 21 21
;
_chemical_formula_sum "Si O2"
_cell_formula_units_Z 40
_cell_length_a 17.547567
_cell_length_b 15.680597
_cell_length_c 7.521426
_cell_angle_alpha 90.000000
_cell_angle_beta 90.000000
_cell_angle_gamma 90.000000
_cell_volume 2069.567948
_symmetry_space_group_name_H-M "I 21 21 21"
_symmetry_group_IT_number 24
_symmetry_cell_setting 'orthorhombic'
loop_
_space_group_symop_operation_xyz
x,y,z
-x,1/2-y,z
x,-y,1/2-z
1/2-x,y,-z
1/2+x,1/2+y,1/2+z
1/2-x,-y,1/2+z
1/2+x,1/2-y,-z
-x,1/2+y,1/2-z
loop_
_atom_site_type_symbol
_atom_site_label
_atom_site_fract_x
_atom_site_fract_y
_atom_site_fract_z
Si Si1 0.965160 0.415312 0.968039
Si Si2 0.544825 0.385849 0.428082
Si Si3 0.051265 0.328273 0.254879
Si Si4 0.678496 0.722790 0.896287
Si Si5 0.813844 0.417868 0.139154
O O1 0.979427 0.371103 0.777202
O O2 0.941538 0.514050 0.952905
O O3 0.889259 0.374995 0.054247
O O4 0.038204 0.399118 0.098857
O O5 0.474418 0.360370 0.551463
O O6 0.618059 0.328681 0.479840
O O7 0.138520 0.298934 0.283712
O O8 0.000000 0.250000 0.189040
O O9 0.719224 0.655246 0.766085
O O10 0.750000 0.763885 0.000000
O O11 0.838743 0.500000 0.250000
O O12 0.750000 0.445646 0.000000
#
# Coordination Sequence:
#
# PCOD8165184 Si02
#       5
#     8   8   8   8   8
#     4  11  20  36  59  85 112 153 199 238 292 342
#     4  10  21  35  60  87 112 149 200 246 284 351
#     4  10  20  37  55  81 117 153 193 242 284 351
#     4  11  22  39  53  84 125 157 191 237 305 354
#     4  12  22  33  53  82 123 160 192 230 286 358
#
# _framework density 19.327707
#
# number of rings (size 3 to 8) (size 9 to 14) (size 15 to 20)
#    0.000    1.200    6.000    2.400    2.800    2.400 
#    3.600    0.000    0.000    0.000   10.400    0.000 
#    0.000    0.000    0.000    0.000    0.000    0.000 
#
# Total GULP energy -247872.118887 kJ/mol
# GULP energy per Si atom -12393.605944 kJ/mol
# Density = 1.928372 g / cm^3
# Si number density = 19.327707 Si / 1000 Ang^3
#
#
#
# Elastic Constant Matrix: (Units=GPa)
#
#
# Indices 1 2 3 4 5 6 
#
# 1 80.9625 29.6510 50.6987 0.0000 0.0000 0.0000
# 2 29.6510 36.2539 29.2343 0.0000 0.0000 0.0000
# 3 50.6987 29.2343 141.2086 0.0000 0.0000 0.0000
# 4 0.0000 0.0000 0.0000 28.5361 0.0000 0.0000
# 5 0.0000 0.0000 0.0000 0.0000 24.2346 0.0000
# 6 0.0000 0.0000 0.0000 0.0000 0.0000 22.0403
#
#
#
# Elastic Compliance Matrix: (Units=1/GPa)
#
#
# Indices 1 2 3 4 5 6 
#
# 1 0.019758 -0.012532 -0.004500 0.000000 0.000000 0.000000
# 2 -0.012532 0.041059 -0.004001 0.000000 0.000000 0.000000
# 3 -0.004500 -0.004001 0.009526 0.000000 0.000000 0.000000
# 4 0.000000 0.000000 0.000000 0.035043 0.000000 0.000000
# 5 0.000000 0.000000 0.000000 0.000000 0.041263 0.000000
# 6 0.000000 0.000000 0.000000 0.000000 0.000000 0.045371
#
#
# Mechanical properties :
#
#
# Convention : Reuss Voigt Hill
#
# Bulk Modulus (GPa) = 35.36262 53.06586 44.21424
# Shear Modulus (GPa) = 20.53289 24.88492 22.70891
#
# Velocity S-wave (km/s) = 3.26292 3.59210 3.43146
# Velocity P-wave (km/s) = 5.70364 6.68728 6.21495
#
# Compressibility (1/GPa) = 0.02827845
#
# Stress axis : x y z
#
# Youngs Moduli (GPa) = 50.61118 24.35526 104.98056
#
# Poissons Ratio (x) = 0.30521 0.47237
# Poissons Ratio (y) = 0.63424 0.42004
# Poissons Ratio (z) = 0.22773 0.09745
#
# Static dielectric constant tensor:
#      x y z
#    x 3.207280 0.000000 0.000000 
#    y 0.000000 3.504970 0.000000 
#    z 0.000000 0.000000 3.825480 
# 
# 
# High freq. dielectric constant tensor:
#      x y z
#    x 1.717160 0.000000 0.000000 
#    y 0.000000 1.730750 0.000000 
#    z 0.000000 0.000000 1.768670 
# 
# From -- ./inp_files/12540.got.cif
#   From: 2010.03.12/outbox.cif.g09.slc.cpg/sg24_7_cif.got.tgz:12540.got - 2010.04.14 03:06:53.
