data_PCOD8165404
_publ_section_title
;
Structure prediction by ZEFSAII (Michael W. Deem and Ramdas Pophale) SiO2 
 PCOD8165404
Probable space group: I 21 21 21
;
_chemical_formula_sum "Si O2"
_cell_formula_units_Z 64
_cell_length_a 9.729755
_cell_length_b 16.463541
_cell_length_c 19.964978
_cell_angle_alpha 90.000000
_cell_angle_beta 90.000000
_cell_angle_gamma 90.000000
_cell_volume 3198.114365
_symmetry_space_group_name_H-M "I 21 21 21"
_symmetry_group_IT_number 24
_symmetry_cell_setting 'orthorhombic'
loop_
_space_group_symop_operation_xyz
x,y,z
-x,1/2-y,z
x,-y,1/2-z
1/2-x,y,-z
1/2+x,1/2+y,1/2+z
1/2-x,-y,1/2+z
1/2+x,1/2-y,-z
-x,1/2+y,1/2-z
loop_
_atom_site_type_symbol
_atom_site_label
_atom_site_fract_x
_atom_site_fract_y
_atom_site_fract_z
Si Si1 0.501605 0.154322 0.729688
Si Si2 0.687182 0.188170 0.930473
Si Si3 0.761776 0.573976 0.801594
Si Si4 0.407485 0.149194 0.880325
Si Si5 0.781417 0.071590 0.696636
Si Si6 0.908805 0.057154 0.887244
Si Si7 0.506520 0.341279 0.232755
Si Si8 0.310665 0.981917 0.429919
O O1 0.500000 0.250000 0.718656
O O2 0.386710 0.111269 0.685351
O O3 0.475770 0.131837 0.807981
O O4 0.635373 0.114606 0.696983
O O5 0.532891 0.149892 0.934804
O O6 0.672705 0.264041 0.879432
O O7 0.793268 0.121536 0.905649
O O8 0.750000 0.221345 0.000000
O O9 0.758395 0.500000 0.750000
O O10 0.822128 0.551969 0.874306
O O11 0.849064 0.646487 0.769113
O O12 0.293494 0.084806 0.900371
O O13 0.886671 0.143574 0.713574
O O14 0.781973 0.000000 0.750000
O O15 0.829827 0.028227 0.627293
O O16 0.993393 0.090885 0.824167
O O17 0.030928 0.047650 0.942308
O O18 0.500000 0.250000 0.203806
O O19 0.250000 0.014245 0.500000
#
# Coordination Sequence:
#
# PCOD8165404 Si02
#       8
#     8   8   8   8   8   8   8   8
#     4  12  23  38  63  95 127 159 211 270 331 384
#     4  11  24  39  57  87 134 181 214 251 309 398
#     4  12  22  40  63  93 125 163 211 269 321 387
#     4  11  23  40  59  91 133 173 217 258 320 385
#     4  10  21  36  57  88 125 161 201 264 317 370
#     4  11  23  39  61  91 128 170 215 260 325 383
#     4  11  21  36  61  90 127 158 203 262 323 377
#     4  12  25  42  64  93 130 172 219 268 321 392
#
# _framework density 20.011792
#
# number of rings (size 3 to 8) (size 9 to 14) (size 15 to 20)
#    0.000    0.750    5.000    4.125    5.250    1.000 
#    0.000    0.000    0.000    0.750    0.000    0.000 
#    0.000    0.000    0.000    0.000    0.000    0.000 
#
# Total GULP energy -396588.644721 kJ/mol
# GULP energy per Si atom -12393.395148 kJ/mol
# Density = 1.996624 g / cm^3
# Si number density = 20.011792 Si / 1000 Ang^3
#
#
#
# Elastic Constant Matrix: (Units=GPa)
#
#
# Indices 1 2 3 4 5 6 
#
# 1 128.6643 33.8351 22.2823 0.0000 0.0000 0.0000
# 2 33.8351 69.4853 24.9471 0.0000 0.0000 0.0000
# 3 22.2823 24.9471 67.0497 0.0000 0.0000 0.0000
# 4 0.0000 0.0000 0.0000 16.8947 0.0000 0.0000
# 5 0.0000 0.0000 0.0000 0.0000 33.6723 0.0000
# 6 0.0000 0.0000 0.0000 0.0000 0.0000 33.5751
#
#
#
# Elastic Compliance Matrix: (Units=1/GPa)
#
#
# Indices 1 2 3 4 5 6 
#
# 1 0.009056 -0.003843 -0.001580 0.000000 0.000000 0.000000
# 2 -0.003843 0.018241 -0.005510 0.000000 0.000000 0.000000
# 3 -0.001580 -0.005510 0.017489 0.000000 0.000000 0.000000
# 4 0.000000 0.000000 0.000000 0.059190 0.000000 0.000000
# 5 0.000000 0.000000 0.000000 0.000000 0.029698 0.000000
# 6 0.000000 0.000000 0.000000 0.000000 0.000000 0.029784
#
#
# Mechanical properties :
#
#
# Convention : Reuss Voigt Hill
#
# Bulk Modulus (GPa) = 43.62670 47.48094 45.55382
# Shear Modulus (GPa) = 25.91157 29.10408 27.50783
#
# Velocity S-wave (km/s) = 3.60226 3.81773 3.71156
# Velocity P-wave (km/s) = 6.25696 6.57354 6.41720
#
# Compressibility (1/GPa) = 0.02292174
#
# Stress axis : x y z
#
# Youngs Moduli (GPa) = 110.42057 54.82206 57.17753
#
# Poissons Ratio (x) = 0.21066 0.09034
# Poissons Ratio (y) = 0.42431 0.31504
# Poissons Ratio (z) = 0.17445 0.30206
#
# Static dielectric constant tensor:
#      x y z
#    x 4.115160 0.000000 0.000000 
#    y 0.000000 3.601010 0.000000 
#    z 0.000000 0.000000 3.603510 
# 
# 
# High freq. dielectric constant tensor:
#      x y z
#    x 1.813110 0.000000 0.000000 
#    y 0.000000 1.767480 0.000000 
#    z 0.000000 0.000000 1.739590 
# 
# From -- ./inp_files/15427.got.cif
#   From: 2010.03.12/outbox.cif.g09.slc.cpg/sg24_8_cif.got.tgz:15427.got - 2010.04.14 03:06:53.
