data_PCOD8165830
_publ_section_title
;
Structure prediction by ZEFSAII (Michael W. Deem and Ramdas Pophale) SiO2 
 PCOD8165830
Probable space group: I 21 21 21
;
_chemical_formula_sum "Si O2"
_cell_formula_units_Z 36
_cell_length_a 10.013997
_cell_length_b 19.055387
_cell_length_c 9.109069
_cell_angle_alpha 90.000000
_cell_angle_beta 90.000000
_cell_angle_gamma 90.000000
_cell_volume 1738.197905
_symmetry_space_group_name_H-M "I 21 21 21"
_symmetry_group_IT_number 24
_symmetry_cell_setting 'orthorhombic'
loop_
_space_group_symop_operation_xyz
x,y,z
-x,1/2-y,z
x,-y,1/2-z
1/2-x,y,-z
1/2+x,1/2+y,1/2+z
1/2-x,-y,1/2+z
1/2+x,1/2-y,-z
-x,1/2+y,1/2-z
loop_
_atom_site_type_symbol
_atom_site_label
_atom_site_fract_x
_atom_site_fract_y
_atom_site_fract_z
Si Si1 0.452829 0.608936 0.833248
Si Si2 0.250000 0.298907 0.500000
Si Si3 0.736975 0.335225 0.659617
Si Si4 0.601762 0.962519 0.549081
Si Si5 0.645315 0.439256 0.132234
O O1 0.373457 0.652602 0.955980
O O2 0.584737 0.652012 0.791798
O O3 0.378992 0.595429 0.677643
O O4 0.478479 0.531936 0.900004
O O5 0.223577 0.247363 0.640234
O O6 0.750000 0.373364 0.500000
O O7 0.833133 0.366092 0.782945
O O8 0.750000 0.983599 0.500000
O O9 0.508401 0.933547 0.419244
O O10 0.670433 0.500000 0.250000
O O11 0.750000 0.447889 0.000000
#
# Coordination Sequence:
#
# PCOD8165830 Si02
#       5
#     8   4   8   8   8
#     4  11  21  45  65  99 139 178 230 286 347 410
#     4  10  24  42  74  90 140 182 230 272 350 440
#     4  10  23  41  69 101 127 187 233 283 344 416
#     4  11  25  39  69 101 139 179 227 293 351 403
#     4  12  23  41  69 104 141 180 234 297 350 412
#
# _framework density 20.711106999999998
#
# number of rings (size 3 to 8) (size 9 to 14) (size 15 to 20)
#    0.667    0.444    3.333    4.000    3.111    1.778 
#    0.000    1.111    0.000    0.000    0.000    0.000 
#    0.000    0.000    0.000    0.000    0.000    0.000 
#
# Total GULP energy -223049.722856 kJ/mol
# GULP energy per Si atom -12391.651270 kJ/mol
# Density = 2.066397 g / cm^3
# Si number density = 20.711107 Si / 1000 Ang^3
#
#
#
# Elastic Constant Matrix: (Units=GPa)
#
#
# Indices 1 2 3 4 5 6 
#
# 1 99.0105 37.2757 39.9086 0.0000 0.0000 0.0001
# 2 37.2757 105.4529 44.0549 0.0000 0.0000 -0.0001
# 3 39.9086 44.0549 103.1160 -0.0001 0.0000 -0.0002
# 4 0.0000 0.0000 -0.0001 37.5391 0.0000 -0.0001
# 5 0.0000 0.0000 0.0000 0.0000 41.4166 0.0000
# 6 0.0001 -0.0001 -0.0002 -0.0001 0.0000 18.0774
#
#
#
# Elastic Compliance Matrix: (Units=1/GPa)
#
#
# Indices 1 2 3 4 5 6 
#
# 1 0.012683 -0.002961 -0.003644 0.000000 0.000000 0.000000
# 2 -0.002961 0.012235 -0.004081 0.000000 0.000000 0.000000
# 3 -0.003644 -0.004081 0.012852 0.000000 0.000000 0.000000
# 4 0.000000 0.000000 0.000000 0.026639 0.000000 0.000000
# 5 0.000000 0.000000 0.000000 0.000000 0.024145 0.000000
# 6 0.000000 0.000000 0.000000 0.000000 0.000000 0.055318
#
#
# Mechanical properties :
#
#
# Convention : Reuss Voigt Hill
#
# Bulk Modulus (GPa) = 60.98363 61.11754 61.05058
# Shear Modulus (GPa) = 29.28964 31.82929 30.55947
#
# Velocity S-wave (km/s) = 3.76466 3.92449 3.84541
# Velocity P-wave (km/s) = 6.95742 7.07878 7.01836
#
# Compressibility (1/GPa) = 0.01639784
#
# Stress axis : x y z
#
# Youngs Moduli (GPa) = 78.84294 81.73588 77.81145
#
# Poissons Ratio (x) = 0.24203 0.28352
# Poissons Ratio (y) = 0.23346 0.31755
# Poissons Ratio (z) = 0.28728 0.33356
#
# Static dielectric constant tensor:
#      x y z
#    x 3.543230 0.000000 0.000000 
#    y 0.000000 3.635590 0.000000 
#    z 0.000000 0.000000 3.909440 
# 
# 
# High freq. dielectric constant tensor:
#      x y z
#    x 1.803920 0.000000 0.000000 
#    y 0.000000 1.798000 0.000000 
#    z 0.000000 0.000000 1.810800 
# 
# From -- ./inp_files/9082.got.cif
#   From: 2010.03.12/outbox.cif.g09.slc.cpg/sg24_5_cif.got.tgz:9082.got - 2010.04.14 03:06:53.
