data_PCOD8165596
_publ_section_title
;
Structure prediction by ZEFSAII (Michael W. Deem and Ramdas Pophale) SiO2 
 PCOD8165596
Probable space group: I 21 21 21
;
_chemical_formula_sum "Si O2"
_cell_formula_units_Z 32
_cell_length_a 9.263948
_cell_length_b 11.948851
_cell_length_c 12.956803
_cell_angle_alpha 90.000000
_cell_angle_beta 90.000000
_cell_angle_gamma 90.000000
_cell_volume 1434.234318
_symmetry_space_group_name_H-M "I 21 21 21"
_symmetry_group_IT_number 24
_symmetry_cell_setting 'orthorhombic'
loop_
_space_group_symop_operation_xyz
x,y,z
-x,1/2-y,z
x,-y,1/2-z
1/2-x,y,-z
1/2+x,1/2+y,1/2+z
1/2-x,-y,1/2+z
1/2+x,1/2-y,-z
-x,1/2+y,1/2-z
loop_
_atom_site_type_symbol
_atom_site_label
_atom_site_fract_x
_atom_site_fract_y
_atom_site_fract_z
Si Si1 0.500000 0.250000 0.563209
Si Si2 0.402039 0.154991 0.948278
Si Si3 0.908998 0.027672 0.531709
Si Si4 0.177780 0.876253 0.232322
Si Si5 0.957775 0.500000 0.750000
O O1 0.575884 0.159867 0.489119
O O2 0.623393 0.310640 0.631648
O O3 0.500000 0.250000 0.002617
O O4 0.372839 0.194376 0.831253
O O5 0.250000 0.139969 0.000000
O O6 0.479152 0.035358 0.957246
O O7 0.750000 0.987233 0.500000
O O8 0.939414 0.992155 0.650185
O O9 0.108330 0.000000 0.250000
O O10 0.353235 0.891284 0.232180
#
# Coordination Sequence:
#
# PCOD8165596 Si02
#       5
#     4   8   8   8   4
#     4  12  26  44  76 116 156 194 258 328 380 460
#     4  12  23  45  72 104 147 201 258 316 378 457
#     4  12  28  46  72 109 151 197 259 322 388 458
#     4  10  21  42  76 101 142 198 244 299 388 447
#     4  10  24  50  72  98 148 202 250 306 388 454
#
# _framework density 22.311556
#
# number of rings (size 3 to 8) (size 9 to 14) (size 15 to 20)
#    0.750    0.000    6.250    0.750    3.500    2.000 
#    6.750    0.000    0.000    0.000    0.000    0.000 
#    0.000    0.000    0.000    0.000    0.000    0.000 
#
# Total GULP energy -198298.490495 kJ/mol
# GULP energy per Si atom -12393.655656 kJ/mol
# Density = 2.226077 g / cm^3
# Si number density = 22.311556 Si / 1000 Ang^3
#
#
#
# Elastic Constant Matrix: (Units=GPa)
#
#
# Indices 1 2 3 4 5 6 
#
# 1 166.8651 42.2515 48.5214 0.0000 0.0000 0.0000
# 2 42.2515 93.9225 11.7302 0.0000 0.0000 0.0000
# 3 48.5214 11.7302 115.1384 0.0000 0.0000 0.0000
# 4 0.0000 0.0000 0.0000 20.4242 0.0000 0.0000
# 5 0.0000 0.0000 0.0000 0.0000 27.5258 0.0000
# 6 0.0000 0.0000 0.0000 0.0000 0.0000 31.6353
#
#
#
# Elastic Compliance Matrix: (Units=1/GPa)
#
#
# Indices 1 2 3 4 5 6 
#
# 1 0.007610 -0.003062 -0.002895 0.000000 0.000000 0.000000
# 2 -0.003062 0.012016 0.000066 0.000000 0.000000 0.000000
# 3 -0.002895 0.000066 0.009898 0.000000 0.000000 0.000000
# 4 0.000000 0.000000 0.000000 0.048962 0.000000 0.000000
# 5 0.000000 0.000000 0.000000 0.000000 0.036330 0.000000
# 6 0.000000 0.000000 0.000000 0.000000 0.000000 0.031610
#
#
# Mechanical properties :
#
#
# Convention : Reuss Voigt Hill
#
# Bulk Modulus (GPa) = 56.35980 64.54803 60.45392
# Shear Modulus (GPa) = 30.46514 34.14524 32.30519
#
# Velocity S-wave (km/s) = 3.69920 3.91626 3.80927
# Velocity P-wave (km/s) = 6.60005 7.03154 6.81921
#
# Compressibility (1/GPa) = 0.01774314
#
# Stress axis : x y z
#
# Youngs Moduli (GPa) = 131.40670 83.22102 101.02555
#
# Poissons Ratio (x) = 0.25481 0.29247
# Poissons Ratio (y) = 0.40234 -0.00668
# Poissons Ratio (z) = 0.38043 -0.00550
#
# Static dielectric constant tensor:
#      x y z
#    x 3.878540 0.000000 0.000000 
#    y 0.000000 3.833750 0.000000 
#    z 0.000000 0.000000 4.093450 
# 
# 
# High freq. dielectric constant tensor:
#      x y z
#    x 1.877490 0.000000 0.000000 
#    y 0.000000 1.869120 0.000000 
#    z 0.000000 0.000000 1.879730 
# 
# From -- ./inp_files/24368.got.cif
#   From: 2010.03.12/outbox.cif.g09.slc.cpg/sg24_13_cif.got.tgz:24368.got - 2010.04.14 03:06:53.
