data_PCOD8165507
_publ_section_title
;
Structure prediction by ZEFSAII (Michael W. Deem and Ramdas Pophale) SiO2 
 PCOD8165507
Probable space group: I 21 21 21
;
_chemical_formula_sum "Si O2"
_cell_formula_units_Z 60
_cell_length_a 6.340983
_cell_length_b 23.398611
_cell_length_c 19.958438
_cell_angle_alpha 90.000000
_cell_angle_beta 90.000000
_cell_angle_gamma 90.000000
_cell_volume 2961.237329
_symmetry_space_group_name_H-M "I 21 21 21"
_symmetry_group_IT_number 24
_symmetry_cell_setting 'orthorhombic'
loop_
_space_group_symop_operation_xyz
x,y,z
-x,1/2-y,z
x,-y,1/2-z
1/2-x,y,-z
1/2+x,1/2+y,1/2+z
1/2-x,-y,1/2+z
1/2+x,1/2-y,-z
-x,1/2+y,1/2-z
loop_
_atom_site_type_symbol
_atom_site_label
_atom_site_fract_x
_atom_site_fract_y
_atom_site_fract_z
Si Si1 0.410495 0.191502 0.947310
Si Si2 0.032189 0.816528 0.238465
Si Si3 0.634301 0.472870 0.435661
Si Si4 0.750000 0.907280 0.000000
Si Si5 0.610936 0.306733 0.170614
Si Si6 0.981825 0.903297 0.122225
Si Si7 0.784896 0.870913 0.356391
Si Si8 0.320721 0.495380 0.171560
O O1 0.500000 0.250000 0.980645
O O2 0.285670 0.213082 0.882475
O O3 0.589786 0.146284 0.924431
O O4 0.250000 0.161902 0.000000
O O5 0.265456 0.832263 0.265833
O O6 0.014014 0.851408 0.171170
O O7 0.000000 0.750000 0.222869
O O8 0.858471 0.835991 0.291671
O O9 0.750000 0.504737 0.500000
O O10 0.429991 0.445697 0.467991
O O11 0.794385 0.427846 0.402182
O O12 0.536112 0.509371 0.373593
O O13 0.860177 0.872493 0.059920
O O14 0.500000 0.250000 0.196143
O O15 0.460738 0.353965 0.136408
O O16 0.835123 0.952689 0.153806
O O17 0.812267 0.938062 0.343581
O O18 0.384898 0.500000 0.250000
#
# Coordination Sequence:
#
# PCOD8165507 Si02
#       8
#     8   8   8   4   8   8   8   8
#     4  11  23  39  64  86 118 173 223 264 312 372
#     4  11  22  37  62  94 123 158 209 258 318 381
#     4   9  20  40  65  91 122 170 209 249 320 383
#     4   8  18  40  64  86 120 166 196 246 314 380
#     4  11  20  38  60  84 119 161 201 264 320 364
#     4  10  21  39  65  92 124 164 206 256 317 385
#     4  11  23  41  57  94 131 160 212 267 325 370
#     4  11  23  39  64  96 132 167 211 272 316 383
#
# _framework density 20.261800999999998
#
# number of rings (size 3 to 8) (size 9 to 14) (size 15 to 20)
#    0.000    1.600    4.000    1.200    1.867    2.667 
#    0.000   12.000    4.400    0.000    0.000    0.000 
#    0.000    0.000    0.000    0.000    0.000    0.000 
#
# Total GULP energy -371687.839680 kJ/mol
# GULP energy per Si atom -12389.594656 kJ/mol
# Density = 2.021568 g / cm^3
# Si number density = 20.261801 Si / 1000 Ang^3
#
#
#
# Elastic Constant Matrix: (Units=GPa)
#
#
# Indices 1 2 3 4 5 6 
#
# 1 118.2645 34.2088 61.1995 0.0000 0.0000 0.0000
# 2 34.2088 102.2422 49.5483 0.0000 0.0000 0.0000
# 3 61.1995 49.5483 135.8928 0.0000 0.0000 0.0000
# 4 0.0000 0.0000 0.0000 27.4983 0.0000 0.0000
# 5 0.0000 0.0000 0.0000 0.0000 37.6268 0.0000
# 6 0.0000 0.0000 0.0000 0.0000 0.0000 18.8860
#
#
#
# Elastic Compliance Matrix: (Units=1/GPa)
#
#
# Indices 1 2 3 4 5 6 
#
# 1 0.011233 -0.001587 -0.004480 0.000000 0.000000 0.000000
# 2 -0.001587 0.012104 -0.003698 0.000000 0.000000 0.000000
# 3 -0.004480 -0.003698 0.010725 0.000000 0.000000 0.000000
# 4 0.000000 0.000000 0.000000 0.036366 0.000000 0.000000
# 5 0.000000 0.000000 0.000000 0.000000 0.026577 0.000000
# 6 0.000000 0.000000 0.000000 0.000000 0.000000 0.052949
#
#
# Mechanical properties :
#
#
# Convention : Reuss Voigt Hill
#
# Bulk Modulus (GPa) = 68.82146 71.81253 70.31699
# Shear Modulus (GPa) = 28.68136 30.89842 29.78989
#
# Velocity S-wave (km/s) = 3.76645 3.90931 3.83854
# Velocity P-wave (km/s) = 7.27700 7.47638 7.37736
#
# Compressibility (1/GPa) = 0.01453035
#
# Stress axis : x y z
#
# Youngs Moduli (GPa) = 89.02246 82.61639 93.24125
#
# Poissons Ratio (x) = 0.13114 0.41773
# Poissons Ratio (y) = 0.14131 0.34485
# Poissons Ratio (z) = 0.39883 0.30555
#
# Static dielectric constant tensor:
#      x y z
#    x 4.118440 0.000000 0.000000 
#    y 0.000000 3.267330 0.000000 
#    z 0.000000 0.000000 4.102260 
# 
# 
# High freq. dielectric constant tensor:
#      x y z
#    x 1.812500 0.000000 0.000000 
#    y 0.000000 1.750670 0.000000 
#    z 0.000000 0.000000 1.800990 
# 
# From -- ./inp_files/32302.got.cif
#   From: 2010.03.12/outbox.cif.g09.slc.cpg/sg24_17_cif.got.tgz:32302.got - 2010.04.14 03:06:53.
