data_PCOD8165473
_publ_section_title
;
Structure prediction by ZEFSAII (Michael W. Deem and Ramdas Pophale) SiO2 
 PCOD8165473
Probable space group: I 21 21 21
;
_chemical_formula_sum "Si O2"
_cell_formula_units_Z 48
_cell_length_a 9.398626
_cell_length_b 17.405228
_cell_length_c 14.346019
_cell_angle_alpha 90.000000
_cell_angle_beta 90.000000
_cell_angle_gamma 90.000000
_cell_volume 2346.796795
_symmetry_space_group_name_H-M "I 21 21 21"
_symmetry_group_IT_number 24
_symmetry_cell_setting 'orthorhombic'
loop_
_space_group_symop_operation_xyz
x,y,z
-x,1/2-y,z
x,-y,1/2-z
1/2-x,y,-z
1/2+x,1/2+y,1/2+z
1/2-x,-y,1/2+z
1/2+x,1/2-y,-z
-x,1/2+y,1/2-z
loop_
_atom_site_type_symbol
_atom_site_label
_atom_site_fract_x
_atom_site_fract_y
_atom_site_fract_z
Si Si1 0.750000 0.589559 0.500000
Si Si2 0.481685 0.841098 0.626831
Si Si3 0.545520 0.591604 0.831171
Si Si4 0.145529 0.957622 0.879889
Si Si5 0.186384 0.468300 0.098326
Si Si6 0.409006 0.500000 0.250000
Si Si7 0.901587 0.687617 0.002248
O O1 0.660694 0.643873 0.568256
O O2 0.642684 0.537403 0.437624
O O3 0.500000 0.750000 0.632546
O O4 0.477905 0.879857 0.727632
O O5 0.614278 0.885281 0.578781
O O6 0.699701 0.551092 0.834017
O O7 0.425535 0.530807 0.862141
O O8 0.540462 0.668035 0.894715
O O9 0.111495 0.893177 0.953626
O O10 0.019899 0.945537 0.804982
O O11 0.311883 0.456162 0.174448
O O12 0.250000 0.498427 0.000000
O O13 0.000000 0.750000 0.951662
O O14 0.750000 0.729438 0.000000
#
# Coordination Sequence:
#
# PCOD8165473 Si02
#       7
#     4   8   8   8   8   4   8
#     4  12  22  46  74  94 130 194 240 274 322 436
#     4  12  26  43  67  98 139 183 226 289 352 408
#     4  11  21  46  69  94 133 184 231 268 339 426
#     4  11  22  42  69  97 128 182 236 268 331 417
#     4  12  25  44  70 103 135 174 229 292 344 403
#     4  12  24  38  68 102 126 162 228 298 324 388
#     4  10  21  38  63  98 135 172 214 279 343 408
#
# _framework density 20.453412
#
# number of rings (size 3 to 8) (size 9 to 14) (size 15 to 20)
#    0.000    0.667    5.833    3.500    1.167    2.000 
#    6.000    0.000    0.000    0.000    0.000    0.000 
#    0.000    0.000    0.000    0.000    0.000    0.000 
#
# Total GULP energy -297450.599563 kJ/mol
# GULP energy per Si atom -12393.774982 kJ/mol
# Density = 2.040686 g / cm^3
# Si number density = 20.453412 Si / 1000 Ang^3
#
#
#
# Elastic Constant Matrix: (Units=GPa)
#
#
# Indices 1 2 3 4 5 6 
#
# 1 142.6639 61.3158 62.4650 0.0000 0.0000 0.0000
# 2 61.3158 121.1776 47.8167 -0.0001 0.0000 0.0000
# 3 62.4650 47.8167 117.6436 -0.0002 0.0000 0.0000
# 4 0.0000 -0.0001 -0.0002 1.2509 0.0000 0.0000
# 5 0.0000 0.0000 0.0000 0.0000 45.6684 0.0000
# 6 0.0000 0.0000 0.0000 0.0000 0.0000 46.3086
#
#
#
# Elastic Compliance Matrix: (Units=1/GPa)
#
#
# Indices 1 2 3 4 5 6 
#
# 1 0.010329 -0.003647 -0.004002 -0.000001 0.000000 0.000000
# 2 -0.003647 0.011117 -0.002582 0.000000 0.000000 0.000000
# 3 -0.004002 -0.002582 0.011675 0.000002 0.000000 0.000000
# 4 -0.000001 0.000000 0.000002 0.799404 0.000000 0.000000
# 5 0.000000 0.000000 0.000000 0.000000 0.021897 0.000000
# 6 0.000000 0.000000 0.000000 0.000000 0.000000 0.021594
#
#
# Mechanical properties :
#
#
# Convention : Reuss Voigt Hill
#
# Bulk Modulus (GPa) = 79.00036 80.52000 79.76018
# Shear Modulus (GPa) = 5.55125 32.63810 19.09467
#
# Velocity S-wave (km/s) = 1.64924 3.99899 3.05875
# Velocity P-wave (km/s) = 6.50654 7.79587 7.18020
#
# Compressibility (1/GPa) = 0.01265817
#
# Stress axis : x y z
#
# Youngs Moduli (GPa) = 96.81078 89.95462 85.65614
#
# Poissons Ratio (x) = 0.32811 0.34280
# Poissons Ratio (y) = 0.35311 0.22114
# Poissons Ratio (z) = 0.38744 0.23224
#
# Static dielectric constant tensor:
#      x y z
#    x 4.030950 0.000000 0.000000 
#    y 0.000000 3.563280 0.000000 
#    z 0.000000 0.000000 3.934850 
# 
# 
# High freq. dielectric constant tensor:
#      x y z
#    x 1.814120 0.000000 0.000000 
#    y 0.000000 1.776190 0.000000 
#    z 0.000000 0.000000 1.815470 
# 
# From -- ./inp_files/24850.got.cif
#   From: 2010.03.12/outbox.cif.g09.slc.cpg/sg24_13_cif.got.tgz:24850.got - 2010.04.14 03:06:53.
