data_PCOD8165098
_publ_section_title
;
Structure prediction by ZEFSAII (Michael W. Deem and Ramdas Pophale) SiO2 
 PCOD8165098
Probable space group: I 21 21 21
;
_chemical_formula_sum "Si O2"
_cell_formula_units_Z 60
_cell_length_a 13.083082
_cell_length_b 9.221411
_cell_length_c 24.142925
_cell_angle_alpha 90.000000
_cell_angle_beta 90.000000
_cell_angle_gamma 90.000000
_cell_volume 2912.710542
_symmetry_space_group_name_H-M "I 21 21 21"
_symmetry_group_IT_number 24
_symmetry_cell_setting 'orthorhombic'
loop_
_space_group_symop_operation_xyz
x,y,z
-x,1/2-y,z
x,-y,1/2-z
1/2-x,y,-z
1/2+x,1/2+y,1/2+z
1/2-x,-y,1/2+z
1/2+x,1/2-y,-z
-x,1/2+y,1/2-z
loop_
_atom_site_type_symbol
_atom_site_label
_atom_site_fract_x
_atom_site_fract_y
_atom_site_fract_z
Si Si1 0.599667 0.344965 0.909489
Si Si2 0.163646 0.522465 0.598754
Si Si3 0.240875 0.776928 0.887459
Si Si4 0.062482 0.964043 0.918489
Si Si5 0.210700 0.025870 0.189908
Si Si6 0.086469 0.129408 0.461663
Si Si7 0.609840 0.707994 0.338216
Si Si8 0.750000 0.800220 0.500000
O O1 0.500000 0.250000 0.903582
O O2 0.657108 0.355075 0.850116
O O3 0.555658 0.505799 0.918357
O O4 0.676065 0.294245 0.959253
O O5 0.241805 0.397375 0.619282
O O6 0.166392 0.642040 0.647049
O O7 0.185924 0.592469 0.539154
O O8 0.056548 0.438993 0.591788
O O9 0.125424 0.836475 0.889206
O O10 0.304000 0.805339 0.944041
O O11 0.290958 0.864807 0.836623
O O12 0.092552 0.123826 0.896553
O O13 0.095768 0.957666 0.981660
O O14 0.322947 0.101027 0.200469
O O15 0.159145 0.000000 0.250000
O O16 0.000000 0.250000 0.463958
O O17 0.500000 0.750000 0.310491
#
# Coordination Sequence:
#
# PCOD8165098 Si02
#       8
#     8   8   8   8   8   8   8   4
#     4  11  25  43  67  96 130 172 228 271 341 418
#     4  11  21  34  58  90 127 163 207 253 322 398
#     4  10  23  36  56  86 126 161 214 264 325 382
#     4  10  20  34  54  86 123 172 198 249 318 398
#     4  10  22  46  67  88 126 177 224 279 335 384
#     4  11  23  34  54  85 126 167 206 256 318 389
#     4   9  19  38  61  86 120 159 214 262 318 395
#     4  12  24  38  64 102 136 176 206 274 340 422
#
# _framework density 20.599368999999999
#
# number of rings (size 3 to 8) (size 9 to 14) (size 15 to 20)
#    0.000    1.600    1.333    3.200    9.333    1.067 
#    0.000    7.333    0.000    0.000    0.000    0.000 
#    0.000    0.000    0.000    0.000    0.000    0.000 
#
# Total GULP energy -371644.389244 kJ/mol
# GULP energy per Si atom -12388.146308 kJ/mol
# Density = 2.055248 g / cm^3
# Si number density = 20.599369 Si / 1000 Ang^3
#
#
#
# Elastic Constant Matrix: (Units=GPa)
#
#
# Indices 1 2 3 4 5 6 
#
# 1 69.6808 35.3909 31.6693 0.0000 0.0000 0.0000
# 2 35.3909 116.5859 28.1024 0.0000 0.0000 0.0000
# 3 31.6693 28.1024 90.6540 0.0000 0.0000 0.0000
# 4 0.0000 0.0000 0.0000 19.6074 0.0000 0.0000
# 5 0.0000 0.0000 0.0000 0.0000 11.6327 0.0000
# 6 0.0000 0.0000 0.0000 0.0000 0.0000 28.9812
#
#
#
# Elastic Compliance Matrix: (Units=1/GPa)
#
#
# Indices 1 2 3 4 5 6 
#
# 1 0.019028 -0.004511 -0.005249 0.000000 0.000000 0.000000
# 2 -0.004511 0.010339 -0.001629 0.000000 0.000000 0.000000
# 3 -0.005249 -0.001629 0.013370 0.000000 0.000000 0.000000
# 4 0.000000 0.000000 0.000000 0.051001 0.000000 0.000000
# 5 0.000000 0.000000 0.000000 0.000000 0.085964 0.000000
# 6 0.000000 0.000000 0.000000 0.000000 0.000000 0.034505
#
#
# Mechanical properties :
#
#
# Convention : Reuss Voigt Hill
#
# Bulk Modulus (GPa) = 50.10333 51.91621 51.00977
# Shear Modulus (GPa) = 20.52218 24.16147 22.34183
#
# Velocity S-wave (km/s) = 3.15977 3.42851 3.29688
# Velocity P-wave (km/s) = 6.13904 6.39769 6.26970
#
# Compressibility (1/GPa) = 0.01995875
#
# Stress axis : x y z
#
# Youngs Moduli (GPa) = 52.55472 96.71711 74.79608
#
# Poissons Ratio (x) = 0.43628 0.39259
# Poissons Ratio (y) = 0.23707 0.12187
# Poissons Ratio (z) = 0.27585 0.15759
#
# Static dielectric constant tensor:
#      x y z
#    x 3.764310 0.000000 0.000000 
#    y 0.000000 3.895710 0.000000 
#    z 0.000000 0.000000 3.377380 
# 
# 
# High freq. dielectric constant tensor:
#      x y z
#    x 1.798850 0.000000 0.000000 
#    y 0.000000 1.823240 0.000000 
#    z 0.000000 0.000000 1.763360 
# 
# From -- ./inp_files/35816.got.cif
#   From: 2010.03.12/outbox.cif.g09.slc.cpg/sg24_18_cif.got.tgz:35816.got - 2010.04.14 03:06:53.
