data_PCOD8165483
_publ_section_title
;
Structure prediction by ZEFSAII (Michael W. Deem and Ramdas Pophale) SiO2 
 PCOD8165483
Probable space group: I 21 21 21
;
_chemical_formula_sum "Si O2"
_cell_formula_units_Z 64
_cell_length_a 9.890134
_cell_length_b 26.949940
_cell_length_c 11.749942
_cell_angle_alpha 90.000000
_cell_angle_beta 90.000000
_cell_angle_gamma 90.000000
_cell_volume 3131.812126
_symmetry_space_group_name_H-M "I 21 21 21"
_symmetry_group_IT_number 24
_symmetry_cell_setting 'orthorhombic'
loop_
_space_group_symop_operation_xyz
x,y,z
-x,1/2-y,z
x,-y,1/2-z
1/2-x,y,-z
1/2+x,1/2+y,1/2+z
1/2-x,-y,1/2+z
1/2+x,1/2-y,-z
-x,1/2+y,1/2-z
loop_
_atom_site_type_symbol
_atom_site_label
_atom_site_fract_x
_atom_site_fract_y
_atom_site_fract_z
Si Si1 0.399873 0.162528 0.505871
Si Si2 0.236376 0.823224 0.370347
Si Si3 0.592559 0.947727 0.191260
Si Si4 0.894972 0.550323 0.998986
Si Si5 0.615826 0.954583 0.833206
Si Si6 0.974587 0.152808 0.264488
Si Si7 0.262177 0.706252 0.367999
Si Si8 0.002896 0.345514 0.746110
O O1 0.250000 0.188560 0.500000
O O2 0.371765 0.105889 0.542832
O O3 0.488734 0.180552 0.614735
O O4 0.486741 0.168216 0.389280
O O5 0.250000 0.840587 0.500000
O O6 0.239364 0.764384 0.359858
O O7 0.354314 0.848391 0.297712
O O8 0.096546 0.843774 0.323551
O O9 0.732513 0.942467 0.118887
O O10 0.579213 0.898167 0.268268
O O11 0.598391 0.000000 0.250000
O O12 0.451092 0.947376 0.126839
O O13 0.011787 0.524489 0.073047
O O14 0.750000 0.521763 0.000000
O O15 0.559595 0.905209 0.774905
O O16 0.632148 0.000000 0.750000
O O17 0.847143 0.180273 0.211282
O O18 0.250000 0.688580 0.500000
O O19 0.409940 0.695143 0.314726
#
# Coordination Sequence:
#
# PCOD8165483 Si02
#       8
#     8   8   8   8   8   8   8   8
#     4   9  18  36  63  88 125 160 196 255 315 374
#     4  11  24  43  66  89 127 170 211 263 326 377
#     4  10  21  39  59  87 124 164 203 253 312 379
#     4   9  19  35  59  86 116 161 201 243 313 376
#     4  10  21  39  59  87 124 164 203 253 312 379
#     4  11  21  41  65  92 123 168 213 259 319 379
#     4  11  24  43  64  93 127 168 215 263 318 381
#     4  11  21  41  65  92 123 168 213 259 319 379
#
# _framework density 20.435452999999999
#
# number of rings (size 3 to 8) (size 9 to 14) (size 15 to 20)
#    0.000    1.750    2.500    1.875    1.750    3.000 
#    4.500    3.750    0.000    0.000    0.000    0.000 
#    0.000    0.000    0.000    0.000    0.000    0.000 
#
# Total GULP energy -396481.111544 kJ/mol
# GULP energy per Si atom -12390.034736 kJ/mol
# Density = 2.038894 g / cm^3
# Si number density = 20.435453 Si / 1000 Ang^3
#
#
#
# Elastic Constant Matrix: (Units=GPa)
#
#
# Indices 1 2 3 4 5 6 
#
# 1 108.2050 24.0525 18.3174 0.0010 0.0010 -0.0007
# 2 24.0525 55.9784 20.7627 0.0011 0.0002 -0.0003
# 3 18.3174 20.7627 101.6423 0.0005 0.0013 -0.0036
# 4 0.0010 0.0011 0.0005 17.3599 0.0003 -0.0003
# 5 0.0010 0.0002 0.0013 0.0003 28.3260 -0.0004
# 6 -0.0007 -0.0003 -0.0036 -0.0003 -0.0004 18.1792
#
#
#
# Elastic Compliance Matrix: (Units=1/GPa)
#
#
# Indices 1 2 3 4 5 6 
#
# 1 0.010317 -0.004050 -0.001032 0.000000 0.000000 0.000000
# 2 -0.004050 0.020918 -0.003543 -0.000001 0.000000 0.000000
# 3 -0.001032 -0.003543 0.010748 0.000000 0.000000 0.000002
# 4 0.000000 -0.000001 0.000000 0.057604 -0.000001 0.000001
# 5 0.000000 0.000000 0.000000 -0.000001 0.035303 0.000001
# 6 0.000000 0.000000 0.000002 0.000001 0.000001 0.055008
#
#
# Mechanical properties :
#
#
# Convention : Reuss Voigt Hill
#
# Bulk Modulus (GPa) = 40.43188 43.56567 41.99878
# Shear Modulus (GPa) = 23.21339 26.28590 24.74964
#
# Velocity S-wave (km/s) = 3.37402 3.59038 3.48388
# Velocity P-wave (km/s) = 5.91666 6.20908 6.06463
#
# Compressibility (1/GPa) = 0.02473296
#
# Stress axis : x y z
#
# Youngs Moduli (GPa) = 96.93039 47.80475 93.03916
#
# Poissons Ratio (x) = 0.19361 0.09601
# Poissons Ratio (y) = 0.39258 0.32965
# Poissons Ratio (z) = 0.10002 0.16938
#
# Static dielectric constant tensor:
#      x y z
#    x 4.340750 0.000000 0.000000 
#    y 0.000000 3.666800 0.000000 
#    z 0.000000 0.000000 3.812740 
# 
# 
# High freq. dielectric constant tensor:
#      x y z
#    x 1.826420 0.000000 0.000000 
#    y 0.000000 1.773170 0.000000 
#    z 0.000000 0.000000 1.792700 
# 
# From -- ./inp_files/11642.got.cif
#   From: 2010.03.12/outbox.cif.g09.slc.cpg/sg24_6_cif.got.tgz:11642.got - 2010.04.14 03:06:53.
