data_PCOD8165020
_publ_section_title
;
Structure prediction by ZEFSAII (Michael W. Deem and Ramdas Pophale) SiO2 
 PCOD8165020
Probable space group: I 21 21 21
;
_chemical_formula_sum "Si O2"
_cell_formula_units_Z 56
_cell_length_a 12.519326
_cell_length_b 15.670518
_cell_length_c 14.033433
_cell_angle_alpha 90.000000
_cell_angle_beta 90.000000
_cell_angle_gamma 90.000000
_cell_volume 2753.139559
_symmetry_space_group_name_H-M "I 21 21 21"
_symmetry_group_IT_number 24
_symmetry_cell_setting 'orthorhombic'
loop_
_space_group_symop_operation_xyz
x,y,z
-x,1/2-y,z
x,-y,1/2-z
1/2-x,y,-z
1/2+x,1/2+y,1/2+z
1/2-x,-y,1/2+z
1/2+x,1/2-y,-z
-x,1/2+y,1/2-z
loop_
_atom_site_type_symbol
_atom_site_label
_atom_site_fract_x
_atom_site_fract_y
_atom_site_fract_z
Si Si1 0.788585 0.109916 0.105064
Si Si2 0.471951 0.845930 0.105584
Si Si3 0.012651 0.923879 0.456391
Si Si4 0.189386 0.798778 0.401929
Si Si5 0.350623 0.916363 0.939716
Si Si6 0.281074 0.900638 0.232937
Si Si7 0.081463 0.508747 0.643783
O O1 0.809394 0.204754 0.148001
O O2 0.902411 0.063394 0.101292
O O3 0.700837 0.048771 0.155692
O O4 0.750000 0.127846 0.000000
O O5 0.500000 0.750000 0.129524
O O6 0.394623 0.874344 0.190499
O O7 0.574514 0.910894 0.103362
O O8 0.416676 0.847987 0.001690
O O9 0.070229 0.834962 0.426653
O O10 0.083451 0.999627 0.416406
O O11 0.990323 0.932352 0.571759
O O12 0.250000 0.797790 0.500000
O O13 0.258007 0.857400 0.332725
O O14 0.312938 0.873683 0.841186
O O15 0.250000 0.949395 0.000000
O O16 0.281204 0.000000 0.250000
O O17 0.032543 0.500000 0.750000
#
# Coordination Sequence:
#
# PCOD8165020 Si02
#       7
#     8   8   8   8   8   8   8
#     4   9  21  41  57  87 126 168 206 251 319 380
#     4  10  23  40  65  96 124 166 217 266 324 384
#     4  10  19  38  63  83 125 169 209 257 319 388
#     4  11  23  36  62  94 128 165 213 270 319 382
#     4   9  19  39  62  88 124 159 209 261 317 375
#     4  11  22  38  63  94 127 163 210 269 323 387
#     4  10  22  39  64  91 130 163 213 265 328 384
#
# _framework density 20.340413000000002
#
# number of rings (size 3 to 8) (size 9 to 14) (size 15 to 20)
#    0.000    2.000    1.429    1.286    8.000    0.000 
#    2.571   12.143    0.000    0.000    0.000    0.000 
#    0.000    0.000    0.000    0.000    0.000    0.000 
#
# Total GULP energy -346888.145135 kJ/mol
# GULP energy per Si atom -12388.862326 kJ/mol
# Density = 2.029412 g / cm^3
# Si number density = 20.340413 Si / 1000 Ang^3
#
#
#
# Elastic Constant Matrix: (Units=GPa)
#
#
# Indices 1 2 3 4 5 6 
#
# 1 95.8286 40.0779 20.6410 0.0000 0.0000 -0.0002
# 2 40.0779 111.6231 38.5434 -0.0003 0.0000 -0.0009
# 3 20.6410 38.5434 80.5500 -0.0004 0.0000 -0.0014
# 4 0.0000 -0.0003 -0.0004 -35.4361 0.0001 -0.0008
# 5 0.0000 0.0000 0.0000 0.0001 10.2995 0.0001
# 6 -0.0002 -0.0009 -0.0014 -0.0008 0.0001 87.7216
#
#
#
# Elastic Compliance Matrix: (Units=1/GPa)
#
#
# Indices 1 2 3 4 5 6 
#
# 1 0.012384 -0.004014 -0.001253 0.000000 0.000000 0.000000
# 2 -0.004014 0.012033 -0.004729 0.000000 0.000000 0.000000
# 3 -0.001253 -0.004729 0.014999 0.000000 0.000000 0.000000
# 4 0.000000 0.000000 0.000000 -0.028220 0.000000 0.000000
# 5 0.000000 0.000000 0.000000 0.000000 0.097092 0.000000
# 6 0.000000 0.000000 0.000000 0.000000 0.000000 0.011400
#
#
# Mechanical properties :
#
#
# Convention : Reuss Voigt Hill
#
# Bulk Modulus (GPa) = 51.48338 54.05850 52.77094
# Shear Modulus (GPa) = 34.21061 25.09963 29.65512
#
# Velocity S-wave (km/s) = 4.10555 3.51661 3.82244
# Velocity P-wave (km/s) = 6.91664 6.56684 6.74401
#
# Compressibility (1/GPa) = 0.01942375
#
# Stress axis : x y z
#
# Youngs Moduli (GPa) = 80.75068 83.10582 66.67286
#
# Poissons Ratio (x) = 0.33357 0.08352
# Poissons Ratio (y) = 0.32412 0.31531
# Poissons Ratio (z) = 0.10116 0.39303
#
# Static dielectric constant tensor:
#      x y z
#    x 4.788740 0.000000 -0.000010 
#    y 0.000000 3.723170 0.000000 
#    z -0.000010 0.000000 0.592350 
# 
# 
# High freq. dielectric constant tensor:
#      x y z
#    x 1.794380 0.000000 0.000000 
#    y 0.000000 1.784980 0.000000 
#    z 0.000000 0.000000 1.784170 
# 
# From -- ./inp_files/25812.got.cif
#   From: 2010.03.12/outbox.cif.g09.slc.cpg/sg24_13_cif.got.tgz:25812.got - 2010.04.14 03:06:53.
