data_PCOD8165632
_publ_section_title
;
Structure prediction by ZEFSAII (Michael W. Deem and Ramdas Pophale) SiO2 
 PCOD8165632
Probable space group: I 21 21 21
;
_chemical_formula_sum "Si O2"
_cell_formula_units_Z 48
_cell_length_a 9.783343
_cell_length_b 11.310103
_cell_length_c 23.824912
_cell_angle_alpha 90.000000
_cell_angle_beta 90.000000
_cell_angle_gamma 90.000000
_cell_volume 2636.241213
_symmetry_space_group_name_H-M "I 21 21 21"
_symmetry_group_IT_number 24
_symmetry_cell_setting 'orthorhombic'
loop_
_space_group_symop_operation_xyz
x,y,z
-x,1/2-y,z
x,-y,1/2-z
1/2-x,y,-z
1/2+x,1/2+y,1/2+z
1/2-x,-y,1/2+z
1/2+x,1/2-y,-z
-x,1/2+y,1/2-z
loop_
_atom_site_type_symbol
_atom_site_label
_atom_site_fract_x
_atom_site_fract_y
_atom_site_fract_z
Si Si1 0.285582 0.009152 0.663849
Si Si2 0.491470 0.608359 0.131390
Si Si3 0.521288 0.890964 0.895093
Si Si4 0.902733 0.139240 0.511769
Si Si5 0.260628 0.410273 0.702444
Si Si6 0.146416 0.812112 0.258360
O O1 0.382625 0.033667 0.611219
O O2 0.359532 0.087499 0.711391
O O3 0.133840 0.045890 0.645968
O O4 0.293003 0.872038 0.684637
O O5 0.500000 0.750000 0.133972
O O6 0.430528 0.569433 0.070234
O O7 0.388658 0.560511 0.178561
O O8 0.500000 0.750000 0.894360
O O9 0.632475 0.919842 0.848066
O O10 0.566264 0.938255 0.956432
O O11 0.750000 0.185784 0.500000
O O12 0.000000 0.250000 0.513992
O O13 0.307744 0.500000 0.750000
O O14 0.250235 0.283874 0.733100
O O15 0.000000 0.750000 0.268745
#
# Coordination Sequence:
#
# PCOD8165632 Si02
#       6
#     8   8   8   8   8   8
#     4  11  22  35  58  83 116 159 196 242 295 351
#     4  11  22  37  53  85 125 155 190 243 298 357
#     4  11  19  35  55  81 114 150 193 237 294 357
#     4  10  22  34  55  82 116 154 192 236 299 364
#     4  12  22  34  57  83 118 160 192 236 299 349
#     4  11  21  37  56  82 120 158 202 239 287 355
#
# _framework density 18.207740999999999
#
# number of rings (size 3 to 8) (size 9 to 14) (size 15 to 20)
#    0.000    1.000    6.667    1.000    9.333    0.000 
#    0.000    0.000    0.000    0.000    0.000   11.667 
#    0.000    0.000    0.000    0.000    0.000    0.000 
#
# Total GULP energy -297345.878103 kJ/mol
# GULP energy per Si atom -12389.411588 kJ/mol
# Density = 1.816630 g / cm^3
# Si number density = 18.207741 Si / 1000 Ang^3
#
#
#
# Elastic Constant Matrix: (Units=GPa)
#
#
# Indices 1 2 3 4 5 6 
#
# 1 151.6225 32.1164 55.0110 0.0000 0.0000 0.0000
# 2 32.1164 52.4082 43.8917 0.0000 0.0000 0.0000
# 3 55.0110 43.8917 125.0524 0.0000 0.0000 0.0000
# 4 0.0000 0.0000 0.0000 25.4081 0.0000 0.0000
# 5 0.0000 0.0000 0.0000 0.0000 5.5564 0.0000
# 6 0.0000 0.0000 0.0000 0.0000 0.0000 21.9062
#
#
#
# Elastic Compliance Matrix: (Units=1/GPa)
#
#
# Indices 1 2 3 4 5 6 
#
# 1 0.008131 -0.002814 -0.002589 0.000000 0.000000 0.000000
# 2 -0.002814 0.027999 -0.008589 0.000000 0.000000 0.000000
# 3 -0.002589 -0.008589 0.012150 0.000000 0.000000 0.000000
# 4 0.000000 0.000000 0.000000 0.039358 0.000000 0.000000
# 5 0.000000 0.000000 0.000000 0.000000 0.179973 0.000000
# 6 0.000000 0.000000 0.000000 0.000000 0.000000 0.045649
#
#
# Mechanical properties :
#
#
# Convention : Reuss Voigt Hill
#
# Bulk Modulus (GPa) = 49.27331 65.68016 57.47673
# Shear Modulus (GPa) = 14.36741 23.77840 19.07290
#
# Velocity S-wave (km/s) = 2.81211 3.61771 3.24005
# Velocity P-wave (km/s) = 6.13713 7.32130 6.75521
#
# Compressibility (1/GPa) = 0.02029496
#
# Stress axis : x y z
#
# Youngs Moduli (GPa) = 122.98949 35.71536 82.30290
#
# Poissons Ratio (x) = 0.10052 0.21308
# Poissons Ratio (y) = 0.34614 0.70692
# Poissons Ratio (z) = 0.31841 0.30677
#
# Static dielectric constant tensor:
#      x y z
#    x 3.471790 0.000000 0.000000 
#    y 0.000000 3.318890 0.000000 
#    z 0.000000 0.000000 4.132170 
# 
# 
# High freq. dielectric constant tensor:
#      x y z
#    x 1.721550 0.000000 0.000000 
#    y 0.000000 1.653230 0.000000 
#    z 0.000000 0.000000 1.714840 
# 
# From -- ./inp_files/11269.got.cif
#   From: 2010.03.12/outbox.cif.g09.slc.cpg/sg24_6_cif.got.tgz:11269.got - 2010.04.14 03:06:53.
