data_PCOD8165281
_publ_section_title
;
Structure prediction by ZEFSAII (Michael W. Deem and Ramdas Pophale) SiO2 
 PCOD8165281
Probable space group: I 21 21 21
;
_chemical_formula_sum "Si O2"
_cell_formula_units_Z 60
_cell_length_a 27.087542
_cell_length_b 12.434318
_cell_length_c 8.871262
_cell_angle_alpha 90.000000
_cell_angle_beta 90.000000
_cell_angle_gamma 90.000000
_cell_volume 2987.975096
_symmetry_space_group_name_H-M "I 21 21 21"
_symmetry_group_IT_number 24
_symmetry_cell_setting 'orthorhombic'
loop_
_space_group_symop_operation_xyz
x,y,z
-x,1/2-y,z
x,-y,1/2-z
1/2-x,y,-z
1/2+x,1/2+y,1/2+z
1/2-x,-y,1/2+z
1/2+x,1/2-y,-z
-x,1/2+y,1/2-z
loop_
_atom_site_type_symbol
_atom_site_label
_atom_site_fract_x
_atom_site_fract_y
_atom_site_fract_z
Si Si1 0.732794 0.387074 0.828775
Si Si2 0.910904 0.298811 0.865727
Si Si3 0.963592 0.835828 0.878129
Si Si4 0.136836 0.364338 0.454726
Si Si5 0.804030 0.932176 0.538818
Si Si6 0.186966 0.730587 0.780547
Si Si7 0.967242 0.500000 0.750000
Si Si8 0.353366 0.255204 0.858140
O O1 0.741719 0.500000 0.750000
O O2 0.762676 0.295290 0.737940
O O3 0.674771 0.355543 0.816073
O O4 0.750000 0.396213 0.000000
O O5 0.945454 0.209425 0.785546
O O6 0.856788 0.300061 0.792351
O O7 0.933688 0.417195 0.844738
O O8 0.902759 0.269814 0.042824
O O9 0.000000 0.750000 0.956444
O O10 0.996253 0.942100 0.865699
O O11 0.917950 0.859949 0.982563
O O12 0.154916 0.486332 0.477512
O O13 0.174408 0.285566 0.543188
O O14 0.132065 0.327363 0.283823
O O15 0.750000 0.978698 0.500000
O O16 0.809225 0.893202 0.713947
O O17 0.812104 0.819944 0.452260
#
# Coordination Sequence:
#
# PCOD8165281 Si02
#       8
#     8   8   8   8   8   8   4   8
#     4  12  25  43  62  88 126 180 220 269 300 375
#     4   9  20  39  66  88 120 163 198 276 316 377
#     4   9  21  43  64  92 120 154 214 273 312 394
#     4  11  25  35  67  97 127 171 205 261 325 401
#     4  11  21  40  62  91 135 176 212 256 316 379
#     4  10  21  40  61  88 129 168 224 258 305 368
#     4  10  20  38  72  96 108 154 230 260 328 382
#     4  11  23  43  57  95 138 163 210 260 328 376
#
# _framework density 20.080489
#
# number of rings (size 3 to 8) (size 9 to 14) (size 15 to 20)
#    0.000    1.600    4.000    0.800   10.267    1.067 
#    4.800    2.000    0.000    0.000    0.000    0.000 
#    0.000    0.000    0.000    0.000    0.000    0.000 
#
# Total GULP energy -371930.035621 kJ/mol
# GULP energy per Si atom -12397.667854 kJ/mol
# Density = 2.003479 g / cm^3
# Si number density = 20.080489 Si / 1000 Ang^3
#
#
#
# Elastic Constant Matrix: (Units=GPa)
#
#
# Indices 1 2 3 4 5 6 
#
# 1 112.4349 40.2610 24.9650 0.0000 0.0000 0.0000
# 2 40.2610 97.6863 17.0428 0.0000 0.0000 0.0000
# 3 24.9650 17.0428 70.7466 0.0000 0.0000 0.0000
# 4 0.0000 0.0000 0.0000 17.1810 0.0000 0.0000
# 5 0.0000 0.0000 0.0000 0.0000 27.0137 0.0000
# 6 0.0000 0.0000 0.0000 0.0000 0.0000 36.7408
#
#
#
# Elastic Compliance Matrix: (Units=1/GPa)
#
#
# Indices 1 2 3 4 5 6 
#
# 1 0.010978 -0.004017 -0.002906 0.000000 0.000000 0.000000
# 2 -0.004017 0.012156 -0.001511 0.000000 0.000000 0.000000
# 3 -0.002906 -0.001511 0.015524 0.000000 0.000000 0.000000
# 4 0.000000 0.000000 0.000000 0.058204 0.000000 0.000000
# 5 0.000000 0.000000 0.000000 0.000000 0.037018 0.000000
# 6 0.000000 0.000000 0.000000 0.000000 0.000000 0.027218
#
#
# Mechanical properties :
#
#
# Convention : Reuss Voigt Hill
#
# Bulk Modulus (GPa) = 45.89279 49.48949 47.69114
# Shear Modulus (GPa) = 26.99345 29.42703 28.21024
#
# Velocity S-wave (km/s) = 3.67040 3.83228 3.75221
# Velocity P-wave (km/s) = 6.39269 6.65439 6.52485
#
# Compressibility (1/GPa) = 0.02178991
#
# Stress axis : x y z
#
# Youngs Moduli (GPa) = 91.09217 82.26247 64.41484
#
# Poissons Ratio (x) = 0.33049 0.18719
# Poissons Ratio (y) = 0.36596 0.09731
# Poissons Ratio (z) = 0.26472 0.12428
#
# Static dielectric constant tensor:
#      x y z
#    x 3.680690 0.000000 0.000000 
#    y 0.000000 3.541480 0.000000 
#    z 0.000000 0.000000 3.641400 
# 
# 
# High freq. dielectric constant tensor:
#      x y z
#    x 1.783510 0.000000 0.000000 
#    y 0.000000 1.785910 0.000000 
#    z 0.000000 0.000000 1.768980 
# 
# From -- ./inp_files/16440.got.cif
#   From: 2010.03.12/outbox.cif.g09.slc.cpg/sg24_9_cif.got.tgz:16440.got - 2010.04.14 03:06:53.
