data_PCOD8165068
_publ_section_title
;
Structure prediction by ZEFSAII (Michael W. Deem and Ramdas Pophale) SiO2 
 PCOD8165068
Probable space group: I 21 21 21
;
_chemical_formula_sum "Si O2"
_cell_formula_units_Z 40
_cell_length_a 8.141149
_cell_length_b 12.017808
_cell_length_c 18.957603
_cell_angle_alpha 90.000000
_cell_angle_beta 90.000000
_cell_angle_gamma 90.000000
_cell_volume 1854.788476
_symmetry_space_group_name_H-M "I 21 21 21"
_symmetry_group_IT_number 24
_symmetry_cell_setting 'orthorhombic'
loop_
_space_group_symop_operation_xyz
x,y,z
-x,1/2-y,z
x,-y,1/2-z
1/2-x,y,-z
1/2+x,1/2+y,1/2+z
1/2-x,-y,1/2+z
1/2+x,1/2-y,-z
-x,1/2+y,1/2-z
loop_
_atom_site_type_symbol
_atom_site_label
_atom_site_fract_x
_atom_site_fract_y
_atom_site_fract_z
Si Si1 0.000000 0.250000 0.528657
Si Si2 0.876611 0.016242 0.861757
Si Si3 0.257403 0.658306 0.758323
Si Si4 0.299398 0.941989 0.077883
Si Si5 0.868446 0.395224 0.289324
Si Si6 0.750000 0.924638 0.000000
O O1 0.868628 0.315977 0.575435
O O2 0.907447 0.154504 0.483715
O O3 0.813648 0.124520 0.818988
O O4 0.853989 0.903910 0.815903
O O5 0.067734 0.024505 0.885507
O O6 0.770644 0.004136 0.932850
O O7 0.252813 0.790672 0.768567
O O8 0.444917 0.619240 0.765752
O O9 0.140259 0.925821 0.127479
O O10 0.250000 0.986619 0.000000
O O11 0.788771 0.500000 0.250000
#
# Coordination Sequence:
#
# PCOD8165068 Si02
#       6
#     4   8   8   8   8   4
#     4  10  20  34  54  98 136 168 212 284 344 378
#     4  10  22  40  59  95 135 179 213 274 344 408
#     4  10  23  42  62  94 137 176 224 270 351 404
#     4  11  24  37  60  99 137 170 227 281 347 397
#     4  11  23  40  67  96 128 179 230 281 328 409
#     4  10  20  32  62  88 130 172 218 276 332 398
#
# _framework density 21.565802000000001
#
# number of rings (size 3 to 8) (size 9 to 14) (size 15 to 20)
#    0.000    1.600    3.000    2.400    8.400    0.000 
#    0.000    0.000    2.200    0.000    0.000    0.000 
#    0.000    0.000    0.000    0.000    0.000    0.000 
#
# Total GULP energy -247822.760421 kJ/mol
# GULP energy per Si atom -12391.138021 kJ/mol
# Density = 2.151672 g / cm^3
# Si number density = 21.565802 Si / 1000 Ang^3
#
#
#
# Elastic Constant Matrix: (Units=GPa)
#
#
# Indices 1 2 3 4 5 6 
#
# 1 76.9731 24.6920 57.3507 0.0000 0.0000 0.0000
# 2 24.6920 93.4695 49.2424 0.0000 0.0000 0.0000
# 3 57.3507 49.2424 167.4946 0.0000 0.0000 0.0000
# 4 0.0000 0.0000 0.0000 21.4825 0.0000 0.0000
# 5 0.0000 0.0000 0.0000 0.0000 46.9557 0.0000
# 6 0.0000 0.0000 0.0000 0.0000 0.0000 18.2251
#
#
#
# Elastic Compliance Matrix: (Units=1/GPa)
#
#
# Indices 1 2 3 4 5 6 
#
# 1 0.017680 -0.001753 -0.005539 0.000000 0.000000 0.000000
# 2 -0.001753 0.012833 -0.003173 0.000000 0.000000 0.000000
# 3 -0.005539 -0.003173 0.008800 0.000000 0.000000 0.000000
# 4 0.000000 0.000000 0.000000 0.046549 0.000000 0.000000
# 5 0.000000 0.000000 0.000000 0.000000 0.021297 0.000000
# 6 0.000000 0.000000 0.000000 0.000000 0.000000 0.054869
#
#
# Mechanical properties :
#
#
# Convention : Reuss Voigt Hill
#
# Bulk Modulus (GPa) = 54.39205 66.72304 60.55755
# Shear Modulus (GPa) = 26.44313 31.10948 28.77630
#
# Velocity S-wave (km/s) = 3.50546 3.80220 3.65684
# Velocity P-wave (km/s) = 6.45449 7.09098 6.78021
#
# Compressibility (1/GPa) = 0.01838504
#
# Stress axis : x y z
#
# Youngs Moduli (GPa) = 56.55966 77.92292 113.64266
#
# Poissons Ratio (x) = 0.13658 0.62941
# Poissons Ratio (y) = 0.09914 0.36056
# Poissons Ratio (z) = 0.31326 0.24723
#
# Static dielectric constant tensor:
#      x y z
#    x 4.066480 0.000000 0.000000 
#    y 0.000000 3.755860 0.000000 
#    z 0.000000 0.000000 3.958680 
# 
# 
# High freq. dielectric constant tensor:
#      x y z
#    x 1.855870 0.000000 0.000000 
#    y 0.000000 1.806850 0.000000 
#    z 0.000000 0.000000 1.848630 
# 
# From -- ./inp_files/29271.got.cif
#   From: 2010.03.12/outbox.cif.g09.slc.cpg/sg24_15_cif.got.tgz:29271.got - 2010.04.14 03:06:53.
