data_PCOD8165453
_publ_section_title
;
Structure prediction by ZEFSAII (Michael W. Deem and Ramdas Pophale) SiO2 
 PCOD8165453
Probable space group: I 21 21 21
;
_chemical_formula_sum "Si O2"
_cell_formula_units_Z 32
_cell_length_a 12.259861
_cell_length_b 4.887309
_cell_length_c 25.435294
_cell_angle_alpha 90.000000
_cell_angle_beta 90.000000
_cell_angle_gamma 90.000000
_cell_volume 1524.025053
_symmetry_space_group_name_H-M "I 21 21 21"
_symmetry_group_IT_number 24
_symmetry_cell_setting 'orthorhombic'
loop_
_space_group_symop_operation_xyz
x,y,z
-x,1/2-y,z
x,-y,1/2-z
1/2-x,y,-z
1/2+x,1/2+y,1/2+z
1/2-x,-y,1/2+z
1/2+x,1/2-y,-z
-x,1/2+y,1/2-z
loop_
_atom_site_type_symbol
_atom_site_label
_atom_site_fract_x
_atom_site_fract_y
_atom_site_fract_z
Si Si1 0.370290 0.247761 0.452053
Si Si2 0.874876 0.247378 0.786751
Si Si3 0.072611 0.998717 0.446316
Si Si4 0.274100 0.232549 0.103617
O O1 0.500000 0.250000 0.454870
O O2 0.311672 0.533270 0.437784
O O3 0.342521 0.133075 0.511096
O O4 0.343583 0.037876 0.406353
O O5 0.844533 0.500000 0.750000
O O6 0.795687 0.197557 0.836068
O O7 0.000000 0.250000 0.806773
O O8 0.850193 0.000000 0.750000
O O9 0.146656 0.848378 0.402535
O O10 0.000000 0.750000 0.470955
O O11 0.000000 0.250000 0.422609
#
# Coordination Sequence:
#
# PCOD8165453 Si02
#       4
#     8   8   8   8
#     4  11  22  36  57  90 124 156 197 246 301 367
#     4  10  21  38  60  89 121 150 190 250 313 368
#     4  11  24  41  58  86 128 167 207 253 297 355
#     4  12  23  39  63  87 119 165 206 243 304 370
#
# _framework density 20.997028
#
# number of rings (size 3 to 8) (size 9 to 14) (size 15 to 20)
#    0.000    1.000    0.000    9.000    0.000    6.000 
#    0.000    0.000    0.000    3.000    0.000    0.000 
#    0.000    0.000    0.000    0.000    0.000    0.000 
#
# Total GULP energy -198287.576667 kJ/mol
# GULP energy per Si atom -12392.973542 kJ/mol
# Density = 2.094924 g / cm^3
# Si number density = 20.997028 Si / 1000 Ang^3
#
#
#
# Elastic Constant Matrix: (Units=GPa)
#
#
# Indices 1 2 3 4 5 6 
#
# 1 79.1760 54.8475 63.9313 0.0000 0.0000 0.0000
# 2 54.8475 147.2088 32.6692 0.0000 0.0000 0.0000
# 3 63.9313 32.6692 111.5788 0.0000 0.0000 0.0000
# 4 0.0000 0.0000 0.0000 41.6111 0.0000 0.0000
# 5 0.0000 0.0000 0.0000 0.0000 35.8943 0.0000
# 6 0.0000 0.0000 0.0000 0.0000 0.0000 44.0502
#
#
#
# Elastic Compliance Matrix: (Units=1/GPa)
#
#
# Indices 1 2 3 4 5 6 
#
# 1 0.030246 -0.007939 -0.015006 0.000000 0.000000 0.000000
# 2 -0.007939 0.009349 0.001812 0.000000 0.000000 0.000000
# 3 -0.015006 0.001812 0.017030 0.000000 0.000000 0.000000
# 4 0.000000 0.000000 0.000000 0.024032 0.000000 0.000000
# 5 0.000000 0.000000 0.000000 0.000000 0.027860 0.000000
# 6 0.000000 0.000000 0.000000 0.000000 0.000000 0.022701
#
#
# Mechanical properties :
#
#
# Convention : Reuss Voigt Hill
#
# Bulk Modulus (GPa) = 69.64531 71.20661 70.42596
# Shear Modulus (GPa) = 28.04729 36.74547 32.39638
#
# Velocity S-wave (km/s) = 3.65879 4.18788 3.93224
# Velocity P-wave (km/s) = 7.14774 7.57435 7.36413
#
# Compressibility (1/GPa) = 0.01435847
#
# Stress axis : x y z
#
# Youngs Moduli (GPa) = 33.06208 106.96317 58.72112
#
# Poissons Ratio (x) = 0.84919 0.88115
# Poissons Ratio (y) = 0.26248 -0.10638
# Poissons Ratio (z) = 0.49612 -0.19377
#
# Static dielectric constant tensor:
#      x y z
#    x 3.954040 0.000000 0.000000 
#    y 0.000000 3.952440 0.000000 
#    z 0.000000 0.000000 3.711990 
# 
# 
# High freq. dielectric constant tensor:
#      x y z
#    x 1.823470 0.000000 0.000000 
#    y 0.000000 1.853810 0.000000 
#    z 0.000000 0.000000 1.788660 
# 
# From -- ./inp_files/2168.got.cif
#   From: 2010.03.12/outbox.cif.g09.slc.cpg/sg24_2_cif.got.tgz:2168.got - 2010.04.14 03:06:53.
