data_PCOD8165101
_publ_section_title
;
Structure prediction by ZEFSAII (Michael W. Deem and Ramdas Pophale) SiO2 
 PCOD8165101
Probable space group: I 21 21 21
;
_chemical_formula_sum "Si O2"
_cell_formula_units_Z 56
_cell_length_a 21.782566
_cell_length_b 8.660527
_cell_length_c 14.421759
_cell_angle_alpha 90.000000
_cell_angle_beta 90.000000
_cell_angle_gamma 90.000000
_cell_volume 2720.643217
_symmetry_space_group_name_H-M "I 21 21 21"
_symmetry_group_IT_number 24
_symmetry_cell_setting 'orthorhombic'
loop_
_space_group_symop_operation_xyz
x,y,z
-x,1/2-y,z
x,-y,1/2-z
1/2-x,y,-z
1/2+x,1/2+y,1/2+z
1/2-x,-y,1/2+z
1/2+x,1/2-y,-z
-x,1/2+y,1/2-z
loop_
_atom_site_type_symbol
_atom_site_label
_atom_site_fract_x
_atom_site_fract_y
_atom_site_fract_z
Si Si1 0.856398 0.931633 0.845185
Si Si2 0.774407 0.895918 0.099304
Si Si3 0.714655 0.562361 0.847696
Si Si4 0.109974 0.569104 0.463480
Si Si5 0.112227 0.931630 0.464806
Si Si6 0.857800 0.568529 0.846961
Si Si7 0.998160 0.431919 0.351756
O O1 0.783321 0.969132 0.846667
O O2 0.869459 0.750459 0.850358
O O3 0.883553 0.000000 0.750000
O O4 0.889786 0.014736 0.930203
O O5 0.800431 0.745111 0.150856
O O6 0.827120 0.023881 0.089414
O O7 0.750000 0.836627 0.000000
O O8 0.689774 0.500000 0.750000
O O9 0.680362 0.473996 0.930360
O O10 0.786431 0.527926 0.859456
O O11 0.100813 0.750646 0.459485
O O12 0.053803 0.488288 0.414226
O O13 0.104184 0.988751 0.570448
O O14 0.065097 0.017800 0.398236
O O15 0.882369 0.500000 0.750000
O O16 0.004298 0.500000 0.250000
O O17 0.000000 0.250000 0.343955
#
# Coordination Sequence:
#
# PCOD8165101 Si02
#       7
#     8   8   8   8   8   8   8
#     4  10  20  37  60  88 123 158 195 240 292 348
#     4   9  19  36  56  83 121 160 198 241 291 344
#     4  10  20  34  56  86 120 159 199 240 291 346
#     4  11  24  39  59  88 119 156 197 242 294 349
#     4  12  23  39  61  87 120 154 197 243 292 348
#     4  10  21  37  60  89 120 157 197 241 292 347
#     4  12  26  46  67  87 115 152 196 243 292 344
#
# _framework density 20.583369000000001
#
# number of rings (size 3 to 8) (size 9 to 14) (size 15 to 20)
#    0.000    1.429    0.000    7.286    0.000    8.571 
#    0.000    0.714    0.000    0.000    0.000    0.000 
#    0.000    0.000    0.000    0.000    0.000    0.000 
#
# Total GULP energy -347334.835167 kJ/mol
# GULP energy per Si atom -12404.815542 kJ/mol
# Density = 2.053652 g / cm^3
# Si number density = 20.583369 Si / 1000 Ang^3
#
#
#
# Elastic Constant Matrix: (Units=GPa)
#
#
# Indices 1 2 3 4 5 6 
#
# 1 55.2849 43.9775 34.8474 0.0000 0.0000 0.0000
# 2 43.9775 161.2522 63.9153 0.0000 0.0000 0.0000
# 3 34.8474 63.9153 141.6857 0.0000 0.0000 0.0000
# 4 0.0000 0.0000 0.0000 42.3206 0.0000 0.0000
# 5 0.0000 0.0000 0.0000 0.0000 -100.9170 0.0000
# 6 0.0000 0.0000 0.0000 0.0000 0.0000 24.6253
#
#
#
# Elastic Compliance Matrix: (Units=1/GPa)
#
#
# Indices 1 2 3 4 5 6 
#
# 1 0.024580 -0.005245 -0.003679 0.000000 0.000000 0.000000
# 2 -0.005245 0.008671 -0.002622 0.000000 0.000000 0.000000
# 3 -0.003679 -0.002622 0.009145 0.000000 0.000000 0.000000
# 4 0.000000 0.000000 0.000000 0.023629 0.000000 0.000000
# 5 0.000000 0.000000 0.000000 0.000000 -0.009909 0.000000
# 6 0.000000 0.000000 0.000000 0.000000 0.000000 0.040609
#
#
# Mechanical properties :
#
#
# Convention : Reuss Voigt Hill
#
# Bulk Modulus (GPa) = 51.80213 71.52260 61.66237
# Shear Modulus (GPa) = 39.60359 7.57127 23.58743
#
# Velocity S-wave (km/s) = 4.39117 1.91998 3.38885
# Velocity P-wave (km/s) = 7.13662 6.30383 6.73312
#
# Compressibility (1/GPa) = 0.01930422
#
# Stress axis : x y z
#
# Youngs Moduli (GPa) = 40.68420 115.32635 109.34510
#
# Poissons Ratio (x) = 0.60490 0.40230
# Poissons Ratio (y) = 0.21339 0.28665
# Poissons Ratio (z) = 0.14969 0.30233
#
# Static dielectric constant tensor:
#      x y z
#    x 3.604340 0.000000 0.000000 
#    y 0.000000 3.733280 0.000000 
#    z 0.000000 0.000000 4.000920 
# 
# 
# High freq. dielectric constant tensor:
#      x y z
#    x 1.784110 0.000000 0.000000 
#    y 0.000000 1.814190 0.000000 
#    z 0.000000 0.000000 1.821510 
# 
# From -- ./inp_files/27538.got.cif
#   From: 2010.03.12/outbox.cif.g09.slc.cpg/sg24_14_cif.got.tgz:27538.got - 2010.04.14 03:06:53.
