data_PCOD8165677
_publ_section_title
;
Structure prediction by ZEFSAII (Michael W. Deem and Ramdas Pophale) SiO2 
 PCOD8165677
Probable space group: I 21 21 21
;
_chemical_formula_sum "Si O2"
_cell_formula_units_Z 32
_cell_length_a 11.132639
_cell_length_b 5.755947
_cell_length_c 22.769529
_cell_angle_alpha 90.000000
_cell_angle_beta 90.000000
_cell_angle_gamma 90.000000
_cell_volume 1459.045918
_symmetry_space_group_name_H-M "I 21 21 21"
_symmetry_group_IT_number 24
_symmetry_cell_setting 'orthorhombic'
loop_
_space_group_symop_operation_xyz
x,y,z
-x,1/2-y,z
x,-y,1/2-z
1/2-x,y,-z
1/2+x,1/2+y,1/2+z
1/2-x,-y,1/2+z
1/2+x,1/2-y,-z
-x,1/2+y,1/2-z
loop_
_atom_site_type_symbol
_atom_site_label
_atom_site_fract_x
_atom_site_fract_y
_atom_site_fract_z
Si Si1 0.640859 0.250968 0.153849
Si Si2 0.329765 0.624682 0.837674
Si Si3 0.716724 0.492191 0.565213
Si Si4 0.500000 0.250000 0.888978
Si Si5 0.283942 0.000000 0.750000
O O1 0.500000 0.250000 0.163058
O O2 0.673021 0.350910 0.089449
O O3 0.698978 0.435628 0.196874
O O4 0.700922 0.003449 0.168895
O O5 0.316439 0.766657 0.897541
O O6 0.439938 0.442329 0.845472
O O7 0.358010 0.782932 0.779155
O O8 0.750000 0.411703 0.500000
O O9 0.598524 0.650580 0.567015
#
# Coordination Sequence:
#
# PCOD8165677 Si02
#       5
#     8   8   8   4   4
#     4  10  23  40  67  99 132 170 219 269 335 402
#     4  10  22  43  67  98 137 173 223 275 340 395
#     4  10  23  42  68  98 132 172 220 276 336 396
#     4  10  22  44  70  90 142 174 224 276 332 404
#     4  10  22  38  70  98 136 170 218 274 336 400
#
# _framework density 21.932141999999999
#
# number of rings (size 3 to 8) (size 9 to 14) (size 15 to 20)
#    0.000    2.000    0.000    1.500    5.250    7.000 
#    4.500    0.000  198.000    0.000    0.000    0.000 
#    0.000    0.000    0.000    0.000    0.000    0.000 
#
# Total GULP energy -198283.652905 kJ/mol
# GULP energy per Si atom -12392.728307 kJ/mol
# Density = 2.188222 g / cm^3
# Si number density = 21.932142 Si / 1000 Ang^3
#
#
#
# Elastic Constant Matrix: (Units=GPa)
#
#
# Indices 1 2 3 4 5 6 
#
# 1 88.5588 37.3466 31.6479 0.0000 0.0000 0.0000
# 2 37.3466 125.1325 45.0091 0.0000 0.0000 0.0000
# 3 31.6479 45.0091 125.7255 0.0000 0.0000 0.0000
# 4 0.0000 0.0000 0.0000 24.8695 0.0000 0.0000
# 5 0.0000 0.0000 0.0000 0.0000 21.5787 0.0000
# 6 0.0000 0.0000 0.0000 0.0000 0.0000 10.9722
#
#
#
# Elastic Compliance Matrix: (Units=1/GPa)
#
#
# Indices 1 2 3 4 5 6 
#
# 1 0.013444 -0.003208 -0.002236 0.000000 0.000000 0.000000
# 2 -0.003208 0.009938 -0.002750 0.000000 0.000000 0.000000
# 3 -0.002236 -0.002750 0.009501 0.000000 0.000000 0.000000
# 4 0.000000 0.000000 0.000000 0.040210 0.000000 0.000000
# 5 0.000000 0.000000 0.000000 0.000000 0.046342 0.000000
# 6 0.000000 0.000000 0.000000 0.000000 0.000000 0.091139
#
#
# Mechanical properties :
#
#
# Convention : Reuss Voigt Hill
#
# Bulk Modulus (GPa) = 60.62417 63.04710 61.83564
# Shear Modulus (GPa) = 21.50896 26.51163 24.01030
#
# Velocity S-wave (km/s) = 3.13502 3.48056 3.31230
# Velocity P-wave (km/s) = 6.38797 6.70531 6.54856
#
# Compressibility (1/GPa) = 0.01649507
#
# Stress axis : x y z
#
# Youngs Moduli (GPa) = 74.38361 100.62072 105.25033
#
# Poissons Ratio (x) = 0.32282 0.23529
# Poissons Ratio (y) = 0.23864 0.28947
# Poissons Ratio (z) = 0.16629 0.27673
#
# Static dielectric constant tensor:
#      x y z
#    x 3.849440 0.000000 0.000000 
#    y 0.000000 4.094510 0.000000 
#    z 0.000000 0.000000 3.927430 
# 
# 
# High freq. dielectric constant tensor:
#      x y z
#    x 1.855600 0.000000 0.000000 
#    y 0.000000 1.880780 0.000000 
#    z 0.000000 0.000000 1.854350 
# 
# From -- ./inp_files/2024.got.cif
#   From: 2010.03.12/outbox.cif.g09.slc.cpg/sg24_2_cif.got.tgz:2024.got - 2010.04.14 03:06:53.
