data_PCOD8165728
_publ_section_title
;
Structure prediction by ZEFSAII (Michael W. Deem and Ramdas Pophale) SiO2 
 PCOD8165728
Probable space group: I 21 21 21
;
_chemical_formula_sum "Si O2"
_cell_formula_units_Z 36
_cell_length_a 19.730202
_cell_length_b 17.345053
_cell_length_c 4.898441
_cell_angle_alpha 90.000000
_cell_angle_beta 90.000000
_cell_angle_gamma 90.000000
_cell_volume 1676.351334
_symmetry_space_group_name_H-M "I 21 21 21"
_symmetry_group_IT_number 24
_symmetry_cell_setting 'orthorhombic'
loop_
_space_group_symop_operation_xyz
x,y,z
-x,1/2-y,z
x,-y,1/2-z
1/2-x,y,-z
1/2+x,1/2+y,1/2+z
1/2-x,-y,1/2+z
1/2+x,1/2-y,-z
-x,1/2+y,1/2-z
loop_
_atom_site_type_symbol
_atom_site_label
_atom_site_fract_x
_atom_site_fract_y
_atom_site_fract_z
Si Si1 0.414978 0.917813 0.830386
Si Si2 0.250000 0.450526 0.000000
Si Si3 0.643660 0.827194 0.351920
Si Si4 0.509562 0.917609 0.335033
Si Si5 0.822594 0.726579 0.135639
O O1 0.479145 0.912420 0.634532
O O2 0.357613 0.854167 0.798653
O O3 0.380220 0.000000 0.750000
O O4 0.446258 0.905343 0.130946
O O5 0.281799 0.500000 0.750000
O O6 0.191314 0.401872 0.851288
O O7 0.565799 0.852160 0.366976
O O8 0.675893 0.771589 0.579337
O O9 0.639034 0.782596 0.068426
O O10 0.542837 0.000000 0.250000
O O11 0.750000 0.710102 0.000000
#
# Coordination Sequence:
#
# PCOD8165728 Si02
#       5
#     8   4   8   8   8
#     4  10  23  43  66  93 125 166 217 276 331 387
#     4  12  24  40  62  92 128 176 220 250 310 388
#     4  12  24  41  64  94 132 173 213 267 332 386
#     4  10  22  41  64  95 129 164 217 270 322 394
#     4  12  24  43  64  92 134 170 216 274 326 392
#
# _framework density 21.475211000000002
#
# number of rings (size 3 to 8) (size 9 to 14) (size 15 to 20)
#    0.000    0.889    2.222    4.667    0.000    8.000 
#    0.000    5.556    0.000    0.000    0.000    0.000 
#    0.000    0.000    0.000    0.000    0.000    0.000 
#
# Total GULP energy -223016.419099 kJ/mol
# GULP energy per Si atom -12389.801061 kJ/mol
# Density = 2.142633 g / cm^3
# Si number density = 21.475211 Si / 1000 Ang^3
#
#
#
# Elastic Constant Matrix: (Units=GPa)
#
#
# Indices 1 2 3 4 5 6 
#
# 1 67.8273 51.1961 -13.3158 0.0000 0.0000 0.0000
# 2 51.1961 118.5393 6.5586 0.0000 0.0000 0.0000
# 3 -13.3158 6.5586 44.8044 0.0000 0.0000 0.0000
# 4 0.0000 0.0000 0.0000 38.5120 0.0000 0.0000
# 5 0.0000 0.0000 0.0000 0.0000 1.0482 0.0000
# 6 0.0000 0.0000 0.0000 0.0000 0.0000 49.6801
#
#
#
# Elastic Compliance Matrix: (Units=1/GPa)
#
#
# Indices 1 2 3 4 5 6 
#
# 1 0.025095 -0.011343 0.009119 0.000000 0.000000 0.000000
# 2 -0.011343 0.013632 -0.005367 0.000000 0.000000 0.000000
# 3 0.009119 -0.005367 0.025815 0.000000 0.000000 0.000000
# 4 0.000000 0.000000 0.000000 0.025966 0.000000 0.000000
# 5 0.000000 0.000000 0.000000 0.000000 0.953977 0.000000
# 6 0.000000 0.000000 0.000000 0.000000 0.000000 0.020129
#
#
# Mechanical properties :
#
#
# Convention : Reuss Voigt Hill
#
# Bulk Modulus (GPa) = 20.25924 35.56098 27.91011
# Shear Modulus (GPa) = 4.56101 30.29688 17.42894
#
# Velocity S-wave (km/s) = 1.45892 3.76012 2.85192
# Velocity P-wave (km/s) = 3.50602 5.95368 4.88562
#
# Compressibility (1/GPa) = 0.04936019
#
# Stress axis : x y z
#
# Youngs Moduli (GPa) = 39.84843 73.35767 38.73738
#
# Poissons Ratio (x) = 0.83209 -0.35323
# Poissons Ratio (y) = 0.45200 0.20789
# Poissons Ratio (z) = -0.36336 0.39368
#
# Static dielectric constant tensor:
#      x y z
#    x 3.505900 0.000000 0.000000 
#    y 0.000000 4.147260 0.000000 
#    z 0.000000 0.000000 3.964890 
# 
# 
# High freq. dielectric constant tensor:
#      x y z
#    x 1.829310 0.000000 0.000000 
#    y 0.000000 1.851620 0.000000 
#    z 0.000000 0.000000 1.864420 
# 
# From -- ./inp_files/5377.got.cif
#   From: 2010.03.12/outbox.cif.g09.slc.cpg/sg24_3_cif.got.tgz:5377.got - 2010.04.14 03:06:53.
