data_PCOD8165061
_publ_section_title
;
Structure prediction by ZEFSAII (Michael W. Deem and Ramdas Pophale) SiO2 
 PCOD8165061
Probable space group: I 21 21 21
;
_chemical_formula_sum "Si O2"
_cell_formula_units_Z 60
_cell_length_a 24.901103
_cell_length_b 8.626368
_cell_length_c 16.093858
_cell_angle_alpha 90.000000
_cell_angle_beta 90.000000
_cell_angle_gamma 90.000000
_cell_volume 3457.058518
_symmetry_space_group_name_H-M "I 21 21 21"
_symmetry_group_IT_number 24
_symmetry_cell_setting 'orthorhombic'
loop_
_space_group_symop_operation_xyz
x,y,z
-x,1/2-y,z
x,-y,1/2-z
1/2-x,y,-z
1/2+x,1/2+y,1/2+z
1/2-x,-y,1/2+z
1/2+x,1/2-y,-z
-x,1/2+y,1/2-z
loop_
_atom_site_type_symbol
_atom_site_label
_atom_site_fract_x
_atom_site_fract_y
_atom_site_fract_z
Si Si1 0.052281 0.673972 0.395202
Si Si2 0.748995 0.269091 0.383731
Si Si3 0.445961 0.683215 0.939235
Si Si4 0.917762 0.321586 0.268395
Si Si5 0.750000 0.452157 0.000000
Si Si6 0.806782 0.179494 0.232845
Si Si7 0.832040 0.787205 0.451365
Si Si8 0.666440 0.872255 0.004796
O O1 0.049939 0.492004 0.408244
O O2 0.051813 0.710642 0.297020
O O3 0.105765 0.752564 0.433573
O O4 0.000000 0.750000 0.438223
O O5 0.749008 0.446201 0.415607
O O6 0.755221 0.245304 0.284374
O O7 0.692988 0.189404 0.410432
O O8 0.799993 0.184961 0.425505
O O9 0.500000 0.750000 0.984581
O O10 0.439719 0.792662 0.859907
O O11 0.394451 0.693114 0.000055
O O12 0.929089 0.500000 0.250000
O O13 0.854908 0.285259 0.265725
O O14 0.695990 0.349288 0.002975
O O15 0.798346 0.197046 0.134432
O O16 0.819106 0.000000 0.250000
O O17 0.830364 0.942278 0.505924
#
# Coordination Sequence:
#
# PCOD8165061 Si02
#       8
#     8   8   8   8   4   8   8   8
#     4  10  21  33  46  67  94 133 171 207 244 288
#     4  10  20  32  52  68 102 130 170 207 252 303
#     4  11  20  32  49  66  94 130 174 210 245 299
#     4  11  21  30  45  65  99 131 167 209 244 287
#     4  10  22  32  48  76  98 136 166 210 262 298
#     4  11  20  33  51  74  96 136 173 213 244 299
#     4  10  20  33  53  69 104 132 174 207 249 307
#     4   9  18  34  49  68  93 136 166 202 257 297
#
# _framework density 17.355796000000002
#
# number of rings (size 3 to 8) (size 9 to 14) (size 15 to 20)
#    0.000    1.867    2.667    4.000    3.733    2.133 
#    0.000    0.000    0.000    0.000    0.000    0.000 
#    0.000    1.067    1.600    0.133    0.000    0.133 
#
# Total GULP energy -371897.483005 kJ/mol
# GULP energy per Si atom -12396.582767 kJ/mol
# Density = 1.731629 g / cm^3
# Si number density = 17.355796 Si / 1000 Ang^3
#
#
#
# Elastic Constant Matrix: (Units=GPa)
#
#
# Indices 1 2 3 4 5 6 
#
# 1 126.5651 47.0944 38.0071 0.0000 0.0000 0.0000
# 2 47.0944 87.6446 19.5584 0.0000 0.0000 0.0000
# 3 38.0071 19.5584 29.4915 0.0000 0.0000 0.0000
# 4 0.0000 0.0000 0.0000 16.1199 0.0000 0.0000
# 5 0.0000 0.0000 0.0000 0.0000 23.4250 0.0000
# 6 0.0000 0.0000 0.0000 0.0000 0.0000 31.9783
#
#
#
# Elastic Compliance Matrix: (Units=1/GPa)
#
#
# Indices 1 2 3 4 5 6 
#
# 1 0.014051 -0.004119 -0.015377 0.000000 0.000000 0.000000
# 2 -0.004119 0.014599 -0.004374 0.000000 0.000000 0.000000
# 3 -0.015377 -0.004374 0.056626 0.000000 0.000000 0.000000
# 4 0.000000 0.000000 0.000000 0.062035 0.000000 0.000000
# 5 0.000000 0.000000 0.000000 0.000000 0.042689 0.000000
# 6 0.000000 0.000000 0.000000 0.000000 0.000000 0.031271
#
#
# Mechanical properties :
#
#
# Convention : Reuss Voigt Hill
#
# Bulk Modulus (GPa) = 26.64046 50.33568 38.48807
# Shear Modulus (GPa) = 17.76049 23.57406 20.66727
#
# Velocity S-wave (km/s) = 3.20240 3.68949 3.45454
# Velocity P-wave (km/s) = 5.39043 6.87131 6.17542
#
# Compressibility (1/GPa) = 0.03753689
#
# Stress axis : x y z
#
# Youngs Moduli (GPa) = 71.16751 68.49835 17.65973
#
# Poissons Ratio (x) = 0.28213 0.27156
# Poissons Ratio (y) = 0.29312 0.07724
# Poissons Ratio (z) = 1.09435 0.29960
#
# Static dielectric constant tensor:
#      x y z
#    x 3.488570 0.000000 0.000000 
#    y 0.000000 3.306970 0.000000 
#    z 0.000000 0.000000 2.903750 
# 
# 
# High freq. dielectric constant tensor:
#      x y z
#    x 1.668720 0.000000 0.000000 
#    y 0.000000 1.686180 0.000000 
#    z 0.000000 0.000000 1.612220 
# 
# From -- ./inp_files/28128.got.cif
#   From: 2010.03.12/outbox.cif.g09.slc.cpg/sg24_15_cif.got.tgz:28128.got - 2010.04.14 03:06:53.
