data_PCOD8165870
_publ_section_title
;
Structure prediction by ZEFSAII (Michael W. Deem and Ramdas Pophale) SiO2 
 PCOD8165870
Probable space group: I 21 21 21
;
_chemical_formula_sum "Si O2"
_cell_formula_units_Z 32
_cell_length_a 19.254729
_cell_length_b 8.848270
_cell_length_c 8.129641
_cell_angle_alpha 90.000000
_cell_angle_beta 90.000000
_cell_angle_gamma 90.000000
_cell_volume 1385.055400
_symmetry_space_group_name_H-M "I 21 21 21"
_symmetry_group_IT_number 24
_symmetry_cell_setting 'orthorhombic'
loop_
_space_group_symop_operation_xyz
x,y,z
-x,1/2-y,z
x,-y,1/2-z
1/2-x,y,-z
1/2+x,1/2+y,1/2+z
1/2-x,-y,1/2+z
1/2+x,1/2-y,-z
-x,1/2+y,1/2-z
loop_
_atom_site_type_symbol
_atom_site_label
_atom_site_fract_x
_atom_site_fract_y
_atom_site_fract_z
Si Si1 0.573727 0.309617 0.563803
Si Si2 0.429743 0.830358 0.558098
Si Si3 0.302631 0.135403 0.137892
Si Si4 0.693009 0.873501 0.125908
O O1 0.500000 0.250000 0.501928
O O2 0.572881 0.488977 0.536465
O O3 0.584313 0.276027 0.756646
O O4 0.631483 0.217435 0.463969
O O5 0.500000 0.750000 0.494066
O O6 0.366860 0.773620 0.444182
O O7 0.265132 0.253892 0.259206
O O8 0.330650 0.000000 0.250000
O O9 0.250000 0.072914 0.000000
O O10 0.663132 0.000000 0.250000
O O11 0.750000 0.941449 0.000000
#
# Coordination Sequence:
#
# PCOD8165870 Si02
#       4
#     8   8   8   8
#     4  10  23  45  72 102 146 194 241 298 367 444
#     4  10  23  44  72 106 142 190 243 303 369 437
#     4  12  25  43  72 104 140 190 243 307 365 434
#     4  12  27  48  70 107 148 195 245 304 368 434
#
# _framework density 23.103769
#
# number of rings (size 3 to 8) (size 9 to 14) (size 15 to 20)
#    0.000    1.000    2.500    3.000    7.000    1.000 
#    4.500    0.000    0.000    0.000    0.000    0.000 
#    0.000    0.000    0.000    0.000    0.000    0.000 
#
# Total GULP energy -198294.817988 kJ/mol
# GULP energy per Si atom -12393.426124 kJ/mol
# Density = 2.305118 g / cm^3
# Si number density = 23.103769 Si / 1000 Ang^3
#
#
#
# Elastic Constant Matrix: (Units=GPa)
#
#
# Indices 1 2 3 4 5 6 
#
# 1 146.6168 43.2629 77.8938 0.0000 0.0000 0.0000
# 2 43.2629 93.9633 51.5757 0.0000 0.0000 0.0000
# 3 77.8938 51.5757 126.5762 0.0000 0.0000 0.0000
# 4 0.0000 0.0000 0.0000 42.7580 0.0000 0.0000
# 5 0.0000 0.0000 0.0000 0.0000 29.8883 0.0000
# 6 0.0000 0.0000 0.0000 0.0000 0.0000 34.2947
#
#
#
# Elastic Compliance Matrix: (Units=1/GPa)
#
#
# Indices 1 2 3 4 5 6 
#
# 1 0.010324 -0.001631 -0.005689 0.000000 0.000000 0.000000
# 2 -0.001631 0.013966 -0.004687 0.000000 0.000000 0.000000
# 3 -0.005689 -0.004687 0.013311 0.000000 0.000000 0.000000
# 4 0.000000 0.000000 0.000000 0.023387 0.000000 0.000000
# 5 0.000000 0.000000 0.000000 0.000000 0.033458 0.000000
# 6 0.000000 0.000000 0.000000 0.000000 0.000000 0.029159
#
#
# Mechanical properties :
#
#
# Convention : Reuss Voigt Hill
#
# Bulk Modulus (GPa) = 73.59642 79.18012 76.38827
# Shear Modulus (GPa) = 32.86270 34.34980 33.60625
#
# Velocity S-wave (km/s) = 3.77556 3.86004 3.81803
# Velocity P-wave (km/s) = 7.13655 7.36291 7.25061
#
# Compressibility (1/GPa) = 0.01358762
#
# Stress axis : x y z
#
# Youngs Moduli (GPa) = 96.86128 71.60224 75.12579
#
# Poissons Ratio (x) = 0.11678 0.42737
# Poissons Ratio (y) = 0.15797 0.35212
# Poissons Ratio (z) = 0.55102 0.33560
#
# Static dielectric constant tensor:
#      x y z
#    x 4.029460 0.000000 0.000000 
#    y 0.000000 4.154410 0.000000 
#    z 0.000000 0.000000 4.489290 
# 
# 
# High freq. dielectric constant tensor:
#      x y z
#    x 1.902980 0.000000 0.000000 
#    y 0.000000 1.913640 0.000000 
#    z 0.000000 0.000000 1.934950 
# 
# From -- ./inp_files/14771.got.cif
#   From: 2010.03.12/outbox.cif.g09.slc.cpg/sg24_8_cif.got.tgz:14771.got - 2010.04.14 03:06:53.
