data_PCOD8165646
_publ_section_title
;
Structure prediction by ZEFSAII (Michael W. Deem and Ramdas Pophale) SiO2 
 PCOD8165646
Probable space group: I 21 21 21
;
_chemical_formula_sum "Si O2"
_cell_formula_units_Z 36
_cell_length_a 9.496060
_cell_length_b 7.806679
_cell_length_c 21.505199
_cell_angle_alpha 90.000000
_cell_angle_beta 90.000000
_cell_angle_gamma 90.000000
_cell_volume 1594.238298
_symmetry_space_group_name_H-M "I 21 21 21"
_symmetry_group_IT_number 24
_symmetry_cell_setting 'orthorhombic'
loop_
_space_group_symop_operation_xyz
x,y,z
-x,1/2-y,z
x,-y,1/2-z
1/2-x,y,-z
1/2+x,1/2+y,1/2+z
1/2-x,-y,1/2+z
1/2+x,1/2-y,-z
-x,1/2+y,1/2-z
loop_
_atom_site_type_symbol
_atom_site_label
_atom_site_fract_x
_atom_site_fract_y
_atom_site_fract_z
Si Si1 0.654193 0.680689 0.438427
Si Si2 0.126003 0.363896 0.300481
Si Si3 0.392794 0.402732 0.912295
Si Si4 0.250000 0.372675 0.500000
Si Si5 0.149625 0.819975 0.879501
O O1 0.500000 0.750000 0.456582
O O2 0.750000 0.640170 0.500000
O O3 0.735647 0.828775 0.399427
O O4 0.646660 0.522661 0.390696
O O5 0.183397 0.500000 0.250000
O O6 0.060071 0.470941 0.357756
O O7 0.246757 0.235046 0.323774
O O8 0.000000 0.250000 0.271457
O O9 0.500000 0.250000 0.921165
O O10 0.381796 0.509700 0.977036
O O11 0.194795 0.259731 0.555522
O O12 0.000000 0.750000 0.858217
#
# Coordination Sequence:
#
# PCOD8165646 Si02
#       5
#     8   8   8   4   8
#     4  12  24  40  63  97 142 184 222 269 332 409
#     4  11  25  48  72  99 133 178 235 294 346 408
#     4  11  23  39  64  99 133 181 227 277 336 407
#     4  10  22  36  62  98 144 176 220 268 338 410
#     4  11  25  43  67 103 141 184 228 284 341 409
#
# _framework density 22.581316000000001
#
# number of rings (size 3 to 8) (size 9 to 14) (size 15 to 20)
#    0.000    0.889    2.222    5.333    3.111    3.556 
#    0.000    4.444    0.000    0.000    0.000    0.000 
#    0.000    0.000    0.000    0.000    0.000    0.000 
#
# Total GULP energy -223151.111914 kJ/mol
# GULP energy per Si atom -12397.283995 kJ/mol
# Density = 2.252992 g / cm^3
# Si number density = 22.581316 Si / 1000 Ang^3
#
#
#
# Elastic Constant Matrix: (Units=GPa)
#
#
# Indices 1 2 3 4 5 6 
#
# 1 138.1750 35.8432 22.8809 0.0000 0.0000 0.0000
# 2 35.8432 103.3134 25.1172 0.0000 0.0000 0.0000
# 3 22.8809 25.1172 76.6664 0.0000 0.0000 0.0000
# 4 0.0000 0.0000 0.0000 47.1703 0.0000 0.0000
# 5 0.0000 0.0000 0.0000 0.0000 20.6920 0.0000
# 6 0.0000 0.0000 0.0000 0.0000 0.0000 41.7381
#
#
#
# Elastic Compliance Matrix: (Units=1/GPa)
#
#
# Indices 1 2 3 4 5 6 
#
# 1 0.008137 -0.002426 -0.001634 0.000000 0.000000 0.000000
# 2 -0.002426 0.011240 -0.002958 0.000000 0.000000 0.000000
# 3 -0.001634 -0.002958 0.014500 0.000000 0.000000 0.000000
# 4 0.000000 0.000000 0.000000 0.021200 0.000000 0.000000
# 5 0.000000 0.000000 0.000000 0.000000 0.048328 0.000000
# 6 0.000000 0.000000 0.000000 0.000000 0.000000 0.023959
#
#
# Mechanical properties :
#
#
# Convention : Reuss Voigt Hill
#
# Bulk Modulus (GPa) = 50.39960 53.98195 52.19077
# Shear Modulus (GPa) = 33.78058 37.54097 35.66077
#
# Velocity S-wave (km/s) = 3.87195 4.08177 3.97825
# Velocity P-wave (km/s) = 6.50822 6.79500 6.65315
#
# Compressibility (1/GPa) = 0.01984143
#
# Stress axis : x y z
#
# Youngs Moduli (GPa) = 122.89526 88.96678 68.96379
#
# Poissons Ratio (x) = 0.21582 0.11267
# Poissons Ratio (y) = 0.29812 0.20403
# Poissons Ratio (z) = 0.20078 0.26321
#
# Static dielectric constant tensor:
#      x y z
#    x -18.259170 0.000000 0.000000 
#    y 0.000000 4.526180 0.000000 
#    z 0.000000 0.000000 3.790220 
# 
# 
# High freq. dielectric constant tensor:
#      x y z
#    x 1.890340 0.000000 0.000000 
#    y 0.000000 1.916110 0.000000 
#    z 0.000000 0.000000 1.858170 
# 
# From -- ./inp_files/9046.got.cif
#   From: 2010.03.12/outbox.cif.g09.slc.cpg/sg24_5_cif.got.tgz:9046.got - 2010.04.14 03:06:53.
