data_PCOD8165896
_publ_section_title
;
Structure prediction by ZEFSAII (Michael W. Deem and Ramdas Pophale) SiO2 
 PCOD8165896
Probable space group: I 21 21 21
;
_chemical_formula_sum "Si O2"
_cell_formula_units_Z 36
_cell_length_a 22.158128
_cell_length_b 5.022609
_cell_length_c 14.635898
_cell_angle_alpha 90.000000
_cell_angle_beta 90.000000
_cell_angle_gamma 90.000000
_cell_volume 1628.852698
_symmetry_space_group_name_H-M "I 21 21 21"
_symmetry_group_IT_number 24
_symmetry_cell_setting 'orthorhombic'
loop_
_space_group_symop_operation_xyz
x,y,z
-x,1/2-y,z
x,-y,1/2-z
1/2-x,y,-z
1/2+x,1/2+y,1/2+z
1/2-x,-y,1/2+z
1/2+x,1/2-y,-z
-x,1/2+y,1/2-z
loop_
_atom_site_type_symbol
_atom_site_label
_atom_site_fract_x
_atom_site_fract_y
_atom_site_fract_z
Si Si1 0.113145 0.500000 0.250000
Si Si2 0.656131 0.075699 0.453554
Si Si3 0.069330 0.709653 0.432651
Si Si4 0.330760 0.127395 0.622810
Si Si5 0.799316 0.569020 0.646164
O O1 0.071453 0.548147 0.337523
O O2 0.155199 0.245216 0.275513
O O3 0.590055 0.961877 0.478943
O O4 0.687796 0.870640 0.384425
O O5 0.685053 0.120319 0.555471
O O6 0.657439 0.367535 0.408810
O O7 0.000000 0.750000 0.454370
O O8 0.111768 0.969685 0.419578
O O9 0.271317 0.951748 0.624677
O O10 0.813939 0.500000 0.750000
#
# Coordination Sequence:
#
# PCOD8165896 Si02
#       5
#     4   8   8   8   8
#     4  10  24  38  68 102 144 188 230 268 344 410
#     4  11  26  44  70 102 135 186 225 282 347 408
#     4  11  25  44  68 100 142 188 233 279 336 419
#     4  11  25  43  68 104 146 182 229 277 353 416
#     4  12  26  44  72 104 143 172 233 289 350 409
#
# _framework density 22.101447
#
# number of rings (size 3 to 8) (size 9 to 14) (size 15 to 20)
#    0.000    0.889    2.222    3.333   15.556    2.667 
#    0.000    0.000    0.000    2.667    0.000    0.000 
#    0.000    0.000    0.000    0.000    0.000    0.000 
#
# Total GULP energy -223015.388325 kJ/mol
# GULP energy per Si atom -12389.743796 kJ/mol
# Density = 2.205114 g / cm^3
# Si number density = 22.101447 Si / 1000 Ang^3
#
#
#
# Elastic Constant Matrix: (Units=GPa)
#
#
# Indices 1 2 3 4 5 6 
#
# 1 104.3305 19.8949 43.9044 0.0000 0.0000 0.0000
# 2 19.8949 82.7575 7.2229 0.0000 0.0000 0.0000
# 3 43.9044 7.2229 74.0500 0.0000 0.0000 0.0000
# 4 0.0000 0.0000 0.0000 42.0415 0.0000 0.0000
# 5 0.0000 0.0000 0.0000 0.0000 19.9089 0.0000
# 6 0.0000 0.0000 0.0000 0.0000 0.0000 25.2534
#
#
#
# Elastic Compliance Matrix: (Units=1/GPa)
#
#
# Indices 1 2 3 4 5 6 
#
# 1 0.013275 -0.002526 -0.007624 0.000000 0.000000 0.000000
# 2 -0.002526 0.012668 0.000262 0.000000 0.000000 0.000000
# 3 -0.007624 0.000262 0.017999 0.000000 0.000000 0.000000
# 4 0.000000 0.000000 0.000000 0.023786 0.000000 0.000000
# 5 0.000000 0.000000 0.000000 0.000000 0.050229 0.000000
# 6 0.000000 0.000000 0.000000 0.000000 0.000000 0.039599
#
#
# Mechanical properties :
#
#
# Convention : Reuss Voigt Hill
#
# Bulk Modulus (GPa) = 41.38115 44.79805 43.08960
# Shear Modulus (GPa) = 26.97051 30.11515 28.54283
#
# Velocity S-wave (km/s) = 3.49708 3.69533 3.59757
# Velocity P-wave (km/s) = 5.92199 6.20649 6.06591
#
# Compressibility (1/GPa) = 0.02416559
#
# Stress axis : x y z
#
# Youngs Moduli (GPa) = 75.32895 78.93997 55.55748
#
# Poissons Ratio (x) = 0.19939 0.42360
# Poissons Ratio (y) = 0.19027 -0.01455
# Poissons Ratio (z) = 0.57434 -0.02068
#
# Static dielectric constant tensor:
#      x y z
#    x 3.649110 0.000000 0.000000 
#    y 0.000000 4.249290 0.000000 
#    z 0.000000 0.000000 4.311020 
# 
# 
# High freq. dielectric constant tensor:
#      x y z
#    x 1.831780 0.000000 0.000000 
#    y 0.000000 1.891410 0.000000 
#    z 0.000000 0.000000 1.876940 
# 
# From -- ./inp_files/23620.got.cif
#   From: 2010.03.12/outbox.cif.g09.slc.cpg/sg24_12_cif.got.tgz:23620.got - 2010.04.14 03:06:53.
