data_PCOD8165755
_publ_section_title
;
Structure prediction by ZEFSAII (Michael W. Deem and Ramdas Pophale) SiO2 
 PCOD8165755
Probable space group: I 21 21 21
;
_chemical_formula_sum "Si O2"
_cell_formula_units_Z 56
_cell_length_a 30.965234
_cell_length_b 16.265141
_cell_length_c 5.252710
_cell_angle_alpha 90.000000
_cell_angle_beta 90.000000
_cell_angle_gamma 90.000000
_cell_volume 2645.547862
_symmetry_space_group_name_H-M "I 21 21 21"
_symmetry_group_IT_number 24
_symmetry_cell_setting 'orthorhombic'
loop_
_space_group_symop_operation_xyz
x,y,z
-x,1/2-y,z
x,-y,1/2-z
1/2-x,y,-z
1/2+x,1/2+y,1/2+z
1/2-x,-y,1/2+z
1/2+x,1/2-y,-z
-x,1/2+y,1/2-z
loop_
_atom_site_type_symbol
_atom_site_label
_atom_site_fract_x
_atom_site_fract_y
_atom_site_fract_z
Si Si1 0.930775 0.371201 0.531474
Si Si2 0.198872 0.547085 0.501429
Si Si3 0.153169 0.884737 0.637185
Si Si4 0.618984 0.500000 0.750000
Si Si5 0.479406 0.449135 0.490518
Si Si6 0.721762 0.500000 0.250000
Si Si7 0.143969 0.703924 0.500187
Si Si8 0.588572 0.191896 0.505135
O O1 0.894342 0.378600 0.744743
O O2 0.912227 0.422503 0.297162
O O3 0.938011 0.276446 0.459376
O O4 0.976430 0.408783 0.614475
O O5 0.181119 0.500000 0.750000
O O6 0.250000 0.549323 0.500000
O O7 0.183162 0.640529 0.519379
O O8 0.181256 0.500000 0.250000
O O9 0.193473 0.915325 0.807351
O O10 0.163266 0.796384 0.510866
O O11 0.151249 0.965763 0.460171
O O12 0.486879 0.500000 0.750000
O O13 0.444317 0.381058 0.554706
O O14 0.461385 0.500000 0.250000
O O15 0.750000 0.515866 0.500000
O O16 0.109897 0.687026 0.726207
O O17 0.124225 0.688829 0.223333
#
# Coordination Sequence:
#
# PCOD8165755 Si02
#       8
#     8   8   8   4   8   4   8   8
#     4  11  23  41  67  95 123 176 228 271 316 381
#     4  10  22  42  68  95 123 163 218 265 308 381
#     4  11  24  41  67  95 131 170 226 263 323 403
#     4  12  17  40  70  90 122 168 232 262 304 383
#     4  12  26  42  64  96 131 174 221 271 333 387
#     4  12  27  42  64  98 138 174 212 276 340 385
#     4  11  24  43  67  96 127 174 208 263 335 391
#     4  11  25  42  63  97 136 165 215 274 331 385
#
# _framework density 21.167638
#
# number of rings (size 3 to 8) (size 9 to 14) (size 15 to 20)
#    0.000    0.857    3.571    3.429    0.000    4.000 
#    0.000    5.000    0.000    0.000    0.000    0.000 
#    0.000    0.000    0.000    0.000    0.000    0.000 
#
# Total GULP energy -347049.527954 kJ/mol
# GULP energy per Si atom -12394.625998 kJ/mol
# Density = 2.111946 g / cm^3
# Si number density = 21.167638 Si / 1000 Ang^3
#
#
#
# Elastic Constant Matrix: (Units=GPa)
#
#
# Indices 1 2 3 4 5 6 
#
# 1 59.1938 58.8356 18.9581 0.0000 0.0001 0.0000
# 2 58.8356 144.1211 34.0411 0.0001 -0.0005 0.0001
# 3 18.9581 34.0411 100.6879 0.0002 -0.0020 0.0008
# 4 0.0000 0.0001 0.0002 34.5807 -0.0004 -0.0001
# 5 0.0001 -0.0005 -0.0020 -0.0004 12.4513 0.0007
# 6 0.0000 0.0001 0.0008 -0.0001 0.0007 34.2998
#
#
#
# Elastic Compliance Matrix: (Units=1/GPa)
#
#
# Indices 1 2 3 4 5 6 
#
# 1 0.028655 -0.011328 -0.001565 0.000000 -0.000001 0.000000
# 2 -0.011328 0.012019 -0.001931 0.000000 0.000000 0.000000
# 3 -0.001565 -0.001931 0.010879 0.000000 0.000002 0.000000
# 4 0.000000 0.000000 0.000000 0.028918 0.000001 0.000000
# 5 -0.000001 0.000000 0.000002 0.000001 0.080313 -0.000002
# 6 0.000000 0.000000 0.000000 0.000000 -0.000002 0.029155
#
#
# Mechanical properties :
#
#
# Convention : Reuss Voigt Hill
#
# Bulk Modulus (GPa) = 45.65230 58.63028 52.14129
# Shear Modulus (GPa) = 22.03731 29.07755 25.55743
#
# Velocity S-wave (km/s) = 3.23008 3.71034 3.47851
# Velocity P-wave (km/s) = 5.96029 6.79071 6.38901
#
# Compressibility (1/GPa) = 0.02190470
#
# Stress axis : x y z
#
# Youngs Moduli (GPa) = 34.89836 83.20029 91.91921
#
# Poissons Ratio (x) = 0.94251 0.14389
# Poissons Ratio (y) = 0.39533 0.17746
# Poissons Ratio (z) = 0.05463 0.16062
#
# Static dielectric constant tensor:
#      x y z
#    x 3.706890 0.000000 0.000000 
#    y 0.000000 5.576270 0.000040 
#    z 0.000000 0.000040 3.960110 
# 
# 
# High freq. dielectric constant tensor:
#      x y z
#    x 1.821740 0.000000 0.000000 
#    y 0.000000 1.847240 0.000000 
#    z 0.000000 0.000000 1.834010 
# 
# From -- ./inp_files/7755.got.cif
#   From: 2010.03.12/outbox.cif.g09.slc.cpg/sg24_4_cif.got.tgz:7755.got - 2010.04.14 03:06:53.
