data_PCOD8165277
_publ_section_title
;
Structure prediction by ZEFSAII (Michael W. Deem and Ramdas Pophale) SiO2 
 PCOD8165277
Probable space group: I 21 21 21
;
_chemical_formula_sum "Si O2"
_cell_formula_units_Z 64
_cell_length_a 15.036836
_cell_length_b 12.186761
_cell_length_c 16.644359
_cell_angle_alpha 90.000000
_cell_angle_beta 90.000000
_cell_angle_gamma 90.000000
_cell_volume 3050.084222
_symmetry_space_group_name_H-M "I 21 21 21"
_symmetry_group_IT_number 24
_symmetry_cell_setting 'orthorhombic'
loop_
_space_group_symop_operation_xyz
x,y,z
-x,1/2-y,z
x,-y,1/2-z
1/2-x,y,-z
1/2+x,1/2+y,1/2+z
1/2-x,-y,1/2+z
1/2+x,1/2-y,-z
-x,1/2+y,1/2-z
loop_
_atom_site_type_symbol
_atom_site_label
_atom_site_fract_x
_atom_site_fract_y
_atom_site_fract_z
Si Si1 0.151597 0.337703 0.925729
Si Si2 0.604088 0.237667 0.771123
Si Si3 0.156315 0.658411 0.099659
Si Si4 0.662709 0.914296 0.596395
Si Si5 0.142167 0.298832 0.576608
Si Si6 0.148807 0.919967 0.836522
Si Si7 0.229801 0.862911 0.672197
Si Si8 0.044840 0.492637 0.661907
O O1 0.230527 0.424560 0.908814
O O2 0.182975 0.219643 0.891725
O O3 0.066649 0.393032 0.883660
O O4 0.131626 0.335190 0.021973
O O5 0.500000 0.250000 0.789580
O O6 0.618395 0.224156 0.675846
O O7 0.634451 0.129144 0.816956
O O8 0.666547 0.334425 0.808382
O O9 0.120141 0.534358 0.093775
O O10 0.262421 0.656256 0.102357
O O11 0.123228 0.713043 0.017931
O O12 0.133043 0.172023 0.598325
O O13 0.072045 0.380256 0.617473
O O14 0.174393 0.857078 0.754721
O O15 0.060622 0.992343 0.828035
O O16 0.224681 0.010941 0.860255
O O17 0.089946 0.500000 0.750000
#
# Coordination Sequence:
#
# PCOD8165277 Si02
#       8
#     8   8   8   8   8   8   8   8
#     4  10  20  38  69  96 127 168 210 277 334 380
#     4  11  25  44  70  96 120 173 228 283 334 392
#     4  11  21  42  68  95 127 168 218 282 340 380
#     4  10  20  43  65  99 126 156 220 285 347 377
#     4  11  22  39  66  98 132 174 218 271 320 399
#     4  11  23  43  59  94 141 186 204 251 326 406
#     4  10  22  45  66  88 139 174 216 263 329 408
#     4  12  22  34  64 101 131 166 225 262 318 390
#
# _framework density 20.983027
#
# number of rings (size 3 to 8) (size 9 to 14) (size 15 to 20)
#    0.000    1.250    5.000    2.250    1.750    1.500 
#    6.750    5.000    0.000    0.000    0.000    0.000 
#    0.000    0.000    0.000    0.000    0.000    0.000 
#
# Total GULP energy -396548.505598 kJ/mol
# GULP energy per Si atom -12392.140800 kJ/mol
# Density = 2.093527 g / cm^3
# Si number density = 20.983027 Si / 1000 Ang^3
#
#
#
# Elastic Constant Matrix: (Units=GPa)
#
#
# Indices 1 2 3 4 5 6 
#
# 1 90.2702 13.6842 21.9612 0.0000 0.0000 0.0000
# 2 13.6842 101.1246 23.2895 0.0000 0.0000 0.0000
# 3 21.9612 23.2895 92.8919 0.0000 0.0000 0.0000
# 4 0.0000 0.0000 0.0000 31.7547 0.0000 0.0000
# 5 0.0000 0.0000 0.0000 0.0000 13.3824 0.0000
# 6 0.0000 0.0000 0.0000 0.0000 0.0000 22.4645
#
#
#
# Elastic Compliance Matrix: (Units=1/GPa)
#
#
# Indices 1 2 3 4 5 6 
#
# 1 0.011852 -0.001017 -0.002547 0.000000 0.000000 0.000000
# 2 -0.001017 0.010582 -0.002413 0.000000 0.000000 0.000000
# 3 -0.002547 -0.002413 0.011972 0.000000 0.000000 0.000000
# 4 0.000000 0.000000 0.000000 0.031491 0.000000 0.000000
# 5 0.000000 0.000000 0.000000 0.000000 0.074725 0.000000
# 6 0.000000 0.000000 0.000000 0.000000 0.000000 0.044515
#
#
# Mechanical properties :
#
#
# Convention : Reuss Voigt Hill
#
# Bulk Modulus (GPa) = 44.53845 44.68406 44.61125
# Shear Modulus (GPa) = 24.44093 28.54377 26.49235
#
# Velocity S-wave (km/s) = 3.41661 3.69226 3.55711
# Velocity P-wave (km/s) = 6.06929 6.28638 6.17879
#
# Compressibility (1/GPa) = 0.02245251
#
# Stress axis : x y z
#
# Youngs Moduli (GPa) = 84.37625 94.49937 83.52675
#
# Poissons Ratio (x) = 0.09613 0.21273
# Poissons Ratio (y) = 0.08583 0.20152
# Poissons Ratio (z) = 0.21490 0.22799
#
# Static dielectric constant tensor:
#      x y z
#    x 3.681670 0.000000 0.000000 
#    y 0.000000 3.730480 0.000000 
#    z 0.000000 0.000000 3.965480 
# 
# 
# High freq. dielectric constant tensor:
#      x y z
#    x 1.801750 0.000000 0.000000 
#    y 0.000000 1.818410 0.000000 
#    z 0.000000 0.000000 1.829740 
# 
# From -- ./inp_files/30886.got.cif
#   From: 2010.03.12/outbox.cif.g09.slc.cpg/sg24_16_cif.got.tgz:30886.got - 2010.04.14 03:06:53.
