data_PCOD8165959
_publ_section_title
;
Structure prediction by ZEFSAII (Michael W. Deem and Ramdas Pophale) SiO2 
 PCOD8165959
Probable space group: I 21 21 21
;
_chemical_formula_sum "Si O2"
_cell_formula_units_Z 56
_cell_length_a 13.708626
_cell_length_b 12.769920
_cell_length_c 14.343420
_cell_angle_alpha 90.000000
_cell_angle_beta 90.000000
_cell_angle_gamma 90.000000
_cell_volume 2510.931241
_symmetry_space_group_name_H-M "I 21 21 21"
_symmetry_group_IT_number 24
_symmetry_cell_setting 'orthorhombic'
loop_
_space_group_symop_operation_xyz
x,y,z
-x,1/2-y,z
x,-y,1/2-z
1/2-x,y,-z
1/2+x,1/2+y,1/2+z
1/2-x,-y,1/2+z
1/2+x,1/2-y,-z
-x,1/2+y,1/2-z
loop_
_atom_site_type_symbol
_atom_site_label
_atom_site_fract_x
_atom_site_fract_y
_atom_site_fract_z
Si Si1 0.404674 0.000000 0.750000
Si Si2 0.715558 0.695041 0.785875
Si Si3 0.062737 0.500000 0.750000
Si Si4 0.258207 0.312801 0.895223
Si Si5 0.539087 0.862166 0.402258
Si Si6 0.404973 0.681540 0.931918
Si Si7 0.948466 0.944191 0.400492
Si Si8 0.107745 0.704536 0.858884
O O1 0.334846 0.917432 0.803718
O O2 0.472705 0.929354 0.681988
O O3 0.714957 0.719632 0.675259
O O4 0.665977 0.784942 0.848659
O O5 0.827873 0.700418 0.817010
O O6 0.994962 0.448736 0.831336
O O7 0.122585 0.596154 0.800169
O O8 0.154830 0.369756 0.879574
O O9 0.342130 0.398620 0.879169
O O10 0.250000 0.265551 0.000000
O O11 0.500000 0.750000 0.372924
O O12 0.508826 0.887187 0.507726
O O13 0.500000 0.750000 0.926075
O O14 0.439490 0.565366 0.915496
O O15 0.357292 0.686884 0.034462
O O16 0.000000 0.750000 0.853774
#
# Coordination Sequence:
#
# PCOD8165959 Si02
#       8
#     4   8   4   8   8   8   8   8
#     4  12  28  46  70 116 148 214 240 314 406 448
#     4  12  26  45  71 105 153 185 256 307 379 463
#     4  12  22  42  72 100 134 188 248 304 368 434
#     4  10  25  42  69 104 139 192 248 309 364 446
#     4  11  25  45  69 106 145 190 247 312 381 449
#     4  11  23  45  71 108 144 190 244 318 378 447
#     4  11  24  44  73 102 145 190 249 305 382 450
#     4  11  26  45  71 105 144 194 250 314 374 453
#
# _framework density 22.302482000000001
#
# number of rings (size 3 to 8) (size 9 to 14) (size 15 to 20)
#    0.000    0.857    4.286    1.714    6.000    2.286 
#    0.000    1.429    0.000    0.000    0.000    0.000 
#    0.000    0.000    0.000    0.000    0.000    0.000 
#
# Total GULP energy -347037.127326 kJ/mol
# GULP energy per Si atom -12394.183119 kJ/mol
# Density = 2.225172 g / cm^3
# Si number density = 22.302482 Si / 1000 Ang^3
#
#
#
# Elastic Constant Matrix: (Units=GPa)
#
#
# Indices 1 2 3 4 5 6 
#
# 1 95.4646 39.0178 38.9274 0.0000 0.0000 0.0000
# 2 39.0178 84.5855 21.5253 0.0000 0.0000 0.0000
# 3 38.9274 21.5253 146.0527 0.0000 0.0000 0.0000
# 4 0.0000 0.0000 0.0000 40.9895 0.0000 0.0000
# 5 0.0000 0.0000 0.0000 0.0000 31.0084 0.0000
# 6 0.0000 0.0000 0.0000 0.0000 0.0000 13.0506
#
#
#
# Elastic Compliance Matrix: (Units=1/GPa)
#
#
# Indices 1 2 3 4 5 6 
#
# 1 0.013989 -0.005719 -0.002886 0.000000 0.000000 0.000000
# 2 -0.005719 0.014621 -0.000631 0.000000 0.000000 0.000000
# 3 -0.002886 -0.000631 0.007709 0.000000 0.000000 0.000000
# 4 0.000000 0.000000 0.000000 0.024397 0.000000 0.000000
# 5 0.000000 0.000000 0.000000 0.000000 0.032249 0.000000
# 6 0.000000 0.000000 0.000000 0.000000 0.000000 0.076625
#
#
# Mechanical properties :
#
#
# Convention : Reuss Voigt Hill
#
# Bulk Modulus (GPa) = 56.02589 58.33821 57.18205
# Shear Modulus (GPa) = 25.77201 32.11851 28.94526
#
# Velocity S-wave (km/s) = 3.40305 3.79902 3.60648
# Velocity P-wave (km/s) = 6.37310 6.74225 6.56027
#
# Compressibility (1/GPa) = 0.01784889
#
# Stress axis : x y z
#
# Youngs Moduli (GPa) = 71.48452 68.39616 129.72000
#
# Poissons Ratio (x) = 0.39113 0.37433
# Poissons Ratio (y) = 0.40879 0.08181
# Poissons Ratio (z) = 0.20628 0.04313
#
# Static dielectric constant tensor:
#      x y z
#    x 3.944680 0.000000 0.000000 
#    y 0.000000 3.726820 0.000000 
#    z 0.000000 0.000000 6.567260 
# 
# 
# High freq. dielectric constant tensor:
#      x y z
#    x 1.864840 0.000000 0.000000 
#    y 0.000000 1.867920 0.000000 
#    z 0.000000 0.000000 1.905830 
# 
# From -- ./inp_files/26556.got.cif
#   From: 2010.03.12/outbox.cif.g09.slc.cpg/sg24_14_cif.got.tgz:26556.got - 2010.04.14 03:06:53.
