data_PCOD8165122
_publ_section_title
;
Structure prediction by ZEFSAII (Michael W. Deem and Ramdas Pophale) SiO2 
 PCOD8165122
Probable space group: I 21 21 21
;
_chemical_formula_sum "Si O2"
_cell_formula_units_Z 60
_cell_length_a 10.752999
_cell_length_b 8.749676
_cell_length_c 33.880513
_cell_angle_alpha 90.000000
_cell_angle_beta 90.000000
_cell_angle_gamma 90.000000
_cell_volume 3187.656782
_symmetry_space_group_name_H-M "I 21 21 21"
_symmetry_group_IT_number 24
_symmetry_cell_setting 'orthorhombic'
loop_
_space_group_symop_operation_xyz
x,y,z
-x,1/2-y,z
x,-y,1/2-z
1/2-x,y,-z
1/2+x,1/2+y,1/2+z
1/2-x,-y,1/2+z
1/2+x,1/2-y,-z
-x,1/2+y,1/2-z
loop_
_atom_site_type_symbol
_atom_site_label
_atom_site_fract_x
_atom_site_fract_y
_atom_site_fract_z
Si Si1 0.266203 0.560465 0.128916
Si Si2 0.619203 0.148428 0.449262
Si Si3 0.880430 0.345911 0.349387
Si Si4 0.999641 0.069133 0.010220
Si Si5 0.529159 0.076960 0.899746
Si Si6 0.250000 0.881040 0.000000
Si Si7 0.176134 0.086103 0.711034
Si Si8 0.400442 0.566398 0.208323
O O1 0.357670 0.559577 0.091591
O O2 0.212774 0.731428 0.129191
O O3 0.157892 0.440380 0.122767
O O4 0.327478 0.507663 0.169911
O O5 0.500000 0.250000 0.442199
O O6 0.727594 0.266191 0.462963
O O7 0.596668 0.017149 0.481901
O O8 0.797008 0.432382 0.316712
O O9 0.000000 0.250000 0.332055
O O10 0.923315 0.469056 0.381472
O O11 0.000000 0.250000 0.000010
O O12 0.951757 0.039646 0.054381
O O13 0.135360 0.994083 0.007242
O O14 0.500000 0.250000 0.892148
O O15 0.133895 0.259207 0.715942
O O16 0.042725 0.015359 0.697914
O O17 0.221453 0.000000 0.750000
O O18 0.355232 0.500000 0.250000
#
# Coordination Sequence:
#
# PCOD8165122 Si02
#       8
#     8   8   8   8   8   4   8   8
#     4  10  20  35  58  82 110 141 186 234 277 326
#     4  10  21  34  58  84 110 142 194 238 277 330
#     4   9  19  35  54  81 109 143 187 225 272 324
#     4  10  22  38  56  80 117 154 190 231 295 343
#     4  10  21  36  54  79 110 153 186 223 278 334
#     4  10  20  36  54  86 110 152 196 238 278 336
#     4   9  18  34  57  80 108 143 176 221 280 329
#     4   9  19  35  57  82 109 139 177 222 283 338
#
# _framework density 18.822603999999998
#
# number of rings (size 3 to 8) (size 9 to 14) (size 15 to 20)
#    0.000    2.400    0.000    1.600    3.733    7.467 
#    0.000    6.667    5.867    0.000    0.000    0.000 
#    0.000    0.000    0.000    0.000    0.000    0.000 
#
# Total GULP energy -371672.909341 kJ/mol
# GULP energy per Si atom -12389.096978 kJ/mol
# Density = 1.877976 g / cm^3
# Si number density = 18.822604 Si / 1000 Ang^3
#
#
#
# Elastic Constant Matrix: (Units=GPa)
#
#
# Indices 1 2 3 4 5 6 
#
# 1 82.6982 38.6656 71.1984 0.0000 0.0000 0.0000
# 2 38.6656 72.8932 59.9096 -0.0001 0.0000 0.0000
# 3 71.1984 59.9096 151.5108 0.0000 0.0000 0.0000
# 4 0.0000 -0.0001 0.0000 28.1608 0.0000 0.0000
# 5 0.0000 0.0000 0.0000 0.0000 32.3540 0.0000
# 6 0.0000 0.0000 0.0000 0.0000 0.0000 23.3090
#
#
#
# Elastic Compliance Matrix: (Units=1/GPa)
#
#
# Indices 1 2 3 4 5 6 
#
# 1 0.021279 -0.004546 -0.008202 0.000000 0.000000 0.000000
# 2 -0.004546 0.021295 -0.006284 0.000000 0.000000 0.000000
# 3 -0.008202 -0.006284 0.012939 0.000000 0.000000 0.000000
# 4 0.000000 0.000000 0.000000 0.035510 0.000000 0.000000
# 5 0.000000 0.000000 0.000000 0.000000 0.030908 0.000000
# 6 0.000000 0.000000 0.000000 0.000000 0.000000 0.042902
#
#
# Mechanical properties :
#
#
# Convention : Reuss Voigt Hill
#
# Bulk Modulus (GPa) = 57.30990 71.84993 64.57992
# Shear Modulus (GPa) = 23.95622 25.92000 24.93811
#
# Velocity S-wave (km/s) = 3.57141 3.71491 3.64387
# Velocity P-wave (km/s) = 6.89349 7.52700 7.21720
#
# Compressibility (1/GPa) = 0.01744899
#
# Stress axis : x y z
#
# Youngs Moduli (GPa) = 46.99433 46.95960 77.28475
#
# Poissons Ratio (x) = 0.21350 0.63388
# Poissons Ratio (y) = 0.21366 0.48565
# Poissons Ratio (z) = 0.38544 0.29509
#
# Static dielectric constant tensor:
#      x y z
#    x 3.664390 0.000000 0.000000 
#    y 0.000000 3.389320 0.000000 
#    z 0.000000 0.000000 3.626680 
# 
# 
# High freq. dielectric constant tensor:
#      x y z
#    x 1.738060 0.000000 0.000000 
#    y 0.000000 1.725660 0.000000 
#    z 0.000000 0.000000 1.728020 
# 
# From -- ./inp_files/38599.got.cif
#   From: 2010.03.12/outbox.cif.g09.slc.cpg/sg24_20_cif.got.tgz:38599.got - 2010.04.14 03:06:53.
