data_PCOD8165250
_publ_section_title
;
Structure prediction by ZEFSAII (Michael W. Deem and Ramdas Pophale) SiO2 
 PCOD8165250
Probable space group: I 21 21 21
;
_chemical_formula_sum "Si O2"
_cell_formula_units_Z 56
_cell_length_a 14.283701
_cell_length_b 12.834854
_cell_length_c 16.054460
_cell_angle_alpha 90.000000
_cell_angle_beta 90.000000
_cell_angle_gamma 90.000000
_cell_volume 2943.251580
_symmetry_space_group_name_H-M "I 21 21 21"
_symmetry_group_IT_number 24
_symmetry_cell_setting 'orthorhombic'
loop_
_space_group_symop_operation_xyz
x,y,z
-x,1/2-y,z
x,-y,1/2-z
1/2-x,y,-z
1/2+x,1/2+y,1/2+z
1/2-x,-y,1/2+z
1/2+x,1/2-y,-z
-x,1/2+y,1/2-z
loop_
_atom_site_type_symbol
_atom_site_label
_atom_site_fract_x
_atom_site_fract_y
_atom_site_fract_z
Si Si1 0.416551 0.675093 0.422412
Si Si2 0.859441 0.000238 0.346114
Si Si3 0.746755 0.795973 0.682864
Si Si4 0.261277 0.291501 0.625396
Si Si5 0.897252 0.704991 0.994364
Si Si6 0.333481 0.169509 0.950930
Si Si7 0.514786 0.491177 0.978769
O O1 0.500000 0.750000 0.395746
O O2 0.351726 0.669350 0.340814
O O3 0.359282 0.724134 0.499610
O O4 0.453773 0.559259 0.446134
O O5 0.818869 0.885702 0.355298
O O6 0.946912 0.028730 0.405024
O O7 0.891871 0.000000 0.250000
O O8 0.778900 0.083568 0.372941
O O9 0.743091 0.762125 0.778364
O O10 0.708849 0.692544 0.639273
O O11 0.348257 0.231941 0.582215
O O12 0.165749 0.255955 0.579164
O O13 0.000000 0.750000 0.989030
O O14 0.914845 0.580673 0.987463
O O15 0.423655 0.099564 0.938589
O O16 0.250000 0.110144 0.000000
#
# Coordination Sequence:
#
# PCOD8165250 Si02
#       7
#     8   8   8   8   8   8   8
#     4   9  19  35  60  91 115 150 197 249 305 362
#     4  10  21  36  60  93 119 152 201 257 303 357
#     4  10  20  38  63  87 123 155 190 260 314 353
#     4  10  24  42  58  87 121 160 211 243 299 363
#     4  11  24  41  62  84 118 169 207 250 290 362
#     4   9  19  35  59  91 120 152 189 247 316 366
#     4  11  21  36  61  91 119 158 207 247 301 371
#
# _framework density 19.026575999999999
#
# number of rings (size 3 to 8) (size 9 to 14) (size 15 to 20)
#    0.000    2.000    2.857    0.000    4.000    1.714 
#    0.000    0.000    0.000    0.000    0.000    0.000 
#    0.000    0.000    0.000    0.000    0.000    0.000 
#
# Total GULP energy -346912.041363 kJ/mol
# GULP energy per Si atom -12389.715763 kJ/mol
# Density = 1.898327 g / cm^3
# Si number density = 19.026576 Si / 1000 Ang^3
#
#
#
# Elastic Constant Matrix: (Units=GPa)
#
#
# Indices 1 2 3 4 5 6 
#
# 1 117.2962 31.2761 55.4078 0.0000 0.0000 0.0000
# 2 31.2761 75.3640 45.3495 0.0000 0.0000 0.0000
# 3 55.4078 45.3495 117.8909 0.0000 0.0000 0.0000
# 4 0.0000 0.0000 0.0000 21.0275 0.0000 0.0000
# 5 0.0000 0.0000 0.0000 0.0000 20.3345 0.0000
# 6 0.0000 0.0000 0.0000 0.0000 0.0000 39.6541
#
#
#
# Elastic Compliance Matrix: (Units=1/GPa)
#
#
# Indices 1 2 3 4 5 6 
#
# 1 0.011168 -0.001921 -0.004510 0.000000 0.000000 0.000000
# 2 -0.001921 0.017596 -0.005866 0.000000 0.000000 0.000000
# 3 -0.004510 -0.005866 0.012858 0.000000 0.000000 0.000000
# 4 0.000000 0.000000 0.000000 0.047557 0.000000 0.000000
# 5 0.000000 0.000000 0.000000 0.000000 0.049178 0.000000
# 6 0.000000 0.000000 0.000000 0.000000 0.000000 0.025218
#
#
# Mechanical properties :
#
#
# Convention : Reuss Voigt Hill
#
# Bulk Modulus (GPa) = 58.72359 63.84643 61.28501
# Shear Modulus (GPa) = 25.79388 28.10439 26.94914
#
# Velocity S-wave (km/s) = 3.68595 3.84749 3.76758
# Velocity P-wave (km/s) = 7.00328 7.30526 7.15586
#
# Compressibility (1/GPa) = 0.01702893
#
# Stress axis : x y z
#
# Youngs Moduli (GPa) = 89.54150 56.83165 77.76961
#
# Poissons Ratio (x) = 0.10917 0.35074
# Poissons Ratio (y) = 0.17200 0.45618
# Poissons Ratio (z) = 0.40383 0.33337
#
# Static dielectric constant tensor:
#      x y z
#    x 3.664710 0.000000 0.000000 
#    y 0.000000 3.657340 0.000000 
#    z 0.000000 0.000000 3.341700 
# 
# 
# High freq. dielectric constant tensor:
#      x y z
#    x 1.751760 0.000000 0.000000 
#    y 0.000000 1.731890 0.000000 
#    z 0.000000 0.000000 1.725550 
# 
# From -- ./inp_files/25809.got.cif
#   From: 2010.03.12/outbox.cif.g09.slc.cpg/sg24_13_cif.got.tgz:25809.got - 2010.04.14 03:06:53.
