data_PCOD8165709
_publ_section_title
;
Structure prediction by ZEFSAII (Michael W. Deem and Ramdas Pophale) SiO2 
 PCOD8165709
Probable space group: I 21 21 21
;
_chemical_formula_sum "Si O2"
_cell_formula_units_Z 28
_cell_length_a 5.011348
_cell_length_b 22.425545
_cell_length_c 10.948282
_cell_angle_alpha 90.000000
_cell_angle_beta 90.000000
_cell_angle_gamma 90.000000
_cell_volume 1230.392128
_symmetry_space_group_name_H-M "I 21 21 21"
_symmetry_group_IT_number 24
_symmetry_cell_setting 'orthorhombic'
loop_
_space_group_symop_operation_xyz
x,y,z
-x,1/2-y,z
x,-y,1/2-z
1/2-x,y,-z
1/2+x,1/2+y,1/2+z
1/2-x,-y,1/2+z
1/2+x,1/2-y,-z
-x,1/2+y,1/2-z
loop_
_atom_site_type_symbol
_atom_site_label
_atom_site_fract_x
_atom_site_fract_y
_atom_site_fract_z
Si Si1 0.750000 0.032861 0.000000
Si Si2 0.750000 0.615482 0.500000
Si Si3 0.617000 0.814163 0.132087
Si Si4 0.061488 0.500000 0.250000
Si Si5 0.368946 0.868806 0.755836
O O1 0.729151 0.993045 0.876295
O O2 0.500558 0.074027 0.021909
O O3 0.719647 0.655806 0.622164
O O4 0.500000 0.750000 0.169248
O O5 0.357561 0.856685 0.141865
O O6 0.849840 0.836577 0.220717
O O7 0.750000 0.813384 0.000000
O O8 0.886849 0.440213 0.243600
#
# Coordination Sequence:
#
# PCOD8165709 Si02
#       5
#     4   4   8   4   8
#     4  10  22  40  64  95 150 185 228 294 344 436
#     4  10  22  44  66  97 142 181 220 294 358 406
#     4  12  26  48  72 104 141 185 243 306 353 412
#     4  10  24  44  68 108 144 186 246 286 368 438
#     4  11  24  44  74 100 144 189 231 298 359 429
#
# _framework density 22.756972000000001
#
# number of rings (size 3 to 8) (size 9 to 14) (size 15 to 20)
#    0.000    1.143    0.000    6.857    2.000   10.286 
#   15.429    2.857    0.000    3.429    0.000    0.000 
#    0.000    0.000    0.000    0.000    0.000    0.000 
#
# Total GULP energy -173496.304712 kJ/mol
# GULP energy per Si atom -12392.593194 kJ/mol
# Density = 2.270518 g / cm^3
# Si number density = 22.756972 Si / 1000 Ang^3
#
#
#
# Elastic Constant Matrix: (Units=GPa)
#
#
# Indices 1 2 3 4 5 6 
#
# 1 167.6312 60.5985 43.1735 0.0001 0.0000 0.0000
# 2 60.5985 111.3575 54.7252 0.0003 0.0000 0.0001
# 3 43.1735 54.7252 127.2002 0.0011 0.0001 0.0003
# 4 0.0001 0.0003 0.0011 29.4565 0.0000 0.0001
# 5 0.0000 0.0000 0.0001 0.0000 44.9887 0.0001
# 6 0.0000 0.0001 0.0003 0.0001 0.0001 33.7977
#
#
#
# Elastic Compliance Matrix: (Units=1/GPa)
#
#
# Indices 1 2 3 4 5 6 
#
# 1 0.007526 -0.003602 -0.001005 0.000000 0.000000 0.000000
# 2 -0.003602 0.013111 -0.004418 0.000000 0.000000 0.000000
# 3 -0.001005 -0.004418 0.010104 0.000000 0.000000 0.000000
# 4 0.000000 0.000000 0.000000 0.033948 0.000000 0.000000
# 5 0.000000 0.000000 0.000000 0.000000 0.022228 0.000000
# 6 0.000000 0.000000 0.000000 0.000000 0.000000 0.029588
#
#
# Mechanical properties :
#
#
# Convention : Reuss Voigt Hill
#
# Bulk Modulus (GPa) = 78.79532 80.35369 79.57451
# Shear Modulus (GPa) = 36.02661 38.16136 37.09399
#
# Velocity S-wave (km/s) = 3.98314 4.09945 4.04171
# Velocity P-wave (km/s) = 7.47353 7.60220 7.53814
#
# Compressibility (1/GPa) = 0.01269111
#
# Stress axis : x y z
#
# Youngs Moduli (GPa) = 132.86644 76.26892 98.97414
#
# Poissons Ratio (x) = 0.27471 0.09946
# Poissons Ratio (y) = 0.47856 0.43731
# Poissons Ratio (z) = 0.13352 0.33699
#
# Static dielectric constant tensor:
#      x y z
#    x 4.234030 0.000000 0.000000 
#    y 0.000000 3.870000 0.000000 
#    z 0.000000 0.000000 4.855700 
# 
# 
# High freq. dielectric constant tensor:
#      x y z
#    x 1.917200 0.000000 0.000000 
#    y 0.000000 1.868970 0.000000 
#    z 0.000000 0.000000 1.919240 
# 
# From -- ./inp_files/2125.got.cif
#   From: 2010.03.12/outbox.cif.g09.slc.cpg/sg24_2_cif.got.tgz:2125.got - 2010.04.14 03:06:53.
