data_PCOD8165676
_publ_section_title
;
Structure prediction by ZEFSAII (Michael W. Deem and Ramdas Pophale) SiO2 
 PCOD8165676
Probable space group: I 21 21 21
;
_chemical_formula_sum "Si O2"
_cell_formula_units_Z 20
_cell_length_a 5.585268
_cell_length_b 7.348639
_cell_length_c 21.940600
_cell_angle_alpha 90.000000
_cell_angle_beta 90.000000
_cell_angle_gamma 90.000000
_cell_volume 900.532581
_symmetry_space_group_name_H-M "I 21 21 21"
_symmetry_group_IT_number 24
_symmetry_cell_setting 'orthorhombic'
loop_
_space_group_symop_operation_xyz
x,y,z
-x,1/2-y,z
x,-y,1/2-z
1/2-x,y,-z
1/2+x,1/2+y,1/2+z
1/2-x,-y,1/2+z
1/2+x,1/2-y,-z
-x,1/2+y,1/2-z
loop_
_atom_site_type_symbol
_atom_site_label
_atom_site_fract_x
_atom_site_fract_y
_atom_site_fract_z
Si Si1 0.613356 0.447311 0.631293
Si Si2 0.357401 0.500000 0.750000
Si Si3 0.000000 0.250000 0.688607
Si Si4 0.000000 0.750000 0.464818
O O1 0.500000 0.250000 0.618497
O O2 0.511375 0.549392 0.690746
O O3 0.570321 0.572921 0.573618
O O4 0.895561 0.410867 0.645242
O O5 0.204758 0.322067 0.733426
O O6 0.750000 0.795850 0.500000
#
# Coordination Sequence:
#
# PCOD8165676 Si02
#       4
#     8   4   4   4
#     4  10  25  45  71 109 148 195 247 312 386 444
#     4  10  22  38  70 112 144 192 234 312 392 452
#     4  10  22  39  70 108 151 192 230 316 384 460
#     4  12  32  51  78 108 149 210 264 308 358 454
#
# _framework density 22.209078999999999
#
# number of rings (size 3 to 8) (size 9 to 14) (size 15 to 20)
#    0.000    1.600    0.000    1.200   25.200    1.600 
#    0.000    0.000    0.000    0.000    0.000    0.000 
#    0.000    0.000    0.000    0.000    0.000    0.000 
#
# Total GULP energy -123909.833919 kJ/mol
# GULP energy per Si atom -12390.983392 kJ/mol
# Density = 2.215853 g / cm^3
# Si number density = 22.209079 Si / 1000 Ang^3
#
#
#
# Elastic Constant Matrix: (Units=GPa)
#
#
# Indices 1 2 3 4 5 6 
#
# 1 150.1262 43.6020 70.2024 0.0000 0.0000 0.0000
# 2 43.6020 116.6345 69.7791 0.0000 0.0000 0.0000
# 3 70.2024 69.7791 137.9648 0.0000 0.0000 0.0000
# 4 0.0000 0.0000 0.0000 45.1375 0.0000 0.0000
# 5 0.0000 0.0000 0.0000 0.0000 20.0246 0.0000
# 6 0.0000 0.0000 0.0000 0.0000 0.0000 23.3692
#
#
#
# Elastic Compliance Matrix: (Units=1/GPa)
#
#
# Indices 1 2 3 4 5 6 
#
# 1 0.008803 -0.000876 -0.004036 0.000000 0.000000 0.000000
# 2 -0.000876 0.012381 -0.005816 0.000000 0.000000 0.000000
# 3 -0.004036 -0.005816 0.012244 0.000000 0.000000 0.000000
# 4 0.000000 0.000000 0.000000 0.022155 0.000000 0.000000
# 5 0.000000 0.000000 0.000000 0.000000 0.049939 0.000000
# 6 0.000000 0.000000 0.000000 0.000000 0.000000 0.042791
#
#
# Mechanical properties :
#
#
# Convention : Reuss Voigt Hill
#
# Bulk Modulus (GPa) = 83.53779 85.76584 84.65182
# Shear Modulus (GPa) = 28.77544 32.44906 30.61225
#
# Velocity S-wave (km/s) = 3.60343 3.82654 3.71666
# Velocity P-wave (km/s) = 7.41680 7.63050 7.52441
#
# Compressibility (1/GPa) = 0.01197063
#
# Stress axis : x y z
#
# Youngs Moduli (GPa) = 113.59858 80.76911 81.67463
#
# Poissons Ratio (x) = 0.07076 0.32966
# Poissons Ratio (y) = 0.09952 0.47504
# Poissons Ratio (z) = 0.45851 0.46977
#
# Static dielectric constant tensor:
#      x y z
#    x 4.649930 0.000000 0.000000 
#    y 0.000000 3.878150 0.000000 
#    z 0.000000 0.000000 3.980460 
# 
# 
# High freq. dielectric constant tensor:
#      x y z
#    x 1.892840 0.000000 0.000000 
#    y 0.000000 1.879160 0.000000 
#    z 0.000000 0.000000 1.857240 
# 
# From -- ./inp_files/613.got.cif
#   From: 2010.03.12/outbox.cif.g09.slc.cpg/sg24_1_cif.got.tgz:613.got - 2010.04.14 03:06:53.
