data_PCOD8165628
_publ_section_title
;
Structure prediction by ZEFSAII (Michael W. Deem and Ramdas Pophale) SiO2 
 PCOD8165628
Probable space group: I 21 21 21
;
_chemical_formula_sum "Si O2"
_cell_formula_units_Z 36
_cell_length_a 8.898194
_cell_length_b 22.328683
_cell_length_c 8.440022
_cell_angle_alpha 90.000000
_cell_angle_beta 90.000000
_cell_angle_gamma 90.000000
_cell_volume 1676.905375
_symmetry_space_group_name_H-M "I 21 21 21"
_symmetry_group_IT_number 24
_symmetry_cell_setting 'orthorhombic'
loop_
_space_group_symop_operation_xyz
x,y,z
-x,1/2-y,z
x,-y,1/2-z
1/2-x,y,-z
1/2+x,1/2+y,1/2+z
1/2-x,-y,1/2+z
1/2+x,1/2-y,-z
-x,1/2+y,1/2-z
loop_
_atom_site_type_symbol
_atom_site_label
_atom_site_fract_x
_atom_site_fract_y
_atom_site_fract_z
Si Si1 0.685266 0.063810 0.173995
Si Si2 0.398524 0.884089 0.449890
Si Si3 0.840217 0.733615 0.705691
Si Si4 0.000000 0.250000 0.488320
Si Si5 0.108227 0.667868 0.276679
O O1 0.773573 0.115335 0.271762
O O2 0.713081 0.000000 0.250000
O O3 0.750000 0.062150 0.000000
O O4 0.507556 0.078653 0.165870
O O5 0.250000 0.923404 0.500000
O O6 0.309447 0.833625 0.348264
O O7 0.492319 0.857236 0.595863
O O8 0.704162 0.776556 0.649402
O O9 0.000000 0.750000 0.624078
O O10 0.855103 0.739470 0.897624
O O11 0.020902 0.309039 0.379096
#
# Coordination Sequence:
#
# PCOD8165628 Si02
#       5
#     8   8   8   4   8
#     4  10  23  42  65  88 113 156 209 252 302 363
#     4  11  24  38  61  90 122 161 201 250 304 365
#     4  10  22  32  55  92 127 155 195 243 303 355
#     4  10  22  32  54  90 130 156 194 246 302 354
#     4  11  22  39  61  91 124 162 203 245 304 369
#
# _framework density 21.468115999999998
#
# number of rings (size 3 to 8) (size 9 to 14) (size 15 to 20)
#    0.667    0.889    2.222    2.000    4.667    3.556 
#    0.000    4.444    0.000    5.333    0.000    0.000 
#    0.000    0.000    0.000    0.000    0.000    0.000 
#
# Total GULP energy -223014.374286 kJ/mol
# GULP energy per Si atom -12389.687460 kJ/mol
# Density = 2.141925 g / cm^3
# Si number density = 21.468116 Si / 1000 Ang^3
#
#
#
# Elastic Constant Matrix: (Units=GPa)
#
#
# Indices 1 2 3 4 5 6 
#
# 1 118.8463 28.2336 16.4123 0.0009 -0.0044 0.0014
# 2 28.2336 105.4577 14.6139 0.0008 -0.0004 -0.0004
# 3 16.4123 14.6139 69.4433 0.0041 0.0015 -0.0026
# 4 0.0009 0.0008 0.0041 31.1146 0.0000 -0.0019
# 5 -0.0044 -0.0004 0.0015 0.0000 26.9414 -0.0005
# 6 0.0014 -0.0004 -0.0026 -0.0019 -0.0005 14.5718
#
#
#
# Elastic Compliance Matrix: (Units=1/GPa)
#
#
# Indices 1 2 3 4 5 6 
#
# 1 0.009177 -0.002221 -0.001701 0.000000 0.000002 -0.000001
# 2 -0.002221 0.010305 -0.001644 0.000000 0.000000 0.000000
# 3 -0.001701 -0.001644 0.015148 -0.000002 -0.000001 0.000003
# 4 0.000000 0.000000 -0.000002 0.032139 0.000000 0.000004
# 5 0.000002 0.000000 -0.000001 0.000000 0.037118 0.000001
# 6 -0.000001 0.000000 0.000003 0.000004 0.000001 0.068626
#
#
# Mechanical properties :
#
#
# Convention : Reuss Voigt Hill
#
# Bulk Modulus (GPa) = 42.55755 45.80743 44.18249
# Shear Modulus (GPa) = 26.11276 30.15808 28.13542
#
# Velocity S-wave (km/s) = 3.49141 3.75211 3.62410
# Velocity P-wave (km/s) = 6.00998 6.33679 6.17555
#
# Compressibility (1/GPa) = 0.02349759
#
# Stress axis : x y z
#
# Youngs Moduli (GPa) = 108.96995 97.04130 66.01415
#
# Poissons Ratio (x) = 0.21554 0.11232
# Poissons Ratio (y) = 0.24203 0.10851
# Poissons Ratio (z) = 0.18541 0.15950
#
# Static dielectric constant tensor:
#      x y z
#    x 4.288490 0.000000 -0.000010 
#    y 0.000000 4.696160 0.000080 
#    z -0.000010 0.000080 3.828800 
# 
# 
# High freq. dielectric constant tensor:
#      x y z
#    x 1.869400 0.000000 0.000000 
#    y 0.000000 1.800810 0.000000 
#    z 0.000000 0.000000 1.835990 
# 
# From -- ./inp_files/9051.got.cif
#   From: 2010.03.12/outbox.cif.g09.slc.cpg/sg24_5_cif.got.tgz:9051.got - 2010.04.14 03:06:53.
