data_PCOD8165159
_publ_section_title
;
Structure prediction by ZEFSAII (Michael W. Deem and Ramdas Pophale) SiO2 
 PCOD8165159
Probable space group: I 21 21 21
;
_chemical_formula_sum "Si O2"
_cell_formula_units_Z 32
_cell_length_a 6.571833
_cell_length_b 17.296246
_cell_length_c 13.951243
_cell_angle_alpha 90.000000
_cell_angle_beta 90.000000
_cell_angle_gamma 90.000000
_cell_volume 1585.810451
_symmetry_space_group_name_H-M "I 21 21 21"
_symmetry_group_IT_number 24
_symmetry_cell_setting 'orthorhombic'
loop_
_space_group_symop_operation_xyz
x,y,z
-x,1/2-y,z
x,-y,1/2-z
1/2-x,y,-z
1/2+x,1/2+y,1/2+z
1/2-x,-y,1/2+z
1/2+x,1/2-y,-z
-x,1/2+y,1/2-z
loop_
_atom_site_type_symbol
_atom_site_label
_atom_site_fract_x
_atom_site_fract_y
_atom_site_fract_z
Si Si1 0.085547 0.164646 0.274575
Si Si2 0.358321 0.920461 0.102029
Si Si3 0.137917 0.933175 0.402195
Si Si4 0.790864 0.963657 0.148989
O O1 0.931988 0.109096 0.329497
O O2 0.000000 0.250000 0.281197
O O3 0.301387 0.152769 0.330152
O O4 0.119323 0.142498 0.163585
O O5 0.600147 0.929832 0.089841
O O6 0.275287 0.000751 0.148845
O O7 0.250000 0.909879 0.000000
O O8 0.250000 0.907475 0.500000
O O9 0.912714 0.972048 0.414560
O O10 0.718410 0.000000 0.250000
#
# Coordination Sequence:
#
# PCOD8165159 Si02
#       4
#     8   8   8   8
#     4  10  21  37  56  85 123 158 191 238 304 366
#     4  10  20  36  59  87 113 153 201 254 292 344
#     4   9  19  35  62  86 112 151 198 256 290 349
#     4   9  18  36  62  88 111 152 202 246 297 347
#
# _framework density 20.178958000000002
#
# number of rings (size 3 to 8) (size 9 to 14) (size 15 to 20)
#    0.000    2.500    0.000    3.750    0.000   10.000 
#    4.500    0.000   27.500    0.000    0.000    0.000 
#    0.000    0.000    0.000    0.000    0.000    0.000 
#
# Total GULP energy -198237.531826 kJ/mol
# GULP energy per Si atom -12389.845739 kJ/mol
# Density = 2.013303 g / cm^3
# Si number density = 20.178958 Si / 1000 Ang^3
#
#
#
# Elastic Constant Matrix: (Units=GPa)
#
#
# Indices 1 2 3 4 5 6 
#
# 1 127.9358 8.0416 50.7602 0.0000 0.0000 0.0000
# 2 8.0416 71.8998 20.0415 0.0000 0.0000 0.0000
# 3 50.7602 20.0415 87.9283 0.0001 0.0000 0.0000
# 4 0.0000 0.0000 0.0001 22.7490 0.0000 0.0000
# 5 0.0000 0.0000 0.0000 0.0000 38.1466 0.0000
# 6 0.0000 0.0000 0.0000 0.0000 0.0000 21.9853
#
#
#
# Elastic Compliance Matrix: (Units=1/GPa)
#
#
# Indices 1 2 3 4 5 6 
#
# 1 0.010158 0.000532 -0.005985 0.000000 0.000000 0.000000
# 2 0.000532 0.014880 -0.003699 0.000000 0.000000 0.000000
# 3 -0.005985 -0.003699 0.015671 0.000000 0.000000 0.000000
# 4 0.000000 0.000000 0.000000 0.043958 0.000000 0.000000
# 5 0.000000 0.000000 0.000000 0.000000 0.026215 0.000000
# 6 0.000000 0.000000 0.000000 0.000000 0.000000 0.045485
#
#
# Mechanical properties :
#
#
# Convention : Reuss Voigt Hill
#
# Bulk Modulus (GPa) = 44.63287 49.49451 47.06369
# Shear Modulus (GPa) = 27.45171 30.50423 28.97797
#
# Velocity S-wave (km/s) = 3.69238 3.89226 3.79363
# Velocity P-wave (km/s) = 6.35175 6.69183 6.52401
#
# Compressibility (1/GPa) = 0.02240501
#
# Stress axis : x y z
#
# Youngs Moduli (GPa) = 98.44760 67.20557 63.81135
#
# Poissons Ratio (x) = -0.03577 0.38193
# Poissons Ratio (y) = -0.05240 0.23603
# Poissons Ratio (z) = 0.58923 0.24858
#
# Static dielectric constant tensor:
#      x y z
#    x 3.867090 0.000000 0.000000 
#    y 0.000000 3.331130 0.000000 
#    z 0.000000 0.000000 3.589660 
# 
# 
# High freq. dielectric constant tensor:
#      x y z
#    x 1.795250 0.000000 0.000000 
#    y 0.000000 1.743170 0.000000 
#    z 0.000000 0.000000 1.792140 
# 
# From -- ./inp_files/23521.got.cif
#   From: 2010.03.12/outbox.cif.g09.slc.cpg/sg24_12_cif.got.tgz:23521.got - 2010.04.14 03:06:53.
