data_PCOD8165176
_publ_section_title
;
Structure prediction by ZEFSAII (Michael W. Deem and Ramdas Pophale) SiO2 
 PCOD8165176
Probable space group: I 21 21 21
;
_chemical_formula_sum "Si O2"
_cell_formula_units_Z 48
_cell_length_a 28.261762
_cell_length_b 8.729858
_cell_length_c 9.848997
_cell_angle_alpha 90.000000
_cell_angle_beta 90.000000
_cell_angle_gamma 90.000000
_cell_volume 2429.956054
_symmetry_space_group_name_H-M "I 21 21 21"
_symmetry_group_IT_number 24
_symmetry_cell_setting 'orthorhombic'
loop_
_space_group_symop_operation_xyz
x,y,z
-x,1/2-y,z
x,-y,1/2-z
1/2-x,y,-z
1/2+x,1/2+y,1/2+z
1/2-x,-y,1/2+z
1/2+x,1/2-y,-z
-x,1/2+y,1/2-z
loop_
_atom_site_type_symbol
_atom_site_label
_atom_site_fract_x
_atom_site_fract_y
_atom_site_fract_z
Si Si1 0.552195 0.680239 0.029334
Si Si2 0.549342 0.682163 0.491239
Si Si3 0.599393 0.318572 0.745628
Si Si4 0.195442 0.853454 0.345522
Si Si5 0.700241 0.348810 0.160228
Si Si6 0.610977 0.178924 0.230076
O O1 0.500000 0.750000 0.029931
O O2 0.548782 0.498261 0.033617
O O3 0.581724 0.731439 0.157538
O O4 0.581489 0.741063 0.899101
O O5 0.500000 0.750000 0.441575
O O6 0.558499 0.725435 0.647949
O O7 0.590873 0.766927 0.412923
O O8 0.606550 0.500000 0.750000
O O9 0.651336 0.250497 0.788327
O O10 0.186124 0.893152 0.504667
O O11 0.247046 0.773750 0.334055
O O12 0.199460 0.000000 0.250000
O O13 0.695616 0.500000 0.250000
O O14 0.666152 0.222537 0.227745
O O15 0.604667 0.000000 0.250000
#
# Coordination Sequence:
#
# PCOD8165176 Si02
#       6
#     8   8   8   8   8   8
#     4  11  23  40  61  88 119 153 198 248 299 357
#     4  11  21  38  63  87 117 152 197 243 301 356
#     4   9  19  35  60  90 118 152 192 243 294 355
#     4   9  18  35  63  95 123 148 200 246 296 353
#     4  10  20  36  65  93 120 157 199 249 298 348
#     4  12  25  40  58  84 121 160 201 244 296 353
#
# _framework density 19.753442
#
# number of rings (size 3 to 8) (size 9 to 14) (size 15 to 20)
#    0.000    1.667    1.667    3.500    4.667    0.000 
#    0.000    2.500    7.333    0.000    0.000    0.000 
#    0.000    0.000    0.000    0.000    0.000    0.000 
#
# Total GULP energy -297450.284552 kJ/mol
# GULP energy per Si atom -12393.761856 kJ/mol
# Density = 1.970848 g / cm^3
# Si number density = 19.753442 Si / 1000 Ang^3
#
#
#
# Elastic Constant Matrix: (Units=GPa)
#
#
# Indices 1 2 3 4 5 6 
#
# 1 153.2430 35.9667 48.0433 0.0000 0.0000 0.0000
# 2 35.9667 77.7981 22.5695 0.0000 0.0000 0.0000
# 3 48.0433 22.5695 99.8615 0.0000 0.0000 0.0000
# 4 0.0000 0.0000 0.0000 7.7522 0.0000 0.0000
# 5 0.0000 0.0000 0.0000 0.0000 38.4159 0.0000
# 6 0.0000 0.0000 0.0000 0.0000 0.0000 20.9074
#
#
#
# Elastic Compliance Matrix: (Units=1/GPa)
#
#
# Indices 1 2 3 4 5 6 
#
# 1 0.008233 -0.002844 -0.003318 0.000000 0.000000 0.000000
# 2 -0.002844 0.014738 -0.001963 0.000000 0.000000 0.000000
# 3 -0.003318 -0.001963 0.012054 0.000000 0.000000 0.000000
# 4 0.000000 0.000000 0.000000 0.128995 0.000000 0.000000
# 5 0.000000 0.000000 0.000000 0.000000 0.026031 0.000000
# 6 0.000000 0.000000 0.000000 0.000000 0.000000 0.047830
#
#
# Mechanical properties :
#
#
# Convention : Reuss Voigt Hill
#
# Bulk Modulus (GPa) = 53.26091 60.45127 56.85609
# Shear Modulus (GPa) = 19.20201 28.36998 23.78599
#
# Velocity S-wave (km/s) = 3.12121 3.79384 3.47384
# Velocity P-wave (km/s) = 6.32540 7.06118 6.70339
#
# Compressibility (1/GPa) = 0.01877549
#
# Stress axis : x y z
#
# Youngs Moduli (GPa) = 121.45734 67.85251 82.96042
#
# Poissons Ratio (x) = 0.19295 0.27529
# Poissons Ratio (y) = 0.34538 0.16283
# Poissons Ratio (z) = 0.40304 0.13318
#
# Static dielectric constant tensor:
#      x y z
#    x 4.190540 0.000000 0.000000 
#    y 0.000000 3.189640 0.000000 
#    z 0.000000 0.000000 3.877490 
# 
# 
# High freq. dielectric constant tensor:
#      x y z
#    x 1.799180 0.000000 0.000000 
#    y 0.000000 1.718690 0.000000 
#    z 0.000000 0.000000 1.789200 
# 
# From -- ./inp_files/16816.got.cif
#   From: 2010.03.12/outbox.cif.g09.slc.cpg/sg24_9_cif.got.tgz:16816.got - 2010.04.14 03:06:53.
