data_PCOD8165323
_publ_section_title
;
Structure prediction by ZEFSAII (Michael W. Deem and Ramdas Pophale) SiO2 
 PCOD8165323
Probable space group: I 21 21 21
;
_chemical_formula_sum "Si O2"
_cell_formula_units_Z 48
_cell_length_a 5.623001
_cell_length_b 13.826794
_cell_length_c 29.277797
_cell_angle_alpha 90.000000
_cell_angle_beta 90.000000
_cell_angle_gamma 90.000000
_cell_volume 2276.292401
_symmetry_space_group_name_H-M "I 21 21 21"
_symmetry_group_IT_number 24
_symmetry_cell_setting 'orthorhombic'
loop_
_space_group_symop_operation_xyz
x,y,z
-x,1/2-y,z
x,-y,1/2-z
1/2-x,y,-z
1/2+x,1/2+y,1/2+z
1/2-x,-y,1/2+z
1/2+x,1/2-y,-z
-x,1/2+y,1/2-z
loop_
_atom_site_type_symbol
_atom_site_label
_atom_site_fract_x
_atom_site_fract_y
_atom_site_fract_z
Si Si1 0.417636 0.641847 0.818981
Si Si2 0.883432 0.148959 0.768310
Si Si3 0.296217 0.008680 0.185537
Si Si4 0.839689 0.971556 0.887508
Si Si5 0.998180 0.139195 0.526477
Si Si6 0.561611 0.857775 0.644515
O O1 0.500000 0.750000 0.825588
O O2 0.200705 0.640301 0.783539
O O3 0.615353 0.572486 0.795851
O O4 0.367635 0.602076 0.870493
O O5 0.672442 0.139109 0.804776
O O6 0.000000 0.250000 0.779071
O O7 0.080366 0.065413 0.772782
O O8 0.184058 0.086328 0.150180
O O9 0.488010 0.955719 0.154796
O O10 0.976718 0.937804 0.932708
O O11 0.734928 0.082135 0.890540
O O12 0.250000 0.117545 0.500000
O O13 0.000000 0.250000 0.544096
O O14 0.750000 0.122556 0.500000
O O15 0.500000 0.750000 0.626187
#
# Coordination Sequence:
#
# PCOD8165323 Si02
#       6
#     8   8   8   8   8   8
#     4  11  27  40  58  91 129 178 220 279 342 388
#     4  11  23  40  58  83 123 177 228 275 326 381
#     4  10  24  42  60  85 125 169 219 279 318 398
#     4  10  25  40  66  98 127 170 215 276 338 401
#     4  10  24  44  73 105 138 179 218 269 343 432
#     4  10  20  40  65  92 122 171 224 273 323 381
#
# _framework density 21.086921
#
# number of rings (size 3 to 8) (size 9 to 14) (size 15 to 20)
#    0.000    1.667    1.667    0.500    9.333    8.000 
#    0.000    0.000    0.000    0.000    4.333    0.000 
#    0.000    0.000    0.000    0.000    0.000    0.000 
#
# Total GULP energy -297380.141260 kJ/mol
# GULP energy per Si atom -12390.839219 kJ/mol
# Density = 2.103893 g / cm^3
# Si number density = 21.086921 Si / 1000 Ang^3
#
#
#
# Elastic Constant Matrix: (Units=GPa)
#
#
# Indices 1 2 3 4 5 6 
#
# 1 87.8725 41.2674 20.9054 0.0000 0.0000 0.0000
# 2 41.2674 157.3947 47.1081 0.0000 0.0000 0.0000
# 3 20.9054 47.1081 68.9622 0.0000 0.0000 0.0000
# 4 0.0000 0.0000 0.0000 -59.8754 0.0000 0.0000
# 5 0.0000 0.0000 0.0000 0.0000 35.6612 0.0000
# 6 0.0000 0.0000 0.0000 0.0000 0.0000 23.1811
#
#
#
# Elastic Compliance Matrix: (Units=1/GPa)
#
#
# Indices 1 2 3 4 5 6 
#
# 1 0.013207 -0.002846 -0.002059 0.000000 0.000000 0.000000
# 2 -0.002846 0.008600 -0.005012 0.000000 0.000000 0.000000
# 3 -0.002059 -0.005012 0.018548 0.000000 0.000000 0.000000
# 4 0.000000 0.000000 0.000000 -0.016701 0.000000 0.000000
# 5 0.000000 0.000000 0.000000 0.000000 0.028042 0.000000
# 6 0.000000 0.000000 0.000000 0.000000 0.000000 0.043139
#
#
# Mechanical properties :
#
#
# Convention : Reuss Voigt Hill
#
# Bulk Modulus (GPa) = 48.73174 59.19903 53.96539
# Shear Modulus (GPa) = 41.14947 13.45661 27.30304
#
# Velocity S-wave (km/s) = 4.42228 2.52890 3.60222
# Velocity P-wave (km/s) = 7.01680 6.05491 6.55353
#
# Compressibility (1/GPa) = 0.02052051
#
# Stress axis : x y z
#
# Youngs Moduli (GPa) = 75.71888 116.28284 53.91307
#
# Poissons Ratio (x) = 0.33098 0.11102
# Poissons Ratio (y) = 0.21552 0.27019
# Poissons Ratio (z) = 0.15592 0.58277
#
# Static dielectric constant tensor:
#      x y z
#    x 4.949570 0.000000 0.000000 
#    y 0.000000 4.001250 0.000000 
#    z 0.000000 0.000000 3.299300 
# 
# 
# High freq. dielectric constant tensor:
#      x y z
#    x 1.850860 0.000000 0.000000 
#    y 0.000000 1.840510 0.000000 
#    z 0.000000 0.000000 1.773510 
# 
# From -- ./inp_files/28175.got.cif
#   From: 2010.03.12/outbox.cif.g09.slc.cpg/sg24_15_cif.got.tgz:28175.got - 2010.04.14 03:06:53.
