data_PCOD8165829
_publ_section_title
;
Structure prediction by ZEFSAII (Michael W. Deem and Ramdas Pophale) SiO2 
 PCOD8165829
Probable space group: I 21 21 21
;
_chemical_formula_sum "Si O2"
_cell_formula_units_Z 48
_cell_length_a 6.603618
_cell_length_b 14.898752
_cell_length_c 22.544626
_cell_angle_alpha 90.000000
_cell_angle_beta 90.000000
_cell_angle_gamma 90.000000
_cell_volume 2218.068064
_symmetry_space_group_name_H-M "I 21 21 21"
_symmetry_group_IT_number 24
_symmetry_cell_setting 'orthorhombic'
loop_
_space_group_symop_operation_xyz
x,y,z
-x,1/2-y,z
x,-y,1/2-z
1/2-x,y,-z
1/2+x,1/2+y,1/2+z
1/2-x,-y,1/2+z
1/2+x,1/2-y,-z
-x,1/2+y,1/2-z
loop_
_atom_site_type_symbol
_atom_site_label
_atom_site_fract_x
_atom_site_fract_y
_atom_site_fract_z
Si Si1 0.890864 0.992799 0.444853
Si Si2 0.194802 0.027202 0.684525
Si Si3 0.000000 0.250000 0.925037
Si Si4 0.463993 0.348592 0.625414
Si Si5 0.750000 0.609824 0.500000
Si Si6 0.137215 0.398661 0.849669
Si Si7 0.368406 0.338705 0.277857
O O1 0.750000 0.966588 0.500000
O O2 0.884040 0.099784 0.433117
O O3 0.805242 0.958147 0.382032
O O4 0.114367 0.953660 0.457575
O O5 0.357675 0.084208 0.647729
O O6 0.000355 0.089043 0.688838
O O7 0.279170 0.000000 0.750000
O O8 0.094089 0.940678 0.650416
O O9 0.892761 0.325325 0.963381
O O10 0.847720 0.196454 0.883016
O O11 0.500000 0.250000 0.598909
O O12 0.321399 0.322699 0.680356
O O13 0.212854 0.380931 0.783183
O O14 0.500000 0.250000 0.265634
#
# Coordination Sequence:
#
# PCOD8165829 Si02
#       7
#     8   8   4   8   4   8   8
#     4  12  27  49  70  98 138 189 241 292 352 415
#     4  10  23  41  67 100 139 182 221 286 354 423
#     4  12  22  42  70 100 134 182 222 286 356 404
#     4  12  26  44  70 102 136 186 239 290 352 415
#     4  12  26  48  70 102 144 180 240 294 342 428
#     4  11  23  44  70 102 140 181 226 286 362 428
#     4  11  22  44  68 103 146 177 227 288 352 432
#
# _framework density 21.640453000000001
#
# number of rings (size 3 to 8) (size 9 to 14) (size 15 to 20)
#    0.000    0.667    5.833    2.000    2.333    0.000 
#    4.500    0.000    0.000    0.000    0.000    0.000 
#    0.000    0.000    0.000    0.000    0.000    0.000 
#
# Total GULP energy -297358.600255 kJ/mol
# GULP energy per Si atom -12389.941677 kJ/mol
# Density = 2.159120 g / cm^3
# Si number density = 21.640453 Si / 1000 Ang^3
#
#
#
# Elastic Constant Matrix: (Units=GPa)
#
#
# Indices 1 2 3 4 5 6 
#
# 1 72.7212 28.7404 40.6060 0.0000 0.0000 0.0000
# 2 28.7404 134.7939 37.7732 0.0000 0.0000 0.0000
# 3 40.6060 37.7732 77.5768 0.0000 0.0000 0.0000
# 4 0.0000 0.0000 0.0000 42.1654 0.0000 0.0000
# 5 0.0000 0.0000 0.0000 0.0000 12.5828 0.0000
# 6 0.0000 0.0000 0.0000 0.0000 0.0000 27.8380
#
#
#
# Elastic Compliance Matrix: (Units=1/GPa)
#
#
# Indices 1 2 3 4 5 6 
#
# 1 0.019694 -0.001517 -0.009570 0.000000 0.000000 0.000000
# 2 -0.001517 0.008708 -0.003446 0.000000 0.000000 0.000000
# 3 -0.009570 -0.003446 0.019577 0.000000 0.000000 0.000000
# 4 0.000000 0.000000 0.000000 0.023716 0.000000 0.000000
# 5 0.000000 0.000000 0.000000 0.000000 0.079474 0.000000
# 6 0.000000 0.000000 0.000000 0.000000 0.000000 0.035922
#
#
# Mechanical properties :
#
#
# Convention : Reuss Voigt Hill
#
# Bulk Modulus (GPa) = 52.87162 55.48124 54.17643
# Shear Modulus (GPa) = 22.47576 28.38206 25.42891
#
# Velocity S-wave (km/s) = 3.22623 3.62543 3.43164
# Velocity P-wave (km/s) = 6.19378 6.57407 6.38676
#
# Compressibility (1/GPa) = 0.01891374
#
# Stress axis : x y z
#
# Youngs Moduli (GPa) = 50.77581 114.83871 51.07956
#
# Poissons Ratio (x) = 0.17426 0.48882
# Poissons Ratio (y) = 0.07705 0.17600
# Poissons Ratio (z) = 0.48591 0.39570
#
# Static dielectric constant tensor:
#      x y z
#    x 3.880070 0.000000 0.000000 
#    y 0.000000 4.431990 0.000000 
#    z 0.000000 0.000000 4.259670 
# 
# 
# High freq. dielectric constant tensor:
#      x y z
#    x 1.834560 0.000000 0.000000 
#    y 0.000000 1.871950 0.000000 
#    z 0.000000 0.000000 1.853300 
# 
# From -- ./inp_files/36489.got.cif
#   From: 2010.03.12/outbox.cif.g09.slc.cpg/sg24_19_cif.got.tgz:36489.got - 2010.04.14 03:06:53.
