data_PCOD8165306
_publ_section_title
;
Structure prediction by ZEFSAII (Michael W. Deem and Ramdas Pophale) SiO2 
 PCOD8165306
Probable space group: I 21 21 21
;
_chemical_formula_sum "Si O2"
_cell_formula_units_Z 40
_cell_length_a 12.534466
_cell_length_b 8.121257
_cell_length_c 17.423706
_cell_angle_alpha 90.000000
_cell_angle_beta 90.000000
_cell_angle_gamma 90.000000
_cell_volume 1773.656951
_symmetry_space_group_name_H-M "I 21 21 21"
_symmetry_group_IT_number 24
_symmetry_cell_setting 'orthorhombic'
loop_
_space_group_symop_operation_xyz
x,y,z
-x,1/2-y,z
x,-y,1/2-z
1/2-x,y,-z
1/2+x,1/2+y,1/2+z
1/2-x,-y,1/2+z
1/2+x,1/2-y,-z
-x,1/2+y,1/2-z
loop_
_atom_site_type_symbol
_atom_site_label
_atom_site_fract_x
_atom_site_fract_y
_atom_site_fract_z
Si Si1 0.521300 0.572669 0.475668
Si Si2 0.250000 0.984187 0.000000
Si Si3 0.319032 0.409906 0.929336
Si Si4 0.119905 0.310418 0.227050
Si Si5 0.232123 0.257815 0.640536
Si Si6 0.500000 0.250000 0.373621
O O1 0.500000 0.750000 0.434068
O O2 0.641430 0.589523 0.508905
O O3 0.440193 0.549281 0.546601
O O4 0.505694 0.415593 0.423179
O O5 0.240501 0.880153 0.923161
O O6 0.326888 0.284842 0.856987
O O7 0.258919 0.572686 0.901431
O O8 0.250000 0.334343 0.000000
O O9 0.123453 0.500000 0.250000
O O10 0.190385 0.211670 0.289197
O O11 0.000000 0.250000 0.229902
O O12 0.110022 0.263053 0.674279
#
# Coordination Sequence:
#
# PCOD8165306 Si02
#       6
#     8   4   8   8   8   4
#     4  11  23  37  64 102 135 176 231 283 339 407
#     4  10  22  36  64 104 136 182 230 288 334 412
#     4  11  20  40  67  95 134 180 222 280 354 415
#     4  10  24  41  66  97 133 178 222 292 346 409
#     4  10  20  39  68  96 132 178 237 278 343 422
#     4  10  20  42  66  98 134 182 224 284 340 398
#
# _framework density 22.552274000000001
#
# number of rings (size 3 to 8) (size 9 to 14) (size 15 to 20)
#    0.000    1.600    3.000    1.800    7.000    0.000 
#    0.000    0.000    4.400    3.600    0.000    0.000 
#    0.000    0.000    0.000    0.000    0.000    0.800 
#
# Total GULP energy -247863.355032 kJ/mol
# GULP energy per Si atom -12393.167752 kJ/mol
# Density = 2.250094 g / cm^3
# Si number density = 22.552274 Si / 1000 Ang^3
#
#
#
# Elastic Constant Matrix: (Units=GPa)
#
#
# Indices 1 2 3 4 5 6 
#
# 1 230.7639 39.1647 84.3580 0.0000 0.0000 0.0000
# 2 39.1647 82.8168 15.9649 0.0000 0.0000 0.0000
# 3 84.3580 15.9649 142.8510 0.0000 0.0000 0.0000
# 4 0.0000 0.0000 0.0000 13.8960 0.0000 0.0000
# 5 0.0000 0.0000 0.0000 0.0000 27.5339 0.0000
# 6 0.0000 0.0000 0.0000 0.0000 0.0000 28.8139
#
#
#
# Elastic Compliance Matrix: (Units=1/GPa)
#
#
# Indices 1 2 3 4 5 6 
#
# 1 0.005881 -0.002158 -0.003232 0.000000 0.000000 0.000000
# 2 -0.002158 0.013133 -0.000193 0.000000 0.000000 0.000000
# 3 -0.003232 -0.000193 0.008930 0.000000 0.000000 0.000000
# 4 0.000000 0.000000 0.000000 0.071963 0.000000 0.000000
# 5 0.000000 0.000000 0.000000 0.000000 0.036319 0.000000
# 6 0.000000 0.000000 0.000000 0.000000 0.000000 0.034705
#
#
# Mechanical properties :
#
#
# Convention : Reuss Voigt Hill
#
# Bulk Modulus (GPa) = 59.60259 81.71185 70.65722
# Shear Modulus (GPa) = 26.63958 35.17839 30.90898
#
# Velocity S-wave (km/s) = 3.44064 3.95379 3.70611
# Velocity P-wave (km/s) = 6.50154 7.56004 7.05068
#
# Compressibility (1/GPa) = 0.01677779
#
# Stress axis : x y z
#
# Youngs Moduli (GPa) = 170.03520 76.14564 111.97751
#
# Poissons Ratio (x) = 0.16434 0.36189
# Poissons Ratio (y) = 0.36697 0.02163
# Poissons Ratio (z) = 0.54952 0.01471
#
# Static dielectric constant tensor:
#      x y z
#    x 4.896660 0.000000 0.000000 
#    y 0.000000 4.046500 0.000000 
#    z 0.000000 0.000000 4.087000 
# 
# 
# High freq. dielectric constant tensor:
#      x y z
#    x 1.920280 0.000000 0.000000 
#    y 0.000000 1.895150 0.000000 
#    z 0.000000 0.000000 1.859570 
# 
# From -- ./inp_files/21369.got.cif
#   From: 2010.03.12/outbox.cif.g09.slc.cpg/sg24_11_cif.got.tgz:21369.got - 2010.04.14 03:06:53.
