data_PCOD8165208
_publ_section_title
;
Structure prediction by ZEFSAII (Michael W. Deem and Ramdas Pophale) SiO2 
 PCOD8165208
Probable space group: I 21 21 21
;
_chemical_formula_sum "Si O2"
_cell_formula_units_Z 56
_cell_length_a 7.902374
_cell_length_b 20.273291
_cell_length_c 15.772324
_cell_angle_alpha 90.000000
_cell_angle_beta 90.000000
_cell_angle_gamma 90.000000
_cell_volume 2526.838725
_symmetry_space_group_name_H-M "I 21 21 21"
_symmetry_group_IT_number 24
_symmetry_cell_setting 'orthorhombic'
loop_
_space_group_symop_operation_xyz
x,y,z
-x,1/2-y,z
x,-y,1/2-z
1/2-x,y,-z
1/2+x,1/2+y,1/2+z
1/2-x,-y,1/2+z
1/2+x,1/2-y,-z
-x,1/2+y,1/2-z
loop_
_atom_site_type_symbol
_atom_site_label
_atom_site_fract_x
_atom_site_fract_y
_atom_site_fract_z
Si Si1 0.100307 0.575063 0.255562
Si Si2 0.633170 0.693745 0.924719
Si Si3 0.548167 0.933410 0.196767
Si Si4 0.360534 0.196695 0.922990
Si Si5 0.554138 0.068371 0.498184
Si Si6 0.589921 0.922737 0.556005
Si Si7 0.243438 0.848391 0.245844
O O1 0.044322 0.500000 0.250000
O O2 0.260023 0.596471 0.196583
O O3 0.160620 0.589054 0.350489
O O4 0.934336 0.614969 0.231715
O O5 0.500000 0.750000 0.907296
O O6 0.553861 0.622544 0.950908
O O7 0.750586 0.694202 0.840148
O O8 0.750000 0.719266 0.000000
O O9 0.410578 0.892560 0.248776
O O10 0.566056 0.000000 0.250000
O O11 0.490226 0.939914 0.099062
O O12 0.500000 0.250000 0.900354
O O13 0.434269 0.127210 0.957578
O O14 0.254861 0.189580 0.835502
O O15 0.250000 0.225419 0.000000
O O16 0.750000 0.088664 0.500000
O O17 0.525520 0.997599 0.542849
O O18 0.750000 0.904356 0.500000
#
# Coordination Sequence:
#
# PCOD8165208 Si02
#       7
#     8   8   8   8   8   8   8
#     4  10  20  37  60  94 141 180 216 283 346 413
#     4  12  25  45  67  94 140 182 236 287 349 418
#     4  11  22  37  67 104 143 179 231 282 349 420
#     4  11  26  46  70  97 135 180 235 295 363 423
#     4  11  22  40  67 103 137 182 230 287 348 419
#     4  10  21  38  67  96 132 174 222 283 357 409
#     4  11  24  44  67  99 133 184 236 290 348 426
#
# _framework density 22.162078000000001
#
# number of rings (size 3 to 8) (size 9 to 14) (size 15 to 20)
#    0.000    1.143    1.429    6.857    4.000    1.714 
#    0.000    0.714    0.000    0.000    0.000    0.000 
#    0.000    0.000    0.000    0.000    0.000    0.000 
#
# Total GULP energy -347106.592430 kJ/mol
# GULP energy per Si atom -12396.664015 kJ/mol
# Density = 2.211164 g / cm^3
# Si number density = 22.162078 Si / 1000 Ang^3
#
#
#
# Elastic Constant Matrix: (Units=GPa)
#
#
# Indices 1 2 3 4 5 6 
#
# 1 58.7133 7.9568 7.2267 0.0000 0.0000 0.0000
# 2 7.9568 55.6114 6.6094 0.0000 0.0000 0.0000
# 3 7.2267 6.6094 134.0352 0.0001 0.0000 0.0000
# 4 0.0000 0.0000 0.0001 17.2983 0.0000 0.0000
# 5 0.0000 0.0000 0.0000 0.0000 37.3849 0.0000
# 6 0.0000 0.0000 0.0000 0.0000 0.0000 1.2480
#
#
#
# Elastic Compliance Matrix: (Units=1/GPa)
#
#
# Indices 1 2 3 4 5 6 
#
# 1 0.017458 -0.002400 -0.000823 0.000000 0.000000 0.000000
# 2 -0.002400 0.018418 -0.000779 0.000000 0.000000 0.000000
# 3 -0.000823 -0.000779 0.007544 0.000000 0.000000 0.000000
# 4 0.000000 0.000000 0.000000 0.057809 0.000000 0.000000
# 5 0.000000 0.000000 0.000000 0.000000 0.026749 0.000000
# 6 0.000000 0.000000 0.000000 0.000000 0.000000 0.801281
#
#
# Mechanical properties :
#
#
# Convention : Reuss Voigt Hill
#
# Bulk Modulus (GPa) = 28.23576 32.43844 30.33710
# Shear Modulus (GPa) = 5.26833 26.29071 15.77952
#
# Velocity S-wave (km/s) = 1.54348 3.44800 2.67124
# Velocity P-wave (km/s) = 3.99308 5.52451 4.82001
#
# Compressibility (1/GPa) = 0.03541609
#
# Stress axis : x y z
#
# Youngs Moduli (GPa) = 57.27875 54.29505 132.56446
#
# Poissons Ratio (x) = 0.13032 0.10909
# Poissons Ratio (y) = 0.13748 0.10324
# Poissons Ratio (z) = 0.04714 0.04229
#
# Static dielectric constant tensor:
#      x y z
#    x 4.182280 0.000000 0.000000 
#    y 0.000000 3.791560 0.000000 
#    z 0.000000 0.000000 4.419980 
# 
# 
# High freq. dielectric constant tensor:
#      x y z
#    x 1.870590 0.000000 0.000000 
#    y 0.000000 1.853570 0.000000 
#    z 0.000000 0.000000 1.900360 
# 
# From -- ./inp_files/25056.got.cif
#   From: 2010.03.12/outbox.cif.g09.slc.cpg/sg24_13_cif.got.tgz:25056.got - 2010.04.14 03:06:53.
