data_PCOD8165488
_publ_section_title
;
Structure prediction by ZEFSAII (Michael W. Deem and Ramdas Pophale) SiO2 
 PCOD8165488
Probable space group: I 21 21 21
;
_chemical_formula_sum "Si O2"
_cell_formula_units_Z 48
_cell_length_a 20.776758
_cell_length_b 23.056690
_cell_length_c 5.020702
_cell_angle_alpha 90.000000
_cell_angle_beta 90.000000
_cell_angle_gamma 90.000000
_cell_volume 2405.133496
_symmetry_space_group_name_H-M "I 21 21 21"
_symmetry_group_IT_number 24
_symmetry_cell_setting 'orthorhombic'
loop_
_space_group_symop_operation_xyz
x,y,z
-x,1/2-y,z
x,-y,1/2-z
1/2-x,y,-z
1/2+x,1/2+y,1/2+z
1/2-x,-y,1/2+z
1/2+x,1/2-y,-z
-x,1/2+y,1/2-z
loop_
_atom_site_type_symbol
_atom_site_label
_atom_site_fract_x
_atom_site_fract_y
_atom_site_fract_z
Si Si1 0.824834 0.960766 0.999404
Si Si2 0.293759 0.064657 0.751303
Si Si3 0.480753 0.684116 0.572736
Si Si4 0.377692 0.833779 0.581446
Si Si5 0.602674 0.158621 0.420080
Si Si6 0.824877 0.728023 0.937944
O O1 0.843046 0.000000 0.250000
O O2 0.750000 0.942614 0.000000
O O3 0.867088 0.902763 0.999218
O O4 0.842630 0.000000 0.750000
O O5 0.250000 0.079023 0.500000
O O6 0.351369 0.108888 0.777385
O O7 0.322882 0.000000 0.750000
O O8 0.250000 0.074315 0.000000
O O9 0.500000 0.750000 0.501269
O O10 0.547817 0.650087 0.550407
O O11 0.433225 0.655106 0.361148
O O12 0.449237 0.678775 0.862404
O O13 0.344951 0.814747 0.303267
O O14 0.366574 0.783017 0.796099
O O15 0.660110 0.205039 0.373643
O O16 0.750000 0.718450 0.000000
#
# Coordination Sequence:
#
# PCOD8165488 Si02
#       6
#     8   8   8   8   8   8
#     4  10  22  42  67  94 127 167 211 264 323 375
#     4  10  21  39  61  84 115 154 197 248 304 356
#     4  12  23  41  61  89 127 173 201 248 308 377
#     4  12  23  38  59  88 122 158 204 242 308 367
#     4  12  23  41  63  91 124 164 213 249 312 373
#     4  12  23  36  60  91 122 150 195 260 309 365
#
# _framework density 19.957311000000001
#
# number of rings (size 3 to 8) (size 9 to 14) (size 15 to 20)
#    0.000    0.667    3.333    6.000    0.000    0.000 
#    0.000    7.500    0.000    0.000    0.000    0.000 
#    0.000    0.000    0.000    0.000    0.000    0.000 
#
# Total GULP energy -297613.790094 kJ/mol
# GULP energy per Si atom -12400.574587 kJ/mol
# Density = 1.991189 g / cm^3
# Si number density = 19.957311 Si / 1000 Ang^3
#
#
#
# Elastic Constant Matrix: (Units=GPa)
#
#
# Indices 1 2 3 4 5 6 
#
# 1 96.3840 45.4143 25.9106 0.0000 0.0000 0.0000
# 2 45.4143 113.1310 17.4591 0.0000 0.0000 0.0000
# 3 25.9106 17.4591 119.7618 0.0000 0.0000 0.0000
# 4 0.0000 0.0000 0.0000 21.2839 0.0000 0.0000
# 5 0.0000 0.0000 0.0000 0.0000 42.0565 0.0000
# 6 0.0000 0.0000 0.0000 0.0000 0.0000 10.3675
#
#
#
# Elastic Compliance Matrix: (Units=1/GPa)
#
#
# Indices 1 2 3 4 5 6 
#
# 1 0.013315 -0.005013 -0.002150 0.000000 0.000000 0.000000
# 2 -0.005013 0.010930 -0.000509 0.000000 0.000000 0.000000
# 3 -0.002150 -0.000509 0.008889 0.000000 0.000000 0.000000
# 4 0.000000 0.000000 0.000000 0.046984 0.000000 0.000000
# 5 0.000000 0.000000 0.000000 0.000000 0.023778 0.000000
# 6 0.000000 0.000000 0.000000 0.000000 0.000000 0.096455
#
#
# Mechanical properties :
#
#
# Convention : Reuss Voigt Hill
#
# Bulk Modulus (GPa) = 56.20920 56.31609 56.26265
# Shear Modulus (GPa) = 22.56054 30.77444 26.66749
#
# Velocity S-wave (km/s) = 3.36585 3.93111 3.65941
# Velocity P-wave (km/s) = 6.58264 6.99173 6.79027
#
# Compressibility (1/GPa) = 0.01779068
#
# Stress axis : x y z
#
# Youngs Moduli (GPa) = 75.10133 91.48817 112.49587
#
# Poissons Ratio (x) = 0.45867 0.24186
# Poissons Ratio (y) = 0.37651 0.05724
# Poissons Ratio (z) = 0.16146 0.04655
#
# Static dielectric constant tensor:
#      x y z
#    x 3.710280 0.000000 0.000000 
#    y 0.000000 3.521020 0.000000 
#    z 0.000000 0.000000 3.925950 
# 
# 
# High freq. dielectric constant tensor:
#      x y z
#    x 1.776600 0.000000 0.000000 
#    y 0.000000 1.776300 0.000000 
#    z 0.000000 0.000000 1.800750 
# 
# From -- ./inp_files/5619.got.cif
#   From: 2010.03.12/outbox.cif.g09.slc.cpg/sg24_3_cif.got.tgz:5619.got - 2010.04.14 03:06:53.
