data_PCOD8165782
_publ_section_title
;
Structure prediction by ZEFSAII (Michael W. Deem and Ramdas Pophale) SiO2 
 PCOD8165782
Probable space group: I 21 21 21
;
_chemical_formula_sum "Si O2"
_cell_formula_units_Z 48
_cell_length_a 23.799773
_cell_length_b 13.547204
_cell_length_c 7.480060
_cell_angle_alpha 90.000000
_cell_angle_beta 90.000000
_cell_angle_gamma 90.000000
_cell_volume 2411.723788
_symmetry_space_group_name_H-M "I 21 21 21"
_symmetry_group_IT_number 24
_symmetry_cell_setting 'orthorhombic'
loop_
_space_group_symop_operation_xyz
x,y,z
-x,1/2-y,z
x,-y,1/2-z
1/2-x,y,-z
1/2+x,1/2+y,1/2+z
1/2-x,-y,1/2+z
1/2+x,1/2-y,-z
-x,1/2+y,1/2-z
loop_
_atom_site_type_symbol
_atom_site_label
_atom_site_fract_x
_atom_site_fract_y
_atom_site_fract_z
Si Si1 0.439109 0.017515 0.948842
Si Si2 0.250000 0.243794 0.500000
Si Si3 0.472705 0.500000 0.250000
Si Si4 0.768877 0.890506 0.697193
Si Si5 0.873522 0.324488 0.506836
Si Si6 0.106297 0.673324 0.694642
Si Si7 0.566660 0.268842 0.850503
O O1 0.417683 0.129569 0.953462
O O2 0.461898 0.000000 0.750000
O O3 0.491753 0.004606 0.072606
O O4 0.390487 0.939924 0.004315
O O5 0.240073 0.312419 0.328205
O O6 0.194319 0.176543 0.507939
O O7 0.438104 0.599118 0.221636
O O8 0.750000 0.862426 0.500000
O O9 0.835201 0.881898 0.714111
O O10 0.748861 0.000000 0.750000
O O11 0.895867 0.273712 0.688630
O O12 0.901277 0.266185 0.339353
O O13 0.092124 0.688254 0.485273
O O14 0.500000 0.250000 0.822359
#
# Coordination Sequence:
#
# PCOD8165782 Si02
#       7
#     8   4   4   8   8   8   8
#     4  10  23  39  61  88 123 160 204 251 309 365
#     4  10  22  44  64  90 120 168 210 268 310 370
#     4  12  22  36  58  92 128 162 198 256 306 376
#     4  11  21  38  61  88 125 160 206 262 313 367
#     4  10  24  41  66  89 124 166 210 258 315 368
#     4  11  24  37  59  93 125 162 211 248 316 380
#     4  11  22  40  63  93 125 163 205 257 314 376
#
# _framework density 19.902774999999998
#
# number of rings (size 3 to 8) (size 9 to 14) (size 15 to 20)
#    0.000    1.333    3.333    2.000    4.667    0.000 
#    0.000    0.833   29.333    0.000    0.000    0.000 
#    0.000    0.000    0.000    0.000    0.000    0.000 
#
# Total GULP energy -297586.123969 kJ/mol
# GULP energy per Si atom -12399.421832 kJ/mol
# Density = 1.985748 g / cm^3
# Si number density = 19.902775 Si / 1000 Ang^3
#
#
#
# Elastic Constant Matrix: (Units=GPa)
#
#
# Indices 1 2 3 4 5 6 
#
# 1 93.6714 32.2991 30.0277 0.0000 0.0000 0.0000
# 2 32.2991 81.6576 15.6861 0.0000 0.0000 0.0000
# 3 30.0277 15.6861 103.8426 0.0000 0.0000 0.0000
# 4 0.0000 0.0000 0.0000 -5.8102 0.0000 0.0000
# 5 0.0000 0.0000 0.0000 0.0000 34.4966 0.0000
# 6 0.0000 0.0000 0.0000 0.0000 0.0000 181.5114
#
#
#
# Elastic Compliance Matrix: (Units=1/GPa)
#
#
# Indices 1 2 3 4 5 6 
#
# 1 0.013286 -0.004652 -0.003139 0.000000 0.000000 0.000000
# 2 -0.004652 0.014241 -0.000806 0.000000 0.000000 0.000000
# 3 -0.003139 -0.000806 0.010659 0.000000 0.000000 0.000000
# 4 0.000000 0.000000 0.000000 -0.172112 0.000000 0.000000
# 5 0.000000 0.000000 0.000000 0.000000 0.028988 0.000000
# 6 0.000000 0.000000 0.000000 0.000000 0.000000 0.005509
#
#
# Mechanical properties :
#
#
# Convention : Reuss Voigt Hill
#
# Bulk Modulus (GPa) = 47.63690 48.35525 47.99608
# Shear Modulus (GPa) = -66.45790 55.45014 -5.50388
#
# Velocity S-wave (km/s) = -5.78479 5.28403 -1.66475
# Velocity P-wave (km/s) = 4.54220 7.84707 4.52465
#
# Compressibility (1/GPa) = 0.02099213
#
# Stress axis : x y z
#
# Youngs Moduli (GPa) = 75.26697 70.21873 93.81361
#
# Poissons Ratio (x) = 0.32667 0.29449
# Poissons Ratio (y) = 0.35016 0.07561
# Poissons Ratio (z) = 0.23627 0.05659
#
# Static dielectric constant tensor:
#      x y z
#    x 3.559060 0.000000 0.000000 
#    y 0.000000 3.750280 0.000000 
#    z 0.000000 0.000000 3.831450 
# 
# 
# High freq. dielectric constant tensor:
#      x y z
#    x 1.770430 0.000000 0.000000 
#    y 0.000000 1.776350 0.000000 
#    z 0.000000 0.000000 1.793190 
# 
# From -- ./inp_files/15871.got.cif
#   From: 2010.03.12/outbox.cif.g09.slc.cpg/sg24_8_cif.got.tgz:15871.got - 2010.04.14 03:06:53.
