data_PCOD8165791
_publ_section_title
;
Structure prediction by ZEFSAII (Michael W. Deem and Ramdas Pophale) SiO2 
 PCOD8165791
Probable space group: I 21 21 21
;
_chemical_formula_sum "Si O2"
_cell_formula_units_Z 60
_cell_length_a 19.321329
_cell_length_b 8.854430
_cell_length_c 16.316331
_cell_angle_alpha 90.000000
_cell_angle_beta 90.000000
_cell_angle_gamma 90.000000
_cell_volume 2791.387386
_symmetry_space_group_name_H-M "I 21 21 21"
_symmetry_group_IT_number 24
_symmetry_cell_setting 'orthorhombic'
loop_
_space_group_symop_operation_xyz
x,y,z
-x,1/2-y,z
x,-y,1/2-z
1/2-x,y,-z
1/2+x,1/2+y,1/2+z
1/2-x,-y,1/2+z
1/2+x,1/2-y,-z
-x,1/2+y,1/2-z
loop_
_atom_site_type_symbol
_atom_site_label
_atom_site_fract_x
_atom_site_fract_y
_atom_site_fract_z
Si Si1 0.439668 0.347661 0.861049
Si Si2 0.233665 0.257081 0.692619
Si Si3 0.211543 0.982339 0.077725
Si Si4 0.032364 0.414805 0.476818
Si Si5 0.693073 0.262408 0.123907
Si Si6 0.087955 0.885486 0.502003
Si Si7 0.682893 0.069419 0.445415
Si Si8 0.833537 0.000000 0.250000
O O1 0.500000 0.250000 0.816232
O O2 0.467532 0.515254 0.884690
O O3 0.420961 0.264830 0.946911
O O4 0.375781 0.374201 0.800937
O O5 0.275787 0.110464 0.661109
O O6 0.194383 0.225888 0.777516
O O7 0.176255 0.304415 0.625909
O O8 0.286336 0.398221 0.691980
O O9 0.239023 0.153756 0.089541
O O10 0.130923 0.995891 0.054723
O O11 0.250000 0.905023 0.000000
O O12 0.111344 0.417029 0.506293
O O13 0.000000 0.250000 0.477147
O O14 0.983075 0.530523 0.528221
O O15 0.694339 0.092096 0.095449
O O16 0.625575 0.346137 0.087493
O O17 0.750000 0.106412 0.500000
#
# Coordination Sequence:
#
# PCOD8165791 Si02
#       8
#     8   8   8   8   8   8   8   4
#     4  10  23  44  64  93 134 183 229 273 348 422
#     4  12  25  40  65 106 139 176 226 297 349 406
#     4  10  23  40  68 100 135 176 234 282 344 402
#     4  11  26  42  71 101 131 175 238 291 340 411
#     4  11  22  42  69 101 137 180 230 283 347 412
#     4  10  22  44  70  95 131 187 233 280 340 430
#     4  12  24  42  72  97 137 180 234 288 345 424
#     4  12  24  40  68  96 142 180 226 286 356 412
#
# _framework density 21.494686999999999
#
# number of rings (size 3 to 8) (size 9 to 14) (size 15 to 20)
#    0.000    1.067    2.667    3.600    7.467    0.533 
#    2.400    0.000    5.867    0.000    0.000    0.000 
#    0.000    0.000    0.000    0.000    0.000    0.000 
#
# Total GULP energy -371813.775709 kJ/mol
# GULP energy per Si atom -12393.792524 kJ/mol
# Density = 2.144576 g / cm^3
# Si number density = 21.494687 Si / 1000 Ang^3
#
#
#
# Elastic Constant Matrix: (Units=GPa)
#
#
# Indices 1 2 3 4 5 6 
#
# 1 130.7600 41.3790 34.6232 0.0000 0.0000 0.0000
# 2 41.3790 104.2265 44.8454 0.0000 0.0000 0.0000
# 3 34.6232 44.8454 87.0380 0.0000 0.0000 0.0000
# 4 0.0000 0.0000 0.0000 38.8432 0.0000 0.0000
# 5 0.0000 0.0000 0.0000 0.0000 28.7642 0.0000
# 6 0.0000 0.0000 0.0000 0.0000 0.0000 33.8997
#
#
#
# Elastic Compliance Matrix: (Units=1/GPa)
#
#
# Indices 1 2 3 4 5 6 
#
# 1 0.009078 -0.002634 -0.002254 0.000000 0.000000 0.000000
# 2 -0.002634 0.013092 -0.005697 0.000000 0.000000 0.000000
# 3 -0.002254 -0.005697 0.015321 0.000000 0.000000 0.000000
# 4 0.000000 0.000000 0.000000 0.025745 0.000000 0.000000
# 5 0.000000 0.000000 0.000000 0.000000 0.034765 0.000000
# 6 0.000000 0.000000 0.000000 0.000000 0.000000 0.029499
#
#
# Mechanical properties :
#
#
# Convention : Reuss Voigt Hill
#
# Bulk Modulus (GPa) = 61.27511 62.63551 61.95531
# Shear Modulus (GPa) = 32.44409 33.71321 33.07865
#
# Velocity S-wave (km/s) = 3.88932 3.96465 3.92717
# Velocity P-wave (km/s) = 6.98126 7.08246 7.03204
#
# Compressibility (1/GPa) = 0.01631984
#
# Stress axis : x y z
#
# Youngs Moduli (GPa) = 110.15629 76.38384 65.26825
#
# Poissons Ratio (x) = 0.20122 0.14711
# Poissons Ratio (y) = 0.29018 0.37187
# Poissons Ratio (z) = 0.24828 0.43520
#
# Static dielectric constant tensor:
#      x y z
#    x 4.003360 0.000000 0.000000 
#    y 0.000000 4.063210 0.000000 
#    z 0.000000 0.000000 3.826140 
# 
# 
# High freq. dielectric constant tensor:
#      x y z
#    x 1.839740 0.000000 0.000000 
#    y 0.000000 1.863640 0.000000 
#    z 0.000000 0.000000 1.825390 
# 
# From -- ./inp_files/31217.got.cif
#   From: 2010.03.12/outbox.cif.g09.slc.cpg/sg24_16_cif.got.tgz:31217.got - 2010.04.14 03:06:53.
