data_PCOD8165231
_publ_section_title
;
Structure prediction by ZEFSAII (Michael W. Deem and Ramdas Pophale) SiO2 
 PCOD8165231
Probable space group: I 21 21 21
;
_chemical_formula_sum "Si O2"
_cell_formula_units_Z 36
_cell_length_a 25.481641
_cell_length_b 5.055602
_cell_length_c 13.943120
_cell_angle_alpha 90.000000
_cell_angle_beta 90.000000
_cell_angle_gamma 90.000000
_cell_volume 1796.222925
_symmetry_space_group_name_H-M "I 21 21 21"
_symmetry_group_IT_number 24
_symmetry_cell_setting 'orthorhombic'
loop_
_space_group_symop_operation_xyz
x,y,z
-x,1/2-y,z
x,-y,1/2-z
1/2-x,y,-z
1/2+x,1/2+y,1/2+z
1/2-x,-y,1/2+z
1/2+x,1/2-y,-z
-x,1/2+y,1/2-z
loop_
_atom_site_type_symbol
_atom_site_label
_atom_site_fract_x
_atom_site_fract_y
_atom_site_fract_z
Si Si1 0.940701 0.667454 0.451500
Si Si2 0.378926 0.315388 0.501745
Si Si3 0.308697 0.241612 0.686633
Si Si4 0.466961 0.000000 0.750000
Si Si5 0.811424 0.743676 0.813247
O O1 0.926445 0.395007 0.504759
O O2 0.933096 0.619219 0.337127
O O3 0.000000 0.750000 0.475531
O O4 0.901222 0.890823 0.487964
O O5 0.342368 0.250930 0.591189
O O6 0.345702 0.288071 0.406455
O O7 0.315930 0.500000 0.750000
O O8 0.248555 0.194450 0.655193
O O9 0.329482 0.000000 0.750000
O O10 0.500000 0.750000 0.792029
O O11 0.832722 0.500000 0.750000
O O12 0.816453 0.000000 0.750000
#
# Coordination Sequence:
#
# PCOD8165231 Si02
#       5
#     8   8   8   4   8
#     4  11  24  39  58  87 124 162 199 248 292 352
#     4  12  23  38  65  89 119 163 205 243 297 364
#     4  10  22  38  59  93 127 153 189 245 299 368
#     4  10  20  38  56  80 120 168 198 230 296 360
#     4  10  22  42  64  87 120 156 202 254 305 352
#
# _framework density 20.042055999999999
#
# number of rings (size 3 to 8) (size 9 to 14) (size 15 to 20)
#    0.000    1.333    0.000    6.667    4.667    0.000 
#    0.000    8.889    0.000   13.333    0.000    0.000 
#    0.000    0.000    0.000    0.000    0.000    0.000 
#
# Total GULP energy -223221.867131 kJ/mol
# GULP energy per Si atom -12401.214841 kJ/mol
# Density = 1.999644 g / cm^3
# Si number density = 20.042056 Si / 1000 Ang^3
#
#
#
# Elastic Constant Matrix: (Units=GPa)
#
#
# Indices 1 2 3 4 5 6 
#
# 1 79.0599 19.0738 48.6589 0.0000 0.0000 0.0000
# 2 19.0738 118.1575 20.0552 0.0000 0.0000 0.0000
# 3 48.6589 20.0552 86.7434 0.0000 0.0000 0.0000
# 4 0.0000 0.0000 0.0000 27.7056 0.0000 0.0000
# 5 0.0000 0.0000 0.0000 0.0000 42.7496 0.0000
# 6 0.0000 0.0000 0.0000 0.0000 0.0000 42.8819
#
#
#
# Elastic Compliance Matrix: (Units=1/GPa)
#
#
# Indices 1 2 3 4 5 6 
#
# 1 0.019522 -0.001345 -0.010640 0.000000 0.000000 0.000000
# 2 -0.001345 0.008902 -0.001303 0.000000 0.000000 0.000000
# 3 -0.010640 -0.001303 0.017798 0.000000 0.000000 0.000000
# 4 0.000000 0.000000 0.000000 0.036094 0.000000 0.000000
# 5 0.000000 0.000000 0.000000 0.000000 0.023392 0.000000
# 6 0.000000 0.000000 0.000000 0.000000 0.000000 0.023320
#
#
# Mechanical properties :
#
#
# Convention : Reuss Voigt Hill
#
# Bulk Modulus (GPa) = 50.90514 51.05963 50.98239
# Shear Modulus (GPa) = 30.83530 35.74562 33.29046
#
# Velocity S-wave (km/s) = 3.92667 4.22777 4.08000
# Velocity P-wave (km/s) = 6.78326 7.02592 6.90566
#
# Compressibility (1/GPa) = 0.01964438
#
# Stress axis : x y z
#
# Youngs Moduli (GPa) = 51.22530 112.33819 56.18634
#
# Poissons Ratio (x) = 0.15114 0.59780
# Poissons Ratio (y) = 0.06892 0.07323
# Poissons Ratio (z) = 0.54502 0.14642
#
# Static dielectric constant tensor:
#      x y z
#    x 3.783460 0.000000 0.000000 
#    y 0.000000 4.024520 0.000000 
#    z 0.000000 0.000000 3.415030 
# 
# 
# High freq. dielectric constant tensor:
#      x y z
#    x 1.782710 0.000000 0.000000 
#    y 0.000000 1.810170 0.000000 
#    z 0.000000 0.000000 1.764280 
# 
# From -- ./inp_files/6170.got.cif
#   From: 2010.03.12/outbox.cif.g09.slc.cpg/sg24_4_cif.got.tgz:6170.got - 2010.04.14 03:06:53.
