data_PCOD8165964
_publ_section_title
;
Structure prediction by ZEFSAII (Michael W. Deem and Ramdas Pophale) SiO2 
 PCOD8165964
Probable space group: I 21 21 21
;
_chemical_formula_sum "Si O2"
_cell_formula_units_Z 40
_cell_length_a 10.160903
_cell_length_b 11.044327
_cell_length_c 16.258531
_cell_angle_alpha 90.000000
_cell_angle_beta 90.000000
_cell_angle_gamma 90.000000
_cell_volume 1824.537801
_symmetry_space_group_name_H-M "I 21 21 21"
_symmetry_group_IT_number 24
_symmetry_cell_setting 'orthorhombic'
loop_
_space_group_symop_operation_xyz
x,y,z
-x,1/2-y,z
x,-y,1/2-z
1/2-x,y,-z
1/2+x,1/2+y,1/2+z
1/2-x,-y,1/2+z
1/2+x,1/2-y,-z
-x,1/2+y,1/2-z
loop_
_atom_site_type_symbol
_atom_site_label
_atom_site_fract_x
_atom_site_fract_y
_atom_site_fract_z
Si Si1 0.750000 0.620391 0.500000
Si Si2 0.306482 0.496686 0.342022
Si Si3 0.754056 0.723519 0.161401
Si Si4 0.500000 0.750000 0.942200
Si Si5 0.045556 0.058435 0.565895
Si Si6 0.656462 0.764970 0.657230
O O1 0.872538 0.534927 0.513557
O O2 0.720374 0.699136 0.580061
O O3 0.355087 0.500000 0.250000
O O4 0.262998 0.362130 0.365584
O O5 0.439608 0.527641 0.390222
O O6 0.188904 0.592799 0.355204
O O7 0.886356 0.689700 0.113092
O O8 0.634264 0.638726 0.130073
O O9 0.775897 0.710885 0.259826
O O10 0.461031 0.641632 0.003742
O O11 0.500000 0.750000 0.662303
#
# Coordination Sequence:
#
# PCOD8165964 Si02
#       6
#     4   8   8   4   8   8
#     4  12  30  44  66 108 142 194 232 294 362 430
#     4  10  25  45  74 102 134 191 239 293 363 424
#     4  11  23  47  74 105 139 185 239 306 354 420
#     4  12  22  42  72 106 142 176 242 298 356 412
#     4  12  25  45  71 108 145 185 243 296 363 424
#     4  11  28  50  70 101 146 192 242 290 363 438
#
# _framework density 21.923359000000001
#
# number of rings (size 3 to 8) (size 9 to 14) (size 15 to 20)
#    0.000    0.800    5.000    0.000    8.400    0.000 
#    3.600    0.000    0.000    0.000    0.000    0.000 
#    0.000    0.000    0.000    0.000    0.000    0.000 
#
# Total GULP energy -247861.357352 kJ/mol
# GULP energy per Si atom -12393.067868 kJ/mol
# Density = 2.187346 g / cm^3
# Si number density = 21.923359 Si / 1000 Ang^3
#
#
#
# Elastic Constant Matrix: (Units=GPa)
#
#
# Indices 1 2 3 4 5 6 
#
# 1 110.7163 27.9752 47.2675 0.0000 0.0000 0.0000
# 2 27.9752 81.8251 46.2982 0.0000 0.0000 0.0000
# 3 47.2675 46.2982 143.6462 0.0000 0.0000 0.0000
# 4 0.0000 0.0000 0.0000 33.1607 0.0000 0.0000
# 5 0.0000 0.0000 0.0000 0.0000 42.9887 0.0000
# 6 0.0000 0.0000 0.0000 0.0000 0.0000 15.9095
#
#
#
# Elastic Compliance Matrix: (Units=1/GPa)
#
#
# Indices 1 2 3 4 5 6 
#
# 1 0.010783 -0.002053 -0.002886 0.000000 0.000000 0.000000
# 2 -0.002053 0.015338 -0.004268 0.000000 0.000000 0.000000
# 3 -0.002886 -0.004268 0.009287 0.000000 0.000000 0.000000
# 4 0.000000 0.000000 0.000000 0.030156 0.000000 0.000000
# 5 0.000000 0.000000 0.000000 0.000000 0.023262 0.000000
# 6 0.000000 0.000000 0.000000 0.000000 0.000000 0.062855
#
#
# Mechanical properties :
#
#
# Convention : Reuss Voigt Hill
#
# Bulk Modulus (GPa) = 58.84889 64.36329 61.60609
# Shear Modulus (GPa) = 28.44762 32.72157 30.58459
#
# Velocity S-wave (km/s) = 3.60612 3.86754 3.73911
# Velocity P-wave (km/s) = 6.65132 7.02608 6.84127
#
# Compressibility (1/GPa) = 0.01699267
#
# Stress axis : x y z
#
# Youngs Moduli (GPa) = 92.73642 65.19710 107.67848
#
# Poissons Ratio (x) = 0.13388 0.31081
# Poissons Ratio (y) = 0.19043 0.45956
# Poissons Ratio (z) = 0.26768 0.27825
#
# Static dielectric constant tensor:
#      x y z
#    x 3.818090 0.000000 0.000000 
#    y 0.000000 4.222110 0.000000 
#    z 0.000000 0.000000 4.186840 
# 
# 
# High freq. dielectric constant tensor:
#      x y z
#    x 1.863710 0.000000 0.000000 
#    y 0.000000 1.858460 0.000000 
#    z 0.000000 0.000000 1.882590 
# 
# From -- ./inp_files/13847.got.cif
#   From: 2010.03.12/outbox.cif.g09.slc.cpg/sg24_7_cif.got.tgz:13847.got - 2010.04.14 03:06:53.
