data_PCOD8165705
_publ_section_title
;
Structure prediction by ZEFSAII (Michael W. Deem and Ramdas Pophale) SiO2 
 PCOD8165705
Probable space group: I 21 21 21
;
_chemical_formula_sum "Si O2"
_cell_formula_units_Z 56
_cell_length_a 8.800197
_cell_length_b 13.956986
_cell_length_c 20.703053
_cell_angle_alpha 90.000000
_cell_angle_beta 90.000000
_cell_angle_gamma 90.000000
_cell_volume 2542.836467
_symmetry_space_group_name_H-M "I 21 21 21"
_symmetry_group_IT_number 24
_symmetry_cell_setting 'orthorhombic'
loop_
_space_group_symop_operation_xyz
x,y,z
-x,1/2-y,z
x,-y,1/2-z
1/2-x,y,-z
1/2+x,1/2+y,1/2+z
1/2-x,-y,1/2+z
1/2+x,1/2-y,-z
-x,1/2+y,1/2-z
loop_
_atom_site_type_symbol
_atom_site_label
_atom_site_fract_x
_atom_site_fract_y
_atom_site_fract_z
Si Si1 0.660647 0.604304 0.271621
Si Si2 0.604385 0.665866 0.139899
Si Si3 0.859896 0.969978 0.343976
Si Si4 0.976508 0.037858 0.880459
Si Si5 0.417564 0.502111 0.984069
Si Si6 0.498972 0.138959 0.737189
Si Si7 0.627820 0.674320 0.947867
O O1 0.604785 0.500000 0.250000
O O2 0.596139 0.677107 0.217753
O O3 0.583601 0.615834 0.342833
O O4 0.841490 0.608929 0.270940
O O5 0.500000 0.750000 0.109364
O O6 0.550680 0.565830 0.112234
O O7 0.782919 0.668347 0.120535
O O8 0.679059 0.981232 0.342315
O O9 0.887370 0.880083 0.296901
O O10 0.911960 0.943996 0.416683
O O11 0.946496 0.068620 0.321222
O O12 0.956604 0.069513 0.955788
O O13 0.550479 0.579189 0.975219
O O14 0.250000 0.548115 0.000000
O O15 0.500000 0.250000 0.715734
O O16 0.500000 0.750000 0.934434
O O17 0.750000 0.710637 0.000000
#
# Coordination Sequence:
#
# PCOD8165705 Si02
#       7
#     8   8   8   8   8   8   8
#     4  10  22  41  60  87 128 163 215 264 317 386
#     4  11  25  38  58  92 128 171 218 268 323 390
#     4  10  23  41  67  95 132 170 219 271 324 388
#     4  10  23  42  63  88 127 172 220 267 327 385
#     4  10  22  40  64  91 124 175 222 265 328 392
#     4  11  24  41  67 100 130 171 216 267 329 386
#     4  12  24  36  56  88 135 175 216 263 324 399
#
# _framework density 22.022649000000001
#
# number of rings (size 3 to 8) (size 9 to 14) (size 15 to 20)
#    0.000    1.429    2.857    1.714   14.000    1.143 
#    0.000    0.000    0.000    6.000    0.000    0.000 
#    0.000    0.000    0.000    0.000    0.000    0.000 
#
# Total GULP energy -346889.263455 kJ/mol
# GULP energy per Si atom -12388.902266 kJ/mol
# Density = 2.197252 g / cm^3
# Si number density = 22.022649 Si / 1000 Ang^3
#
#
#
# Elastic Constant Matrix: (Units=GPa)
#
#
# Indices 1 2 3 4 5 6 
#
# 1 128.7581 12.6113 48.6394 0.0000 0.0000 0.0000
# 2 12.6113 39.4531 17.7834 0.0000 0.0000 0.0000
# 3 48.6394 17.7834 167.2605 0.0000 0.0000 0.0000
# 4 0.0000 0.0000 0.0000 18.3774 0.0000 0.0000
# 5 0.0000 0.0000 0.0000 0.0000 37.2478 0.0000
# 6 0.0000 0.0000 0.0000 0.0000 0.0000 25.8492
#
#
#
# Elastic Compliance Matrix: (Units=1/GPa)
#
#
# Indices 1 2 3 4 5 6 
#
# 1 0.008839 -0.001751 -0.002384 0.000000 0.000000 0.000000
# 2 -0.001751 0.026969 -0.002358 0.000000 0.000000 0.000000
# 3 -0.002384 -0.002358 0.006923 0.000000 0.000000 0.000000
# 4 0.000000 0.000000 0.000000 0.054415 0.000000 0.000000
# 5 0.000000 0.000000 0.000000 0.000000 0.026847 0.000000
# 6 0.000000 0.000000 0.000000 0.000000 0.000000 0.038686
#
#
# Mechanical properties :
#
#
# Convention : Reuss Voigt Hill
#
# Bulk Modulus (GPa) = 33.61985 54.83777 44.22881
# Shear Modulus (GPa) = 26.94268 33.39073 30.16671
#
# Velocity S-wave (km/s) = 3.50152 3.89807 3.70510
# Velocity P-wave (km/s) = 5.62554 6.72418 6.19924
#
# Compressibility (1/GPa) = 0.02974433
#
# Stress axis : x y z
#
# Youngs Moduli (GPa) = 113.14019 37.07935 144.45146
#
# Poissons Ratio (x) = 0.06491 0.34439
# Poissons Ratio (y) = 0.19807 0.34066
# Poissons Ratio (z) = 0.26974 0.08744
#
# Static dielectric constant tensor:
#      x y z
#    x 4.116090 0.000000 0.000000 
#    y 0.000000 3.476840 0.000000 
#    z 0.000000 0.000000 4.495950 
# 
# 
# High freq. dielectric constant tensor:
#      x y z
#    x 1.889340 0.000000 0.000000 
#    y 0.000000 1.799030 0.000000 
#    z 0.000000 0.000000 1.887470 
# 
# From -- ./inp_files/32848.got.cif
#   From: 2010.03.12/outbox.cif.g09.slc.cpg/sg24_17_cif.got.tgz:32848.got - 2010.04.14 03:06:53.
