data_PCOD8165194
_publ_section_title
;
Structure prediction by ZEFSAII (Michael W. Deem and Ramdas Pophale) SiO2 
 PCOD8165194
Probable space group: I 21 21 21
;
_chemical_formula_sum "Si O2"
_cell_formula_units_Z 52
_cell_length_a 14.120832
_cell_length_b 8.326913
_cell_length_c 21.411827
_cell_angle_alpha 90.000000
_cell_angle_beta 90.000000
_cell_angle_gamma 90.000000
_cell_volume 2517.665560
_symmetry_space_group_name_H-M "I 21 21 21"
_symmetry_group_IT_number 24
_symmetry_cell_setting 'orthorhombic'
loop_
_space_group_symop_operation_xyz
x,y,z
-x,1/2-y,z
x,-y,1/2-z
1/2-x,y,-z
1/2+x,1/2+y,1/2+z
1/2-x,-y,1/2+z
1/2+x,1/2-y,-z
-x,1/2+y,1/2-z
loop_
_atom_site_type_symbol
_atom_site_label
_atom_site_fract_x
_atom_site_fract_y
_atom_site_fract_z
Si Si1 0.441411 0.974288 0.676793
Si Si2 0.696005 0.935347 0.314401
Si Si3 0.467089 0.568829 0.113000
Si Si4 0.627826 0.831885 0.625468
Si Si5 0.362661 0.473059 0.512406
Si Si6 0.500000 0.750000 0.908871
Si Si7 0.917437 0.632624 0.698955
O O1 0.544767 0.898345 0.669232
O O2 0.363802 0.855590 0.644016
O O3 0.417552 0.000000 0.750000
O O4 0.439121 0.136255 0.636769
O O5 0.781032 0.943405 0.362903
O O6 0.671670 0.745893 0.312869
O O7 0.736984 0.000000 0.250000
O O8 0.609945 0.054215 0.331603
O O9 0.500000 0.750000 0.103326
O O10 0.554380 0.455079 0.133640
O O11 0.416598 0.498355 0.052282
O O12 0.615691 0.862311 0.551176
O O13 0.250000 0.437741 0.500000
O O14 0.417807 0.330422 0.548862
O O15 0.891785 0.500000 0.750000
O O16 0.000000 0.750000 0.724609
#
# Coordination Sequence:
#
# PCOD8165194 Si02
#       7
#     8   8   8   8   8   4   8
#     4  10  21  42  66  91 123 161 204 261 318 374
#     4  11  22  38  62  94 125 162 207 265 317 378
#     4  11  21  40  64  88 121 169 204 254 320 376
#     4  10  22  40  61  92 120 168 205 253 312 371
#     4  11  22  43  62  88 126 167 217 253 307 382
#     4  10  22  42  66  96 122 162 212 258 320 372
#     4  10  20  37  58  90 125 155 204 254 311 380
#
# _framework density 20.654053999999999
#
# number of rings (size 3 to 8) (size 9 to 14) (size 15 to 20)
#    0.000    1.538    2.308    4.615    0.000    1.846 
#   19.385    0.769    0.000    0.000    0.000    0.000 
#    0.000    0.000    0.000    0.000    0.000    0.000 
#
# Total GULP energy -322157.560690 kJ/mol
# GULP energy per Si atom -12390.675411 kJ/mol
# Density = 2.060704 g / cm^3
# Si number density = 20.654054 Si / 1000 Ang^3
#
#
#
# Elastic Constant Matrix: (Units=GPa)
#
#
# Indices 1 2 3 4 5 6 
#
# 1 74.8014 31.1942 35.1579 0.0000 0.0000 0.0000
# 2 31.1942 97.0057 54.0238 0.0000 0.0000 0.0000
# 3 35.1579 54.0238 133.1854 0.0000 0.0000 0.0000
# 4 0.0000 0.0000 0.0000 33.3088 0.0000 0.0000
# 5 0.0000 0.0000 0.0000 0.0000 20.7087 0.0000
# 6 0.0000 0.0000 0.0000 0.0000 0.0000 16.3803
#
#
#
# Elastic Compliance Matrix: (Units=1/GPa)
#
#
# Indices 1 2 3 4 5 6 
#
# 1 0.016207 -0.003655 -0.002796 0.000000 0.000000 0.000000
# 2 -0.003655 0.014141 -0.004771 0.000000 0.000000 0.000000
# 3 -0.002796 -0.004771 0.010182 0.000000 0.000000 0.000000
# 4 0.000000 0.000000 0.000000 0.030022 0.000000 0.000000
# 5 0.000000 0.000000 0.000000 0.000000 0.048289 0.000000
# 6 0.000000 0.000000 0.000000 0.000000 0.000000 0.061049
#
#
# Mechanical properties :
#
#
# Convention : Reuss Voigt Hill
#
# Bulk Modulus (GPa) = 55.29068 60.63825 57.96446
# Shear Modulus (GPa) = 23.99671 26.38734 25.19203
#
# Velocity S-wave (km/s) = 3.41228 3.57821 3.49623
# Velocity P-wave (km/s) = 6.50791 6.81867 6.66510
#
# Compressibility (1/GPa) = 0.01808623
#
# Stress axis : x y z
#
# Youngs Moduli (GPa) = 61.70214 70.71594 98.21506
#
# Poissons Ratio (x) = 0.25844 0.27459
# Poissons Ratio (y) = 0.22550 0.46861
# Poissons Ratio (z) = 0.17251 0.33741
#
# Static dielectric constant tensor:
#      x y z
#    x 3.708020 0.000000 0.000000 
#    y 0.000000 3.904800 0.000000 
#    z 0.000000 0.000000 3.803600 
# 
# 
# High freq. dielectric constant tensor:
#      x y z
#    x 1.797350 0.000000 0.000000 
#    y 0.000000 1.806050 0.000000 
#    z 0.000000 0.000000 1.815930 
# 
# From -- ./inp_files/33712.got.cif
#   From: 2010.03.12/outbox.cif.g09.slc.cpg/sg24_17_cif.got.tgz:33712.got - 2010.04.14 03:06:53.
