data_PCOD8165484
_publ_section_title
;
Structure prediction by ZEFSAII (Michael W. Deem and Ramdas Pophale) SiO2 
 PCOD8165484
Probable space group: I 21 21 21
;
_chemical_formula_sum "Si O2"
_cell_formula_units_Z 52
_cell_length_a 5.241527
_cell_length_b 19.955433
_cell_length_c 23.710641
_cell_angle_alpha 90.000000
_cell_angle_beta 90.000000
_cell_angle_gamma 90.000000
_cell_volume 2480.060515
_symmetry_space_group_name_H-M "I 21 21 21"
_symmetry_group_IT_number 24
_symmetry_cell_setting 'orthorhombic'
loop_
_space_group_symop_operation_xyz
x,y,z
-x,1/2-y,z
x,-y,1/2-z
1/2-x,y,-z
1/2+x,1/2+y,1/2+z
1/2-x,-y,1/2+z
1/2+x,1/2-y,-z
-x,1/2+y,1/2-z
loop_
_atom_site_type_symbol
_atom_site_label
_atom_site_fract_x
_atom_site_fract_y
_atom_site_fract_z
Si Si1 0.691914 0.868467 0.147692
Si Si2 0.500635 0.574677 0.467410
Si Si3 0.500000 0.750000 0.825089
Si Si4 0.378049 0.179016 0.252156
Si Si5 0.573590 0.000085 0.684660
Si Si6 0.585225 0.577540 0.343969
Si Si7 0.000591 0.584327 0.966584
O O1 0.543282 0.867423 0.206655
O O2 0.503562 0.883047 0.095541
O O3 0.807328 0.793559 0.136563
O O4 0.900787 0.927193 0.155219
O O5 0.750000 0.599445 0.500000
O O6 0.509668 0.606404 0.405137
O O7 0.495508 0.495091 0.459747
O O8 0.250000 0.600397 0.500000
O O9 0.616240 0.693010 0.784563
O O10 0.500000 0.250000 0.237185
O O11 0.334083 0.139866 0.194571
O O12 0.338573 0.968068 0.650197
O O13 0.841831 0.961551 0.680419
O O14 0.489952 0.000000 0.750000
O O15 0.250000 0.609114 0.000000
O O16 0.750000 0.608924 0.000000
#
# Coordination Sequence:
#
# PCOD8165484 Si02
#       7
#     8   8   4   8   8   8   8
#     4  11  23  41  66  92 131 175 222 271 334 389
#     4  10  21  39  59  93 134 168 210 265 331 390
#     4  10  24  42  68  88 132 184 216 266 334 402
#     4  10  24  44  65  95 131 178 221 266 331 407
#     4  12  24  36  62 104 136 164 210 282 336 392
#     4  12  24  40  66 100 132 172 216 271 339 393
#     4  10  23  37  62  91 125 167 215 268 322 378
#
# _framework density 20.967233
#
# number of rings (size 3 to 8) (size 9 to 14) (size 15 to 20)
#    0.000    1.231    3.077    2.308   10.769    0.000 
#    0.000    0.000    5.077    0.923    0.000    0.000 
#    0.000    0.000    0.000    0.000    0.000    0.000 
#
# Total GULP energy -322412.201659 kJ/mol
# GULP energy per Si atom -12400.469295 kJ/mol
# Density = 2.091951 g / cm^3
# Si number density = 20.967233 Si / 1000 Ang^3
#
#
#
# Elastic Constant Matrix: (Units=GPa)
#
#
# Indices 1 2 3 4 5 6 
#
# 1 129.6792 28.1354 35.1821 0.0000 0.0000 0.0000
# 2 28.1354 62.0441 41.2558 0.0000 0.0000 0.0000
# 3 35.1821 41.2558 123.6222 0.0000 0.0000 0.0000
# 4 0.0000 0.0000 0.0000 7.2516 0.0000 0.0000
# 5 0.0000 0.0000 0.0000 0.0000 32.9731 0.0000
# 6 0.0000 0.0000 0.0000 0.0000 0.0000 17.8849
#
#
#
# Elastic Compliance Matrix: (Units=1/GPa)
#
#
# Indices 1 2 3 4 5 6 
#
# 1 0.008764 -0.002976 -0.001501 0.000000 0.000000 0.000000
# 2 -0.002976 0.021725 -0.006403 0.000000 0.000000 0.000000
# 3 -0.001501 -0.006403 0.010653 0.000000 0.000000 0.000000
# 4 0.000000 0.000000 0.000000 0.137901 0.000000 0.000000
# 5 0.000000 0.000000 0.000000 0.000000 0.030328 0.000000
# 6 0.000000 0.000000 0.000000 0.000000 0.000000 0.055913
#
#
# Mechanical properties :
#
#
# Convention : Reuss Voigt Hill
#
# Bulk Modulus (GPa) = 51.59523 58.27690 54.93607
# Shear Modulus (GPa) = 17.03541 25.67338 21.35440
#
# Velocity S-wave (km/s) = 2.85349 3.50301 3.19480
# Velocity P-wave (km/s) = 5.95966 6.64952 6.31402
#
# Compressibility (1/GPa) = 0.01938164
#
# Stress axis : x y z
#
# Youngs Moduli (GPa) = 114.09922 46.02997 93.86830
#
# Poissons Ratio (x) = 0.13700 0.14090
# Poissons Ratio (y) = 0.33959 0.60105
# Poissons Ratio (z) = 0.17126 0.29474
#
# Static dielectric constant tensor:
#      x y z
#    x 3.950740 0.000000 0.000000 
#    y 0.000000 3.522450 0.000000 
#    z 0.000000 0.000000 3.823110 
# 
# 
# High freq. dielectric constant tensor:
#      x y z
#    x 1.836060 0.000000 0.000000 
#    y 0.000000 1.788070 0.000000 
#    z 0.000000 0.000000 1.820570 
# 
# From -- ./inp_files/32177.got.cif
#   From: 2010.03.12/outbox.cif.g09.slc.cpg/sg24_17_cif.got.tgz:32177.got - 2010.04.14 03:06:53.
