data_PCOD8165993
_publ_section_title
;
Structure prediction by ZEFSAII (Michael W. Deem and Ramdas Pophale) SiO2 
 PCOD8165993
Probable space group: I 21 21 21
;
_chemical_formula_sum "Si O2"
_cell_formula_units_Z 60
_cell_length_a 11.416096
_cell_length_b 9.723715
_cell_length_c 22.849958
_cell_angle_alpha 90.000000
_cell_angle_beta 90.000000
_cell_angle_gamma 90.000000
_cell_volume 2536.502178
_symmetry_space_group_name_H-M "I 21 21 21"
_symmetry_group_IT_number 24
_symmetry_cell_setting 'orthorhombic'
loop_
_space_group_symop_operation_xyz
x,y,z
-x,1/2-y,z
x,-y,1/2-z
1/2-x,y,-z
1/2+x,1/2+y,1/2+z
1/2-x,-y,1/2+z
1/2+x,1/2-y,-z
-x,1/2+y,1/2-z
loop_
_atom_site_type_symbol
_atom_site_label
_atom_site_fract_x
_atom_site_fract_y
_atom_site_fract_z
Si Si1 0.674719 0.175359 0.343091
Si Si2 0.118300 0.662968 0.242113
Si Si3 0.422430 0.623349 0.539890
Si Si4 0.169682 0.413940 0.915075
Si Si5 0.303816 0.800621 0.326667
Si Si6 0.201562 0.062124 0.591659
Si Si7 0.500000 0.750000 0.244910
Si Si8 0.072873 0.113963 0.477066
O O1 0.804979 0.170818 0.316637
O O2 0.644264 0.328444 0.364887
O O3 0.577104 0.142607 0.293787
O O4 0.663061 0.073617 0.398153
O O5 0.090584 0.500000 0.250000
O O6 0.187892 0.736543 0.295802
O O7 0.000000 0.750000 0.232662
O O8 0.500000 0.750000 0.560231
O O9 0.300918 0.635145 0.572258
O O10 0.410655 0.616713 0.470028
O O11 0.487372 0.485079 0.559242
O O12 0.129580 0.321749 0.860985
O O13 0.404669 0.842695 0.280493
O O14 0.271472 0.923656 0.371632
O O15 0.114023 0.036950 0.537076
O O16 0.317299 0.136682 0.565623
O O17 0.000000 0.250000 0.492025
#
# Coordination Sequence:
#
# PCOD8165993 Si02
#       8
#     8   8   8   8   8   8   4   8
#     4  11  25  46  69 102 139 189 244 293 368 441
#     4  11  26  48  72 102 143 187 245 308 366 439
#     4  11  24  41  68 102 141 181 235 293 354 439
#     4  11  24  43  68 101 138 187 234 285 367 437
#     4  11  25  46  71 106 141 183 240 305 371 435
#     4  11  26  43  69 107 139 188 243 294 365 435
#     4  10  28  44  74 104 144 180 250 300 364 446
#     4  11  24  45  68 102 148 186 238 295 351 445
#
# _framework density 23.654622
#
# number of rings (size 3 to 8) (size 9 to 14) (size 15 to 20)
#    0.000    1.067    1.333    3.200    7.467   10.133 
#    0.000    0.000    0.000    0.000    0.000    0.000 
#    0.000    0.000    0.000    0.000    0.000    0.000 
#
# Total GULP energy -371908.136890 kJ/mol
# GULP energy per Si atom -12396.937896 kJ/mol
# Density = 2.360078 g / cm^3
# Si number density = 23.654622 Si / 1000 Ang^3
#
#
#
# Elastic Constant Matrix: (Units=GPa)
#
#
# Indices 1 2 3 4 5 6 
#
# 1 122.5188 31.1860 20.3162 0.0000 0.0000 0.0000
# 2 31.1860 134.1313 21.8310 0.0000 0.0000 0.0000
# 3 20.3162 21.8310 78.4694 0.0000 0.0000 0.0000
# 4 0.0000 0.0000 0.0000 61.6974 0.0000 0.0000
# 5 0.0000 0.0000 0.0000 0.0000 15.4803 0.0000
# 6 0.0000 0.0000 0.0000 0.0000 0.0000 33.3052
#
#
#
# Elastic Compliance Matrix: (Units=1/GPa)
#
#
# Indices 1 2 3 4 5 6 
#
# 1 0.008915 -0.001778 -0.001814 0.000000 0.000000 0.000000
# 2 -0.001778 0.008163 -0.001811 0.000000 0.000000 0.000000
# 3 -0.001814 -0.001811 0.013717 0.000000 0.000000 0.000000
# 4 0.000000 0.000000 0.000000 0.016208 0.000000 0.000000
# 5 0.000000 0.000000 0.000000 0.000000 0.064598 0.000000
# 6 0.000000 0.000000 0.000000 0.000000 0.000000 0.030025
#
#
# Mechanical properties :
#
#
# Convention : Reuss Voigt Hill
#
# Bulk Modulus (GPa) = 50.02136 53.53179 51.77658
# Shear Modulus (GPa) = 31.42760 39.54901 35.48830
#
# Velocity S-wave (km/s) = 3.64895 4.09337 3.87753
# Velocity P-wave (km/s) = 6.24064 6.70974 6.47944
#
# Compressibility (1/GPa) = 0.01999146
#
# Stress axis : x y z
#
# Youngs Moduli (GPa) = 112.16754 122.49751 72.90116
#
# Poissons Ratio (x) = 0.21776 0.13222
# Poissons Ratio (y) = 0.19939 0.13202
# Poissons Ratio (z) = 0.20343 0.22183
#
# Static dielectric constant tensor:
#      x y z
#    x 4.250780 0.000000 0.000000 
#    y 0.000000 3.987300 0.000000 
#    z 0.000000 0.000000 4.324570 
# 
# 
# High freq. dielectric constant tensor:
#      x y z
#    x 1.950200 0.000000 0.000000 
#    y 0.000000 1.930120 0.000000 
#    z 0.000000 0.000000 1.943610 
# 
# From -- ./inp_files/37225.got.cif
#   From: 2010.03.12/outbox.cif.g09.slc.cpg/sg24_19_cif.got.tgz:37225.got - 2010.04.14 03:06:53.
