data_PCOD8166647
_publ_section_title
;
Structure prediction by ZEFSAII (Michael W. Deem and Ramdas Pophale) SiO2 
 PCOD8166647
Probable space group: P M M 2
;
_chemical_formula_sum "Si O2"
_cell_formula_units_Z 32
_cell_length_a 9.093585
_cell_length_b 9.486775
_cell_length_c 20.707374
_cell_angle_alpha 90.000000
_cell_angle_beta 90.000000
_cell_angle_gamma 90.000000
_cell_volume 1786.400199
_symmetry_space_group_name_H-M "P M M 2"
_symmetry_group_IT_number 25
_symmetry_cell_setting 'orthorhombic'
loop_
_space_group_symop_operation_xyz
x,y,z
-x,-y,z
-x,y,z
x,-y,z
loop_
_atom_site_type_symbol
_atom_site_label
_atom_site_fract_x
_atom_site_fract_y
_atom_site_fract_z
Si Si1 0.673381 0.663449 0.567510
Si Si2 0.165438 0.667306 0.696179
Si Si3 0.174602 0.342194 0.335084
Si Si4 0.826800 0.835670 0.455642
Si Si5 0.825534 0.658804 0.192709
Si Si6 0.172485 0.162398 0.074543
Si Si7 0.328668 0.336157 0.822926
Si Si8 0.672022 0.837718 0.946021
O O1 0.500000 0.685306 0.571236
O O2 0.714017 0.500000 0.554520
O O3 0.742600 0.718448 0.634404
O O4 0.739748 0.759160 0.511927
O O5 0.165090 0.500000 0.698265
O O6 0.241827 0.724275 0.761132
O O7 0.000000 0.727465 0.691640
O O8 0.232446 0.500000 0.351794
O O9 0.229923 0.231172 0.388276
O O10 0.232475 0.295526 0.263964
O O11 0.000000 0.345069 0.333771
O O12 0.000000 0.810322 0.465645
O O13 0.787173 0.000000 0.455136
O O14 0.774791 0.500000 0.178032
O O15 0.760046 0.757895 0.136743
O O16 0.000000 0.670726 0.192110
O O17 0.000000 0.188951 0.067574
O O18 0.211805 0.000000 0.084650
O O19 0.247718 0.220737 0.009716
O O20 0.500000 0.309105 0.810068
O O21 0.295379 0.500000 0.834828
O O22 0.271703 0.251878 0.885203
O O23 0.500000 0.816686 0.956740
O O24 0.713522 0.000000 0.933261
#
# Coordination Sequence:
#
# PCOD8166647 Si02
#       8
#     4   4   4   4   4   4   4   4
#     4  10  20  34  53  74  96 128 167 201 237 286
#     4   9  17  30  50  75  99 122 152 193 238 282
#     4   8  14  26  45  68  94 124 157 194 237 284
#     4  10  20  32  48  73 102 129 160 201 246 289
#     4   8  14  25  42  66  94 121 151 190 235 279
#     4   9  17  28  43  64  89 117 151 192 233 272
#     4   9  17  30  48  69  92 118 151 191 231 273
#     4   9  18  32  47  63  88 123 157 186 223 276
#
# _framework density 17.913118000000001
#
# number of rings (size 3 to 8) (size 9 to 14) (size 15 to 20)
#    0.000    3.000    0.000    1.875    0.000    4.500 
#    0.000    3.125    0.000    3.000    0.000    3.500 
#    0.000    0.000    0.000    0.000    0.000    0.000 
#
# Total GULP energy -396717.460919 kJ/mol
# GULP energy per Si atom -12397.420654 kJ/mol
# Density = 1.787235 g / cm^3
# Si number density = 17.913118 Si / 1000 Ang^3
#
#
#
# Elastic Constant Matrix: (Units=GPa)
#
#
# Indices 1 2 3 4 5 6 
#
# 1 50.3696 36.7715 58.6368 0.0000 0.0000 0.0000
# 2 36.7715 79.9936 86.5678 0.0000 0.0000 0.0000
# 3 58.6368 86.5678 202.3001 0.0000 0.0000 0.0000
# 4 0.0000 0.0000 0.0000 11.8968 0.0000 0.0000
# 5 0.0000 0.0000 0.0000 0.0000 4.5396 0.0000
# 6 0.0000 0.0000 0.0000 0.0000 0.0000 16.6325
#
#
#
# Elastic Compliance Matrix: (Units=1/GPa)
#
#
# Indices 1 2 3 4 5 6 
#
# 1 0.033115 -0.009005 -0.005745 0.000000 0.000000 0.000000
# 2 -0.009005 0.025732 -0.008401 0.000000 0.000000 0.000000
# 3 -0.005745 -0.008401 0.010203 0.000000 0.000000 0.000000
# 4 0.000000 0.000000 0.000000 0.084056 0.000000 0.000000
# 5 0.000000 0.000000 0.000000 0.000000 0.220284 0.000000
# 6 0.000000 0.000000 0.000000 0.000000 0.000000 0.060123
#
#
# Mechanical properties :
#
#
# Convention : Reuss Voigt Hill
#
# Bulk Modulus (GPa) = 43.95989 77.40171 60.68080
# Shear Modulus (GPa) = 10.25855 16.65961 13.45908
#
# Velocity S-wave (km/s) = 2.39568 3.05294 2.74406
# Velocity P-wave (km/s) = 5.67858 7.46529 6.63237
#
# Compressibility (1/GPa) = 0.02274801
#
# Stress axis : x y z
#
# Youngs Moduli (GPa) = 30.19747 38.86220 98.00815
#
# Poissons Ratio (x) = 0.34997 0.56305
# Poissons Ratio (y) = 0.27194 0.82336
# Poissons Ratio (z) = 0.17348 0.32648
#
# Static dielectric constant tensor:
#      x y z
#    x 3.061270 0.000000 0.000000 
#    y 0.000000 3.228880 0.000000 
#    z 0.000000 0.000000 3.724060 
# 
# 
# High freq. dielectric constant tensor:
#      x y z
#    x 1.663100 0.000000 0.000000 
#    y 0.000000 1.673630 0.000000 
#    z 0.000000 0.000000 1.710720 
# 
# From -- ./inp_files/6559.got.cif
#   From: 2010.03.12/outbox.cif.g09.slc.cpg/sg25_4_cif.got.tgz:6559.got - 2010.04.14 03:30:10.
