data_PCOD8166530
_publ_section_title
;
Structure prediction by ZEFSAII (Michael W. Deem and Ramdas Pophale) SiO2 
 PCOD8166530
Probable space group: P M M 2
;
_chemical_formula_sum "Si O2"
_cell_formula_units_Z 32
_cell_length_a 13.554155
_cell_length_b 18.000569
_cell_length_c 6.688134
_cell_angle_alpha 90.000000
_cell_angle_beta 90.000000
_cell_angle_gamma 90.000000
_cell_volume 1631.787669
_symmetry_space_group_name_H-M "P M M 2"
_symmetry_group_IT_number 25
_symmetry_cell_setting 'orthorhombic'
loop_
_space_group_symop_operation_xyz
x,y,z
-x,-y,z
-x,y,z
x,-y,z
loop_
_atom_site_type_symbol
_atom_site_label
_atom_site_fract_x
_atom_site_fract_y
_atom_site_fract_z
Si Si1 0.892708 0.415792 0.487030
Si Si2 0.222407 0.916073 0.832448
Si Si3 0.731554 0.584013 0.806024
Si Si4 0.112695 0.194801 0.118250
Si Si5 0.387612 0.854016 0.072270
Si Si6 0.385988 0.273185 0.761774
Si Si7 0.729752 0.176302 0.454622
Si Si8 0.891764 0.358720 0.067446
O O1 0.878870 0.500000 0.409738
O O2 0.804451 0.392585 0.629271
O O3 0.889055 0.358979 0.305830
O O4 0.000000 0.407790 0.594877
O O5 0.236010 0.888181 0.605601
O O6 0.182581 0.000000 0.823521
O O7 0.145992 0.867161 0.960144
O O8 0.327097 0.914914 0.947233
O O9 0.689939 0.500000 0.788389
O O10 0.640880 0.641222 0.811208
O O11 0.801964 0.589451 0.998541
O O12 0.175969 0.198033 0.321757
O O13 0.124263 0.273198 0.002068
O O14 0.000000 0.179590 0.180381
O O15 0.500000 0.878963 0.063736
O O16 0.354800 0.851910 0.302996
O O17 0.369428 0.774093 0.964568
O O18 0.500000 0.269757 0.693720
O O19 0.316533 0.243996 0.582569
O O20 0.000000 0.387341 0.993784
#
# Coordination Sequence:
#
# PCOD8166530 Si02
#       8
#     4   4   4   4   4   4   4   4
#     4   9  18  31  48  75 109 140 174 223 281 332
#     4  10  22  38  55  81 118 150 176 215 270 331
#     4  11  21  32  50  76 107 144 183 222 270 330
#     4  10  22  38  58  84 111 143 186 230 269 318
#     4   9  19  37  61  86 109 138 182 234 282 326
#     4  10  21  37  56  79 109 145 185 233 285 331
#     4  10  19  36  62  84 107 142 188 230 273 324
#     4  10  19  33  54  77 102 135 177 226 276 322
#
# _framework density 19.610396000000001
#
# number of rings (size 3 to 8) (size 9 to 14) (size 15 to 20)
#    0.000    2.125    0.000    4.125    0.000    5.000 
#    0.000    3.125    0.000    0.000    0.000    3.500 
#    0.000    0.000    0.000    0.000    0.000    0.000 
#
# Total GULP energy -396645.639030 kJ/mol
# GULP energy per Si atom -12395.176220 kJ/mol
# Density = 1.956576 g / cm^3
# Si number density = 19.610396 Si / 1000 Ang^3
#
#
#
# Elastic Constant Matrix: (Units=GPa)
#
#
# Indices 1 2 3 4 5 6 
#
# 1 93.2631 19.4968 28.5869 0.0000 0.0000 0.0000
# 2 19.4968 86.4609 24.5208 0.0000 0.0000 0.0000
# 3 28.5869 24.5208 97.5355 0.0000 0.0000 0.0000
# 4 0.0000 0.0000 0.0000 18.8189 0.0000 0.0000
# 5 0.0000 0.0000 0.0000 0.0000 23.8508 0.0000
# 6 0.0000 0.0000 0.0000 0.0000 0.0000 27.2451
#
#
#
# Elastic Compliance Matrix: (Units=1/GPa)
#
#
# Indices 1 2 3 4 5 6 
#
# 1 0.012049 -0.001847 -0.003067 0.000000 0.000000 0.000000
# 2 -0.001847 0.012737 -0.002661 0.000000 0.000000 0.000000
# 3 -0.003067 -0.002661 0.011821 0.000000 0.000000 0.000000
# 4 0.000000 0.000000 0.000000 0.053138 0.000000 0.000000
# 5 0.000000 0.000000 0.000000 0.000000 0.041927 0.000000
# 6 0.000000 0.000000 0.000000 0.000000 0.000000 0.036704
#
#
# Mechanical properties :
#
#
# Convention : Reuss Voigt Hill
#
# Bulk Modulus (GPa) = 46.60608 46.94092 46.77350
# Shear Modulus (GPa) = 26.22231 27.62662 26.92447
#
# Velocity S-wave (km/s) = 3.66069 3.75744 3.70938
# Velocity P-wave (km/s) = 6.45640 6.54318 6.49993
#
# Compressibility (1/GPa) = 0.02145643
#
# Stress axis : x y z
#
# Youngs Moduli (GPa) = 82.99735 78.51108 84.59877
#
# Poissons Ratio (x) = 0.14502 0.25946
# Poissons Ratio (y) = 0.15331 0.22510
# Poissons Ratio (z) = 0.25455 0.20890
#
# Static dielectric constant tensor:
#      x y z
#    x 3.543880 0.000000 0.000000 
#    y 0.000000 3.372340 0.000000 
#    z 0.000000 0.000000 3.505330 
# 
# 
# High freq. dielectric constant tensor:
#      x y z
#    x 1.761160 0.000000 0.000000 
#    y 0.000000 1.752450 0.000000 
#    z 0.000000 0.000000 1.762620 
# 
# From -- ./inp_files/969.got.cif
#   From: 2010.03.12/outbox.cif.g09.slc.cpg/sg25_1_cif.got.tgz:969.got - 2010.04.14 03:30:10.
