data_PCOD8166623
_publ_section_title
;
Structure prediction by ZEFSAII (Michael W. Deem and Ramdas Pophale) SiO2 
 PCOD8166623
Probable space group: P M M 2
;
_chemical_formula_sum "Si O2"
_cell_formula_units_Z 32
_cell_length_a 9.207996
_cell_length_b 9.713887
_cell_length_c 20.466648
_cell_angle_alpha 90.000000
_cell_angle_beta 90.000000
_cell_angle_gamma 90.000000
_cell_volume 1830.648185
_symmetry_space_group_name_H-M "P M M 2"
_symmetry_group_IT_number 25
_symmetry_cell_setting 'orthorhombic'
loop_
_space_group_symop_operation_xyz
x,y,z
-x,-y,z
-x,y,z
x,-y,z
loop_
_atom_site_type_symbol
_atom_site_label
_atom_site_fract_x
_atom_site_fract_y
_atom_site_fract_z
Si Si1 0.669714 0.339832 0.370530
Si Si2 0.338250 0.336115 0.873883
Si Si3 0.164101 0.336310 0.499295
Si Si4 0.327828 0.345980 0.017748
Si Si5 0.163342 0.664220 0.750761
Si Si6 0.335667 0.335812 0.624884
Si Si7 0.165839 0.158220 0.117844
Si Si8 0.166710 0.159317 0.268635
O O1 0.500000 0.313401 0.381233
O O2 0.702370 0.500000 0.357448
O O3 0.753346 0.285856 0.434565
O O4 0.725057 0.254399 0.308989
O O5 0.500000 0.277042 0.861369
O O6 0.344955 0.500000 0.871100
O O7 0.232190 0.277845 0.817904
O O8 0.279974 0.292048 0.945657
O O9 0.162297 0.500000 0.502051
O O10 0.249067 0.277955 0.562220
O O11 0.000000 0.277992 0.499054
O O12 0.500000 0.346690 0.021142
O O13 0.267451 0.500000 0.029601
O O14 0.268861 0.248455 0.073476
O O15 0.163601 0.500000 0.750993
O O16 0.256700 0.719762 0.689836
O O17 0.000000 0.721132 0.744657
O O18 0.500000 0.279102 0.623349
O O19 0.336346 0.500000 0.624091
O O20 0.197646 0.191932 0.193143
O O21 0.000000 0.192705 0.100745
O O22 0.200474 0.000000 0.103206
O O23 0.000000 0.194521 0.286152
O O24 0.198974 0.000000 0.284092
#
# Coordination Sequence:
#
# PCOD8166623 Si02
#       8
#     4   4   4   4   4   4   4   4
#     4  10  20  32  47  70  98 125 154 190 233 281
#     4   8  14  25  38  53  79 114 147 181 224 270
#     4   9  16  26  40  58  83 116 152 189 228 270
#     4   9  18  31  47  69  96 124 155 192 234 281
#     4   9  15  21  31  50  76 108 148 188 223 265
#     4   9  15  22  33  50  76 112 150 186 226 271
#     4   9  19  35  52  70  93 121 154 192 233 278
#     4   9  19  36  54  70  91 121 156 193 233 277
#
# _framework density 17.480146000000001
#
# number of rings (size 3 to 8) (size 9 to 14) (size 15 to 20)
#    0.000    3.000    0.000    3.000    0.000    7.500 
#    0.000    5.000    0.000    0.000    0.000    0.000 
#    0.000    1.000    0.000    7.250    0.000   11.000 
#
# Total GULP energy -396719.608085 kJ/mol
# GULP energy per Si atom -12397.487753 kJ/mol
# Density = 1.744036 g / cm^3
# Si number density = 17.480146 Si / 1000 Ang^3
#
#
#
# Elastic Constant Matrix: (Units=GPa)
#
#
# Indices 1 2 3 4 5 6 
#
# 1 118.2062 28.6948 73.4599 0.0000 0.0000 0.0000
# 2 28.6948 29.7293 40.4664 0.0000 0.0000 0.0000
# 3 73.4599 40.4664 136.2321 0.0000 0.0000 0.0000
# 4 0.0000 0.0000 0.0000 -2.9287 0.0000 0.0000
# 5 0.0000 0.0000 0.0000 0.0000 40.0706 0.0000
# 6 0.0000 0.0000 0.0000 0.0000 0.0000 18.9631
#
#
#
# Elastic Compliance Matrix: (Units=1/GPa)
#
#
# Indices 1 2 3 4 5 6 
#
# 1 0.013171 -0.005113 -0.005583 0.000000 0.000000 0.000000
# 2 -0.005113 0.058453 -0.014606 0.000000 0.000000 0.000000
# 3 -0.005583 -0.014606 0.014690 0.000000 0.000000 0.000000
# 4 0.000000 0.000000 0.000000 -0.341444 0.000000 0.000000
# 5 0.000000 0.000000 0.000000 0.000000 0.024956 0.000000
# 6 0.000000 0.000000 0.000000 0.000000 0.000000 0.052734
#
#
# Mechanical properties :
#
#
# Convention : Reuss Voigt Hill
#
# Bulk Modulus (GPa) = 28.00397 63.26776 45.63586
# Shear Modulus (GPa) = -43.50315 20.65742 -11.42286
#
# Velocity S-wave (km/s) = -4.99412 3.44141 -2.55909
# Velocity P-wave (km/s) = 4.14725 7.21552 4.17516
#
# Compressibility (1/GPa) = 0.03570922
#
# Stress axis : x y z
#
# Youngs Moduli (GPa) = 75.92631 17.10789 68.07525
#
# Poissons Ratio (x) = 0.08747 0.38009
# Poissons Ratio (y) = 0.38818 0.99430
# Poissons Ratio (z) = 0.42392 0.24988
#
# Static dielectric constant tensor:
#      x y z
#    x 3.344690 0.000000 0.000000 
#    y 0.000000 2.673060 0.000000 
#    z 0.000000 0.000000 3.477000 
# 
# 
# High freq. dielectric constant tensor:
#      x y z
#    x 1.683230 0.000000 0.000000 
#    y 0.000000 1.607800 0.000000 
#    z 0.000000 0.000000 1.691250 
# 
# From -- ./inp_files/6272.got.cif
#   From: 2010.03.12/outbox.cif.g09.slc.cpg/sg25_4_cif.got.tgz:6272.got - 2010.04.14 03:30:10.
