data_PCOD8166139
_publ_section_title
;
Structure prediction by ZEFSAII (Michael W. Deem and Ramdas Pophale) SiO2 
 PCOD8166139
Probable space group: I 21 21 21
;
_chemical_formula_sum "Si O2"
_cell_formula_units_Z 56
_cell_length_a 14.308222
_cell_length_b 10.837461
_cell_length_c 15.213884
_cell_angle_alpha 90.000000
_cell_angle_beta 90.000000
_cell_angle_gamma 90.000000
_cell_volume 2359.137848
_symmetry_space_group_name_H-M "I 21 21 21"
_symmetry_group_IT_number 24
_symmetry_cell_setting 'orthorhombic'
loop_
_space_group_symop_operation_xyz
x,y,z
-x,1/2-y,z
x,-y,1/2-z
1/2-x,y,-z
1/2+x,1/2+y,1/2+z
1/2-x,-y,1/2+z
1/2+x,1/2-y,-z
-x,1/2+y,1/2-z
loop_
_atom_site_type_symbol
_atom_site_label
_atom_site_fract_x
_atom_site_fract_y
_atom_site_fract_z
Si Si1 0.761902 0.210390 0.367763
Si Si2 0.895168 0.299393 0.504799
Si Si3 0.531508 0.553898 0.497818
Si Si4 0.488462 0.108867 0.188954
Si Si5 0.612276 0.982216 0.650620
Si Si6 0.225798 0.119956 0.790364
Si Si7 0.826419 0.258297 0.066216
O O1 0.849444 0.285296 0.408551
O O2 0.668778 0.222880 0.426748
O O3 0.736580 0.260811 0.271637
O O4 0.796903 0.069161 0.361621
O O5 0.895928 0.444975 0.527660
O O6 0.000000 0.250000 0.509134
O O7 0.471028 0.588577 0.410179
O O8 0.466679 0.496979 0.575555
O O9 0.582739 0.682022 0.521566
O O10 0.500000 0.250000 0.224115
O O11 0.379024 0.086615 0.184892
O O12 0.534087 0.000000 0.250000
O O13 0.644154 0.842458 0.637635
O O14 0.571647 0.000000 0.750000
O O15 0.276477 0.132976 0.882459
O O16 0.274677 0.000000 0.750000
O O17 0.750000 0.200062 0.000000
#
# Coordination Sequence:
#
# PCOD8166139 Si02
#       7
#     8   8   8   8   8   8   8
#     4  11  25  46  73 110 153 195 258 314 385 455
#     4  11  24  45  75 110 152 202 252 315 388 458
#     4  12  26  47  77 108 154 199 261 313 390 469
#     4  11  25  48  72 111 151 198 257 324 394 469
#     4  12  27  51  73 111 157 207 256 324 388 464
#     4  11  23  45  73 103 147 193 255 317 384 461
#     4  12  26  45  75 106 146 201 253 313 395 455
#
# _framework density 23.737485
#
# number of rings (size 3 to 8) (size 9 to 14) (size 15 to 20)
#    0.000    0.571    4.286    3.857    4.000    4.000 
#    5.143    0.000    0.000    0.000    0.000    0.000 
#    0.000    0.000    0.000    0.000    0.000    0.000 
#
# Total GULP energy -347056.583302 kJ/mol
# GULP energy per Si atom -12394.877975 kJ/mol
# Density = 2.368346 g / cm^3
# Si number density = 23.737485 Si / 1000 Ang^3
#
#
#
# Elastic Constant Matrix: (Units=GPa)
#
#
# Indices 1 2 3 4 5 6 
#
# 1 98.5009 18.8167 32.4982 0.0000 0.0000 0.0000
# 2 18.8167 135.2308 38.0649 0.0000 0.0000 0.0000
# 3 32.4982 38.0649 144.8564 0.0000 0.0000 0.0000
# 4 0.0000 0.0000 0.0000 43.5206 0.0000 0.0000
# 5 0.0000 0.0000 0.0000 0.0000 32.5950 0.0000
# 6 0.0000 0.0000 0.0000 0.0000 0.0000 33.7700
#
#
#
# Elastic Compliance Matrix: (Units=1/GPa)
#
#
# Indices 1 2 3 4 5 6 
#
# 1 0.011066 -0.000908 -0.002244 0.000000 0.000000 0.000000
# 2 -0.000908 0.008060 -0.001914 0.000000 0.000000 0.000000
# 3 -0.002244 -0.001914 0.007910 0.000000 0.000000 0.000000
# 4 0.000000 0.000000 0.000000 0.022978 0.000000 0.000000
# 5 0.000000 0.000000 0.000000 0.000000 0.030680 0.000000
# 6 0.000000 0.000000 0.000000 0.000000 0.000000 0.029612
#
#
# Mechanical properties :
#
#
# Convention : Reuss Voigt Hill
#
# Bulk Modulus (GPa) = 59.16080 61.92752 60.54416
# Shear Modulus (GPa) = 39.65980 41.25766 40.45873
#
# Velocity S-wave (km/s) = 4.09194 4.17355 4.13295
# Velocity P-wave (km/s) = 6.87767 7.02637 6.95241
#
# Compressibility (1/GPa) = 0.01690308
#
# Stress axis : x y z
#
# Youngs Moduli (GPa) = 90.36658 124.07034 126.42487
#
# Poissons Ratio (x) = 0.11267 0.28370
# Poissons Ratio (y) = 0.08207 0.24201
# Poissons Ratio (z) = 0.20278 0.23750
#
# Static dielectric constant tensor:
#      x y z
#    x 4.111050 0.000000 0.000000 
#    y 0.000000 4.400730 0.000000 
#    z 0.000000 0.000000 4.555620 
# 
# 
# High freq. dielectric constant tensor:
#      x y z
#    x 1.922600 0.000000 0.000000 
#    y 0.000000 1.952520 0.000000 
#    z 0.000000 0.000000 1.951740 
# 
# From -- ./inp_files/26502.got.cif
#   From: 2010.03.12/outbox.cif.g09.slc.cpg/sg24_14_cif.got.tgz:26502.got - 2010.04.14 03:06:53.
