data_PCOD8166851
_publ_section_title
;
Structure prediction by ZEFSAII (Michael W. Deem and Ramdas Pophale) SiO2 
 PCOD8166851
Probable space group: P M M 2
;
_chemical_formula_sum "Si O2"
_cell_formula_units_Z 24
_cell_length_a 12.383529
_cell_length_b 7.867785
_cell_length_c 14.041673
_cell_angle_alpha 90.000000
_cell_angle_beta 90.000000
_cell_angle_gamma 90.000000
_cell_volume 1368.093452
_symmetry_space_group_name_H-M "P M M 2"
_symmetry_group_IT_number 25
_symmetry_cell_setting 'orthorhombic'
loop_
_space_group_symop_operation_xyz
x,y,z
-x,-y,z
-x,y,z
x,-y,z
loop_
_atom_site_type_symbol
_atom_site_label
_atom_site_fract_x
_atom_site_fract_y
_atom_site_fract_z
Si Si1 0.121973 0.197688 0.700010
Si Si2 0.128861 0.811346 0.912330
Si Si3 0.735449 0.805933 0.336876
Si Si4 0.872116 0.500000 0.035341
Si Si5 0.278876 0.688544 0.543744
Si Si6 0.500000 0.199240 0.559475
Si Si7 0.500000 0.800596 0.346965
Si Si8 0.870971 0.500000 0.254344
O O1 0.169412 0.233211 0.805678
O O2 0.184036 0.299537 0.619547
O O3 0.000000 0.263622 0.695469
O O4 0.129641 0.000000 0.676030
O O5 0.000000 0.813435 0.911836
O O6 0.170398 0.000000 0.942795
O O7 0.174845 0.669863 0.984936
O O8 0.735570 0.810884 0.452367
O O9 0.614777 0.749316 0.297678
O O10 0.823909 0.673018 0.299420
O O11 0.763062 0.000000 0.303577
O O12 0.836675 0.500000 0.144380
O O13 0.000000 0.500000 0.025172
O O14 0.280226 0.500000 0.501565
O O15 0.388655 0.730063 0.603532
O O16 0.500000 0.275847 0.452460
O O17 0.500000 0.000000 0.570095
O O18 0.500000 0.000000 0.359347
O O19 0.000000 0.500000 0.269152
#
# Coordination Sequence:
#
# PCOD8166851 Si02
#       8
#     4   4   4   2   4   2   2   2
#     4   9  18  31  47  71 102 135 170 202 241 299
#     4   8  15  29  49  71  93 123 165 208 249 292
#     4  10  20  37  55  74 103 138 173 216 257 294
#     4   9  18  32  50  68  95 126 162 211 255 293
#     4  11  20  31  49  75 104 135 170 209 250 293
#     4   9  17  31  49  69  96 131 172 209 249 293
#     4   7  14  30  56  78  90 119 172 221 261 291
#     4  11  24  37  48  76 107 137 177 205 245 321
#
# _framework density 17.542662
#
# number of rings (size 3 to 8) (size 9 to 14) (size 15 to 20)
#    0.000    2.667    0.833    3.750    1.167    2.333 
#    0.000    1.667    0.000    0.000    0.000    2.333 
#    0.000    1.333    0.000    0.000    0.000    0.000 
#
# Total GULP energy -297346.010911 kJ/mol
# GULP energy per Si atom -12389.417121 kJ/mol
# Density = 1.750273 g / cm^3
# Si number density = 17.542662 Si / 1000 Ang^3
#
#
#
# Elastic Constant Matrix: (Units=GPa)
#
#
# Indices 1 2 3 4 5 6 
#
# 1 83.1762 39.4984 33.5314 0.0000 0.0000 0.0000
# 2 39.4984 107.2334 38.4992 0.0000 0.0000 0.0000
# 3 33.5314 38.4992 73.4489 0.0000 0.0000 0.0000
# 4 0.0000 0.0000 0.0000 21.0301 0.0000 0.0000
# 5 0.0000 0.0000 0.0000 0.0000 -0.0614 0.0000
# 6 0.0000 0.0000 0.0000 0.0000 0.0000 23.6390
#
#
#
# Elastic Compliance Matrix: (Units=1/GPa)
#
#
# Indices 1 2 3 4 5 6 
#
# 1 0.016039 -0.004039 -0.005205 0.000000 0.000000 0.000000
# 2 -0.004039 0.012504 -0.004710 0.000000 0.000000 0.000000
# 3 -0.005205 -0.004710 0.018460 0.000000 0.000000 0.000000
# 4 0.000000 0.000000 0.000000 0.047551 0.000000 0.000000
# 5 0.000000 0.000000 0.000000 0.000000-16.273465 0.000000
# 6 0.000000 0.000000 0.000000 0.000000 0.000000 0.042303
#
#
# Mechanical properties :
#
#
# Convention : Reuss Voigt Hill
#
# Bulk Modulus (GPa) = 52.37121 54.10182 53.23651
# Shear Modulus (GPa) = -0.31051 19.07683 9.38316
#
# Velocity S-wave (km/s) = -0.42118 3.30123 2.31525
# Velocity P-wave (km/s) = 5.44811 6.74077 6.12862
#
# Compressibility (1/GPa) = 0.01909446
#
# Stress axis : x y z
#
# Youngs Moduli (GPa) = 62.34749 79.97233 54.17058
#
# Poissons Ratio (x) = 0.32301 0.28197
# Poissons Ratio (y) = 0.25183 0.25516
# Poissons Ratio (z) = 0.32453 0.37670
#
# Static dielectric constant tensor:
#      x y z
#    x 3.249060 0.000000 0.000000 
#    y 0.000000 3.366810 0.000000 
#    z 0.000000 0.000000 3.013140 
# 
# 
# High freq. dielectric constant tensor:
#      x y z
#    x 1.652900 0.000000 0.000000 
#    y 0.000000 1.691170 0.000000 
#    z 0.000000 0.000000 1.639840 
# 
# From -- ./inp_files/4575.got.cif
#   From: 2010.03.12/outbox.cif.g09.slc.cpg/sg25_3_cif.got.tgz:4575.got - 2010.04.14 03:30:10.
