data_PCOD8166897
_publ_section_title
;
Structure prediction by ZEFSAII (Michael W. Deem and Ramdas Pophale) SiO2 
 PCOD8166897
Probable space group: P M M 2
;
_chemical_formula_sum "Si O2"
_cell_formula_units_Z 28
_cell_length_a 9.480549
_cell_length_b 9.034405
_cell_length_c 17.911872
_cell_angle_alpha 90.000000
_cell_angle_beta 90.000000
_cell_angle_gamma 90.000000
_cell_volume 1534.171885
_symmetry_space_group_name_H-M "P M M 2"
_symmetry_group_IT_number 25
_symmetry_cell_setting 'orthorhombic'
loop_
_space_group_symop_operation_xyz
x,y,z
-x,-y,z
-x,y,z
x,-y,z
loop_
_atom_site_type_symbol
_atom_site_label
_atom_site_fract_x
_atom_site_fract_y
_atom_site_fract_z
Si Si1 0.656408 0.824270 0.613610
Si Si2 0.163908 0.827262 0.170473
Si Si3 0.333974 0.830989 0.446304
Si Si4 0.335629 0.328424 0.041547
Si Si5 0.158701 0.176316 0.748461
Si Si6 0.662897 0.828327 0.889504
Si Si7 0.837631 0.327592 0.321459
O O1 0.500000 0.759835 0.629761
O O2 0.705990 0.780702 0.530361
O O3 0.765362 0.759479 0.674363
O O4 0.648865 0.000000 0.619518
O O5 0.249755 0.756830 0.103705
O O6 0.215941 0.757343 0.248082
O O7 0.000000 0.792773 0.157105
O O8 0.196127 0.000000 0.173474
O O9 0.500000 0.815129 0.433172
O O10 0.253152 0.722248 0.391618
O O11 0.286033 0.000000 0.431970
O O12 0.500000 0.300886 0.056571
O O13 0.295804 0.500000 0.044116
O O14 0.291724 0.265220 0.961265
O O15 0.243339 0.230600 0.821076
O O16 0.000000 0.239334 0.751491
O O17 0.158014 0.000000 0.745701
O O18 0.500000 0.802581 0.868242
O O19 0.692602 0.000000 0.906823
O O20 0.814220 0.500000 0.307262
O O21 0.000000 0.289221 0.338092
#
# Coordination Sequence:
#
# PCOD8166897 Si02
#       7
#     4   4   4   4   4   4   4
#     4   8  14  26  44  67  97 130 162 200 249 300
#     4  10  21  37  57  79 102 131 168 208 251 300
#     4   9  18  32  51  76 103 132 170 214 256 299
#     4  10  21  36  54  77 104 134 169 208 251 300
#     4   9  16  25  41  69 100 127 161 206 251 294
#     4   9  17  30  48  69  96 131 167 204 249 298
#     4  10  21  36  53  74 102 136 171 206 249 302
#
# _framework density 18.250888
#
# number of rings (size 3 to 8) (size 9 to 14) (size 15 to 20)
#    0.000    2.714    0.000    2.571    0.000    6.286 
#    0.000    2.857    0.000    0.857    0.000    2.000 
#    0.000    0.000    0.000    0.000    0.000    0.000 
#
# Total GULP energy -347219.357908 kJ/mol
# GULP energy per Si atom -12400.691354 kJ/mol
# Density = 1.820935 g / cm^3
# Si number density = 18.250888 Si / 1000 Ang^3
#
#
#
# Elastic Constant Matrix: (Units=GPa)
#
#
# Indices 1 2 3 4 5 6 
#
# 1 87.8221 37.4824 84.3789 0.0000 0.0000 0.0000
# 2 37.4824 64.3437 55.6446 0.0000 0.0000 0.0000
# 3 84.3789 55.6446 165.6865 0.0000 0.0000 0.0000
# 4 0.0000 0.0000 0.0000 -4.6825 0.0000 0.0000
# 5 0.0000 0.0000 0.0000 0.0000 -1.3161 0.0000
# 6 0.0000 0.0000 0.0000 0.0000 0.0000 22.2964
#
#
#
# Elastic Compliance Matrix: (Units=1/GPa)
#
#
# Indices 1 2 3 4 5 6 
#
# 1 0.023245 -0.004656 -0.010275 0.000000 0.000000 0.000000
# 2 -0.004656 0.022835 -0.005298 0.000000 0.000000 0.000000
# 3 -0.010275 -0.005298 0.013047 0.000000 0.000000 0.000000
# 4 0.000000 0.000000 0.000000 -0.213560 0.000000 0.000000
# 5 0.000000 0.000000 0.000000 0.000000 -0.759821 0.000000
# 6 0.000000 0.000000 0.000000 0.000000 0.000000 0.044850
#
#
# Mechanical properties :
#
#
# Convention : Reuss Voigt Hill
#
# Bulk Modulus (GPa) = 53.55786 74.76268 64.16027
# Shear Modulus (GPa) = -6.07739 12.61597 3.26929
#
# Velocity S-wave (km/s) = -1.82678 2.63202 1.33985
# Velocity P-wave (km/s) = 4.99595 7.09151 6.13388
#
# Compressibility (1/GPa) = 0.01867139
#
# Stress axis : x y z
#
# Youngs Moduli (GPa) = 43.01910 43.79149 76.64404
#
# Poissons Ratio (x) = 0.20388 0.78748
# Poissons Ratio (y) = 0.20029 0.40607
# Poissons Ratio (z) = 0.44200 0.23201
#
# Static dielectric constant tensor:
#      x y z
#    x 3.463370 0.000000 0.000000 
#    y 0.000000 3.109960 0.000000 
#    z 0.000000 0.000000 3.550070 
# 
# 
# High freq. dielectric constant tensor:
#      x y z
#    x 1.704000 0.000000 0.000000 
#    y 0.000000 1.678250 0.000000 
#    z 0.000000 0.000000 1.720870 
# 
# From -- ./inp_files/6039.got.cif
#   From: 2010.03.12/outbox.cif.g09.slc.cpg/sg25_4_cif.got.tgz:6039.got - 2010.04.14 03:30:10.
