data_PCOD8166452
_publ_section_title
;
Structure prediction by ZEFSAII (Michael W. Deem and Ramdas Pophale) SiO2 
 PCOD8166452
Probable space group: P M M 2
;
_chemical_formula_sum "Si O2"
_cell_formula_units_Z 32
_cell_length_a 14.641570
_cell_length_b 9.258414
_cell_length_c 12.587802
_cell_angle_alpha 90.000000
_cell_angle_beta 90.000000
_cell_angle_gamma 90.000000
_cell_volume 1706.373697
_symmetry_space_group_name_H-M "P M M 2"
_symmetry_group_IT_number 25
_symmetry_cell_setting 'orthorhombic'
loop_
_space_group_symop_operation_xyz
x,y,z
-x,-y,z
-x,y,z
x,-y,z
loop_
_atom_site_type_symbol
_atom_site_label
_atom_site_fract_x
_atom_site_fract_y
_atom_site_fract_z
Si Si1 0.601179 0.166725 0.836600
Si Si2 0.362229 0.336223 0.050175
Si Si3 0.793846 0.830167 0.328483
Si Si4 0.158394 0.336376 0.122231
Si Si5 0.899689 0.161296 0.935510
Si Si6 0.785574 0.170594 0.740982
Si Si7 0.598822 0.164909 0.255588
Si Si8 0.104705 0.171972 0.539943
O O1 0.500000 0.189921 0.786680
O O2 0.677816 0.212566 0.748951
O O3 0.616947 0.000000 0.868067
O O4 0.608702 0.258540 0.942867
O O5 0.397785 0.500000 0.045277
O O6 0.254573 0.329113 0.063474
O O7 0.408073 0.260348 0.150513
O O8 0.842633 0.747194 0.233080
O O9 0.684780 0.791468 0.330662
O O10 0.842216 0.774162 0.435157
O O11 0.809572 0.000000 0.312794
O O12 0.126390 0.500000 0.143069
O O13 0.091199 0.257628 0.040910
O O14 0.833014 0.231137 0.847721
O O15 0.000000 0.153776 0.883527
O O16 0.865706 0.000000 0.966880
O O17 0.836105 0.237128 0.637981
O O18 0.799647 0.000000 0.735711
O O19 0.500000 0.183005 0.315255
O O20 0.613008 0.000000 0.219025
O O21 0.000000 0.230292 0.542137
O O22 0.103665 0.000000 0.543346
#
# Coordination Sequence:
#
# PCOD8166452 Si02
#       8
#     4   4   4   4   4   4   4   4
#     4  10  19  30  47  72 102 136 168 199 246 303
#     4  10  19  30  46  70 100 135 173 208 243 289
#     4   9  18  32  51  74 100 129 168 213 252 296
#     4  10  20  33  49  72 105 139 166 202 256 306
#     4  10  19  31  51  76  99 130 169 205 249 306
#     4   9  17  31  50  73 103 131 162 208 253 295
#     4   9  17  29  45  67  98 135 169 201 246 300
#     4   9  17  31  53  78  99 124 165 215 259 296
#
# _framework density 18.753219000000001
#
# number of rings (size 3 to 8) (size 9 to 14) (size 15 to 20)
#    0.000    2.500    1.250    1.500    0.000    5.250 
#    0.000    1.875    0.000    5.250    0.000    0.000 
#    0.000    2.000    0.000    0.000    0.000    0.000 
#
# Total GULP energy -396584.059149 kJ/mol
# GULP energy per Si atom -12393.251848 kJ/mol
# Density = 1.871054 g / cm^3
# Si number density = 18.753219 Si / 1000 Ang^3
#
#
#
# Elastic Constant Matrix: (Units=GPa)
#
#
# Indices 1 2 3 4 5 6 
#
# 1 138.7841 26.1385 73.9630 0.0000 0.0000 0.0000
# 2 26.1385 55.5255 36.0752 0.0000 0.0000 0.0000
# 3 73.9630 36.0752 129.7738 0.0000 0.0000 0.0000
# 4 0.0000 0.0000 0.0000 0.3673 0.0000 0.0000
# 5 0.0000 0.0000 0.0000 0.0000 20.8033 0.0000
# 6 0.0000 0.0000 0.0000 0.0000 0.0000 10.2397
#
#
#
# Elastic Compliance Matrix: (Units=1/GPa)
#
#
# Indices 1 2 3 4 5 6 
#
# 1 0.010423 -0.001278 -0.005585 0.000000 0.000000 0.000000
# 2 -0.001278 0.022136 -0.005425 0.000000 0.000000 0.000000
# 3 -0.005585 -0.005425 0.012397 0.000000 0.000000 0.000000
# 4 0.000000 0.000000 0.000000 2.722214 0.000000 0.000000
# 5 0.000000 0.000000 0.000000 0.000000 0.048069 0.000000
# 6 0.000000 0.000000 0.000000 0.000000 0.000000 0.097659
#
#
# Mechanical properties :
#
#
# Convention : Reuss Voigt Hill
#
# Bulk Modulus (GPa) = 49.06889 66.27076 57.66983
# Shear Modulus (GPa) = 1.69822 18.80918 10.25370
#
# Velocity S-wave (km/s) = 0.95264 3.17043 2.34085
# Velocity P-wave (km/s) = 5.23760 6.98693 6.17453
#
# Compressibility (1/GPa) = 0.02037951
#
# Stress axis : x y z
#
# Youngs Moduli (GPa) = 95.94592 45.17516 80.66501
#
# Poissons Ratio (x) = 0.05772 0.45051
# Poissons Ratio (y) = 0.12260 0.43763
# Poissons Ratio (z) = 0.53586 0.24509
#
# Static dielectric constant tensor:
#      x y z
#    x 3.762080 0.000000 0.000000 
#    y 0.000000 3.191840 0.000000 
#    z 0.000000 0.000000 3.290900 
# 
# 
# High freq. dielectric constant tensor:
#      x y z
#    x 1.747480 0.000000 0.000000 
#    y 0.000000 1.693010 0.000000 
#    z 0.000000 0.000000 1.700270 
# 
# From -- ./inp_files/4938.got.cif
#   From: 2010.03.12/outbox.cif.g09.slc.cpg/sg25_3_cif.got.tgz:4938.got - 2010.04.14 03:30:10.
