data_PCOD8166789
_publ_section_title
;
Structure prediction by ZEFSAII (Michael W. Deem and Ramdas Pophale) SiO2 
 PCOD8166789
Probable space group: P M M 2
;
_chemical_formula_sum "Si O2"
_cell_formula_units_Z 32
_cell_length_a 14.562885
_cell_length_b 8.835379
_cell_length_c 12.292170
_cell_angle_alpha 90.000000
_cell_angle_beta 90.000000
_cell_angle_gamma 90.000000
_cell_volume 1581.616407
_symmetry_space_group_name_H-M "P M M 2"
_symmetry_group_IT_number 25
_symmetry_cell_setting 'orthorhombic'
loop_
_space_group_symop_operation_xyz
x,y,z
-x,-y,z
-x,y,z
x,-y,z
loop_
_atom_site_type_symbol
_atom_site_label
_atom_site_fract_x
_atom_site_fract_y
_atom_site_fract_z
Si Si1 0.601208 0.670561 0.967520
Si Si2 0.101921 0.325671 0.865877
Si Si3 0.156293 0.327946 0.105627
Si Si4 0.718257 0.176800 0.793248
Si Si5 0.101102 0.326142 0.343578
Si Si6 0.605415 0.320772 0.598701
Si Si7 0.335879 0.825861 0.161433
Si Si8 0.713198 0.822424 0.401835
O O1 0.500000 0.678161 0.914783
O O2 0.639819 0.500000 0.959913
O O3 0.670242 0.782597 0.906894
O O4 0.592664 0.723768 0.093436
O O5 0.125236 0.500000 0.841829
O O6 0.175370 0.225995 0.799651
O O7 0.000000 0.284143 0.822857
O O8 0.100315 0.295525 0.995721
O O9 0.195401 0.500000 0.104962
O O10 0.095461 0.302831 0.213189
O O11 0.237429 0.206724 0.108250
O O12 0.663486 0.262659 0.699993
O O13 0.712931 0.000000 0.769972
O O14 0.122604 0.500000 0.372015
O O15 0.179954 0.227095 0.401022
O O16 0.000000 0.279562 0.388687
O O17 0.500000 0.261424 0.603817
O O18 0.606950 0.500000 0.600407
O O19 0.654008 0.263815 0.490239
O O20 0.334919 0.779689 0.287806
O O21 0.362388 0.000000 0.147565
O O22 0.710421 0.000000 0.425515
#
# Coordination Sequence:
#
# PCOD8166789 Si02
#       8
#     4   4   4   4   4   4   4   4
#     4  11  23  38  58  85 118 158 202 247 297 357
#     4  10  20  35  58  88 123 164 206 246 292 349
#     4   9  16  29  52  81 118 162 205 246 288 342
#     4  12  25  41  63  90 123 157 194 247 307 362
#     4   9  17  31  54  86 123 164 209 250 291 346
#     4  11  25  46  71  93 113 147 200 255 304 361
#     4  10  20  34  54  84 123 162 196 239 299 357
#     4  10  22  39  60  89 125 159 196 246 304 361
#
# _framework density 20.232465999999999
#
# number of rings (size 3 to 8) (size 9 to 14) (size 15 to 20)
#    0.000    1.750    1.250    3.375    0.000    7.500 
#    0.000    3.125    0.000    6.000    0.000    0.000 
#    0.000    0.000    0.000    0.000    0.000    0.000 
#
# Total GULP energy -396716.947968 kJ/mol
# GULP energy per Si atom -12397.404624 kJ/mol
# Density = 2.018642 g / cm^3
# Si number density = 20.232466 Si / 1000 Ang^3
#
#
#
# Elastic Constant Matrix: (Units=GPa)
#
#
# Indices 1 2 3 4 5 6 
#
# 1 130.3803 43.1469 51.8134 0.0000 0.0000 0.0000
# 2 43.1469 77.5519 37.6734 0.0000 0.0000 0.0000
# 3 51.8134 37.6734 92.7577 0.0000 0.0000 0.0000
# 4 0.0000 0.0000 0.0000 30.4528 0.0000 0.0000
# 5 0.0000 0.0000 0.0000 0.0000 22.0929 0.0000
# 6 0.0000 0.0000 0.0000 0.0000 0.0000 -40.4614
#
#
#
# Elastic Compliance Matrix: (Units=1/GPa)
#
#
# Indices 1 2 3 4 5 6 
#
# 1 0.010685 -0.003794 -0.004428 0.000000 0.000000 0.000000
# 2 -0.003794 0.017411 -0.004952 0.000000 0.000000 0.000000
# 3 -0.004428 -0.004952 0.015265 0.000000 0.000000 0.000000
# 4 0.000000 0.000000 0.000000 0.032838 0.000000 0.000000
# 5 0.000000 0.000000 0.000000 0.000000 0.045263 0.000000
# 6 0.000000 0.000000 0.000000 0.000000 0.000000 -0.024715
#
#
# Mechanical properties :
#
#
# Convention : Reuss Voigt Hill
#
# Bulk Modulus (GPa) = 58.77551 62.88412 60.82982
# Shear Modulus (GPa) = 38.83009 13.62062 26.22536
#
# Velocity S-wave (km/s) = 4.38562 2.59744 3.60419
# Velocity P-wave (km/s) = 7.39987 6.33592 6.88846
#
# Compressibility (1/GPa) = 0.01701389
#
# Stress axis : x y z
#
# Youngs Moduli (GPa) = 93.58997 57.43476 65.50780
#
# Poissons Ratio (x) = 0.21790 0.29004
# Poissons Ratio (y) = 0.35506 0.32441
# Poissons Ratio (z) = 0.41438 0.28443
#
# Static dielectric constant tensor:
#      x y z
#    x 3.751530 0.000000 0.000000 
#    y 0.000000 3.603360 0.000000 
#    z 0.000000 0.000000 3.662610 
# 
# 
# High freq. dielectric constant tensor:
#      x y z
#    x 1.794940 0.000000 0.000000 
#    y 0.000000 1.785260 0.000000 
#    z 0.000000 0.000000 1.776750 
# 
# From -- ./inp_files/4909.got.cif
#   From: 2010.03.12/outbox.cif.g09.slc.cpg/sg25_3_cif.got.tgz:4909.got - 2010.04.14 03:30:10.
