data_PCOD8166167
_publ_section_title
;
Structure prediction by ZEFSAII (Michael W. Deem and Ramdas Pophale) SiO2 
 PCOD8166167
Probable space group: I 21 21 21
;
_chemical_formula_sum "Si O2"
_cell_formula_units_Z 40
_cell_length_a 8.342996
_cell_length_b 25.822841
_cell_length_c 8.362867
_cell_angle_alpha 90.000000
_cell_angle_beta 90.000000
_cell_angle_gamma 90.000000
_cell_volume 1801.694889
_symmetry_space_group_name_H-M "I 21 21 21"
_symmetry_group_IT_number 24
_symmetry_cell_setting 'orthorhombic'
loop_
_space_group_symop_operation_xyz
x,y,z
-x,1/2-y,z
x,-y,1/2-z
1/2-x,y,-z
1/2+x,1/2+y,1/2+z
1/2-x,-y,1/2+z
1/2+x,1/2-y,-z
-x,1/2+y,1/2-z
loop_
_atom_site_type_symbol
_atom_site_label
_atom_site_fract_x
_atom_site_fract_y
_atom_site_fract_z
Si Si1 0.250000 0.033513 0.500000
Si Si2 0.584560 0.983928 0.570131
Si Si3 0.271448 0.877287 0.244255
Si Si4 0.319169 0.234163 0.335063
Si Si5 0.250000 0.283419 0.000000
Si Si6 0.005494 0.626674 0.486209
O O1 0.230092 0.070238 0.347634
O O2 0.414742 0.999819 0.484082
O O3 0.750000 0.009461 0.500000
O O4 0.612662 0.922175 0.564399
O O5 0.567590 0.000000 0.750000
O O6 0.305946 0.827398 0.135540
O O7 0.122839 0.861576 0.351762
O O8 0.428217 0.889454 0.346396
O O9 0.500000 0.250000 0.319725
O O10 0.250000 0.260214 0.500000
O O11 0.235871 0.250267 0.165180
O O12 0.403808 0.319763 0.011120
#
# Coordination Sequence:
#
# PCOD8166167 Si02
#       6
#     4   8   8   8   4   8
#     4  12  26  46  75 106 150 195 244 316 380 440
#     4  12  28  47  73 109 149 197 251 312 379 459
#     4  11  24  45  73 102 141 192 248 301 376 455
#     4  12  28  47  73 109 149 197 251 312 379 459
#     4  12  26  46  75 106 150 195 244 316 380 440
#     4  11  24  45  73 102 141 192 248 301 376 455
#
# _framework density 22.201318000000001
#
# number of rings (size 3 to 8) (size 9 to 14) (size 15 to 20)
#    0.000    0.400    6.000    2.400    5.600    0.000 
#    0.000    0.000    0.000    0.000    0.000    0.000 
#    0.000    0.000    0.000    0.000    0.000    0.000 
#
# Total GULP energy -247845.078218 kJ/mol
# GULP energy per Si atom -12392.253911 kJ/mol
# Density = 2.215079 g / cm^3
# Si number density = 22.201318 Si / 1000 Ang^3
#
#
#
# Elastic Constant Matrix: (Units=GPa)
#
#
# Indices 1 2 3 4 5 6 
#
# 1 121.2427 22.3337 23.1027 0.0011 0.0009 -0.0022
# 2 22.3337 105.2196 21.7250 -0.0005 -0.0002 -0.0004
# 3 23.1027 21.7250 121.8722 0.0093 0.0088 -0.0103
# 4 0.0011 -0.0005 0.0093 32.8457 0.0001 -0.0012
# 5 0.0009 -0.0002 0.0088 0.0001 35.6167 -0.0013
# 6 -0.0022 -0.0004 -0.0103 -0.0012 -0.0013 32.5020
#
#
#
# Elastic Compliance Matrix: (Units=1/GPa)
#
#
# Indices 1 2 3 4 5 6 
#
# 1 0.008804 -0.001582 -0.001387 0.000000 0.000000 0.000000
# 2 -0.001582 0.010151 -0.001510 0.000001 0.000000 0.000000
# 3 -0.001387 -0.001510 0.008737 -0.000002 -0.000002 0.000003
# 4 0.000000 0.000001 -0.000002 0.030445 0.000000 0.000001
# 5 0.000000 0.000000 -0.000002 0.000000 0.028077 0.000001
# 6 0.000000 0.000000 0.000003 0.000001 0.000001 0.030767
#
#
# Mechanical properties :
#
#
# Convention : Reuss Voigt Hill
#
# Bulk Modulus (GPa) = 53.37626 53.62860 53.50243
# Shear Modulus (GPa) = 37.82595 38.93776 38.38186
#
# Velocity S-wave (km/s) = 4.13215 4.19244 4.16241
# Velocity P-wave (km/s) = 6.84546 6.90242 6.87400
#
# Compressibility (1/GPa) = 0.01873492
#
# Stress axis : x y z
#
# Youngs Moduli (GPa) = 113.58932 98.50763 114.45161
#
# Poissons Ratio (x) = 0.15587 0.15872
# Poissons Ratio (y) = 0.17973 0.17278
# Poissons Ratio (z) = 0.15753 0.14871
#
# Static dielectric constant tensor:
#      x y z
#    x 4.236390 0.000000 -0.000010 
#    y 0.000000 3.944100 -0.000030 
#    z -0.000010 -0.000030 4.294390 
# 
# 
# High freq. dielectric constant tensor:
#      x y z
#    x 1.879720 0.000000 0.000000 
#    y 0.000000 1.879610 0.000000 
#    z 0.000000 0.000000 1.880980 
# 
# From -- ./inp_files/9351.got.cif
#   From: 2010.03.12/outbox.cif.g09.slc.cpg/sg24_5_cif.got.tgz:9351.got - 2010.04.14 03:06:53.
