data_PCOD8166850
_publ_section_title
;
Structure prediction by ZEFSAII (Michael W. Deem and Ramdas Pophale) SiO2 
 PCOD8166850
Probable space group: P M M 2
;
_chemical_formula_sum "Si O2"
_cell_formula_units_Z 17
_cell_length_a 7.418301
_cell_length_b 7.868561
_cell_length_c 13.733001
_cell_angle_alpha 90.000000
_cell_angle_beta 90.000000
_cell_angle_gamma 90.000000
_cell_volume 801.613862
_symmetry_space_group_name_H-M "P M M 2"
_symmetry_group_IT_number 25
_symmetry_cell_setting 'orthorhombic'
loop_
_space_group_symop_operation_xyz
x,y,z
-x,-y,z
-x,y,z
x,-y,z
loop_
_atom_site_type_symbol
_atom_site_label
_atom_site_fract_x
_atom_site_fract_y
_atom_site_fract_z
Si Si1 0.500000 0.312866 0.291380
Si Si2 0.207466 0.193897 0.433383
Si Si3 0.500000 0.000000 0.147055
Si Si4 0.214413 0.310209 0.848965
Si Si5 0.798951 0.301039 0.636996
Si Si6 0.785939 0.000000 0.983180
O O1 0.500000 0.500000 0.242344
O O2 0.322005 0.301861 0.357525
O O3 0.500000 0.170472 0.209366
O O4 0.291796 0.213765 0.542613
O O5 0.000000 0.257973 0.430710
O O6 0.223410 0.000000 0.400452
O O7 0.317118 0.000000 0.084654
O O8 0.280849 0.500000 0.880677
O O9 0.295455 0.263337 0.741636
O O10 0.000000 0.312613 0.840348
O O11 0.277812 0.168524 0.925297
O O12 0.798645 0.500000 0.617427
O O13 0.000000 0.226661 0.643073
O O14 0.000000 0.000000 0.002247
#
# Coordination Sequence:
#
# PCOD8166850 Si02
#       6
#     2   4   1   4   4   2
#     4  12  26  46  67  85 118 159 199 258 315 362
#     4  10  20  36  62  94 128 163 200 242 291 357
#     4  12  28  48  60  90 114 136 206 268 316 366
#     4   8  15  30  55  89 124 157 194 232 278 346
#     4   8  14  26  49  86 127 161 195 230 271 340
#     4  10  22  40  65  85 113 155 192 244 307 358
#
# _framework density 21.207215999999999
#
# number of rings (size 3 to 8) (size 9 to 14) (size 15 to 20)
#    0.000    2.588    1.176    2.118    1.647    3.294 
#    0.000    1.176    0.000    2.824    0.000    0.000 
#    0.000    0.000    0.000    0.000    0.000    0.000 
#
# Total GULP energy -210649.863294 kJ/mol
# GULP energy per Si atom -12391.168429 kJ/mol
# Density = 2.115895 g / cm^3
# Si number density = 21.207216 Si / 1000 Ang^3
#
#
#
# Elastic Constant Matrix: (Units=GPa)
#
#
# Indices 1 2 3 4 5 6 
#
# 1 70.8992 28.4914 42.4090 0.0000 0.0000 0.0000
# 2 28.4914 141.1477 79.9543 0.0000 0.0000 0.0000
# 3 42.4090 79.9543 143.1324 0.0000 0.0000 0.0000
# 4 0.0000 0.0000 0.0000 22.5664 0.0000 0.0000
# 5 0.0000 0.0000 0.0000 0.0000 73.4945 0.0000
# 6 0.0000 0.0000 0.0000 0.0000 0.0000 9.0039
#
#
#
# Elastic Compliance Matrix: (Units=1/GPa)
#
#
# Indices 1 2 3 4 5 6 
#
# 1 0.017213 -0.000857 -0.004622 0.000000 0.000000 0.000000
# 2 -0.000857 0.010407 -0.005560 0.000000 0.000000 0.000000
# 3 -0.004622 -0.005560 0.011461 0.000000 0.000000 0.000000
# 4 0.000000 0.000000 0.000000 0.044314 0.000000 0.000000
# 5 0.000000 0.000000 0.000000 0.000000 0.013606 0.000000
# 6 0.000000 0.000000 0.000000 0.000000 0.000000 0.111063
#
#
# Mechanical properties :
#
#
# Convention : Reuss Voigt Hill
#
# Bulk Modulus (GPa) = 58.80259 72.98764 65.89511
# Shear Modulus (GPa) = 21.20359 34.63458 27.91909
#
# Velocity S-wave (km/s) = 3.16544 4.04561 3.63228
# Velocity P-wave (km/s) = 6.41466 7.50425 6.98074
#
# Compressibility (1/GPa) = 0.01700605
#
# Stress axis : x y z
#
# Youngs Moduli (GPa) = 58.09477 96.08964 87.24872
#
# Poissons Ratio (x) = 0.08231 0.40323
# Poissons Ratio (y) = 0.04976 0.48506
# Poissons Ratio (z) = 0.26849 0.53422
#
# Static dielectric constant tensor:
#      x y z
#    x 3.505210 0.000000 0.000000 
#    y 0.000000 3.905460 0.000000 
#    z 0.000000 0.000000 3.799530 
# 
# 
# High freq. dielectric constant tensor:
#      x y z
#    x 1.807070 0.000000 0.000000 
#    y 0.000000 1.833810 0.000000 
#    z 0.000000 0.000000 1.817170 
# 
# From -- ./inp_files/3713.got.cif
#   From: 2010.03.12/outbox.cif.g09.slc.cpg/sg25_2_cif.got.tgz:3713.got - 2010.04.14 03:30:10.
