data_PCOD8166603
_publ_section_title
;
Structure prediction by ZEFSAII (Michael W. Deem and Ramdas Pophale) SiO2 
 PCOD8166603
Probable space group: P M M 2
;
_chemical_formula_sum "Si O2"
_cell_formula_units_Z 32
_cell_length_a 9.289822
_cell_length_b 9.280465
_cell_length_c 20.611081
_cell_angle_alpha 90.000000
_cell_angle_beta 90.000000
_cell_angle_gamma 90.000000
_cell_volume 1776.961015
_symmetry_space_group_name_H-M "P M M 2"
_symmetry_group_IT_number 25
_symmetry_cell_setting 'orthorhombic'
loop_
_space_group_symop_operation_xyz
x,y,z
-x,-y,z
-x,y,z
x,-y,z
loop_
_atom_site_type_symbol
_atom_site_label
_atom_site_fract_x
_atom_site_fract_y
_atom_site_fract_z
Si Si1 0.837084 0.328476 0.635290
Si Si2 0.333751 0.669815 0.509618
Si Si3 0.337962 0.672010 0.758867
Si Si4 0.663229 0.828910 0.133709
Si Si5 0.159146 0.171036 0.254661
Si Si6 0.169275 0.334933 0.024467
Si Si7 0.840417 0.328958 0.879477
Si Si8 0.833197 0.831664 0.399974
O O1 0.838114 0.500000 0.636607
O O2 0.753009 0.272331 0.572036
O O3 0.755367 0.268783 0.698715
O O4 0.000000 0.268130 0.634364
O O5 0.500000 0.712696 0.518239
O O6 0.314731 0.500000 0.501868
O O7 0.270673 0.743123 0.446079
O O8 0.500000 0.731897 0.753112
O O9 0.338679 0.500000 0.758577
O O10 0.269149 0.732036 0.825633
O O11 0.500000 0.774685 0.131540
O O12 0.731581 0.768767 0.200649
O O13 0.746549 0.767555 0.072561
O O14 0.674107 0.000000 0.130769
O O15 0.206894 0.217942 0.326825
O O16 0.000000 0.232580 0.239207
O O17 0.153514 0.000000 0.252474
O O18 0.215019 0.500000 0.036552
O O19 0.000000 0.315659 0.035419
O O20 0.211704 0.285630 0.951529
O O21 0.848711 0.500000 0.875123
O O22 0.000000 0.266082 0.865762
O O23 0.000000 0.796257 0.414791
O O24 0.803026 0.000000 0.409867
#
# Coordination Sequence:
#
# PCOD8166603 Si02
#       8
#     4   4   4   4   4   4   4   4
#     4   9  16  26  41  60  85 120 158 194 232 272
#     4  10  20  32  46  68  99 130 158 191 233 280
#     4   9  15  22  35  58  87 117 150 188 229 274
#     4  10  20  32  48  72  98 123 154 192 234 281
#     4   8  15  30  51  71  91 118 154 195 234 272
#     4   9  18  32  49  69  94 125 160 196 234 277
#     4   8  14  25  40  59  85 116 150 188 228 271
#     4   9  18  33  53  75  95 118 154 196 234 277
#
# _framework density 18.008274
#
# number of rings (size 3 to 8) (size 9 to 14) (size 15 to 20)
#    0.000    3.000    0.000    3.000    0.000    6.000 
#    0.000    3.125    0.000    0.750    0.000    0.875 
#    0.000    3.000    0.000    0.000    0.000    0.000 
#
# Total GULP energy -396698.582352 kJ/mol
# GULP energy per Si atom -12396.830699 kJ/mol
# Density = 1.796729 g / cm^3
# Si number density = 18.008274 Si / 1000 Ang^3
#
#
#
# Elastic Constant Matrix: (Units=GPa)
#
#
# Indices 1 2 3 4 5 6 
#
# 1 134.3921 22.7421 94.8669 0.0000 0.0000 0.0000
# 2 22.7421 12.9109 23.1787 0.0000 0.0000 0.0000
# 3 94.8669 23.1787 165.5268 0.0000 0.0000 0.0000
# 4 0.0000 0.0000 0.0000 -21.9896 0.0000 0.0000
# 5 0.0000 0.0000 0.0000 0.0000 24.6324 0.0000
# 6 0.0000 0.0000 0.0000 0.0000 0.0000 19.4395
#
#
#
# Elastic Compliance Matrix: (Units=1/GPa)
#
#
# Indices 1 2 3 4 5 6 
#
# 1 0.014131 -0.013828 -0.006162 0.000000 0.000000 0.000000
# 2 -0.013828 0.116996 -0.008458 0.000000 0.000000 0.000000
# 3 -0.006162 -0.008458 0.010757 0.000000 0.000000 0.000000
# 4 0.000000 0.000000 0.000000 -0.045476 0.000000 0.000000
# 5 0.000000 0.000000 0.000000 0.000000 0.040597 0.000000
# 6 0.000000 0.000000 0.000000 0.000000 0.000000 0.051442
#
#
# Mechanical properties :
#
#
# Convention : Reuss Voigt Hill
#
# Bulk Modulus (GPa) = 11.76638 66.04500 38.90569
# Shear Modulus (GPa) = 18.27003 15.88595 17.07799
#
# Velocity S-wave (km/s) = 3.18863 2.97332 3.08286
# Velocity P-wave (km/s) = 4.48381 6.96720 5.85860
#
# Compressibility (1/GPa) = 0.08498791
#
# Stress axis : x y z
#
# Youngs Moduli (GPa) = 70.76676 8.54732 92.95872
#
# Poissons Ratio (x) = 0.11819 0.57285
# Poissons Ratio (y) = 0.97856 0.78623
# Poissons Ratio (z) = 0.43609 0.07229
#
# Static dielectric constant tensor:
#      x y z
#    x 3.581810 0.000000 0.000000 
#    y 0.000000 2.722870 0.000000 
#    z 0.000000 0.000000 3.592050 
# 
# 
# High freq. dielectric constant tensor:
#      x y z
#    x 1.703870 0.000000 0.000000 
#    y 0.000000 1.631610 0.000000 
#    z 0.000000 0.000000 1.715010 
# 
# From -- ./inp_files/6289.got.cif
#   From: 2010.03.12/outbox.cif.g09.slc.cpg/sg25_4_cif.got.tgz:6289.got - 2010.04.14 03:30:10.
