data_PCOD8166065
_publ_section_title
;
Structure prediction by ZEFSAII (Michael W. Deem and Ramdas Pophale) SiO2 
 PCOD8166065
Probable space group: I 21 21 21
;
_chemical_formula_sum "Si O2"
_cell_formula_units_Z 48
_cell_length_a 9.433045
_cell_length_b 13.882619
_cell_length_c 17.487709
_cell_angle_alpha 90.000000
_cell_angle_beta 90.000000
_cell_angle_gamma 90.000000
_cell_volume 2290.109398
_symmetry_space_group_name_H-M "I 21 21 21"
_symmetry_group_IT_number 24
_symmetry_cell_setting 'orthorhombic'
loop_
_space_group_symop_operation_xyz
x,y,z
-x,1/2-y,z
x,-y,1/2-z
1/2-x,y,-z
1/2+x,1/2+y,1/2+z
1/2-x,-y,1/2+z
1/2+x,1/2-y,-z
-x,1/2+y,1/2-z
loop_
_atom_site_type_symbol
_atom_site_label
_atom_site_fract_x
_atom_site_fract_y
_atom_site_fract_z
Si Si1 0.895624 0.939604 0.825750
Si Si2 0.254569 0.256162 0.262354
Si Si3 0.117046 0.420864 0.953284
Si Si4 0.868361 0.417607 0.058306
Si Si5 0.000000 0.250000 0.851248
Si Si6 0.500000 0.250000 0.838849
Si Si7 0.226968 0.940740 0.825666
O O1 0.820182 0.837208 0.816923
O O2 0.061262 0.929247 0.842872
O O3 0.866458 0.000000 0.750000
O O4 0.827311 0.994026 0.898287
O O5 0.371324 0.215376 0.202379
O O6 0.120568 0.297487 0.215152
O O7 0.207583 0.166122 0.314896
O O8 0.045407 0.338686 0.902624
O O9 0.250000 0.378433 0.000000
O O10 0.000260 0.460840 0.011647
O O11 0.803917 0.506560 0.104740
O O12 0.924210 0.330633 0.110387
O O13 0.750000 0.375731 0.000000
O O14 0.258568 0.000000 0.750000
#
# Coordination Sequence:
#
# PCOD8166065 Si02
#       7
#     8   8   8   8   4   4   8
#     4  11  22  44  72  99 138 184 240 283 342 425
#     4  12  23  43  77 105 133 184 244 293 341 409
#     4  12  26  43  66 104 145 182 224 293 363 419
#     4  12  25  45  69 101 150 187 228 287 361 430
#     4  12  21  44  70 100 139 182 236 282 353 432
#     4  12  27  42  66 114 143 178 226 310 365 412
#     4  11  21  45  73 100 134 186 241 286 335 433
#
# _framework density 20.959696999999998
#
# number of rings (size 3 to 8) (size 9 to 14) (size 15 to 20)
#    0.000    0.333    6.667    3.500    0.000    2.667 
#    0.000    0.833    0.000    0.000    0.000    0.000 
#    0.000    0.000    0.000    0.000    0.000    0.000 
#
# Total GULP energy -297687.712419 kJ/mol
# GULP energy per Si atom -12403.654684 kJ/mol
# Density = 2.091199 g / cm^3
# Si number density = 20.959697 Si / 1000 Ang^3
#
#
#
# Elastic Constant Matrix: (Units=GPa)
#
#
# Indices 1 2 3 4 5 6 
#
# 1 116.6330 48.4974 55.7453 0.0000 0.0000 0.0000
# 2 48.4974 156.0650 69.2029 0.0000 0.0000 0.0000
# 3 55.7453 69.2029 105.4230 0.0000 0.0000 0.0000
# 4 0.0000 0.0000 0.0000 2.0602 0.0000 0.0000
# 5 0.0000 0.0000 0.0000 0.0000 35.7702 0.0000
# 6 0.0000 0.0000 0.0000 0.0000 0.0000 22.4621
#
#
#
# Elastic Compliance Matrix: (Units=1/GPa)
#
#
# Indices 1 2 3 4 5 6 
#
# 1 0.011645 -0.001253 -0.005335 0.000000 0.000000 0.000000
# 2 -0.001253 0.009173 -0.005359 0.000000 0.000000 0.000000
# 3 -0.005335 -0.005359 0.015825 0.000000 0.000000 0.000000
# 4 0.000000 0.000000 0.000000 0.485392 0.000000 0.000000
# 5 0.000000 0.000000 0.000000 0.000000 0.027956 0.000000
# 6 0.000000 0.000000 0.000000 0.000000 0.000000 0.044520
#
#
# Mechanical properties :
#
#
# Convention : Reuss Voigt Hill
#
# Bulk Modulus (GPa) = 78.44095 80.55692 79.49894
# Shear Modulus (GPa) = 8.03014 25.70351 16.86683
#
# Velocity S-wave (km/s) = 1.95948 3.50570 2.83985
# Velocity P-wave (km/s) = 6.52881 7.40974 6.98318
#
# Compressibility (1/GPa) = 0.01274844
#
# Stress axis : x y z
#
# Youngs Moduli (GPa) = 85.87531 109.01210 63.19312
#
# Poissons Ratio (x) = 0.13659 0.33714
# Poissons Ratio (y) = 0.10760 0.33866
# Poissons Ratio (z) = 0.45815 0.58421
#
# Static dielectric constant tensor:
#      x y z
#    x 3.995600 0.000000 0.000000 
#    y 0.000000 3.845220 0.000000 
#    z 0.000000 0.000000 4.078620 
# 
# 
# High freq. dielectric constant tensor:
#      x y z
#    x 1.827770 0.000000 0.000000 
#    y 0.000000 1.809520 0.000000 
#    z 0.000000 0.000000 1.821680 
# 
# From -- ./inp_files/27067.got.cif
#   From: 2010.03.12/outbox.cif.g09.slc.cpg/sg24_14_cif.got.tgz:27067.got - 2010.04.14 03:06:53.
