data_PCOD8166216
_publ_section_title
;
Structure prediction by ZEFSAII (Michael W. Deem and Ramdas Pophale) SiO2 
 PCOD8166216
Probable space group: I 21 21 21
;
_chemical_formula_sum "Si O2"
_cell_formula_units_Z 36
_cell_length_a 4.915716
_cell_length_b 16.205647
_cell_length_c 20.862178
_cell_angle_alpha 90.000000
_cell_angle_beta 90.000000
_cell_angle_gamma 90.000000
_cell_volume 1661.930298
_symmetry_space_group_name_H-M "I 21 21 21"
_symmetry_group_IT_number 24
_symmetry_cell_setting 'orthorhombic'
loop_
_space_group_symop_operation_xyz
x,y,z
-x,1/2-y,z
x,-y,1/2-z
1/2-x,y,-z
1/2+x,1/2+y,1/2+z
1/2-x,-y,1/2+z
1/2+x,1/2-y,-z
-x,1/2+y,1/2-z
loop_
_atom_site_type_symbol
_atom_site_label
_atom_site_fract_x
_atom_site_fract_y
_atom_site_fract_z
Si Si1 0.271932 0.071241 0.391459
Si Si2 0.750000 0.695651 0.000000
Si Si3 0.913422 0.843790 0.320477
Si Si4 0.916544 0.593521 0.751801
Si Si5 0.262127 0.466557 0.924466
O O1 0.358745 0.140025 0.442217
O O2 0.307876 0.114872 0.322653
O O3 0.466929 0.992476 0.399128
O O4 0.966586 0.040220 0.404973
O O5 0.500000 0.750000 0.974946
O O6 0.663893 0.847449 0.269826
O O7 0.000000 0.750000 0.329904
O O8 0.163222 0.898456 0.295862
O O9 0.830624 0.880677 0.389396
O O10 0.026426 0.500000 0.750000
O O11 0.250000 0.450257 0.000000
#
# Coordination Sequence:
#
# PCOD8166216 Si02
#       5
#     8   4   8   8   8
#     4  12  24  42  72  97 130 185 234 273 339 417
#     4  12  26  44  62 100 140 168 220 288 338 388
#     4  12  26  44  68 107 143 172 225 300 348 393
#     4  12  23  44  72 101 134 184 234 276 338 422
#     4  12  22  43  71 100 130 182 235 276 336 420
#
# _framework density 21.661556999999998
#
# number of rings (size 3 to 8) (size 9 to 14) (size 15 to 20)
#    0.000    0.000    6.667    4.000    0.000    2.667 
#    0.000    4.444    0.000    0.000    0.000    0.000 
#    0.000    0.000    0.000    0.000    0.000    0.000 
#
# Total GULP energy -223338.357462 kJ/mol
# GULP energy per Si atom -12407.686526 kJ/mol
# Density = 2.161225 g / cm^3
# Si number density = 21.661557 Si / 1000 Ang^3
#
#
#
# Elastic Constant Matrix: (Units=GPa)
#
#
# Indices 1 2 3 4 5 6 
#
# 1 114.8275 31.5121 43.6770 0.0000 0.0000 0.0000
# 2 31.5121 104.9424 56.9991 0.0000 0.0000 0.0000
# 3 43.6770 56.9991 157.4448 0.0000 0.0000 0.0000
# 4 0.0000 0.0000 0.0000 25.0254 0.0000 0.0000
# 5 0.0000 0.0000 0.0000 0.0000 33.6064 0.0000
# 6 0.0000 0.0000 0.0000 0.0000 0.0000 37.4580
#
#
#
# Elastic Compliance Matrix: (Units=1/GPa)
#
#
# Indices 1 2 3 4 5 6 
#
# 1 0.010021 -0.001866 -0.002104 0.000000 0.000000 0.000000
# 2 -0.001866 0.012209 -0.003902 0.000000 0.000000 0.000000
# 3 -0.002104 -0.003902 0.008348 0.000000 0.000000 0.000000
# 4 0.000000 0.000000 0.000000 0.039959 0.000000 0.000000
# 5 0.000000 0.000000 0.000000 0.000000 0.029756 0.000000
# 6 0.000000 0.000000 0.000000 0.000000 0.000000 0.026697
#
#
# Mechanical properties :
#
#
# Convention : Reuss Voigt Hill
#
# Bulk Modulus (GPa) = 67.41972 71.28790 69.35381
# Shear Modulus (GPa) = 33.85694 35.55306 34.70500
#
# Velocity S-wave (km/s) = 3.95776 4.05569 4.00703
# Velocity P-wave (km/s) = 7.21643 7.41032 7.31402
#
# Compressibility (1/GPa) = 0.01483246
#
# Stress axis : x y z
#
# Youngs Moduli (GPa) = 99.78736 81.90747 119.79017
#
# Poissons Ratio (x) = 0.15286 0.25209
# Poissons Ratio (y) = 0.18622 0.46745
# Poissons Ratio (z) = 0.20999 0.31962
#
# Static dielectric constant tensor:
#      x y z
#    x 4.067350 0.000000 0.000000 
#    y 0.000000 3.630330 0.000000 
#    z 0.000000 0.000000 4.105320 
# 
# 
# High freq. dielectric constant tensor:
#      x y z
#    x 1.868860 0.000000 0.000000 
#    y 0.000000 1.833730 0.000000 
#    z 0.000000 0.000000 1.862570 
# 
# From -- ./inp_files/3342.got.cif
#   From: 2010.03.12/outbox.cif.g09.slc.cpg/sg24_2_cif.got.tgz:3342.got - 2010.04.14 03:06:53.
