data_PCOD8166417
_publ_section_title
;
Structure prediction by ZEFSAII (Michael W. Deem and Ramdas Pophale) SiO2 
 PCOD8166417
Probable space group: P M M 2
;
_chemical_formula_sum "Si O2"
_cell_formula_units_Z 32
_cell_length_a 15.385412
_cell_length_b 8.544310
_cell_length_c 11.937464
_cell_angle_alpha 90.000000
_cell_angle_beta 90.000000
_cell_angle_gamma 90.000000
_cell_volume 1569.271915
_symmetry_space_group_name_H-M "P M M 2"
_symmetry_group_IT_number 25
_symmetry_cell_setting 'orthorhombic'
loop_
_space_group_symop_operation_xyz
x,y,z
-x,-y,z
-x,y,z
x,-y,z
loop_
_atom_site_type_symbol
_atom_site_label
_atom_site_fract_x
_atom_site_fract_y
_atom_site_fract_z
Si Si1 0.256324 0.681576 0.750000
Si Si2 0.096340 0.814253 0.355396
Si Si3 0.339118 0.679061 0.121396
Si Si4 0.403299 0.179303 0.902901
Si Si5 0.747188 0.182649 0.508004
Si Si6 0.901463 0.183654 0.880189
Si Si7 0.598378 0.679797 0.365026
Si Si8 0.845542 0.181836 0.119137
O O1 0.271819 0.500000 0.771567
O O2 0.332651 0.774332 0.811239
O O3 0.261594 0.717428 0.619414
O O4 0.161793 0.729166 0.794889
O O5 0.168121 0.751807 0.442313
O O6 0.113485 0.741914 0.231491
O O7 0.000000 0.763617 0.395752
O O8 0.105232 0.000000 0.348658
O O9 0.307391 0.500000 0.116173
O O10 0.394070 0.712382 0.232755
O O11 0.256806 0.791986 0.118332
O O12 0.397850 0.716161 0.014225
O O13 0.500000 0.202929 0.851933
O O14 0.386998 0.000000 0.936556
O O15 0.662225 0.206877 0.432292
O O16 0.756606 0.000000 0.537421
O O17 0.000000 0.217043 0.841963
O O18 0.879688 0.000000 0.876443
O O19 0.887650 0.251773 0.005864
O O20 0.500000 0.717973 0.401740
O O21 0.622022 0.500000 0.392187
O O22 0.867005 0.000000 0.120920
#
# Coordination Sequence:
#
# PCOD8166417 Si02
#       8
#     4   4   4   4   4   4   4   4
#     4  12  26  43  63  87 120 162 204 253 309 367
#     4   9  18  34  59  91 122 154 196 243 293 350
#     4  11  21  35  60  92 128 164 196 237 298 366
#     4  11  24  42  65  92 121 155 200 253 305 362
#     4  11  23  40  63  89 117 155 205 257 302 352
#     4  10  21  38  63  93 125 162 203 249 300 357
#     4  10  22  40  61  87 123 163 199 240 297 363
#     4  10  18  33  60  91 124 159 197 242 296 356
#
# _framework density 20.391622000000002
#
# number of rings (size 3 to 8) (size 9 to 14) (size 15 to 20)
#    0.000    1.500    2.500    3.000    0.000    5.000 
#    0.000    1.250    0.000    3.750    0.000    0.000 
#    0.000    0.000    0.000    0.000    0.000    0.000 
#
# Total GULP energy -396875.684368 kJ/mol
# GULP energy per Si atom -12402.365137 kJ/mol
# Density = 2.034521 g / cm^3
# Si number density = 20.391622 Si / 1000 Ang^3
#
#
#
# Elastic Constant Matrix: (Units=GPa)
#
#
# Indices 1 2 3 4 5 6 
#
# 1 135.9739 16.6742 46.5526 0.0000 0.0000 0.0000
# 2 16.6742 33.9613 17.4967 0.0000 0.0000 0.0000
# 3 46.5526 17.4967 118.3033 0.0000 0.0000 0.0000
# 4 0.0000 0.0000 0.0000 28.4919 0.0000 0.0000
# 5 0.0000 0.0000 0.0000 0.0000 13.2913 0.0000
# 6 0.0000 0.0000 0.0000 0.0000 0.0000 15.6115
#
#
#
# Elastic Compliance Matrix: (Units=1/GPa)
#
#
# Indices 1 2 3 4 5 6 
#
# 1 0.008726 -0.002723 -0.003031 0.000000 0.000000 0.000000
# 2 -0.002723 0.032723 -0.003768 0.000000 0.000000 0.000000
# 3 -0.003031 -0.003768 0.010203 0.000000 0.000000 0.000000
# 4 0.000000 0.000000 0.000000 0.035098 0.000000 0.000000
# 5 0.000000 0.000000 0.000000 0.000000 0.075237 0.000000
# 6 0.000000 0.000000 0.000000 0.000000 0.000000 0.064055
#
#
# Mechanical properties :
#
#
# Convention : Reuss Voigt Hill
#
# Bulk Modulus (GPa) = 30.66704 49.96506 40.31605
# Shear Modulus (GPa) = 19.53462 25.31329 22.42396
#
# Velocity S-wave (km/s) = 3.09847 3.52711 3.31972
# Velocity P-wave (km/s) = 5.27943 6.41430 5.87434
#
# Compressibility (1/GPa) = 0.03260830
#
# Stress axis : x y z
#
# Youngs Moduli (GPa) = 114.60095 30.55910 98.01162
#
# Poissons Ratio (x) = 0.08320 0.29707
# Poissons Ratio (y) = 0.31202 0.36934
# Poissons Ratio (z) = 0.34736 0.11516
#
# Static dielectric constant tensor:
#      x y z
#    x 3.750430 0.000000 0.000000 
#    y 0.000000 3.500140 0.000000 
#    z 0.000000 0.000000 3.743710 
# 
# 
# High freq. dielectric constant tensor:
#      x y z
#    x 1.807400 0.000000 0.000000 
#    y 0.000000 1.776080 0.000000 
#    z 0.000000 0.000000 1.797130 
# 
# From -- ./inp_files/4196.got.cif
#   From: 2010.03.12/outbox.cif.g09.slc.cpg/sg25_3_cif.got.tgz:4196.got - 2010.04.14 03:30:10.
