data_PCOD8166322
_publ_section_title
;
Structure prediction by ZEFSAII (Michael W. Deem and Ramdas Pophale) SiO2 
 PCOD8166322
Probable space group: P M M 2
;
_chemical_formula_sum "Si O2"
_cell_formula_units_Z 32
_cell_length_a 8.797102
_cell_length_b 14.475556
_cell_length_c 15.590183
_cell_angle_alpha 90.000000
_cell_angle_beta 90.000000
_cell_angle_gamma 90.000000
_cell_volume 1985.299779
_symmetry_space_group_name_H-M "P M M 2"
_symmetry_group_IT_number 25
_symmetry_cell_setting 'orthorhombic'
loop_
_space_group_symop_operation_xyz
x,y,z
-x,-y,z
-x,y,z
x,-y,z
loop_
_atom_site_type_symbol
_atom_site_label
_atom_site_fract_x
_atom_site_fract_y
_atom_site_fract_z
Si Si1 0.675505 0.891934 0.692660
Si Si2 0.818806 0.103263 0.334559
Si Si3 0.819186 0.209844 0.170815
Si Si4 0.180612 0.399541 0.103312
Si Si5 0.820672 0.205740 0.849571
Si Si6 0.168855 0.890386 0.521374
Si Si7 0.676337 0.108304 0.011301
Si Si8 0.180080 0.600243 0.910198
O O1 0.500000 0.870583 0.709748
O O2 0.777589 0.834256 0.757605
O O3 0.718104 0.858611 0.596709
O O4 0.712030 0.000000 0.704711
O O5 0.753461 0.169197 0.259823
O O6 0.768671 0.142965 0.428127
O O7 0.000000 0.099936 0.332148
O O8 0.753731 0.000000 0.319264
O O9 0.758846 0.315524 0.162178
O O10 0.000000 0.206376 0.170701
O O11 0.764729 0.149432 0.091510
O O12 0.237242 0.500000 0.138023
O O13 0.000000 0.397814 0.102092
O O14 0.241753 0.384127 0.006742
O O15 0.736661 0.149054 0.922753
O O16 0.766630 0.313393 0.852229
O O17 0.000000 0.196913 0.864464
O O18 0.000000 0.850148 0.539624
O O19 0.158694 0.000000 0.516769
O O20 0.500000 0.132337 0.020438
O O21 0.706732 0.000000 0.009082
O O22 0.240071 0.500000 0.875297
O O23 0.000000 0.597220 0.912965
#
# Coordination Sequence:
#
# PCOD8166322 Si02
#       8
#     4   4   4   4   4   4   4   4
#     4  10  20  32  45  64  92 121 146 180 225 265
#     4   8  14  24  41  66  91 111 140 188 230 254
#     4  10  17  28  47  68  87 116 155 187 217 260
#     4   8  13  23  41  65  90 113 142 184 227 260
#     4  11  20  31  49  69  85 113 153 185 216 262
#     4   8  14  27  45  63  84 112 147 186 224 261
#     4  11  23  34  41  56  90 128 153 179 217 257
#     4   8  14  26  44  66  89 110 139 183 227 260
#
# _framework density 16.118473999999999
#
# number of rings (size 3 to 8) (size 9 to 14) (size 15 to 20)
#    0.000    2.750    1.250    3.375    0.000    3.750 
#    0.000    0.625    0.000    4.875    0.000    0.875 
#    0.000    5.000    0.000    0.000    0.000    0.000 
#
# Total GULP energy -396548.874724 kJ/mol
# GULP energy per Si atom -12392.152335 kJ/mol
# Density = 1.608179 g / cm^3
# Si number density = 16.118474 Si / 1000 Ang^3
#
#
#
# Elastic Constant Matrix: (Units=GPa)
#
#
# Indices 1 2 3 4 5 6 
#
# 1 12.5376 19.5772 2.9595 0.0000 0.0000 0.0000
# 2 19.5772 104.3429 53.0255 0.0000 0.0000 0.0000
# 3 2.9595 53.0255 101.7651 0.0000 0.0000 0.0000
# 4 0.0000 0.0000 0.0000 8.7369 0.0000 0.0000
# 5 0.0000 0.0000 0.0000 0.0000 9.0083 0.0000
# 6 0.0000 0.0000 0.0000 0.0000 0.0000 7.2273
#
#
#
# Elastic Compliance Matrix: (Units=1/GPa)
#
#
# Indices 1 2 3 4 5 6 
#
# 1 0.121779 -0.028630 0.011376 0.000000 0.000000 0.000000
# 2 -0.028630 0.019766 -0.009467 0.000000 0.000000 0.000000
# 3 0.011376 -0.009467 0.014428 0.000000 0.000000 0.000000
# 4 0.000000 0.000000 0.000000 0.114458 0.000000 0.000000
# 5 0.000000 0.000000 0.000000 0.000000 0.111008 0.000000
# 6 0.000000 0.000000 0.000000 0.000000 0.000000 0.138364
#
#
# Mechanical properties :
#
#
# Convention : Reuss Voigt Hill
#
# Bulk Modulus (GPa) = 9.75294 41.08555 25.41925
# Shear Modulus (GPa) = 8.23151 14.53340 11.38246
#
# Velocity S-wave (km/s) = 2.26229 3.00603 2.66028
# Velocity P-wave (km/s) = 3.58997 6.13134 5.02400
#
# Compressibility (1/GPa) = 0.10253315
#
# Stress axis : x y z
#
# Youngs Moduli (GPa) = 8.21159 50.59117 69.30746
#
# Poissons Ratio (x) = 1.44842 -0.78846
# Poissons Ratio (y) = 0.23510 0.65612
# Poissons Ratio (z) = -0.09342 0.47894
#
# Static dielectric constant tensor:
#      x y z
#    x 2.779280 0.000000 0.000000 
#    y 0.000000 3.357050 0.000000 
#    z 0.000000 0.000000 3.248770 
# 
# 
# High freq. dielectric constant tensor:
#      x y z
#    x 1.591170 0.000000 0.000000 
#    y 0.000000 1.606740 0.000000 
#    z 0.000000 0.000000 1.610410 
# 
# From -- ./inp_files/5687.got.cif
#   From: 2010.03.12/outbox.cif.g09.slc.cpg/sg25_3_cif.got.tgz:5687.got - 2010.04.14 03:30:10.
