data_PCOD8166316
_publ_section_title
;
Structure prediction by ZEFSAII (Michael W. Deem and Ramdas Pophale) SiO2 
 PCOD8166316
Probable space group: P M M 2
;
_chemical_formula_sum "Si O2"
_cell_formula_units_Z 32
_cell_length_a 14.169079
_cell_length_b 9.114628
_cell_length_c 15.565936
_cell_angle_alpha 90.000000
_cell_angle_beta 90.000000
_cell_angle_gamma 90.000000
_cell_volume 2010.276568
_symmetry_space_group_name_H-M "P M M 2"
_symmetry_group_IT_number 25
_symmetry_cell_setting 'orthorhombic'
loop_
_space_group_symop_operation_xyz
x,y,z
-x,-y,z
-x,y,z
x,-y,z
loop_
_atom_site_type_symbol
_atom_site_label
_atom_site_fract_x
_atom_site_fract_y
_atom_site_fract_z
Si Si1 0.220754 0.325763 0.549350
Si Si2 0.217541 0.325814 0.217890
Si Si3 0.888012 0.663037 0.898811
Si Si4 0.105271 0.674474 0.710796
Si Si5 0.392684 0.829290 0.282970
Si Si6 0.889016 0.169895 0.065723
Si Si7 0.894120 0.325666 0.385037
Si Si8 0.606930 0.829914 0.480107
O O1 0.226507 0.500000 0.549051
O O2 0.174423 0.264832 0.637002
O O3 0.158438 0.267068 0.469731
O O4 0.325924 0.262888 0.542159
O O5 0.219586 0.500000 0.211798
O O6 0.324152 0.265877 0.222924
O O7 0.166786 0.263579 0.134735
O O8 0.160567 0.268987 0.301089
O O9 0.847273 0.500000 0.918498
O O10 0.854149 0.720084 0.804788
O O11 0.000000 0.653217 0.895196
O O12 0.854837 0.775856 0.971948
O O13 0.099612 0.500000 0.705682
O O14 0.000000 0.739085 0.695667
O O15 0.500000 0.798181 0.253813
O O16 0.379035 0.780227 0.381609
O O17 0.368349 0.000000 0.272066
O O18 0.000000 0.198289 0.078483
O O19 0.863127 0.000000 0.075120
O O20 0.897327 0.500000 0.385782
O O21 0.000000 0.261058 0.383603
O O22 0.500000 0.798572 0.509234
O O23 0.631643 0.000000 0.489717
#
# Coordination Sequence:
#
# PCOD8166316 Si02
#       8
#     4   4   4   4   4   4   4   4
#     4  10  17  27  45  69  92 118 154 192 224 261
#     4  11  20  30  46  69  94 122 155 192 230 271
#     4   8  14  27  46  66  88 117 153 191 229 270
#     4   8  14  25  44  69  95 122 151 184 226 274
#     4   9  18  33  50  65  86 119 156 195 237 277
#     4  10  20  32  46  66  93 125 158 192 230 273
#     4   9  17  27  39  60  92 125 153 180 214 257
#     4   9  18  32  47  62  86 121 155 190 233 274
#
# _framework density 15.918208999999999
#
# number of rings (size 3 to 8) (size 9 to 14) (size 15 to 20)
#    0.000    2.750    1.250    3.000    0.000    3.250 
#    0.000    1.875    0.000    3.000    0.000    0.875 
#    0.000    5.000    0.000    0.000    0.000    0.000 
#
# Total GULP energy -396724.797319 kJ/mol
# GULP energy per Si atom -12397.649916 kJ/mol
# Density = 1.588198 g / cm^3
# Si number density = 15.918209 Si / 1000 Ang^3
#
#
#
# Elastic Constant Matrix: (Units=GPa)
#
#
# Indices 1 2 3 4 5 6 
#
# 1 88.8689 36.9237 52.7584 0.0000 0.0000 0.0000
# 2 36.9237 50.3177 39.3490 0.0000 0.0000 0.0000
# 3 52.7584 39.3490 121.9826 0.0000 0.0000 0.0000
# 4 0.0000 0.0000 0.0000 17.2890 0.0000 0.0000
# 5 0.0000 0.0000 0.0000 0.0000 12.6211 0.0000
# 6 0.0000 0.0000 0.0000 0.0000 0.0000 22.7712
#
#
#
# Elastic Compliance Matrix: (Units=1/GPa)
#
#
# Indices 1 2 3 4 5 6 
#
# 1 0.018012 -0.009529 -0.004716 0.000000 0.000000 0.000000
# 2 -0.009529 0.031620 -0.006079 0.000000 0.000000 0.000000
# 3 -0.004716 -0.006079 0.012199 0.000000 0.000000 0.000000
# 4 0.000000 0.000000 0.000000 0.057840 0.000000 0.000000
# 5 0.000000 0.000000 0.000000 0.000000 0.079232 0.000000
# 6 0.000000 0.000000 0.000000 0.000000 0.000000 0.043915
#
#
# Mechanical properties :
#
#
# Convention : Reuss Voigt Hill
#
# Bulk Modulus (GPa) = 47.20927 57.69239 52.45083
# Shear Modulus (GPa) = 17.21019 19.34546 18.27783
#
# Velocity S-wave (km/s) = 3.29167 3.48990 3.39224
# Velocity P-wave (km/s) = 6.64595 7.24989 6.95448
#
# Compressibility (1/GPa) = 0.02118228
#
# Stress axis : x y z
#
# Youngs Moduli (GPa) = 55.51988 31.62594 81.97702
#
# Poissons Ratio (x) = 0.30136 0.38663
# Poissons Ratio (y) = 0.52904 0.49830
# Poissons Ratio (z) = 0.26185 0.19224
#
# Static dielectric constant tensor:
#      x y z
#    x 2.931390 0.000000 0.000000 
#    y 0.000000 2.791600 0.000000 
#    z 0.000000 0.000000 3.178740 
# 
# 
# High freq. dielectric constant tensor:
#      x y z
#    x 1.592810 0.000000 0.000000 
#    y 0.000000 1.591870 0.000000 
#    z 0.000000 0.000000 1.604360 
# 
# From -- ./inp_files/5692.got.cif
#   From: 2010.03.12/outbox.cif.g09.slc.cpg/sg25_3_cif.got.tgz:5692.got - 2010.04.14 03:30:10.
