data_PCOD8166294
_publ_section_title
;
Structure prediction by ZEFSAII (Michael W. Deem and Ramdas Pophale) SiO2 
 PCOD8166294
Probable space group: I 21 21 21
;
_chemical_formula_sum "Si O2"
_cell_formula_units_Z 20
_cell_length_a 21.654038
_cell_length_b 5.090246
_cell_length_c 7.540100
_cell_angle_alpha 90.000000
_cell_angle_beta 90.000000
_cell_angle_gamma 90.000000
_cell_volume 831.102850
_symmetry_space_group_name_H-M "I 21 21 21"
_symmetry_group_IT_number 24
_symmetry_cell_setting 'orthorhombic'
loop_
_space_group_symop_operation_xyz
x,y,z
-x,1/2-y,z
x,-y,1/2-z
1/2-x,y,-z
1/2+x,1/2+y,1/2+z
1/2-x,-y,1/2+z
1/2+x,1/2-y,-z
-x,1/2+y,1/2-z
loop_
_atom_site_type_symbol
_atom_site_label
_atom_site_fract_x
_atom_site_fract_y
_atom_site_fract_z
Si Si1 0.000000 0.250000 0.875538
Si Si2 0.700436 0.500000 0.250000
Si Si3 0.714988 0.000000 0.750000
Si Si4 0.624343 0.667755 0.569565
O O1 0.997017 0.500000 0.750000
O O2 0.941908 0.231495 0.006388
O O3 0.743486 0.251623 0.287883
O O4 0.656380 0.495561 0.419284
O O5 0.668698 0.076741 0.910604
O O6 0.618550 0.500000 0.750000
#
# Coordination Sequence:
#
# PCOD8166294 Si02
#       4
#     4   4   4   8
#     4  12  32  58  84 114 164 214 274 344 400 466
#     4  12  30  54  80 122 172 204 266 332 416 472
#     4  12  30  48  86 122 162 210 262 332 398 494
#     4  12  31  53  86 120 159 218 272 331 402 483
#
# _framework density 24.064409999999999
#
# number of rings (size 3 to 8) (size 9 to 14) (size 15 to 20)
#    0.000    0.000    4.000    1.200   22.400    0.000 
#    0.000    0.000    0.000    0.000    0.000    0.000 
#    0.000    0.000    0.000    0.000    0.000    0.000 
#
# Total GULP energy -123977.466050 kJ/mol
# GULP energy per Si atom -12397.746605 kJ/mol
# Density = 2.400964 g / cm^3
# Si number density = 24.064410 Si / 1000 Ang^3
#
#
#
# Elastic Constant Matrix: (Units=GPa)
#
#
# Indices 1 2 3 4 5 6 
#
# 1 184.9691 41.4458 56.5007 0.0000 0.0000 0.0000
# 2 41.4458 131.6524 32.3769 0.0000 0.0000 0.0000
# 3 56.5007 32.3769 150.5091 0.0000 0.0000 0.0000
# 4 0.0000 0.0000 0.0000 34.1873 0.0000 0.0000
# 5 0.0000 0.0000 0.0000 0.0000 12.9201 0.0000
# 6 0.0000 0.0000 0.0000 0.0000 0.0000 -27.7511
#
#
#
# Elastic Compliance Matrix: (Units=1/GPa)
#
#
# Indices 1 2 3 4 5 6 
#
# 1 0.006374 -0.001497 -0.002071 0.000000 0.000000 0.000000
# 2 -0.001497 0.008372 -0.001239 0.000000 0.000000 0.000000
# 3 -0.002071 -0.001239 0.007688 0.000000 0.000000 0.000000
# 4 0.000000 0.000000 0.000000 0.029251 0.000000 0.000000
# 5 0.000000 0.000000 0.000000 0.000000 0.077399 0.000000
# 6 0.000000 0.000000 0.000000 0.000000 0.000000 -0.036035
#
#
# Mechanical properties :
#
#
# Convention : Reuss Voigt Hill
#
# Bulk Modulus (GPa) = 78.00245 80.86417 79.43331
# Shear Modulus (GPa) = 46.75681 26.32508 36.54094
#
# Velocity S-wave (km/s) = 4.41271 3.31107 3.90097
# Velocity P-wave (km/s) = 7.64507 6.94937 7.30551
#
# Compressibility (1/GPa) = 0.01282011
#
# Stress axis : x y z
#
# Youngs Moduli (GPa) = 156.87768 119.44823 130.07338
#
# Poissons Ratio (x) = 0.17887 0.26936
# Poissons Ratio (y) = 0.23492 0.16113
# Poissons Ratio (z) = 0.32486 0.14797
#
# Static dielectric constant tensor:
#      x y z
#    x 4.825170 0.000000 0.000000 
#    y 0.000000 4.700860 0.000000 
#    z 0.000000 0.000000 4.968210 
# 
# 
# High freq. dielectric constant tensor:
#      x y z
#    x 1.980430 0.000000 0.000000 
#    y 0.000000 1.962470 0.000000 
#    z 0.000000 0.000000 1.970080 
# 
# From -- ./inp_files/15525.got.cif
#   From: 2010.03.12/outbox.cif.g09.slc.cpg/sg24_8_cif.got.tgz:15525.got - 2010.04.14 03:06:53.
