data_PCOD8166671
_publ_section_title
;
Structure prediction by ZEFSAII (Michael W. Deem and Ramdas Pophale) SiO2 
 PCOD8166671
Probable space group: P M M 2
;
_chemical_formula_sum "Si O2"
_cell_formula_units_Z 32
_cell_length_a 14.125128
_cell_length_b 8.900686
_cell_length_c 15.535504
_cell_angle_alpha 90.000000
_cell_angle_beta 90.000000
_cell_angle_gamma 90.000000
_cell_volume 1953.175281
_symmetry_space_group_name_H-M "P M M 2"
_symmetry_group_IT_number 25
_symmetry_cell_setting 'orthorhombic'
loop_
_space_group_symop_operation_xyz
x,y,z
-x,-y,z
-x,y,z
x,-y,z
loop_
_atom_site_type_symbol
_atom_site_label
_atom_site_fract_x
_atom_site_fract_y
_atom_site_fract_z
Si Si1 0.112361 0.832963 0.316740
Si Si2 0.894545 0.178686 0.129180
Si Si3 0.214180 0.177468 0.963182
Si Si4 0.606787 0.673557 0.899950
Si Si5 0.607358 0.673783 0.699851
Si Si6 0.888519 0.672943 0.487082
Si Si7 0.211427 0.823369 0.643381
Si Si8 0.111219 0.325731 0.804223
O O1 0.146049 0.771235 0.222995
O O2 0.145283 0.719624 0.391415
O O3 0.000000 0.843304 0.313210
O O4 0.153660 0.000000 0.335124
O O5 0.000000 0.244823 0.113156
O O6 0.900007 0.000000 0.128102
O O7 0.825638 0.237778 0.054202
O O8 0.323227 0.226919 0.957154
O O9 0.152074 0.247374 0.887969
O O10 0.206707 0.000000 0.955736
O O11 0.500000 0.725031 0.920660
O O12 0.620775 0.500000 0.923571
O O13 0.630099 0.700186 0.800017
O O14 0.500000 0.723593 0.678883
O O15 0.621869 0.500000 0.675925
O O16 0.678485 0.774763 0.644172
O O17 0.861926 0.500000 0.502825
O O18 0.833222 0.777680 0.552945
O O19 0.000000 0.700491 0.499140
O O20 0.155065 0.741544 0.718463
O O21 0.203107 0.000000 0.656402
O O22 0.138328 0.500000 0.807812
O O23 0.000000 0.298495 0.801267
#
# Coordination Sequence:
#
# PCOD8166671 Si02
#       8
#     4   4   4   4   4   4   4   4
#     4   8  14  28  49  69  91 123 161 199 238 281
#     4   8  15  28  46  69  99 131 159 191 236 287
#     4  11  20  30  48  74  99 126 161 201 241 285
#     4   9  18  33  51  68  91 126 163 200 244 290
#     4   9  18  34  54  71  92 125 160 197 243 290
#     4  10  20  33  49  70  98 130 162 199 241 286
#     4  12  23  33  49  73  97 125 161 201 240 284
#     4  11  23  36  47  62  93 135 170 198 232 277
#
# _framework density 16.383579000000001
#
# number of rings (size 3 to 8) (size 9 to 14) (size 15 to 20)
#    0.000    2.250    1.250    4.500    0.000    4.250 
#    0.000    2.500    0.000    3.000    0.000    0.875 
#    0.000    5.000    0.000    0.000    0.000    0.000 
#
# Total GULP energy -396767.997165 kJ/mol
# GULP energy per Si atom -12398.999911 kJ/mol
# Density = 1.634629 g / cm^3
# Si number density = 16.383579 Si / 1000 Ang^3
#
#
#
# Elastic Constant Matrix: (Units=GPa)
#
#
# Indices 1 2 3 4 5 6 
#
# 1 77.8741 38.5653 45.1931 0.0000 0.0000 0.0000
# 2 38.5653 57.2807 25.7683 0.0000 0.0000 0.0000
# 3 45.1931 25.7683 104.1483 0.0000 0.0000 0.0000
# 4 0.0000 0.0000 0.0000 4.9354 0.0000 0.0000
# 5 0.0000 0.0000 0.0000 0.0000 9.3038 0.0000
# 6 0.0000 0.0000 0.0000 0.0000 0.0000 23.1316
#
#
#
# Elastic Compliance Matrix: (Units=1/GPa)
#
#
# Indices 1 2 3 4 5 6 
#
# 1 0.022971 -0.012357 -0.006911 0.000000 0.000000 0.000000
# 2 -0.012357 0.026292 -0.001143 0.000000 0.000000 0.000000
# 3 -0.006911 -0.001143 0.012883 0.000000 0.000000 0.000000
# 4 0.000000 0.000000 0.000000 0.202619 0.000000 0.000000
# 5 0.000000 0.000000 0.000000 0.000000 0.107483 0.000000
# 6 0.000000 0.000000 0.000000 0.000000 0.000000 0.043231
#
#
# Mechanical properties :
#
#
# Convention : Reuss Voigt Hill
#
# Bulk Modulus (GPa) = 46.89336 50.92850 48.91093
# Shear Modulus (GPa) = 10.78960 16.12589 13.45775
#
# Velocity S-wave (km/s) = 2.56903 3.14071 2.86915
# Velocity P-wave (km/s) = 6.12243 6.65618 6.39488
#
# Compressibility (1/GPa) = 0.02132498
#
# Stress axis : x y z
#
# Youngs Moduli (GPa) = 43.53274 38.03479 77.62062
#
# Poissons Ratio (x) = 0.47000 0.53640
# Poissons Ratio (y) = 0.53794 0.08872
# Poissons Ratio (z) = 0.30083 0.04347
#
# Static dielectric constant tensor:
#      x y z
#    x 3.074340 0.000000 0.000000 
#    y 0.000000 3.030260 0.000000 
#    z 0.000000 0.000000 3.298280 
# 
# 
# High freq. dielectric constant tensor:
#      x y z
#    x 1.613710 0.000000 0.000000 
#    y 0.000000 1.626790 0.000000 
#    z 0.000000 0.000000 1.622260 
# 
# From -- ./inp_files/5735.got.cif
#   From: 2010.03.12/outbox.cif.g09.slc.cpg/sg25_3_cif.got.tgz:5735.got - 2010.04.14 03:30:10.
