data_PCOD8166052
_publ_section_title
;
Structure prediction by ZEFSAII (Michael W. Deem and Ramdas Pophale) SiO2 
 PCOD8166052
Probable space group: I 21 21 21
;
_chemical_formula_sum "Si O2"
_cell_formula_units_Z 48
_cell_length_a 12.600435
_cell_length_b 27.391700
_cell_length_c 6.447649
_cell_angle_alpha 90.000000
_cell_angle_beta 90.000000
_cell_angle_gamma 90.000000
_cell_volume 2225.388872
_symmetry_space_group_name_H-M "I 21 21 21"
_symmetry_group_IT_number 24
_symmetry_cell_setting 'orthorhombic'
loop_
_space_group_symop_operation_xyz
x,y,z
-x,1/2-y,z
x,-y,1/2-z
1/2-x,y,-z
1/2+x,1/2+y,1/2+z
1/2-x,-y,1/2+z
1/2+x,1/2-y,-z
-x,1/2+y,1/2-z
loop_
_atom_site_type_symbol
_atom_site_label
_atom_site_fract_x
_atom_site_fract_y
_atom_site_fract_z
Si Si1 0.750000 0.736216 0.500000
Si Si2 0.869962 0.886454 0.412485
Si Si3 0.922494 0.795256 0.666971
Si Si4 0.817812 0.340474 0.301782
Si Si5 0.030212 0.630582 0.005637
Si Si6 0.750000 0.419489 0.000000
Si Si7 0.525914 0.552487 0.340681
O O1 0.807463 0.770909 0.664418
O O2 0.828467 0.702701 0.365615
O O3 0.750000 0.889848 0.500000
O O4 0.928748 0.837195 0.491367
O O5 0.874062 0.886912 0.159421
O O6 0.937151 0.933288 0.489623
O O7 0.000000 0.750000 0.625378
O O8 0.936468 0.820018 0.889567
O O9 0.750000 0.323222 0.500000
O O10 0.936078 0.355598 0.343911
O O11 0.759060 0.386945 0.205110
O O12 0.986827 0.590233 0.848106
O O13 0.642719 0.450181 0.049017
O O14 0.498727 0.500000 0.250000
#
# Coordination Sequence:
#
# PCOD8166052 Si02
#       7
#     4   8   8   8   8   4   8
#     4  11  24  40  64  98 140 174 238 280 333 412
#     4  11  25  50  71  98 145 190 240 306 348 417
#     4  11  24  42  64 104 138 183 236 287 347 411
#     4  11  21  39  70 100 135 186 221 284 354 423
#     4  11  24  44  71  97 140 186 230 285 362 419
#     4  11  22  42  72 102 144 170 226 292 361 430
#     4  11  26  46  72 109 140 180 235 293 366 438
#
# _framework density 21.569264
#
# number of rings (size 3 to 8) (size 9 to 14) (size 15 to 20)
#    0.000    1.000    4.167    2.000    4.667    8.000 
#    6.000    0.000    0.000    0.000    0.000    0.000 
#    0.000    0.000    0.000    0.000    0.000    0.000 
#
# Total GULP energy -297454.564606 kJ/mol
# GULP energy per Si atom -12393.940192 kJ/mol
# Density = 2.152017 g / cm^3
# Si number density = 21.569264 Si / 1000 Ang^3
#
#
#
# Elastic Constant Matrix: (Units=GPa)
#
#
# Indices 1 2 3 4 5 6 
#
# 1 113.3203 36.5672 32.7001 0.0013 -0.0054 0.0820
# 2 36.5672 120.1722 26.5871 -0.0234 -0.0125 -0.1020
# 3 32.7001 26.5871 96.6272 -0.1542 -0.1644 -0.5985
# 4 0.0013 -0.0234 -0.1542 9.3006 0.0287 -0.1670
# 5 -0.0054 -0.0125 -0.1644 0.0287 42.4522 -0.0020
# 6 0.0820 -0.1020 -0.5985 -0.1670 -0.0020 -6.5879
#
#
#
# Elastic Compliance Matrix: (Units=1/GPa)
#
#
# Indices 1 2 3 4 5 6 
#
# 1 0.010468 -0.002557 -0.002836 -0.000047 -0.000010 0.000429
# 2 -0.002557 0.009486 -0.001745 -0.000005 -0.000004 -0.000020
# 3 -0.002836 -0.001745 0.011783 0.000172 0.000045 -0.001083
# 4 -0.000047 -0.000005 0.000172 0.107474 -0.000072 -0.002741
# 5 -0.000010 -0.000004 0.000045 -0.000072 0.023556 -0.000009
# 6 0.000429 -0.000020 -0.001083 -0.002741 -0.000009 -0.151620
#
#
# Mechanical properties :
#
#
# Convention : Reuss Voigt Hill
#
# Bulk Modulus (GPa) = 57.27572 57.98095 57.62834
# Shear Modulus (GPa) = 160.03530 24.65065 92.34297
#
# Velocity S-wave (km/s) = 8.62305 3.38429 6.55021
# Velocity P-wave (km/s) = 11.21404 6.49699 9.16421
#
# Compressibility (1/GPa) = 0.01745940
#
# Stress axis : x y z
#
# Youngs Moduli (GPa) = 95.52985 105.42332 84.87113
#
# Poissons Ratio (x) = 0.26961 0.24072
# Poissons Ratio (y) = 0.24431 0.14807
# Poissons Ratio (z) = 0.27095 0.18393
#
# Static dielectric constant tensor:
#      x y z
#    x 3.536130 0.000010 0.000050 
#    y 0.000010 3.846910 -0.000100 
#    z 0.000050 -0.000100 4.012300 
# 
# 
# High freq. dielectric constant tensor:
#      x y z
#    x 1.849250 0.000000 0.000010 
#    y 0.000000 1.834850 0.000000 
#    z 0.000010 0.000000 1.855800 
# 
# From -- ./inp_files/3789.got.cif
#   From: 2010.03.12/outbox.cif.g09.slc.cpg/sg24_2_cif.got.tgz:3789.got - 2010.04.14 03:06:53.
