data_PCOD8166002
_publ_section_title
;
Structure prediction by ZEFSAII (Michael W. Deem and Ramdas Pophale) SiO2 
 PCOD8166002
Probable space group: I 21 21 21
;
_chemical_formula_sum "Si O2"
_cell_formula_units_Z 48
_cell_length_a 19.679284
_cell_length_b 17.275640
_cell_length_c 8.438269
_cell_angle_alpha 90.000000
_cell_angle_beta 90.000000
_cell_angle_gamma 90.000000
_cell_volume 2868.777094
_symmetry_space_group_name_H-M "I 21 21 21"
_symmetry_group_IT_number 24
_symmetry_cell_setting 'orthorhombic'
loop_
_space_group_symop_operation_xyz
x,y,z
-x,1/2-y,z
x,-y,1/2-z
1/2-x,y,-z
1/2+x,1/2+y,1/2+z
1/2-x,-y,1/2+z
1/2+x,1/2-y,-z
-x,1/2+y,1/2-z
loop_
_atom_site_type_symbol
_atom_site_label
_atom_site_fract_x
_atom_site_fract_y
_atom_site_fract_z
Si Si1 0.176764 0.374284 0.427044
Si Si2 0.013477 0.927569 0.667408
Si Si3 0.180003 0.678153 0.430947
Si Si4 0.125649 0.474070 0.926852
Si Si5 0.440468 0.698461 0.125302
Si Si6 0.927208 0.281265 0.941292
O O1 0.250000 0.356620 0.500000
O O2 0.182732 0.355370 0.243725
O O3 0.155105 0.463749 0.448867
O O4 0.119141 0.319625 0.502975
O O5 0.955727 0.963741 0.551749
O O6 0.973034 0.879514 0.802711
O O7 0.067325 0.875127 0.570248
O O8 0.052395 0.000000 0.750000
O O9 0.250000 0.711019 0.500000
O O10 0.158914 0.609219 0.547799
O O11 0.128716 0.751584 0.435117
O O12 0.145972 0.500000 0.750000
O O13 0.500000 0.750000 0.042274
O O14 0.408603 0.748672 0.267994
O O15 0.000000 0.250000 0.998325
#
# Coordination Sequence:
#
# PCOD8166002 Si02
#       6
#     8   8   8   8   8   8
#     4  12  23  33  49  76 108 145 177 215 262 311
#     4   9  15  30  60  74 102 130 180 208 258 311
#     4  12  23  34  49  75 109 143 179 218 260 315
#     4  11  18  34  52  72 107 141 176 207 258 319
#     4   9  17  33  52  74 101 136 174 211 255 311
#     4   9  17  33  54  75 101 139 175 213 257 314
#
# _framework density 16.731867999999999
#
# number of rings (size 3 to 8) (size 9 to 14) (size 15 to 20)
#    0.000    2.000    6.667    3.000    0.000    0.667 
#    0.000    0.000    0.000    0.000    0.000    9.333 
#    0.000    0.000    0.000    0.000    0.000    0.000 
#
# Total GULP energy -297442.820143 kJ/mol
# GULP energy per Si atom -12393.450839 kJ/mol
# Density = 1.669379 g / cm^3
# Si number density = 16.731868 Si / 1000 Ang^3
#
#
#
# Elastic Constant Matrix: (Units=GPa)
#
#
# Indices 1 2 3 4 5 6 
#
# 1 95.5548 50.4740 35.0773 0.0000 0.0000 0.0000
# 2 50.4740 95.6551 30.2564 0.0000 0.0000 0.0000
# 3 35.0773 30.2564 68.7578 0.0000 0.0000 0.0000
# 4 0.0000 0.0000 0.0000 23.6637 0.0000 0.0000
# 5 0.0000 0.0000 0.0000 0.0000 25.9083 0.0000
# 6 0.0000 0.0000 0.0000 0.0000 0.0000 26.0648
#
#
#
# Elastic Compliance Matrix: (Units=1/GPa)
#
#
# Indices 1 2 3 4 5 6 
#
# 1 0.015936 -0.006781 -0.005146 0.000000 0.000000 0.000000
# 2 -0.006781 0.015030 -0.003154 0.000000 0.000000 0.000000
# 3 -0.005146 -0.003154 0.018557 0.000000 0.000000 0.000000
# 4 0.000000 0.000000 0.000000 0.042259 0.000000 0.000000
# 5 0.000000 0.000000 0.000000 0.000000 0.038598 0.000000
# 6 0.000000 0.000000 0.000000 0.000000 0.000000 0.038366
#
#
# Mechanical properties :
#
#
# Convention : Reuss Voigt Hill
#
# Bulk Modulus (GPa) = 51.65212 54.62035 53.13624
# Shear Modulus (GPa) = 24.34713 24.73801 24.54257
#
# Velocity S-wave (km/s) = 3.81876 3.84929 3.83406
# Velocity P-wave (km/s) = 7.09799 7.24372 7.17122
#
# Compressibility (1/GPa) = 0.01936029
#
# Stress axis : x y z
#
# Youngs Moduli (GPa) = 62.74992 66.53232 53.88771
#
# Poissons Ratio (x) = 0.45118 0.27730
# Poissons Ratio (y) = 0.42553 0.16998
# Poissons Ratio (z) = 0.32291 0.20987
#
# Static dielectric constant tensor:
#      x y z
#    x 3.151650 0.000000 0.000000 
#    y 0.000000 3.343610 0.000000 
#    z 0.000000 0.000000 2.920270 
# 
# 
# High freq. dielectric constant tensor:
#      x y z
#    x 1.626880 0.000000 0.000000 
#    y 0.000000 1.642190 0.000000 
#    z 0.000000 0.000000 1.621610 
# 
# From -- ./inp_files/14487.got.cif
#   From: 2010.03.12/outbox.cif.g09.slc.cpg/sg24_8_cif.got.tgz:14487.got - 2010.04.14 03:06:53.
