data_PCOD8166656
_publ_section_title
;
Structure prediction by ZEFSAII (Michael W. Deem and Ramdas Pophale) SiO2 
 PCOD8166656
Probable space group: P M M 2
;
_chemical_formula_sum "Si O2"
_cell_formula_units_Z 32
_cell_length_a 9.138589
_cell_length_b 9.525674
_cell_length_c 20.617903
_cell_angle_alpha 90.000000
_cell_angle_beta 90.000000
_cell_angle_gamma 90.000000
_cell_volume 1794.813602
_symmetry_space_group_name_H-M "P M M 2"
_symmetry_group_IT_number 25
_symmetry_cell_setting 'orthorhombic'
loop_
_space_group_symop_operation_xyz
x,y,z
-x,-y,z
-x,y,z
x,-y,z
loop_
_atom_site_type_symbol
_atom_site_label
_atom_site_fract_x
_atom_site_fract_y
_atom_site_fract_z
Si Si1 0.673846 0.657381 0.596250
Si Si2 0.834778 0.167032 0.985018
Si Si3 0.326261 0.342263 0.739419
Si Si4 0.172134 0.338424 0.366322
Si Si5 0.329592 0.837505 0.111750
Si Si6 0.671158 0.837024 0.858266
Si Si7 0.672913 0.837186 0.476342
Si Si8 0.331840 0.338120 0.235124
O O1 0.500000 0.657086 0.596623
O O2 0.730304 0.500000 0.579689
O O3 0.730902 0.703275 0.667799
O O4 0.731841 0.766501 0.542733
O O5 0.756169 0.223277 0.049696
O O6 0.000000 0.223356 0.984113
O O7 0.827719 0.000000 0.984756
O O8 0.751964 0.224398 0.921487
O O9 0.500000 0.334026 0.739708
O O10 0.273592 0.500000 0.754612
O O11 0.263680 0.240193 0.794831
O O12 0.211995 0.500000 0.382659
O O13 0.247878 0.236669 0.417060
O O14 0.232092 0.297097 0.295858
O O15 0.000000 0.312945 0.367435
O O16 0.500000 0.813674 0.098077
O O17 0.276586 0.753123 0.174648
O O18 0.293004 0.000000 0.123988
O O19 0.500000 0.807933 0.867773
O O20 0.704706 0.000000 0.848319
O O21 0.500000 0.816002 0.468231
O O22 0.716198 0.000000 0.478042
O O23 0.500000 0.303211 0.252532
O O24 0.312678 0.500000 0.216086
#
# Coordination Sequence:
#
# PCOD8166656 Si02
#       8
#     4   4   4   4   4   4   4   4
#     4   8  14  26  45  68  94 124 157 194 237 284
#     4   9  17  29  45  65  90 121 155 188 225 274
#     4   8  14  25  42  66  94 121 151 190 235 279
#     4  10  21  36  53  72  96 130 168 201 237 286
#     4   9  17  30  49  71  93 118 151 191 231 273
#     4   9  16  26  43  66  89 115 150 192 233 272
#     4  10  20  32  49  75 103 129 160 201 246 289
#     4   9  18  33  52  73  97 124 154 191 236 284
#
# _framework density 17.829151
#
# number of rings (size 3 to 8) (size 9 to 14) (size 15 to 20)
#    0.000    3.000    0.000    1.875    0.000    4.500 
#    0.000    4.375    0.000    4.875    0.000    3.500 
#    0.000    0.000    0.000    0.000    0.000    0.000 
#
# Total GULP energy -396731.242040 kJ/mol
# GULP energy per Si atom -12397.851314 kJ/mol
# Density = 1.778857 g / cm^3
# Si number density = 17.829151 Si / 1000 Ang^3
#
#
#
# Elastic Constant Matrix: (Units=GPa)
#
#
# Indices 1 2 3 4 5 6 
#
# 1 49.8621 39.1077 56.5635 0.0000 0.0000 0.0000
# 2 39.1077 87.7326 92.3737 0.0000 0.0000 0.0000
# 3 56.5635 92.3737 186.3312 0.0000 0.0000 0.0000
# 4 0.0000 0.0000 0.0000 34.1859 0.0000 0.0000
# 5 0.0000 0.0000 0.0000 0.0000 0.9228 0.0000
# 6 0.0000 0.0000 0.0000 0.0000 0.0000 14.2152
#
#
#
# Elastic Compliance Matrix: (Units=1/GPa)
#
#
# Indices 1 2 3 4 5 6 
#
# 1 0.033589 -0.008863 -0.005803 0.000000 0.000000 0.000000
# 2 -0.008863 0.026183 -0.010290 0.000000 0.000000 0.000000
# 3 -0.005803 -0.010290 0.012229 0.000000 0.000000 0.000000
# 4 0.000000 0.000000 0.000000 0.029252 0.000000 0.000000
# 5 0.000000 0.000000 0.000000 0.000000 1.083607 0.000000
# 6 0.000000 0.000000 0.000000 0.000000 0.000000 0.070347
#
#
# Mechanical properties :
#
#
# Convention : Reuss Voigt Hill
#
# Bulk Modulus (GPa) = 45.26778 77.77954 61.52366
# Shear Modulus (GPa) = 3.80958 18.92353 11.36655
#
# Velocity S-wave (km/s) = 1.46334 3.26142 2.52767
# Velocity P-wave (km/s) = 5.31977 7.60934 6.56514
#
# Compressibility (1/GPa) = 0.02209077
#
# Stress axis : x y z
#
# Youngs Moduli (GPa) = 29.77137 38.19223 81.77011
#
# Poissons Ratio (x) = 0.33851 0.47447
# Poissons Ratio (y) = 0.26387 0.84140
# Poissons Ratio (z) = 0.17275 0.39299
#
# Static dielectric constant tensor:
#      x y z
#    x 3.025360 0.000000 0.000000 
#    y 0.000000 3.238620 0.000000 
#    z 0.000000 0.000000 3.636320 
# 
# 
# High freq. dielectric constant tensor:
#      x y z
#    x 1.657670 0.000000 0.000000 
#    y 0.000000 1.672200 0.000000 
#    z 0.000000 0.000000 1.705550 
# 
# From -- ./inp_files/6522.got.cif
#   From: 2010.03.12/outbox.cif.g09.slc.cpg/sg25_4_cif.got.tgz:6522.got - 2010.04.14 03:30:10.
