data_PCOD8166781
_publ_section_title
;
Structure prediction by ZEFSAII (Michael W. Deem and Ramdas Pophale) SiO2 
 PCOD8166781
Probable space group: P M M 2
;
_chemical_formula_sum "Si O2"
_cell_formula_units_Z 24
_cell_length_a 9.183186
_cell_length_b 8.988629
_cell_length_c 15.436135
_cell_angle_alpha 90.000000
_cell_angle_beta 90.000000
_cell_angle_gamma 90.000000
_cell_volume 1274.164217
_symmetry_space_group_name_H-M "P M M 2"
_symmetry_group_IT_number 25
_symmetry_cell_setting 'orthorhombic'
loop_
_space_group_symop_operation_xyz
x,y,z
-x,-y,z
-x,y,z
x,-y,z
loop_
_atom_site_type_symbol
_atom_site_label
_atom_site_fract_x
_atom_site_fract_y
_atom_site_fract_z
Si Si1 0.333325 0.824781 0.182640
Si Si2 0.331408 0.672831 0.359848
Si Si3 0.169453 0.672753 0.689463
Si Si4 0.170369 0.326848 0.027946
Si Si5 0.664334 0.323141 0.858201
Si Si6 0.827976 0.830501 0.514707
O O1 0.500000 0.778311 0.162391
O O2 0.280746 0.755289 0.272943
O O3 0.228759 0.764473 0.108764
O O4 0.315861 0.000000 0.189584
O O5 0.500000 0.703807 0.378868
O O6 0.297568 0.500000 0.347878
O O7 0.240791 0.733890 0.439443
O O8 0.203404 0.500000 0.672031
O O9 0.257774 0.735893 0.771575
O O10 0.223078 0.764651 0.606512
O O11 0.000000 0.698113 0.708974
O O12 0.205441 0.500000 0.042899
O O13 0.000000 0.298154 0.016882
O O14 0.249340 0.264905 0.942071
O O15 0.500000 0.261316 0.861512
O O16 0.667237 0.500000 0.857456
O O17 0.000000 0.818149 0.505649
O O18 0.773896 0.000000 0.507905
#
# Coordination Sequence:
#
# PCOD8166781 Si02
#       6
#     4   4   4   4   4   4
#     4  10  21  37  56  78 106 140 176 216 265 318
#     4  10  21  37  58  82 106 136 176 220 265 314
#     4   9  17  31  51  74 102 137 177 221 267 314
#     4  10  20  34  54  80 108 140 179 220 262 311
#     4   9  17  30  51  78 105 135 175 223 269 311
#     4  10  21  36  54  78 109 144 179 216 262 315
#
# _framework density 18.835875999999999
#
# number of rings (size 3 to 8) (size 9 to 14) (size 15 to 20)
#    0.000    2.333    0.000    2.500    0.000    7.333 
#    0.000    2.500    0.000    3.000    0.000    0.000 
#    0.000    0.000    0.000    0.000    0.000    0.000 
#
# Total GULP energy -297686.104852 kJ/mol
# GULP energy per Si atom -12403.587702 kJ/mol
# Density = 1.879301 g / cm^3
# Si number density = 18.835876 Si / 1000 Ang^3
#
#
#
# Elastic Constant Matrix: (Units=GPa)
#
#
# Indices 1 2 3 4 5 6 
#
# 1 77.0567 34.9694 68.6353 0.0000 0.0000 0.0000
# 2 34.9694 62.5919 47.5567 0.0000 0.0000 0.0000
# 3 68.6353 47.5567 163.1937 0.0000 0.0000 0.0000
# 4 0.0000 0.0000 0.0000 -10.1562 0.0000 0.0000
# 5 0.0000 0.0000 0.0000 0.0000 38.8880 0.0000
# 6 0.0000 0.0000 0.0000 0.0000 0.0000 23.5789
#
#
#
# Elastic Compliance Matrix: (Units=1/GPa)
#
#
# Indices 1 2 3 4 5 6 
#
# 1 0.022939 -0.007046 -0.007595 0.000000 0.000000 0.000000
# 2 -0.007046 0.022684 -0.003647 0.000000 0.000000 0.000000
# 3 -0.007595 -0.003647 0.010385 0.000000 0.000000 0.000000
# 4 0.000000 0.000000 0.000000 -0.098462 0.000000 0.000000
# 5 0.000000 0.000000 0.000000 0.000000 0.025715 0.000000
# 6 0.000000 0.000000 0.000000 0.000000 0.000000 0.042411
#
#
# Mechanical properties :
#
#
# Convention : Reuss Voigt Hill
#
# Bulk Modulus (GPa) = 51.45852 67.24058 59.34955
# Shear Modulus (GPa) = 72.75404 20.57419 46.66412
#
# Velocity S-wave (km/s) = 6.22166 3.30856 4.98275
# Velocity P-wave (km/s) = 8.88768 7.09726 8.04245
#
# Compressibility (1/GPa) = 0.01943313
#
# Stress axis : x y z
#
# Youngs Moduli (GPa) = 43.59294 44.08406 96.29646
#
# Poissons Ratio (x) = 0.31061 0.73133
# Poissons Ratio (y) = 0.30715 0.35120
# Poissons Ratio (z) = 0.33107 0.16078
#
# Static dielectric constant tensor:
#      x y z
#    x 3.460710 0.000000 0.000000 
#    y 0.000000 3.352370 0.000000 
#    z 0.000000 0.000000 3.616170 
# 
# 
# High freq. dielectric constant tensor:
#      x y z
#    x 1.729490 0.000000 0.000000 
#    y 0.000000 1.716250 0.000000 
#    z 0.000000 0.000000 1.747090 
# 
# From -- ./inp_files/5220.got.cif
#   From: 2010.03.12/outbox.cif.g09.slc.cpg/sg25_3_cif.got.tgz:5220.got - 2010.04.14 03:30:10.
