data_PCOD8166221
_publ_section_title
;
Structure prediction by ZEFSAII (Michael W. Deem and Ramdas Pophale) SiO2 
 PCOD8166221
Probable space group: I 21 21 21
;
_chemical_formula_sum "Si O2"
_cell_formula_units_Z 32
_cell_length_a 5.220375
_cell_length_b 16.649226
_cell_length_c 15.281629
_cell_angle_alpha 90.000000
_cell_angle_beta 90.000000
_cell_angle_gamma 90.000000
_cell_volume 1328.205889
_symmetry_space_group_name_H-M "I 21 21 21"
_symmetry_group_IT_number 24
_symmetry_cell_setting 'orthorhombic'
loop_
_space_group_symop_operation_xyz
x,y,z
-x,1/2-y,z
x,-y,1/2-z
1/2-x,y,-z
1/2+x,1/2+y,1/2+z
1/2-x,-y,1/2+z
1/2+x,1/2-y,-z
-x,1/2+y,1/2-z
loop_
_atom_site_type_symbol
_atom_site_label
_atom_site_fract_x
_atom_site_fract_y
_atom_site_fract_z
Si Si1 0.541113 0.591469 0.347268
Si Si2 0.255710 0.696820 0.229948
Si Si3 0.589665 0.500000 0.750000
Si Si4 0.277216 0.438926 0.396877
Si Si5 0.750000 0.299568 0.000000
O O1 0.273417 0.627907 0.306775
O O2 0.741265 0.580630 0.267540
O O3 0.511447 0.500758 0.383950
O O4 0.657606 0.647851 0.419965
O O5 0.500000 0.750000 0.252292
O O6 0.303887 0.652726 0.137112
O O7 0.000000 0.750000 0.233088
O O8 0.445880 0.479787 0.659890
O O9 0.250000 0.432740 0.500000
O O10 0.500000 0.250000 0.968425
#
# Coordination Sequence:
#
# PCOD8166221 Si02
#       5
#     8   8   4   8   4
#     4  12  26  51  78 113 155 214 264 324 396 489
#     4  12  27  50  80 111 159 209 257 331 402 463
#     4  12  22  48  84 112 154 206 276 312 396 462
#     4  12  27  48  81 112 153 210 271 325 388 481
#     4  12  32  50  76 122 164 202 262 336 408 474
#
# _framework density 24.092652999999999
#
# number of rings (size 3 to 8) (size 9 to 14) (size 15 to 20)
#    0.000    0.000    5.000    3.750    5.250    5.000 
#    0.000    0.000    0.000    0.000    0.000    0.000 
#    0.000    0.000    0.000    0.000    0.000    0.000 
#
# Total GULP energy -198215.065611 kJ/mol
# GULP energy per Si atom -12388.441601 kJ/mol
# Density = 2.403782 g / cm^3
# Si number density = 24.092653 Si / 1000 Ang^3
#
#
#
# Elastic Constant Matrix: (Units=GPa)
#
#
# Indices 1 2 3 4 5 6 
#
# 1 109.9397 28.5816 44.4316 0.0000 0.0000 0.0000
# 2 28.5816 92.1186 52.1423 0.0000 0.0000 0.0000
# 3 44.4316 52.1423 195.2412 0.0000 0.0000 0.0000
# 4 0.0000 0.0000 0.0000 26.6027 0.0000 0.0000
# 5 0.0000 0.0000 0.0000 0.0000 28.3739 0.0000
# 6 0.0000 0.0000 0.0000 0.0000 0.0000 -41.6295
#
#
#
# Elastic Compliance Matrix: (Units=1/GPa)
#
#
# Indices 1 2 3 4 5 6 
#
# 1 0.010389 -0.002221 -0.001771 0.000000 0.000000 0.000000
# 2 -0.002221 0.013264 -0.003037 0.000000 0.000000 0.000000
# 3 -0.001771 -0.003037 0.006336 0.000000 0.000000 0.000000
# 4 0.000000 0.000000 0.000000 0.037590 0.000000 0.000000
# 5 0.000000 0.000000 0.000000 0.000000 0.035244 0.000000
# 6 0.000000 0.000000 0.000000 0.000000 0.000000 -0.024021
#
#
# Mechanical properties :
#
#
# Convention : Reuss Voigt Hill
#
# Bulk Modulus (GPa) = 62.77108 71.95672 67.36390
# Shear Modulus (GPa) = 50.93250 20.81235 35.87242
#
# Velocity S-wave (km/s) = 4.60284 2.94231 3.86286
# Velocity P-wave (km/s) = 7.37284 6.44007 6.92218
#
# Compressibility (1/GPa) = 0.01593090
#
# Stress axis : x y z
#
# Youngs Moduli (GPa) = 96.25497 75.39426 157.82892
#
# Poissons Ratio (x) = 0.16744 0.27954
# Poissons Ratio (y) = 0.21377 0.47930
# Poissons Ratio (z) = 0.17048 0.22896
#
# Static dielectric constant tensor:
#      x y z
#    x 5.185990 0.000000 0.000000 
#    y 0.000000 5.133170 0.000000 
#    z 0.000000 0.000000 4.304340 
# 
# 
# High freq. dielectric constant tensor:
#      x y z
#    x 1.962130 0.000000 0.000000 
#    y 0.000000 1.981300 0.000000 
#    z 0.000000 0.000000 1.951630 
# 
# From -- ./inp_files/23536.got.cif
#   From: 2010.03.12/outbox.cif.g09.slc.cpg/sg24_12_cif.got.tgz:23536.got - 2010.04.14 03:06:53.
