data_PCOD8166349
_publ_section_title
;
Structure prediction by ZEFSAII (Michael W. Deem and Ramdas Pophale) SiO2 
 PCOD8166349
Probable space group: P M M 2
;
_chemical_formula_sum "Si O2"
_cell_formula_units_Z 32
_cell_length_a 14.153861
_cell_length_b 9.078241
_cell_length_c 15.475898
_cell_angle_alpha 90.000000
_cell_angle_beta 90.000000
_cell_angle_gamma 90.000000
_cell_volume 1988.531581
_symmetry_space_group_name_H-M "P M M 2"
_symmetry_group_IT_number 25
_symmetry_cell_setting 'orthorhombic'
loop_
_space_group_symop_operation_xyz
x,y,z
-x,-y,z
-x,y,z
x,-y,z
loop_
_atom_site_type_symbol
_atom_site_label
_atom_site_fract_x
_atom_site_fract_y
_atom_site_fract_z
Si Si1 0.109641 0.171972 0.558360
Si Si2 0.203853 0.825325 0.734053
Si Si3 0.216940 0.673978 0.062455
Si Si4 0.108933 0.669621 0.890586
Si Si5 0.112317 0.666175 0.387983
Si Si6 0.397568 0.825173 0.806902
Si Si7 0.111620 0.170237 0.217462
Si Si8 0.392696 0.829281 0.003118
O O1 0.168528 0.228606 0.640816
O O2 0.149698 0.259000 0.475778
O O3 0.000000 0.207050 0.575771
O O4 0.125169 0.000000 0.540865
O O5 0.135647 0.763158 0.807175
O O6 0.311586 0.767369 0.747510
O O7 0.198172 0.000000 0.740823
O O8 0.215130 0.500000 0.075566
O O9 0.159743 0.746832 0.139179
O O10 0.168768 0.723034 0.972800
O O11 0.324298 0.732819 0.063404
O O12 0.129849 0.500000 0.869619
O O13 0.000000 0.696697 0.913087
O O14 0.151427 0.500000 0.382265
O O15 0.149518 0.758443 0.306321
O O16 0.000000 0.668313 0.388941
O O17 0.500000 0.765801 0.773177
O O18 0.381453 0.771831 0.904914
O O19 0.400186 0.000000 0.806882
O O20 0.000000 0.191016 0.208410
O O21 0.140866 0.000000 0.217089
O O22 0.500000 0.805473 0.035034
O O23 0.363803 0.000000 0.010362
#
# Coordination Sequence:
#
# PCOD8166349 Si02
#       8
#     4   4   4   4   4   4   4   4
#     4   9  17  28  42  64  93 121 151 190 233 275
#     4  10  18  29  47  68  90 120 160 198 231 273
#     4  11  21  32  47  68  96 128 160 195 236 285
#     4  10  21  33  42  58  91 130 160 188 226 271
#     4   9  17  30  48  68  90 119 153 190 234 282
#     4   8  14  26  45  67  90 117 152 197 241 275
#     4  10  20  33  50  71  95 124 158 197 238 281
#     4   9  17  31  50  69  91 121 159 203 244 281
#
# _framework density 16.092275999999998
#
# number of rings (size 3 to 8) (size 9 to 14) (size 15 to 20)
#    0.000    2.500    1.250    2.625    0.000    4.750 
#    0.000    1.250    0.000    0.375    0.000    0.875 
#    0.000    5.000    0.000    0.000    0.000    0.000 
#
# Total GULP energy -396767.432867 kJ/mol
# GULP energy per Si atom -12398.982277 kJ/mol
# Density = 1.605565 g / cm^3
# Si number density = 16.092276 Si / 1000 Ang^3
#
#
#
# Elastic Constant Matrix: (Units=GPa)
#
#
# Indices 1 2 3 4 5 6 
#
# 1 64.3946 34.3738 34.4856 0.0000 0.0000 0.0000
# 2 34.3738 72.8599 56.2831 0.0000 0.0000 0.0000
# 3 34.4856 56.2831 111.9027 0.0000 0.0000 0.0000
# 4 0.0000 0.0000 0.0000 25.9879 0.0000 0.0000
# 5 0.0000 0.0000 0.0000 0.0000 9.6537 0.0000
# 6 0.0000 0.0000 0.0000 0.0000 0.0000 17.0861
#
#
#
# Elastic Compliance Matrix: (Units=1/GPa)
#
#
# Indices 1 2 3 4 5 6 
#
# 1 0.021160 -0.008088 -0.002453 0.000000 0.000000 0.000000
# 2 -0.008088 0.025537 -0.010352 0.000000 0.000000 0.000000
# 3 -0.002453 -0.010352 0.014899 0.000000 0.000000 0.000000
# 4 0.000000 0.000000 0.000000 0.038479 0.000000 0.000000
# 5 0.000000 0.000000 0.000000 0.000000 0.103587 0.000000
# 6 0.000000 0.000000 0.000000 0.000000 0.000000 0.058527
#
#
# Mechanical properties :
#
#
# Convention : Reuss Voigt Hill
#
# Bulk Modulus (GPa) = 50.47785 55.49360 52.98573
# Shear Modulus (GPa) = 16.09893 18.81319 17.45606
#
# Velocity S-wave (km/s) = 3.16636 3.42289 3.29712
# Velocity P-wave (km/s) = 6.69355 7.08386 6.89147
#
# Compressibility (1/GPa) = 0.01981067
#
# Stress axis : x y z
#
# Youngs Moduli (GPa) = 47.25822 39.15826 67.11886
#
# Poissons Ratio (x) = 0.31671 0.16465
# Poissons Ratio (y) = 0.38223 0.69481
# Poissons Ratio (z) = 0.11593 0.40536
#
# Static dielectric constant tensor:
#      x y z
#    x 3.115740 0.000000 0.000000 
#    y 0.000000 2.986840 0.000000 
#    z 0.000000 0.000000 3.047160 
# 
# 
# High freq. dielectric constant tensor:
#      x y z
#    x 1.600620 0.000000 0.000000 
#    y 0.000000 1.613480 0.000000 
#    z 0.000000 0.000000 1.607790 
# 
# From -- ./inp_files/5661.got.cif
#   From: 2010.03.12/outbox.cif.g09.slc.cpg/sg25_3_cif.got.tgz:5661.got - 2010.04.14 03:30:10.
