data_PCOD8166963
_publ_section_title
;
Structure prediction by ZEFSAII (Michael W. Deem and Ramdas Pophale) SiO2 
 PCOD8166963
Probable space group: P M M 2
;
_chemical_formula_sum "Si O2"
_cell_formula_units_Z 24
_cell_length_a 12.527413
_cell_length_b 8.770293
_cell_length_c 11.675986
_cell_angle_alpha 90.000000
_cell_angle_beta 90.000000
_cell_angle_gamma 90.000000
_cell_volume 1282.829870
_symmetry_space_group_name_H-M "P M M 2"
_symmetry_group_IT_number 25
_symmetry_cell_setting 'orthorhombic'
loop_
_space_group_symop_operation_xyz
x,y,z
-x,-y,z
-x,y,z
x,-y,z
loop_
_atom_site_type_symbol
_atom_site_label
_atom_site_fract_x
_atom_site_fract_y
_atom_site_fract_z
Si Si1 0.500000 0.826365 0.168131
Si Si2 0.123650 0.177040 0.173087
Si Si3 0.879028 0.675162 0.409049
Si Si4 0.500000 0.174807 0.438930
Si Si5 0.376112 0.821001 0.803679
Si Si6 0.690056 0.321880 0.572237
Si Si7 0.306728 0.679507 0.037526
O O1 0.500000 0.815760 0.303476
O O2 0.394767 0.746818 0.121876
O O3 0.500000 0.000000 0.124329
O O4 0.157110 0.222980 0.301645
O O5 0.190222 0.271045 0.080235
O O6 0.000000 0.215917 0.151663
O O7 0.149003 0.000000 0.156944
O O8 0.866723 0.500000 0.370619
O O9 0.805807 0.711211 0.518214
O O10 0.000000 0.713395 0.445801
O O11 0.603546 0.260193 0.483895
O O12 0.500000 0.000000 0.482807
O O13 0.500000 0.774316 0.793823
O O14 0.314713 0.767830 0.690829
O O15 0.362388 0.000000 0.820093
O O16 0.322321 0.737152 0.909422
O O17 0.670243 0.500000 0.594391
O O18 0.317018 0.500000 0.039053
#
# Coordination Sequence:
#
# PCOD8166963 Si02
#       7
#     2   4   4   2   4   4   4
#     4  11  23  38  57  84 119 153 189 237 290 347
#     4  10  21  38  61  88 119 156 196 239 289 345
#     4   9  19  37  60  87 119 153 190 236 290 344
#     4  11  23  36  53  80 115 151 185 231 286 341
#     4  11  23  40  61  82 112 155 197 239 291 346
#     4  11  22  36  58  85 114 149 192 238 286 343
#     4  12  24  38  60  87 116 151 194 241 292 348
#
# _framework density 18.708639999999999
#
# number of rings (size 3 to 8) (size 9 to 14) (size 15 to 20)
#    0.000    1.333    1.667    4.500    0.000    7.000 
#    0.000    0.833    0.000    3.000    0.000    0.000 
#    0.000    0.000    0.000    0.000    0.000    0.000 
#
# Total GULP energy -297748.475194 kJ/mol
# GULP energy per Si atom -12406.186466 kJ/mol
# Density = 1.866606 g / cm^3
# Si number density = 18.708640 Si / 1000 Ang^3
#
#
#
# Elastic Constant Matrix: (Units=GPa)
#
#
# Indices 1 2 3 4 5 6 
#
# 1 102.8551 54.0162 59.6045 0.0000 0.0000 0.0000
# 2 54.0162 111.8721 64.6489 0.0000 0.0000 0.0000
# 3 59.6045 64.6489 107.5311 0.0000 0.0000 0.0000
# 4 0.0000 0.0000 0.0000 35.8249 0.0000 0.0000
# 5 0.0000 0.0000 0.0000 0.0000 31.1921 0.0000
# 6 0.0000 0.0000 0.0000 0.0000 0.0000 26.0673
#
#
#
# Elastic Compliance Matrix: (Units=1/GPa)
#
#
# Indices 1 2 3 4 5 6 
#
# 1 0.015317 -0.003815 -0.006197 0.000000 0.000000 0.000000
# 2 -0.003815 0.014648 -0.006692 0.000000 0.000000 0.000000
# 3 -0.006197 -0.006692 0.016758 0.000000 0.000000 0.000000
# 4 0.000000 0.000000 0.000000 0.027914 0.000000 0.000000
# 5 0.000000 0.000000 0.000000 0.000000 0.032059 0.000000
# 6 0.000000 0.000000 0.000000 0.000000 0.000000 0.038362
#
#
# Mechanical properties :
#
#
# Convention : Reuss Voigt Hill
#
# Bulk Modulus (GPa) = 75.09905 75.42197 75.26051
# Shear Modulus (GPa) = 27.33699 28.21613 27.77656
#
# Velocity S-wave (km/s) = 3.82671 3.88775 3.85735
# Velocity P-wave (km/s) = 7.73003 7.78167 7.75589
#
# Compressibility (1/GPa) = 0.01331575
#
# Stress axis : x y z
#
# Youngs Moduli (GPa) = 65.28832 68.26978 59.67380
#
# Poissons Ratio (x) = 0.26042 0.36978
# Poissons Ratio (y) = 0.24904 0.39934
# Poissons Ratio (z) = 0.40457 0.45686
#
# Static dielectric constant tensor:
#      x y z
#    x 3.719500 0.000000 0.000000 
#    y 0.000000 3.632200 0.000000 
#    z 0.000000 0.000000 3.413030 
# 
# 
# High freq. dielectric constant tensor:
#      x y z
#    x 1.728100 0.000000 0.000000 
#    y 0.000000 1.742460 0.000000 
#    z 0.000000 0.000000 1.728350 
# 
# From -- ./inp_files/4556.got.cif
#   From: 2010.03.12/outbox.cif.g09.slc.cpg/sg25_3_cif.got.tgz:4556.got - 2010.04.14 03:30:10.
