data_PCOD8166153
_publ_section_title
;
Structure prediction by ZEFSAII (Michael W. Deem and Ramdas Pophale) SiO2 
 PCOD8166153
Probable space group: I 21 21 21
;
_chemical_formula_sum "Si O2"
_cell_formula_units_Z 40
_cell_length_a 13.931493
_cell_length_b 18.594460
_cell_length_c 7.517264
_cell_angle_alpha 90.000000
_cell_angle_beta 90.000000
_cell_angle_gamma 90.000000
_cell_volume 1947.336635
_symmetry_space_group_name_H-M "I 21 21 21"
_symmetry_group_IT_number 24
_symmetry_cell_setting 'orthorhombic'
loop_
_space_group_symop_operation_xyz
x,y,z
-x,1/2-y,z
x,-y,1/2-z
1/2-x,y,-z
1/2+x,1/2+y,1/2+z
1/2-x,-y,1/2+z
1/2+x,1/2-y,-z
-x,1/2+y,1/2-z
loop_
_atom_site_type_symbol
_atom_site_label
_atom_site_fract_x
_atom_site_fract_y
_atom_site_fract_z
Si Si1 0.360468 0.139379 0.354842
Si Si2 0.856716 0.185831 0.063797
Si Si3 0.500000 0.750000 0.289882
Si Si4 0.996373 0.934883 0.387934
Si Si5 0.165287 0.165357 0.236080
Si Si6 0.544271 0.500000 0.250000
O O1 0.451377 0.190112 0.329981
O O2 0.279849 0.154341 0.199029
O O3 0.331660 0.151273 0.556215
O O4 0.387837 0.056723 0.344701
O O5 0.905378 0.116217 0.156920
O O6 0.860616 0.251976 0.200754
O O7 0.750000 0.166233 0.000000
O O8 0.920606 0.206873 0.897313
O O9 0.095244 0.888468 0.371631
O O10 0.982916 0.963317 0.590611
O O11 0.997060 0.000000 0.250000
#
# Coordination Sequence:
#
# PCOD8166153 Si02
#       6
#     8   8   4   8   8   4
#     4  11  25  39  67 106 139 174 226 286 343 409
#     4  12  24  46  69  98 135 179 236 282 338 404
#     4  12  22  40  68  96 134 178 226 282 336 402
#     4  12  26  46  69 100 139 190 224 280 346 413
#     4  11  24  42  69 103 134 178 230 283 341 406
#     4  12  24  42  68 104 144 176 224 282 350 404
#
# _framework density 20.540873999999999
#
# number of rings (size 3 to 8) (size 9 to 14) (size 15 to 20)
#    0.000    0.400    8.000    0.000    4.200    0.000 
#    1.800    0.000    0.000    0.000    0.000    0.000 
#    0.000    0.000    0.000    0.000    0.000    0.000 
#
# Total GULP energy -247924.941053 kJ/mol
# GULP energy per Si atom -12396.247053 kJ/mol
# Density = 2.049412 g / cm^3
# Si number density = 20.540874 Si / 1000 Ang^3
#
#
#
# Elastic Constant Matrix: (Units=GPa)
#
#
# Indices 1 2 3 4 5 6 
#
# 1 114.2794 60.4091 14.9667 0.0000 0.0000 0.0000
# 2 60.4091 161.7588 38.1498 0.0000 0.0000 0.0000
# 3 14.9667 38.1498 66.2238 0.0000 0.0000 0.0000
# 4 0.0000 0.0000 0.0000 36.8843 0.0000 0.0000
# 5 0.0000 0.0000 0.0000 0.0000 22.5862 0.0000
# 6 0.0000 0.0000 0.0000 0.0000 0.0000 26.6178
#
#
#
# Elastic Compliance Matrix: (Units=1/GPa)
#
#
# Indices 1 2 3 4 5 6 
#
# 1 0.010904 -0.004040 -0.000137 0.000000 0.000000 0.000000
# 2 -0.004040 0.008651 -0.004070 0.000000 0.000000 0.000000
# 3 -0.000137 -0.004070 0.017476 0.000000 0.000000 0.000000
# 4 0.000000 0.000000 0.000000 0.027112 0.000000 0.000000
# 5 0.000000 0.000000 0.000000 0.000000 0.044275 0.000000
# 6 0.000000 0.000000 0.000000 0.000000 0.000000 0.037569
#
#
# Mechanical properties :
#
#
# Convention : Reuss Voigt Hill
#
# Bulk Modulus (GPa) = 48.69458 63.25702 55.97580
# Shear Modulus (GPa) = 29.52880 32.46676 30.99778
#
# Velocity S-wave (km/s) = 3.79563 3.97998 3.88890
# Velocity P-wave (km/s) = 6.55490 7.20991 6.89020
#
# Compressibility (1/GPa) = 0.02053617
#
# Stress axis : x y z
#
# Youngs Moduli (GPa) = 91.71045 115.59787 57.22074
#
# Poissons Ratio (x) = 0.46699 0.00785
# Poissons Ratio (y) = 0.37049 0.23291
# Poissons Ratio (z) = 0.01257 0.47053
#
# Static dielectric constant tensor:
#      x y z
#    x 3.533450 0.000000 0.000000 
#    y 0.000000 4.047430 0.000000 
#    z 0.000000 0.000000 3.700340 
# 
# 
# High freq. dielectric constant tensor:
#      x y z
#    x 1.802650 0.000000 0.000000 
#    y 0.000000 1.816150 0.000000 
#    z 0.000000 0.000000 1.805050 
# 
# From -- ./inp_files/10787.got.cif
#   From: 2010.03.12/outbox.cif.g09.slc.cpg/sg24_6_cif.got.tgz:10787.got - 2010.04.14 03:06:53.
