data_PCOD8166029
_publ_section_title
;
Structure prediction by ZEFSAII (Michael W. Deem and Ramdas Pophale) SiO2 
 PCOD8166029
Probable space group: I 21 21 21
;
_chemical_formula_sum "Si O2"
_cell_formula_units_Z 48
_cell_length_a 9.877365
_cell_length_b 13.884078
_cell_length_c 17.079941
_cell_angle_alpha 90.000000
_cell_angle_beta 90.000000
_cell_angle_gamma 90.000000
_cell_volume 2342.310761
_symmetry_space_group_name_H-M "I 21 21 21"
_symmetry_group_IT_number 24
_symmetry_cell_setting 'orthorhombic'
loop_
_space_group_symop_operation_xyz
x,y,z
-x,1/2-y,z
x,-y,1/2-z
1/2-x,y,-z
1/2+x,1/2+y,1/2+z
1/2-x,-y,1/2+z
1/2+x,1/2-y,-z
-x,1/2+y,1/2-z
loop_
_atom_site_type_symbol
_atom_site_label
_atom_site_fract_x
_atom_site_fract_y
_atom_site_fract_z
Si Si1 0.476612 0.099423 0.216286
Si Si2 0.750000 0.059563 0.000000
Si Si3 0.152907 0.277629 0.114184
Si Si4 0.250000 0.128324 0.000000
Si Si5 0.298218 0.271113 0.265327
Si Si6 0.858109 0.698435 0.930722
Si Si7 0.521417 0.506367 0.441744
O O1 0.368343 0.182635 0.222289
O O2 0.611175 0.132254 0.263217
O O3 0.510207 0.082777 0.126188
O O4 0.418662 0.000000 0.250000
O O5 0.698339 0.123510 0.927076
O O6 0.873859 0.987218 0.979305
O O7 0.247346 0.193286 0.078280
O O8 0.167550 0.287558 0.209437
O O9 0.000000 0.250000 0.093533
O O10 0.381445 0.060056 0.997152
O O11 0.277597 0.243849 0.356347
O O12 0.903138 0.589491 0.911460
O O13 0.000000 0.750000 0.951284
O O14 0.750000 0.704283 0.000000
#
# Coordination Sequence:
#
# PCOD8166029 Si02
#       7
#     8   4   8   4   8   8   8
#     4  11  20  37  65  90 116 160 224 272 312 379
#     4  11  24  36  65 102 140 174 209 270 338 397
#     4  11  22  36  60  98 142 167 206 272 344 398
#     4  11  22  34  61  96 136 168 215 254 328 403
#     4  11  22  39  65  93 119 169 223 271 323 385
#     4  12  27  46  68  95 128 177 230 277 328 389
#     4  12  22  41  65  98 130 177 220 269 324 396
#
# _framework density 20.492584000000001
#
# number of rings (size 3 to 8) (size 9 to 14) (size 15 to 20)
#    0.000    0.667    9.167    0.000    1.167    0.667 
#    0.000    0.000    0.000    1.000    0.000    0.000 
#    0.000    0.000    0.000    0.000    0.000    0.000 
#
# Total GULP energy -297393.074215 kJ/mol
# GULP energy per Si atom -12391.378092 kJ/mol
# Density = 2.044594 g / cm^3
# Si number density = 20.492584 Si / 1000 Ang^3
#
#
#
# Elastic Constant Matrix: (Units=GPa)
#
#
# Indices 1 2 3 4 5 6 
#
# 1 88.3507 5.6698 44.8510 0.0000 0.0000 0.0000
# 2 5.6698 64.1854 23.5977 0.0000 0.0000 0.0000
# 3 44.8510 23.5977 131.2840 0.0000 0.0000 0.0000
# 4 0.0000 0.0000 0.0000 21.6667 0.0000 0.0000
# 5 0.0000 0.0000 0.0000 0.0000 34.1541 0.0000
# 6 0.0000 0.0000 0.0000 0.0000 0.0000 22.1800
#
#
#
# Elastic Compliance Matrix: (Units=1/GPa)
#
#
# Indices 1 2 3 4 5 6 
#
# 1 0.013711 0.000547 -0.004783 0.000000 0.000000 0.000000
# 2 0.000547 0.016704 -0.003189 0.000000 0.000000 0.000000
# 3 -0.004783 -0.003189 0.009824 0.000000 0.000000 0.000000
# 4 0.000000 0.000000 0.000000 0.046154 0.000000 0.000000
# 5 0.000000 0.000000 0.000000 0.000000 0.029279 0.000000
# 6 0.000000 0.000000 0.000000 0.000000 0.000000 0.045086
#
#
# Mechanical properties :
#
#
# Convention : Reuss Voigt Hill
#
# Bulk Modulus (GPa) = 39.38570 48.00634 43.69602
# Shear Modulus (GPa) = 27.16340 29.58026 28.37183
#
# Velocity S-wave (km/s) = 3.64472 3.80341 3.72491
# Velocity P-wave (km/s) = 6.08056 6.53949 6.31420
#
# Compressibility (1/GPa) = 0.02538993
#
# Stress axis : x y z
#
# Youngs Moduli (GPa) = 72.93263 59.86552 101.78906
#
# Poissons Ratio (x) = -0.03275 0.48681
# Poissons Ratio (y) = -0.03990 0.32465
# Poissons Ratio (z) = 0.34881 0.19093
#
# Static dielectric constant tensor:
#      x y z
#    x 3.570100 0.000000 0.000000 
#    y 0.000000 3.725220 0.000000 
#    z 0.000000 0.000000 3.669060 
# 
# 
# High freq. dielectric constant tensor:
#      x y z
#    x 1.783050 0.000000 0.000000 
#    y 0.000000 1.801190 0.000000 
#    z 0.000000 0.000000 1.800560 
# 
# From -- ./inp_files/29520.got.cif
#   From: 2010.03.12/outbox.cif.g09.slc.cpg/sg24_15_cif.got.tgz:29520.got - 2010.04.14 03:06:53.
