data_PCOD8166549
_publ_section_title
;
Structure prediction by ZEFSAII (Michael W. Deem and Ramdas Pophale) SiO2 
 PCOD8166549
Probable space group: P M M 2
;
_chemical_formula_sum "Si O2"
_cell_formula_units_Z 32
_cell_length_a 12.980018
_cell_length_b 18.393859
_cell_length_c 7.081670
_cell_angle_alpha 90.000000
_cell_angle_beta 90.000000
_cell_angle_gamma 90.000000
_cell_volume 1690.767273
_symmetry_space_group_name_H-M "P M M 2"
_symmetry_group_IT_number 25
_symmetry_cell_setting 'orthorhombic'
loop_
_space_group_symop_operation_xyz
x,y,z
-x,-y,z
-x,y,z
x,-y,z
loop_
_atom_site_type_symbol
_atom_site_label
_atom_site_fract_x
_atom_site_fract_y
_atom_site_fract_z
Si Si1 0.703153 0.804739 0.757690
Si Si2 0.883835 0.694421 0.724960
Si Si3 0.880825 0.581292 0.404065
Si Si4 0.379592 0.194515 0.170472
Si Si5 0.384145 0.699861 0.478045
Si Si6 0.197058 0.417352 0.001248
Si Si7 0.383170 0.417704 0.745313
Si Si8 0.380503 0.083392 0.494980
O O1 0.813808 0.766338 0.727704
O O2 0.617000 0.756324 0.653507
O O3 0.694347 0.883623 0.658032
O O4 0.684299 0.811829 0.979753
O O5 0.850528 0.643446 0.551039
O O6 0.000000 0.722760 0.706516
O O7 0.876141 0.643024 0.908442
O O8 0.862200 0.500000 0.489456
O O9 0.806938 0.593539 0.224875
O O10 0.000000 0.588469 0.341198
O O11 0.500000 0.204519 0.125056
O O12 0.333588 0.263435 0.291732
O O13 0.361785 0.122224 0.293988
O O14 0.500000 0.683230 0.420233
O O15 0.335787 0.625646 0.563828
O O16 0.161814 0.500000 0.948509
O O17 0.314331 0.403278 0.930688
O O18 0.500000 0.392456 0.793681
O O19 0.380270 0.500000 0.679527
O O20 0.500000 0.091643 0.557015
O O21 0.348990 0.000000 0.469225
#
# Coordination Sequence:
#
# PCOD8166549 Si02
#       8
#     4   4   4   4   4   4   4   4
#     4  11  20  34  55  81 111 146 178 215 270 325
#     4  11  23  37  54  78 108 143 187 240 287 327
#     4   9  19  36  58  80 102 135 184 241 298 344
#     4   9  18  32  55  83 112 145 179 213 260 322
#     4   9  17  32  51  75 105 140 182 223 263 318
#     4  10  19  34  55  78 104 140 186 239 291 338
#     4   9  17  31  51  74 104 144 186 227 271 325
#     4   9  19  36  59  90 121 142 170 212 257 317
#
# _framework density 18.926317999999998
#
# number of rings (size 3 to 8) (size 9 to 14) (size 15 to 20)
#    0.000    2.375    1.250    2.625    0.000    3.750 
#    0.000    1.250    0.000    3.375    0.000    7.000 
#    0.000    0.000    0.000    0.000    0.000    0.000 
#
# Total GULP energy -396556.384167 kJ/mol
# GULP energy per Si atom -12392.387005 kJ/mol
# Density = 1.888324 g / cm^3
# Si number density = 18.926318 Si / 1000 Ang^3
#
#
#
# Elastic Constant Matrix: (Units=GPa)
#
#
# Indices 1 2 3 4 5 6 
#
# 1 81.9834 46.1111 43.4432 0.0000 0.0000 0.0000
# 2 46.1111 103.9212 55.2313 0.0000 0.0000 0.0000
# 3 43.4432 55.2313 130.3024 0.0000 0.0000 0.0000
# 4 0.0000 0.0000 0.0000 18.0777 0.0000 0.0000
# 5 0.0000 0.0000 0.0000 0.0000 24.6252 0.0000
# 6 0.0000 0.0000 0.0000 0.0000 0.0000 15.7713
#
#
#
# Elastic Compliance Matrix: (Units=1/GPa)
#
#
# Indices 1 2 3 4 5 6 
#
# 1 0.017250 -0.005934 -0.003236 0.000000 0.000000 0.000000
# 2 -0.005934 0.014462 -0.004152 0.000000 0.000000 0.000000
# 3 -0.003236 -0.004152 0.010513 0.000000 0.000000 0.000000
# 4 0.000000 0.000000 0.000000 0.055317 0.000000 0.000000
# 5 0.000000 0.000000 0.000000 0.000000 0.040609 0.000000
# 6 0.000000 0.000000 0.000000 0.000000 0.000000 0.063406
#
#
# Mechanical properties :
#
#
# Convention : Reuss Voigt Hill
#
# Bulk Modulus (GPa) = 64.17731 67.30869 65.74300
# Shear Modulus (GPa) = 21.42295 23.12293 22.27294
#
# Velocity S-wave (km/s) = 3.36804 3.49912 3.43421
# Velocity P-wave (km/s) = 7.00768 7.20874 7.10892
#
# Compressibility (1/GPa) = 0.01558183
#
# Stress axis : x y z
#
# Youngs Moduli (GPa) = 57.97109 69.14547 95.11995
#
# Poissons Ratio (x) = 0.41033 0.30779
# Poissons Ratio (y) = 0.34402 0.39490
# Poissons Ratio (z) = 0.18758 0.28707
#
# Static dielectric constant tensor:
#      x y z
#    x 3.326520 0.000000 0.000000 
#    y 0.000000 3.499140 0.000000 
#    z 0.000000 0.000000 3.415380 
# 
# 
# High freq. dielectric constant tensor:
#      x y z
#    x 1.715470 0.000000 0.000000 
#    y 0.000000 1.718750 0.000000 
#    z 0.000000 0.000000 1.734160 
# 
# From -- ./inp_files/981.got.cif
#   From: 2010.03.12/outbox.cif.g09.slc.cpg/sg25_1_cif.got.tgz:981.got - 2010.04.14 03:30:10.
