data_PCOD8166335
_publ_section_title
;
Structure prediction by ZEFSAII (Michael W. Deem and Ramdas Pophale) SiO2 
 PCOD8166335
Probable space group: P M M 2
;
_chemical_formula_sum "Si O2"
_cell_formula_units_Z 28
_cell_length_a 9.151060
_cell_length_b 12.772369
_cell_length_c 15.382300
_cell_angle_alpha 90.000000
_cell_angle_beta 90.000000
_cell_angle_gamma 90.000000
_cell_volume 1797.894223
_symmetry_space_group_name_H-M "P M M 2"
_symmetry_group_IT_number 25
_symmetry_cell_setting 'orthorhombic'
loop_
_space_group_symop_operation_xyz
x,y,z
-x,-y,z
-x,y,z
x,-y,z
loop_
_atom_site_type_symbol
_atom_site_label
_atom_site_fract_x
_atom_site_fract_y
_atom_site_fract_z
Si Si1 0.167951 0.225788 0.072320
Si Si2 0.336673 0.624612 0.577789
Si Si3 0.833530 0.000000 0.089277
Si Si4 0.837653 0.375536 0.741446
Si Si5 0.827063 0.791934 0.269024
Si Si6 0.825112 0.617001 0.932346
Si Si7 0.673547 0.000000 0.265926
Si Si8 0.829250 0.380794 0.407130
O O1 0.229101 0.232589 0.170767
O O2 0.000000 0.258614 0.075797
O O3 0.188331 0.106977 0.034653
O O4 0.244653 0.306148 0.005425
O O5 0.500000 0.669216 0.572526
O O6 0.335327 0.500000 0.581905
O O7 0.263128 0.671183 0.665013
O O8 0.250574 0.662556 0.492698
O O9 0.714637 0.000000 0.164848
O O10 0.000000 0.000000 0.128726
O O11 0.846037 0.500000 0.734881
O O12 0.772198 0.345811 0.836456
O O13 0.000000 0.328413 0.729416
O O14 0.784208 0.691710 0.326380
O O15 0.000000 0.814141 0.270270
O O16 0.744061 0.894391 0.307017
O O17 0.768751 0.500000 0.953244
O O18 0.000000 0.618922 0.931525
O O19 0.500000 0.000000 0.279943
O O20 0.782157 0.500000 0.384845
O O21 0.000000 0.374667 0.426691
#
# Coordination Sequence:
#
# PCOD8166335 Si02
#       8
#     4   4   2   4   4   4   2   4
#     4   8  13  22  37  56  78 104 132 161 194 233
#     4   9  16  25  38  56  78 105 136 170 205 239
#     4   8  14  26  42  58  77 102 133 170 209 240
#     4   8  13  22  36  53  74 100 130 165 202 238
#     4   9  17  29  44  62  86 113 139 171 209 245
#     4   8  13  20  33  57  84 105 128 161 199 238
#     4  10  18  28  44  62  79 104 143 184 213 240
#     4   9  17  28  42  62  87 113 139 166 202 251
#
# _framework density 15.573774999999999
#
# number of rings (size 3 to 8) (size 9 to 14) (size 15 to 20)
#    0.000    3.429    0.000    2.786    0.000    2.857 
#    0.000    2.857    0.000    3.429    0.000    1.000 
#    0.000    4.571    0.000    0.000    0.000    0.000 
#
# Total GULP energy -346899.570159 kJ/mol
# GULP energy per Si atom -12389.270363 kJ/mol
# Density = 1.553833 g / cm^3
# Si number density = 15.573775 Si / 1000 Ang^3
#
#
#
# Elastic Constant Matrix: (Units=GPa)
#
#
# Indices 1 2 3 4 5 6 
#
# 1 48.5012 28.0299 34.0548 0.0000 0.0000 0.0000
# 2 28.0299 87.7424 65.3489 0.0000 0.0000 0.0000
# 3 34.0548 65.3489 116.4249 0.0000 0.0000 0.0000
# 4 0.0000 0.0000 0.0000 3.7946 0.0000 0.0000
# 5 0.0000 0.0000 0.0000 0.0000 7.2324 0.0000
# 6 0.0000 0.0000 0.0000 0.0000 0.0000 9.7541
#
#
#
# Elastic Compliance Matrix: (Units=1/GPa)
#
#
# Indices 1 2 3 4 5 6 
#
# 1 0.027039 -0.004721 -0.005259 0.000000 0.000000 0.000000
# 2 -0.004721 0.020408 -0.010074 0.000000 0.000000 0.000000
# 3 -0.005259 -0.010074 0.015782 0.000000 0.000000 0.000000
# 4 0.000000 0.000000 0.000000 0.263534 0.000000 0.000000
# 5 0.000000 0.000000 0.000000 0.000000 0.138267 0.000000
# 6 0.000000 0.000000 0.000000 0.000000 0.000000 0.102521
#
#
# Mechanical properties :
#
#
# Convention : Reuss Voigt Hill
#
# Bulk Modulus (GPa) = 43.25090 56.39285 49.82187
# Shear Modulus (GPa) = 8.12522 12.50520 10.31521
#
# Velocity S-wave (km/s) = 2.28661 2.83674 2.57640
# Velocity P-wave (km/s) = 5.89944 6.85698 6.39615
#
# Compressibility (1/GPa) = 0.02312091
#
# Stress axis : x y z
#
# Youngs Moduli (GPa) = 36.98353 49.00011 63.36268
#
# Poissons Ratio (x) = 0.23132 0.33324
# Poissons Ratio (y) = 0.17459 0.63832
# Poissons Ratio (z) = 0.19451 0.49363
#
# Static dielectric constant tensor:
#      x y z
#    x 2.765870 0.000000 0.000000 
#    y 0.000000 2.985390 0.000000 
#    z 0.000000 0.000000 3.100120 
# 
# 
# High freq. dielectric constant tensor:
#      x y z
#    x 1.567590 0.000000 0.000000 
#    y 0.000000 1.568150 0.000000 
#    z 0.000000 0.000000 1.587620 
# 
# From -- ./inp_files/5636.got.cif
#   From: 2010.03.12/outbox.cif.g09.slc.cpg/sg25_3_cif.got.tgz:5636.got - 2010.04.14 03:30:10.
