data_PCOD8166905
_publ_section_title
;
Structure prediction by ZEFSAII (Michael W. Deem and Ramdas Pophale) SiO2 
 PCOD8166905
Probable space group: P M M 2
;
_chemical_formula_sum "Si O2"
_cell_formula_units_Z 28
_cell_length_a 9.433691
_cell_length_b 9.108266
_cell_length_c 17.928318
_cell_angle_alpha 90.000000
_cell_angle_beta 90.000000
_cell_angle_gamma 90.000000
_cell_volume 1540.482961
_symmetry_space_group_name_H-M "P M M 2"
_symmetry_group_IT_number 25
_symmetry_cell_setting 'orthorhombic'
loop_
_space_group_symop_operation_xyz
x,y,z
-x,-y,z
-x,y,z
x,-y,z
loop_
_atom_site_type_symbol
_atom_site_label
_atom_site_fract_x
_atom_site_fract_y
_atom_site_fract_z
Si Si1 0.667846 0.667321 0.990870
Si Si2 0.656708 0.674373 0.156690
Si Si3 0.837484 0.171631 0.441826
Si Si4 0.162621 0.326960 0.714436
Si Si5 0.665862 0.828809 0.586680
Si Si6 0.163330 0.170276 0.866199
Si Si7 0.837238 0.327645 0.293562
O O1 0.500000 0.680080 0.981161
O O2 0.717089 0.500000 0.975631
O O3 0.743328 0.776932 0.934886
O O4 0.712478 0.717838 0.074405
O O5 0.500000 0.739688 0.169788
O O6 0.650751 0.500000 0.160880
O O7 0.757255 0.737682 0.221412
O O8 0.740056 0.221968 0.510312
O O9 0.778814 0.252920 0.368555
O O10 0.000000 0.217025 0.459132
O O11 0.824205 0.000000 0.427013
O O12 0.182821 0.500000 0.719269
O O13 0.266598 0.263912 0.652650
O O14 0.209244 0.258847 0.792984
O O15 0.000000 0.284286 0.695456
O O16 0.500000 0.793473 0.581106
O O17 0.694474 0.000000 0.601987
O O18 0.000000 0.200271 0.885796
O O19 0.193191 0.000000 0.851101
O O20 0.812554 0.500000 0.301718
O O21 0.000000 0.286317 0.281985
#
# Coordination Sequence:
#
# PCOD8166905 Si02
#       7
#     4   4   4   4   4   4   4
#     4   9  18  33  53  76 102 134 172 212 254 301
#     4   8  15  29  48  70  97 129 164 202 247 298
#     4   9  18  33  51  70  97 134 169 202 247 300
#     4  10  21  37  57  79 102 131 168 208 251 300
#     4  10  21  36  54  77 104 134 169 208 251 300
#     4  10  21  36  54  77 104 134 169 208 251 300
#     4   9  17  29  47  72  98 125 163 208 249 292
#
# _framework density 18.176117000000001
#
# number of rings (size 3 to 8) (size 9 to 14) (size 15 to 20)
#    0.000    2.714    0.000    2.143    0.000    5.143 
#    0.000    3.571    0.000    2.571    0.000    0.000 
#    0.000    0.000    0.000    0.000    0.000    0.000 
#
# Total GULP energy -347213.894801 kJ/mol
# GULP energy per Si atom -12400.496243 kJ/mol
# Density = 1.813475 g / cm^3
# Si number density = 18.176117 Si / 1000 Ang^3
#
#
#
# Elastic Constant Matrix: (Units=GPa)
#
#
# Indices 1 2 3 4 5 6 
#
# 1 79.4094 38.1872 79.8349 0.0000 0.0000 0.0000
# 2 38.1872 53.0164 55.1854 0.0000 0.0000 0.0000
# 3 79.8349 55.1854 169.8588 0.0000 0.0000 0.0000
# 4 0.0000 0.0000 0.0000 -2.4249 0.0000 0.0000
# 5 0.0000 0.0000 0.0000 0.0000 3.2607 0.0000
# 6 0.0000 0.0000 0.0000 0.0000 0.0000 24.6520
#
#
#
# Elastic Compliance Matrix: (Units=1/GPa)
#
#
# Indices 1 2 3 4 5 6 
#
# 1 0.026589 -0.009283 -0.009481 0.000000 0.000000 0.000000
# 2 -0.009283 0.031741 -0.005949 0.000000 0.000000 0.000000
# 3 -0.009481 -0.005949 0.012276 0.000000 0.000000 0.000000
# 4 0.000000 0.000000 0.000000 -0.412389 0.000000 0.000000
# 5 0.000000 0.000000 0.000000 0.000000 0.306681 0.000000
# 6 0.000000 0.000000 0.000000 0.000000 0.000000 0.040565
#
#
# Mechanical properties :
#
#
# Convention : Reuss Voigt Hill
#
# Bulk Modulus (GPa) = 47.21462 72.07774 59.64618
# Shear Modulus (GPa) = 80.71102 13.70269 47.20686
#
# Velocity S-wave (km/s) = 6.67094 2.74867 5.10179
# Velocity P-wave (km/s) = 9.23947 7.05797 8.22139
#
# Compressibility (1/GPa) = 0.02117988
#
# Stress axis : x y z
#
# Youngs Moduli (GPa) = 37.60977 31.50487 81.45735
#
# Poissons Ratio (x) = 0.29245 0.77231
# Poissons Ratio (y) = 0.34912 0.48463
# Poissons Ratio (z) = 0.35658 0.18744
#
# Static dielectric constant tensor:
#      x y z
#    x 3.391420 0.000000 0.000000 
#    y 0.000000 3.199790 0.000000 
#    z 0.000000 0.000000 3.575070 
# 
# 
# High freq. dielectric constant tensor:
#      x y z
#    x 1.698680 0.000000 0.000000 
#    y 0.000000 1.686820 0.000000 
#    z 0.000000 0.000000 1.716750 
# 
# From -- ./inp_files/6134.got.cif
#   From: 2010.03.12/outbox.cif.g09.slc.cpg/sg25_4_cif.got.tgz:6134.got - 2010.04.14 03:30:10.
