data_PCOD8166211
_publ_section_title
;
Structure prediction by ZEFSAII (Michael W. Deem and Ramdas Pophale) SiO2 
 PCOD8166211
Probable space group: I 21 21 21
;
_chemical_formula_sum "Si O2"
_cell_formula_units_Z 36
_cell_length_a 19.809717
_cell_length_b 17.597977
_cell_length_c 4.997578
_cell_angle_alpha 90.000000
_cell_angle_beta 90.000000
_cell_angle_gamma 90.000000
_cell_volume 1742.210385
_symmetry_space_group_name_H-M "I 21 21 21"
_symmetry_group_IT_number 24
_symmetry_cell_setting 'orthorhombic'
loop_
_space_group_symop_operation_xyz
x,y,z
-x,1/2-y,z
x,-y,1/2-z
1/2-x,y,-z
1/2+x,1/2+y,1/2+z
1/2-x,-y,1/2+z
1/2+x,1/2-y,-z
-x,1/2+y,1/2-z
loop_
_atom_site_type_symbol
_atom_site_label
_atom_site_fract_x
_atom_site_fract_y
_atom_site_fract_z
Si Si1 0.993205 0.089867 0.193280
Si Si2 0.637508 0.639463 0.578648
Si Si3 0.453323 0.676034 0.213364
Si Si4 0.674033 0.264679 0.421739
Si Si5 0.785123 0.500000 0.250000
O O1 0.989322 0.129597 0.479108
O O2 0.060245 0.116351 0.033796
O O3 0.987557 0.000000 0.250000
O O4 0.939867 0.123235 0.977414
O O5 0.673728 0.688038 0.351270
O O6 0.674196 0.559836 0.578922
O O7 0.642218 0.682929 0.854475
O O8 0.500000 0.750000 0.280976
O O9 0.377217 0.694759 0.117603
O O10 0.750000 0.237396 0.500000
O O11 0.750000 0.455918 0.500000
#
# Coordination Sequence:
#
# PCOD8166211 Si02
#       5
#     8   8   8   8   4
#     4  12  24  42  66  99 132 172 219 275 331 391
#     4  12  22  39  60  88 130 172 210 260 318 386
#     4  12  23  42  69  93 131 175 221 273 328 385
#     4  12  25  40  63  93 127 166 219 271 323 382
#     4  12  24  36  52  82 130 182 214 240 306 396
#
# _framework density 20.663404
#
# number of rings (size 3 to 8) (size 9 to 14) (size 15 to 20)
#    0.000    0.000    5.556    6.667    0.000    0.000 
#    0.000    0.000    0.000    2.667    0.000    0.000 
#    0.000    0.000    0.000    0.000    0.000    0.000 
#
# Total GULP energy -223072.091616 kJ/mol
# GULP energy per Si atom -12392.893979 kJ/mol
# Density = 2.061637 g / cm^3
# Si number density = 20.663404 Si / 1000 Ang^3
#
#
#
# Elastic Constant Matrix: (Units=GPa)
#
#
# Indices 1 2 3 4 5 6 
#
# 1 105.9362 52.1363 26.7018 0.0000 0.0000 0.0000
# 2 52.1363 118.1528 65.7042 0.0000 0.0000 0.0000
# 3 26.7018 65.7042 169.9183 0.0000 0.0000 0.0000
# 4 0.0000 0.0000 0.0000 43.6775 0.0000 0.0000
# 5 0.0000 0.0000 0.0000 0.0000 33.5246 0.0000
# 6 0.0000 0.0000 0.0000 0.0000 0.0000 23.7182
#
#
#
# Elastic Compliance Matrix: (Units=1/GPa)
#
#
# Indices 1 2 3 4 5 6 
#
# 1 0.012064 -0.005439 0.000207 0.000000 0.000000 0.000000
# 2 -0.005439 0.013234 -0.004263 0.000000 0.000000 0.000000
# 3 0.000207 -0.004263 0.007501 0.000000 0.000000 0.000000
# 4 0.000000 0.000000 0.000000 0.022895 0.000000 0.000000
# 5 0.000000 0.000000 0.000000 0.000000 0.029829 0.000000
# 6 0.000000 0.000000 0.000000 0.000000 0.000000 0.042162
#
#
# Mechanical properties :
#
#
# Convention : Reuss Voigt Hill
#
# Bulk Modulus (GPa) = 72.40753 75.89910 74.15331
# Shear Modulus (GPa) = 33.05215 36.81507 34.93361
#
# Velocity S-wave (km/s) = 4.00378 4.22555 4.11615
# Velocity P-wave (km/s) = 7.51606 7.78575 7.65209
#
# Compressibility (1/GPa) = 0.01381072
#
# Stress axis : x y z
#
# Youngs Moduli (GPa) = 82.89115 75.56354 133.31730
#
# Poissons Ratio (x) = 0.41096 -0.02762
# Poissons Ratio (y) = 0.45081 0.56828
# Poissons Ratio (z) = -0.01718 0.32210
#
# Static dielectric constant tensor:
#      x y z
#    x 3.926080 0.000000 0.000000 
#    y 0.000000 3.705930 0.000000 
#    z 0.000000 0.000000 3.818930 
# 
# 
# High freq. dielectric constant tensor:
#      x y z
#    x 1.797930 0.000000 0.000000 
#    y 0.000000 1.791470 0.000000 
#    z 0.000000 0.000000 1.839580 
# 
# From -- ./inp_files/5383.got.cif
#   From: 2010.03.12/outbox.cif.g09.slc.cpg/sg24_3_cif.got.tgz:5383.got - 2010.04.14 03:06:53.
