data_PCOD8166142
_publ_section_title
;
Structure prediction by ZEFSAII (Michael W. Deem and Ramdas Pophale) SiO2 
 PCOD8166142
Probable space group: I 21 21 21
;
_chemical_formula_sum "Si O2"
_cell_formula_units_Z 48
_cell_length_a 8.416693
_cell_length_b 14.539949
_cell_length_c 17.354209
_cell_angle_alpha 90.000000
_cell_angle_beta 90.000000
_cell_angle_gamma 90.000000
_cell_volume 2123.778369
_symmetry_space_group_name_H-M "I 21 21 21"
_symmetry_group_IT_number 24
_symmetry_cell_setting 'orthorhombic'
loop_
_space_group_symop_operation_xyz
x,y,z
-x,1/2-y,z
x,-y,1/2-z
1/2-x,y,-z
1/2+x,1/2+y,1/2+z
1/2-x,-y,1/2+z
1/2+x,1/2-y,-z
-x,1/2+y,1/2-z
loop_
_atom_site_type_symbol
_atom_site_label
_atom_site_fract_x
_atom_site_fract_y
_atom_site_fract_z
Si Si1 0.844833 0.411289 0.701550
Si Si2 0.319524 0.229388 0.794547
Si Si3 0.786986 0.900707 0.780679
Si Si4 0.123780 0.830614 0.565623
Si Si5 0.381413 0.665497 0.939271
Si Si6 0.088916 0.026278 0.537546
O O1 0.787070 0.500000 0.750000
O O2 0.717166 0.329254 0.716709
O O3 0.848983 0.416769 0.609907
O O4 0.025541 0.388441 0.720169
O O5 0.500000 0.250000 0.815051
O O6 0.256192 0.331691 0.786786
O O7 0.226269 0.169115 0.856583
O O8 0.702200 0.875156 0.862249
O O9 0.731526 0.000000 0.750000
O O10 0.250000 0.812011 0.500000
O O11 0.000000 0.750000 0.564273
O O12 0.019834 0.925913 0.561944
O O13 0.500000 0.750000 0.919431
O O14 0.250000 0.702227 0.000000
O O15 0.472425 0.581657 0.981547
O O16 0.250000 0.993547 0.500000
#
# Coordination Sequence:
#
# PCOD8166142 Si02
#       6
#     8   8   8   8   8   8
#     4  11  23  47  74 102 142 192 240 300 371 443
#     4  12  27  44  72 108 146 191 244 302 366 440
#     4  11  27  46  73 107 143 193 247 304 371 437
#     4  11  25  47  74 108 145 195 245 302 371 439
#     4  12  27  47  72 110 153 193 247 304 372 452
#     4  11  26  45  73 105 143 195 239 299 374 440
#
# _framework density 22.601227999999999
#
# number of rings (size 3 to 8) (size 9 to 14) (size 15 to 20)
#    0.000    0.667    3.333    3.000    9.333    5.333 
#    0.000    0.000    0.000    0.000    0.000    0.000 
#    0.000    0.000    0.000    0.000    0.000    0.000 
#
# Total GULP energy -297373.246880 kJ/mol
# GULP energy per Si atom -12390.551953 kJ/mol
# Density = 2.254979 g / cm^3
# Si number density = 22.601228 Si / 1000 Ang^3
#
#
#
# Elastic Constant Matrix: (Units=GPa)
#
#
# Indices 1 2 3 4 5 6 
#
# 1 92.8514 54.2395 18.8298 0.0000 0.0000 0.0000
# 2 54.2395 142.5495 16.4514 0.0000 0.0000 0.0000
# 3 18.8298 16.4514 63.4848 0.0000 0.0000 0.0000
# 4 0.0000 0.0000 0.0000 37.9546 0.0000 0.0000
# 5 0.0000 0.0000 0.0000 0.0000 29.6792 0.0000
# 6 0.0000 0.0000 0.0000 0.0000 0.0000 51.7297
#
#
#
# Elastic Compliance Matrix: (Units=1/GPa)
#
#
# Indices 1 2 3 4 5 6 
#
# 1 0.014358 -0.005125 -0.002931 0.000000 0.000000 0.000000
# 2 -0.005125 0.009061 -0.000828 0.000000 0.000000 0.000000
# 3 -0.002931 -0.000828 0.016836 0.000000 0.000000 0.000000
# 4 0.000000 0.000000 0.000000 0.026347 0.000000 0.000000
# 5 0.000000 0.000000 0.000000 0.000000 0.033694 0.000000
# 6 0.000000 0.000000 0.000000 0.000000 0.000000 0.019331
#
#
# Mechanical properties :
#
#
# Convention : Reuss Voigt Hill
#
# Bulk Modulus (GPa) = 44.46931 53.10300 48.78616
# Shear Modulus (GPa) = 34.50921 37.83038 36.16980
#
# Velocity S-wave (km/s) = 3.91176 4.09567 4.00477
# Velocity P-wave (km/s) = 6.33410 6.77589 6.55872
#
# Compressibility (1/GPa) = 0.02248742
#
# Stress axis : x y z
#
# Youngs Moduli (GPa) = 69.64788 110.36710 59.39809
#
# Poissons Ratio (x) = 0.56562 0.17407
# Poissons Ratio (y) = 0.35694 0.04918
# Poissons Ratio (z) = 0.20411 0.09137
#
# Static dielectric constant tensor:
#      x y z
#    x 4.117030 0.000000 0.000000 
#    y 0.000000 4.485950 0.000000 
#    z 0.000000 0.000000 4.112980 
# 
# 
# High freq. dielectric constant tensor:
#      x y z
#    x 1.890540 0.000000 0.000000 
#    y 0.000000 1.909300 0.000000 
#    z 0.000000 0.000000 1.904840 
# 
# From -- ./inp_files/29462.got.cif
#   From: 2010.03.12/outbox.cif.g09.slc.cpg/sg24_15_cif.got.tgz:29462.got - 2010.04.14 03:06:53.
