data_PCOD8166843
_publ_section_title
;
Structure prediction by ZEFSAII (Michael W. Deem and Ramdas Pophale) SiO2 
 PCOD8166843
Probable space group: P M M 2
;
_chemical_formula_sum "Si O2"
_cell_formula_units_Z 32
_cell_length_a 14.526527
_cell_length_b 8.918946
_cell_length_c 12.328231
_cell_angle_alpha 90.000000
_cell_angle_beta 90.000000
_cell_angle_gamma 90.000000
_cell_volume 1597.261757
_symmetry_space_group_name_H-M "P M M 2"
_symmetry_group_IT_number 25
_symmetry_cell_setting 'orthorhombic'
loop_
_space_group_symop_operation_xyz
x,y,z
-x,-y,z
-x,y,z
x,-y,z
loop_
_atom_site_type_symbol
_atom_site_label
_atom_site_fract_x
_atom_site_fract_y
_atom_site_fract_z
Si Si1 0.599312 0.326096 0.434340
Si Si2 0.603526 0.175262 0.890530
Si Si3 0.636287 0.832381 0.649489
Si Si4 0.840058 0.833301 0.571960
Si Si5 0.779696 0.676160 0.967302
Si Si6 0.898829 0.171731 0.797413
Si Si7 0.205001 0.323794 0.361166
Si Si8 0.106431 0.177497 0.159836
O O1 0.500000 0.295040 0.375187
O O2 0.617817 0.500000 0.449103
O O3 0.589630 0.261019 0.554325
O O4 0.688022 0.264565 0.367603
O O5 0.500000 0.204534 0.934004
O O6 0.610688 0.235413 0.766878
O O7 0.674704 0.264234 0.967372
O O8 0.628980 0.000000 0.894666
O O9 0.744697 0.829789 0.635774
O O10 0.596397 0.000000 0.641809
O O11 0.910140 0.792604 0.668712
O O12 0.844899 0.713038 0.475286
O O13 0.859083 0.000000 0.523700
O O14 0.778448 0.500000 0.986976
O O15 0.827202 0.716075 0.853143
O O16 0.838628 0.752785 0.060723
O O17 0.000000 0.193447 0.849773
O O18 0.864954 0.000000 0.814330
O O19 0.198203 0.500000 0.336944
O O20 0.153056 0.232916 0.269707
O O21 0.000000 0.229577 0.156876
O O22 0.114073 0.000000 0.153032
#
# Coordination Sequence:
#
# PCOD8166843 Si02
#       8
#     4   4   4   4   4   4   4   4
#     4   9  18  32  51  80 121 163 196 229 279 343
#     4  10  20  36  59  86 119 160 204 246 289 343
#     4   9  16  29  51  79 114 156 201 244 280 324
#     4   9  17  32  54  82 120 160 197 239 287 344
#     4  12  25  40  61  88 122 155 191 245 305 361
#     4  10  20  36  59  85 116 157 201 243 293 356
#     4  10  21  37  59  88 121 153 192 243 300 354
#     4  11  25  46  70  89 108 145 199 252 303 363
#
# _framework density 20.034286999999999
#
# number of rings (size 3 to 8) (size 9 to 14) (size 15 to 20)
#    0.000    2.000    1.250    2.625    0.000    5.750 
#    0.000    1.875    0.000    2.250    0.000    0.000 
#    0.000    0.000    0.000    0.000    0.000    0.000 
#
# Total GULP energy -396663.993407 kJ/mol
# GULP energy per Si atom -12395.749794 kJ/mol
# Density = 1.998869 g / cm^3
# Si number density = 20.034287 Si / 1000 Ang^3
#
#
#
# Elastic Constant Matrix: (Units=GPa)
#
#
# Indices 1 2 3 4 5 6 
#
# 1 137.6281 51.3860 58.6582 0.0000 0.0000 0.0000
# 2 51.3860 73.5593 40.1158 0.0000 0.0000 0.0000
# 3 58.6582 40.1158 92.5778 0.0000 0.0000 0.0000
# 4 0.0000 0.0000 0.0000 11.9668 0.0000 0.0000
# 5 0.0000 0.0000 0.0000 0.0000 19.7681 0.0000
# 6 0.0000 0.0000 0.0000 0.0000 0.0000 22.3047
#
#
#
# Elastic Compliance Matrix: (Units=1/GPa)
#
#
# Indices 1 2 3 4 5 6 
#
# 1 0.011305 -0.005226 -0.004898 0.000000 0.000000 0.000000
# 2 -0.005226 0.020217 -0.005449 0.000000 0.000000 0.000000
# 3 -0.004898 -0.005449 0.016267 0.000000 0.000000 0.000000
# 4 0.000000 0.000000 0.000000 0.083565 0.000000 0.000000
# 5 0.000000 0.000000 0.000000 0.000000 0.050586 0.000000
# 6 0.000000 0.000000 0.000000 0.000000 0.000000 0.044834
#
#
# Mechanical properties :
#
#
# Convention : Reuss Voigt Hill
#
# Bulk Modulus (GPa) = 60.09104 67.12058 63.60581
# Shear Modulus (GPa) = 18.97770 21.04827 20.01299
#
# Velocity S-wave (km/s) = 3.08110 3.24483 3.16402
# Velocity P-wave (km/s) = 6.53581 6.90030 6.72053
#
# Compressibility (1/GPa) = 0.01664142
#
# Stress axis : x y z
#
# Youngs Moduli (GPa) = 88.45762 49.46383 61.47542
#
# Poissons Ratio (x) = 0.25849 0.30113
# Poissons Ratio (y) = 0.46226 0.33499
# Poissons Ratio (z) = 0.43330 0.26954
#
# Static dielectric constant tensor:
#      x y z
#    x 3.982700 0.000000 0.000000 
#    y 0.000000 3.521240 0.000000 
#    z 0.000000 0.000000 3.508910 
# 
# 
# High freq. dielectric constant tensor:
#      x y z
#    x 1.798830 0.000000 0.000000 
#    y 0.000000 1.767020 0.000000 
#    z 0.000000 0.000000 1.759900 
# 
# From -- ./inp_files/4921.got.cif
#   From: 2010.03.12/outbox.cif.g09.slc.cpg/sg25_3_cif.got.tgz:4921.got - 2010.04.14 03:30:10.
