data_PCOD8166933
_publ_section_title
;
Structure prediction by ZEFSAII (Michael W. Deem and Ramdas Pophale) SiO2 
 PCOD8166933
Probable space group: P M M 2
;
_chemical_formula_sum "Si O2"
_cell_formula_units_Z 24
_cell_length_a 9.266134
_cell_length_b 8.857061
_cell_length_c 15.428500
_cell_angle_alpha 90.000000
_cell_angle_beta 90.000000
_cell_angle_gamma 90.000000
_cell_volume 1266.228012
_symmetry_space_group_name_H-M "P M M 2"
_symmetry_group_IT_number 25
_symmetry_cell_setting 'orthorhombic'
loop_
_space_group_symop_operation_xyz
x,y,z
-x,-y,z
-x,y,z
x,-y,z
loop_
_atom_site_type_symbol
_atom_site_label
_atom_site_fract_x
_atom_site_fract_y
_atom_site_fract_z
Si Si1 0.159315 0.320701 0.060110
Si Si2 0.334350 0.822254 0.720142
Si Si3 0.165578 0.678219 0.564157
Si Si4 0.830210 0.325027 0.253163
Si Si5 0.668269 0.673051 0.897188
Si Si6 0.667607 0.176461 0.406627
O O1 0.154633 0.500000 0.056836
O O2 0.214260 0.274400 0.155792
O O3 0.000000 0.254143 0.044614
O O4 0.260091 0.257355 0.983714
O O5 0.500000 0.771454 0.703966
O O6 0.231687 0.746420 0.650725
O O7 0.281511 0.769466 0.814659
O O8 0.318530 0.000000 0.712780
O O9 0.177268 0.500000 0.569832
O O10 0.253719 0.732925 0.481746
O O11 0.000000 0.731083 0.555232
O O12 0.791869 0.500000 0.270207
O O13 0.737546 0.219813 0.315406
O O14 0.000000 0.298673 0.268824
O O15 0.500000 0.687439 0.912592
O O16 0.715253 0.500000 0.881536
O O17 0.500000 0.221445 0.406097
O O18 0.688435 0.000000 0.423907
#
# Coordination Sequence:
#
# PCOD8166933 Si02
#       6
#     4   4   4   4   4   4
#     4   8  15  29  50  76 105 136 173 220 267 308
#     4  10  21  37  56  79 109 144 179 216 262 315
#     4  11  24  40  59  83 107 134 173 219 265 315
#     4   9  18  34  56  81 108 140 180 223 266 313
#     4   9  17  30  50  76 105 139 179 220 262 309
#     4  11  24  39  55  79 110 142 176 215 262 316
#
# _framework density 18.953931000000001
#
# number of rings (size 3 to 8) (size 9 to 14) (size 15 to 20)
#    0.000    2.333    0.000    3.500    0.000    9.333 
#    0.000    4.167    0.000    3.000    0.000    0.000 
#    0.000    0.000    0.000    0.000    0.000    0.000 
#
# Total GULP energy -297607.824999 kJ/mol
# GULP energy per Si atom -12400.326042 kJ/mol
# Density = 1.891079 g / cm^3
# Si number density = 18.953931 Si / 1000 Ang^3
#
#
#
# Elastic Constant Matrix: (Units=GPa)
#
#
# Indices 1 2 3 4 5 6 
#
# 1 81.9391 35.5089 71.4940 0.0000 0.0000 0.0000
# 2 35.5089 48.6090 36.2865 0.0000 0.0000 0.0000
# 3 71.4940 36.2865 155.8393 0.0000 0.0000 0.0000
# 4 0.0000 0.0000 0.0000 -23.9831 0.0000 0.0000
# 5 0.0000 0.0000 0.0000 0.0000 42.6358 0.0000
# 6 0.0000 0.0000 0.0000 0.0000 0.0000 24.9726
#
#
#
# Elastic Compliance Matrix: (Units=1/GPa)
#
#
# Indices 1 2 3 4 5 6 
#
# 1 0.024825 -0.011660 -0.008674 0.000000 0.000000 0.000000
# 2 -0.011660 0.030377 -0.001724 0.000000 0.000000 0.000000
# 3 -0.008674 -0.001724 0.010798 0.000000 0.000000 0.000000
# 4 0.000000 0.000000 0.000000 -0.041696 0.000000 0.000000
# 5 0.000000 0.000000 0.000000 0.000000 0.023454 0.000000
# 6 0.000000 0.000000 0.000000 0.000000 0.000000 0.040044
#
#
# Mechanical properties :
#
#
# Convention : Reuss Voigt Hill
#
# Bulk Modulus (GPa) = 45.69535 63.66293 54.67914
# Shear Modulus (GPa) = 35.91625 18.26492 27.09059
#
# Velocity S-wave (km/s) = 4.35779 3.10764 3.78469
# Velocity P-wave (km/s) = 7.03431 6.82185 6.92890
#
# Compressibility (1/GPa) = 0.02188407
#
# Stress axis : x y z
#
# Youngs Moduli (GPa) = 40.28119 32.92000 92.61201
#
# Poissons Ratio (x) = 0.38384 0.80334
# Poissons Ratio (y) = 0.46967 0.15966
# Poissons Ratio (z) = 0.34941 0.05675
#
# Static dielectric constant tensor:
#      x y z
#    x 3.594960 0.000000 0.000000 
#    y 0.000000 3.309150 0.000000 
#    z 0.000000 0.000000 3.813390 
# 
# 
# High freq. dielectric constant tensor:
#      x y z
#    x 1.735270 0.000000 0.000000 
#    y 0.000000 1.718500 0.000000 
#    z 0.000000 0.000000 1.754800 
# 
# From -- ./inp_files/5246.got.cif
#   From: 2010.03.12/outbox.cif.g09.slc.cpg/sg25_3_cif.got.tgz:5246.got - 2010.04.14 03:30:10.
