data_PCOD8166883
_publ_section_title
;
Structure prediction by ZEFSAII (Michael W. Deem and Ramdas Pophale) SiO2 
 PCOD8166883
Probable space group: P M M 2
;
_chemical_formula_sum "Si O2"
_cell_formula_units_Z 28
_cell_length_a 9.109824
_cell_length_b 9.500772
_cell_length_c 17.902926
_cell_angle_alpha 90.000000
_cell_angle_beta 90.000000
_cell_angle_gamma 90.000000
_cell_volume 1549.504704
_symmetry_space_group_name_H-M "P M M 2"
_symmetry_group_IT_number 25
_symmetry_cell_setting 'orthorhombic'
loop_
_space_group_symop_operation_xyz
x,y,z
-x,-y,z
-x,y,z
x,-y,z
loop_
_atom_site_type_symbol
_atom_site_label
_atom_site_fract_x
_atom_site_fract_y
_atom_site_fract_z
Si Si1 0.330059 0.662154 0.629040
Si Si2 0.829267 0.336394 0.477586
Si Si3 0.174353 0.655790 0.063624
Si Si4 0.172405 0.662137 0.896762
Si Si5 0.673029 0.838422 0.771372
Si Si6 0.170149 0.836461 0.200315
Si Si7 0.329119 0.164610 0.349784
O O1 0.500000 0.690534 0.609920
O O2 0.303874 0.500000 0.651411
O O3 0.234440 0.705651 0.557916
O O4 0.274475 0.758251 0.696973
O O5 0.800895 0.500000 0.460920
O O6 0.746841 0.246818 0.416117
O O7 0.000000 0.298424 0.476202
O O8 0.234650 0.500000 0.081455
O O9 0.235087 0.760145 0.126988
O O10 0.000000 0.654813 0.064875
O O11 0.224531 0.702027 0.980741
O O12 0.213436 0.500000 0.879165
O O13 0.255347 0.767175 0.842726
O O14 0.000000 0.685487 0.887000
O O15 0.500000 0.825184 0.780414
O O16 0.724068 0.000000 0.765968
O O17 0.259897 0.783619 0.271940
O O18 0.000000 0.799356 0.214010
O O19 0.194309 0.000000 0.186110
O O20 0.500000 0.200819 0.348933
O O21 0.299222 0.000000 0.361848
#
# Coordination Sequence:
#
# PCOD8166883 Si02
#       7
#     4   4   4   4   4   4   4
#     4   9  18  34  54  73  98 135 173 207 248 300
#     4  10  21  36  55  80 106 131 164 208 255 301
#     4   8  15  29  49  73  99 127 163 208 255 300
#     4   9  18  33  53  76 102 134 172 212 254 301
#     4  10  21  35  51  75 106 137 170 208 251 300
#     4   9  17  30  49  72  98 130 168 208 251 300
#     4  10  21  36  53  74 103 139 174 207 248 299
#
# _framework density 18.070291000000001
#
# number of rings (size 3 to 8) (size 9 to 14) (size 15 to 20)
#    0.000    2.714    0.000    2.143    0.000    5.143 
#    0.000    6.429    0.000    2.571    0.000    0.000 
#    0.000    0.000    0.000    0.000    0.000    0.000 
#
# Total GULP energy -347209.810633 kJ/mol
# GULP energy per Si atom -12400.350380 kJ/mol
# Density = 1.802916 g / cm^3
# Si number density = 18.070291 Si / 1000 Ang^3
#
#
#
# Elastic Constant Matrix: (Units=GPa)
#
#
# Indices 1 2 3 4 5 6 
#
# 1 63.2324 47.3378 66.9986 0.0000 0.0000 0.0000
# 2 47.3378 97.3460 97.5621 0.0000 0.0000 0.0000
# 3 66.9986 97.5621 179.4950 0.0000 0.0000 0.0000
# 4 0.0000 0.0000 0.0000 9.5004 0.0000 0.0000
# 5 0.0000 0.0000 0.0000 0.0000 95.2652 0.0000
# 6 0.0000 0.0000 0.0000 0.0000 0.0000 25.4203
#
#
#
# Elastic Compliance Matrix: (Units=1/GPa)
#
#
# Indices 1 2 3 4 5 6 
#
# 1 0.028143 -0.006936 -0.006735 0.000000 0.000000 0.000000
# 2 -0.006936 0.024274 -0.010605 0.000000 0.000000 0.000000
# 3 -0.006735 -0.010605 0.013849 0.000000 0.000000 0.000000
# 4 0.000000 0.000000 0.000000 0.105258 0.000000 0.000000
# 5 0.000000 0.000000 0.000000 0.000000 0.010497 0.000000
# 6 0.000000 0.000000 0.000000 0.000000 0.000000 0.039339
#
#
# Mechanical properties :
#
#
# Convention : Reuss Voigt Hill
#
# Bulk Modulus (GPa) = 56.44902 84.87447 70.66175
# Shear Modulus (GPa) = 18.12806 34.58218 26.35512
#
# Velocity S-wave (km/s) = 3.17076 4.37940 3.82315
# Velocity P-wave (km/s) = 6.68666 8.52310 7.66011
#
# Compressibility (1/GPa) = 0.01771510
#
# Stress axis : x y z
#
# Youngs Moduli (GPa) = 35.53290 41.19684 72.20628
#
# Poissons Ratio (x) = 0.28572 0.48630
# Poissons Ratio (y) = 0.24644 0.76574
# Poissons Ratio (z) = 0.23931 0.43689
#
# Static dielectric constant tensor:
#      x y z
#    x 2.944450 0.000000 0.000000 
#    y 0.000000 3.700530 0.000000 
#    z 0.000000 0.000000 3.555140 
# 
# 
# High freq. dielectric constant tensor:
#      x y z
#    x 1.683140 0.000000 0.000000 
#    y 0.000000 1.697040 0.000000 
#    z 0.000000 0.000000 1.712650 
# 
# From -- ./inp_files/6046.got.cif
#   From: 2010.03.12/outbox.cif.g09.slc.cpg/sg25_4_cif.got.tgz:6046.got - 2010.04.14 03:30:10.
