data_PCOD8166695
_publ_section_title
;
Structure prediction by ZEFSAII (Michael W. Deem and Ramdas Pophale) SiO2 
 PCOD8166695
Probable space group: P M M 2
;
_chemical_formula_sum "Si O2"
_cell_formula_units_Z 28
_cell_length_a 9.457274
_cell_length_b 9.077921
_cell_length_c 18.077826
_cell_angle_alpha 90.000000
_cell_angle_beta 90.000000
_cell_angle_gamma 90.000000
_cell_volume 1552.024500
_symmetry_space_group_name_H-M "P M M 2"
_symmetry_group_IT_number 25
_symmetry_cell_setting 'orthorhombic'
loop_
_space_group_symop_operation_xyz
x,y,z
-x,-y,z
-x,y,z
x,-y,z
loop_
_atom_site_type_symbol
_atom_site_label
_atom_site_fract_x
_atom_site_fract_y
_atom_site_fract_z
Si Si1 0.331234 0.666429 0.208770
Si Si2 0.836262 0.669397 0.777011
Si Si3 0.331596 0.833865 0.064815
Si Si4 0.663712 0.328607 0.919047
Si Si5 0.165152 0.170852 0.627754
Si Si6 0.331789 0.166140 0.352799
Si Si7 0.665315 0.328132 0.499990
O O1 0.500000 0.667688 0.208981
O O2 0.273699 0.500000 0.210391
O O3 0.271896 0.745864 0.135470
O O4 0.271854 0.751710 0.280443
O O5 0.800179 0.500000 0.757843
O O6 0.748136 0.725345 0.847254
O O7 0.791409 0.769735 0.708174
O O8 0.000000 0.689040 0.796573
O O9 0.500000 0.830311 0.066337
O O10 0.273990 0.000000 0.068265
O O11 0.276426 0.758472 0.989803
O O12 0.500000 0.293105 0.905051
O O13 0.689008 0.500000 0.934723
O O14 0.252083 0.261481 0.568392
O O15 0.000000 0.197537 0.613075
O O16 0.205862 0.000000 0.622658
O O17 0.500000 0.165596 0.350186
O O18 0.278630 0.251131 0.425450
O O19 0.272269 0.000000 0.354409
O O20 0.500000 0.297731 0.512034
O O21 0.698407 0.500000 0.493464
#
# Coordination Sequence:
#
# PCOD8166695 Si02
#       7
#     4   4   4   4   4   4   4
#     4   9  15  23  37  58  87 123 159 192 228 273
#     4   9  18  33  51  69  91 121 156 193 234 282
#     4   9  16  25  38  59  88 120 153 189 230 275
#     4   9  17  29  45  66  92 120 151 189 232 277
#     4  10  21  36  53  73  97 126 161 200 242 289
#     4   9  16  26  41  63  93 126 158 194 236 280
#     4  10  20  33  50  73 100 129 162 200 242 288
#
# _framework density 18.040951
#
# number of rings (size 3 to 8) (size 9 to 14) (size 15 to 20)
#    0.000    2.714    0.000    2.143    0.000    8.000 
#    0.000    1.429    0.000    0.000    0.000    1.000 
#    0.000    5.714    0.000    0.000    0.000    0.000 
#
# Total GULP energy -347228.996013 kJ/mol
# GULP energy per Si atom -12401.035572 kJ/mol
# Density = 1.799989 g / cm^3
# Si number density = 18.040951 Si / 1000 Ang^3
#
#
#
# Elastic Constant Matrix: (Units=GPa)
#
#
# Indices 1 2 3 4 5 6 
#
# 1 25.6607 31.5800 44.4242 0.0000 0.0000 0.0000
# 2 31.5800 142.5806 94.3469 0.0000 0.0000 0.0000
# 3 44.4242 94.3469 178.9152 0.0000 0.0000 0.0000
# 4 0.0000 0.0000 0.0000 33.1550 0.0000 0.0000
# 5 0.0000 0.0000 0.0000 0.0000 -3.5468 0.0000
# 6 0.0000 0.0000 0.0000 0.0000 0.0000 15.1422
#
#
#
# Elastic Compliance Matrix: (Units=1/GPa)
#
#
# Indices 1 2 3 4 5 6 
#
# 1 0.071870 -0.006313 -0.014516 0.000000 0.000000 0.000000
# 2 -0.006313 0.011327 -0.004406 0.000000 0.000000 0.000000
# 3 -0.014516 -0.004406 0.011517 0.000000 0.000000 0.000000
# 4 0.000000 0.000000 0.000000 0.030161 0.000000 0.000000
# 5 0.000000 0.000000 0.000000 0.000000 -0.281942 0.000000
# 6 0.000000 0.000000 0.000000 0.000000 0.000000 0.066040
#
#
# Mechanical properties :
#
#
# Convention : Reuss Voigt Hill
#
# Bulk Modulus (GPa) = 22.60175 76.42873 49.51524
# Shear Modulus (GPa) = -193.72780 20.73711 -86.49534
#
# Velocity S-wave (km/s) = -10.37378 3.39403 -6.93166
# Velocity P-wave (km/s) = 11.44255 7.60363 6.04635
#
# Compressibility (1/GPa) = 0.04424436
#
# Stress axis : x y z
#
# Youngs Moduli (GPa) = 13.91405 88.28453 86.83021
#
# Poissons Ratio (x) = 0.55733 1.26044
# Poissons Ratio (y) = 0.08784 0.38254
# Poissons Ratio (z) = 0.20198 0.38894
#
# Static dielectric constant tensor:
#      x y z
#    x 2.828230 0.000000 0.000000 
#    y 0.000000 3.511660 0.000000 
#    z 0.000000 0.000000 3.530160 
# 
# 
# High freq. dielectric constant tensor:
#      x y z
#    x 1.638470 0.000000 0.000000 
#    y 0.000000 1.711350 0.000000 
#    z 0.000000 0.000000 1.715490 
# 
# From -- ./inp_files/6043.got.cif
#   From: 2010.03.12/outbox.cif.g09.slc.cpg/sg25_4_cif.got.tgz:6043.got - 2010.04.14 03:30:10.
