data_PCOD8166605
_publ_section_title
;
Structure prediction by ZEFSAII (Michael W. Deem and Ramdas Pophale) SiO2 
 PCOD8166605
Probable space group: P M M 2
;
_chemical_formula_sum "Si O2"
_cell_formula_units_Z 32
_cell_length_a 9.692338
_cell_length_b 9.448020
_cell_length_c 20.684486
_cell_angle_alpha 90.000000
_cell_angle_beta 90.000000
_cell_angle_gamma 90.000000
_cell_volume 1894.148778
_symmetry_space_group_name_H-M "P M M 2"
_symmetry_group_IT_number 25
_symmetry_cell_setting 'orthorhombic'
loop_
_space_group_symop_operation_xyz
x,y,z
-x,-y,z
-x,y,z
x,-y,z
loop_
_atom_site_type_symbol
_atom_site_label
_atom_site_fract_x
_atom_site_fract_y
_atom_site_fract_z
Si Si1 0.835146 0.341256 0.260950
Si Si2 0.835594 0.157779 0.379425
Si Si3 0.836786 0.843797 0.143905
Si Si4 0.839971 0.165350 0.998054
Si Si5 0.153503 0.168710 0.521531
Si Si6 0.653433 0.831559 0.633576
Si Si7 0.337765 0.665004 0.896845
Si Si8 0.336092 0.157395 0.775370
O O1 0.776921 0.500000 0.261565
O O2 0.777399 0.261844 0.324425
O O3 0.776572 0.265095 0.196579
O O4 0.000000 0.340485 0.260908
O O5 0.789122 0.212649 0.450527
O O6 0.000000 0.152837 0.377873
O O7 0.777673 0.000000 0.365982
O O8 0.000000 0.852629 0.150697
O O9 0.774917 0.000000 0.157504
O O10 0.799294 0.794645 0.071543
O O11 0.743634 0.261729 0.954448
O O12 0.000000 0.200512 0.984399
O O13 0.811110 0.000000 0.984771
O O14 0.250522 0.233286 0.577400
O O15 0.000000 0.230094 0.532393
O O16 0.149136 0.000000 0.525184
O O17 0.500000 0.768551 0.624111
O O18 0.714427 0.790604 0.704407
O O19 0.647782 0.000000 0.628600
O O20 0.500000 0.691902 0.907170
O O21 0.301917 0.500000 0.895222
O O22 0.285295 0.733026 0.829566
O O23 0.500000 0.149816 0.772968
O O24 0.277719 0.000000 0.791307
#
# Coordination Sequence:
#
# PCOD8166605 Si02
#       8
#     4   4   4   4   4   4   4   4
#     4   9  15  21  32  53  79 106 137 171 205 243
#     4   8  13  21  33  49  72 103 134 164 202 246
#     4   8  14  25  40  58  82 110 138 171 212 255
#     4   9  18  32  49  69  92 118 148 182 223 269
#     4   8  13  21  34  54  79 104 130 163 205 250
#     4   8  13  22  38  59  79 100 131 172 214 251
#     4  10  20  32  47  68  92 119 151 184 219 262
#     4   8  14  26  44  63  83 109 141 178 218 256
#
# _framework density 16.894131999999999
#
# number of rings (size 3 to 8) (size 9 to 14) (size 15 to 20)
#    0.000    3.500    0.000    3.000    0.000    3.000 
#    0.000    1.875    0.000    3.000    0.000    0.875 
#    0.000    5.000    0.000    0.000    0.000    0.000 
#
# Total GULP energy -396550.889676 kJ/mol
# GULP energy per Si atom -12392.215302 kJ/mol
# Density = 1.685568 g / cm^3
# Si number density = 16.894132 Si / 1000 Ang^3
#
#
#
# Elastic Constant Matrix: (Units=GPa)
#
#
# Indices 1 2 3 4 5 6 
#
# 1 33.7719 28.3822 45.0193 0.0000 0.0000 0.0000
# 2 28.3822 93.1221 83.2970 0.0000 0.0000 0.0000
# 3 45.0193 83.2970 178.6345 0.0000 0.0000 0.0000
# 4 0.0000 0.0000 0.0000 5.9462 0.0000 0.0000
# 5 0.0000 0.0000 0.0000 0.0000 4.1823 0.0000
# 6 0.0000 0.0000 0.0000 0.0000 0.0000 12.6681
#
#
#
# Elastic Compliance Matrix: (Units=1/GPa)
#
#
# Indices 1 2 3 4 5 6 
#
# 1 0.046685 -0.006356 -0.008802 0.000000 0.000000 0.000000
# 2 -0.006356 0.019288 -0.007392 0.000000 0.000000 0.000000
# 3 -0.008802 -0.007392 0.011263 0.000000 0.000000 0.000000
# 4 0.000000 0.000000 0.000000 0.168174 0.000000 0.000000
# 5 0.000000 0.000000 0.000000 0.000000 0.239101 0.000000
# 6 0.000000 0.000000 0.000000 0.000000 0.000000 0.078938
#
#
# Mechanical properties :
#
#
# Convention : Reuss Voigt Hill
#
# Bulk Modulus (GPa) = 31.11704 68.76948 49.94326
# Shear Modulus (GPa) = 8.07415 14.48134 11.27774
#
# Velocity S-wave (km/s) = 2.18852 2.93094 2.58651
# Velocity P-wave (km/s) = 4.98448 7.22831 6.20860
#
# Compressibility (1/GPa) = 0.03213674
#
# Stress axis : x y z
#
# Youngs Moduli (GPa) = 21.42012 51.84578 88.78451
#
# Poissons Ratio (x) = 0.32952 0.78147
# Poissons Ratio (y) = 0.13614 0.65631
# Poissons Ratio (z) = 0.18854 0.38325
#
# Static dielectric constant tensor:
#      x y z
#    x 2.758800 0.000000 0.000000 
#    y 0.000000 3.072910 0.000000 
#    z 0.000000 0.000000 3.587220 
# 
# 
# High freq. dielectric constant tensor:
#      x y z
#    x 1.590530 0.000000 0.000000 
#    y 0.000000 1.623570 0.000000 
#    z 0.000000 0.000000 1.670990 
# 
# From -- ./inp_files/6377.got.cif
#   From: 2010.03.12/outbox.cif.g09.slc.cpg/sg25_4_cif.got.tgz:6377.got - 2010.04.14 03:30:10.
