data_PCOD8166475
_publ_section_title
;
Structure prediction by ZEFSAII (Michael W. Deem and Ramdas Pophale) SiO2 
 PCOD8166475
Probable space group: P M M 2
;
_chemical_formula_sum "Si O2"
_cell_formula_units_Z 32
_cell_length_a 8.459872
_cell_length_b 35.944198
_cell_length_c 5.182411
_cell_angle_alpha 90.000000
_cell_angle_beta 90.000000
_cell_angle_gamma 90.000000
_cell_volume 1575.884713
_symmetry_space_group_name_H-M "P M M 2"
_symmetry_group_IT_number 25
_symmetry_cell_setting 'orthorhombic'
loop_
_space_group_symop_operation_xyz
x,y,z
-x,-y,z
-x,y,z
x,-y,z
loop_
_atom_site_type_symbol
_atom_site_label
_atom_site_fract_x
_atom_site_fract_y
_atom_site_fract_z
Si Si1 0.812499 0.331970 0.701520
Si Si2 0.688193 0.458152 0.204713
Si Si3 0.812350 0.086229 0.714731
Si Si4 0.687660 0.414768 0.704595
Si Si5 0.188115 0.289631 0.202131
Si Si6 0.316406 0.832100 0.726212
Si Si7 0.187255 0.041549 0.212529
Si Si8 0.185560 0.794703 0.227002
O O1 0.756302 0.373897 0.707052
O O2 0.743895 0.311407 0.449673
O O3 0.000000 0.331015 0.701798
O O4 0.745155 0.310220 0.949511
O O5 0.500000 0.459446 0.205243
O O6 0.756461 0.500000 0.205899
O O7 0.751709 0.436453 0.454581
O O8 0.751389 0.436823 0.953216
O O9 0.722984 0.124876 0.696028
O O10 0.757915 0.061724 0.472318
O O11 0.000000 0.093251 0.718148
O O12 0.752074 0.064918 0.968557
O O13 0.500000 0.412554 0.704310
O O14 0.249235 0.247378 0.204404
O O15 0.000000 0.290093 0.207508
O O16 0.500000 0.825387 0.676034
O O17 0.219396 0.808960 0.514636
O O18 0.272439 0.819529 0.014321
O O19 0.000000 0.038769 0.202438
O O20 0.260001 0.000000 0.204864
O O21 0.000000 0.797106 0.173261
#
# Coordination Sequence:
#
# PCOD8166475 Si02
#       8
#     4   4   4   4   4   4   4   4
#     4  10  19  34  54  77 105 136 169 209 265 321
#     4   9  17  30  49  71  96 129 170 213 253 297
#     4  10  19  33  55  80 108 148 193 229 273 339
#     4  10  19  31  49  74 100 128 167 211 255 305
#     4   9  19  35  57  80 102 135 180 224 261 314
#     4  12  25  40  58  87 125 156 187 237 299 347
#     4   9  17  30  52  82 110 137 182 243 287 317
#     4  11  22  41  66  87 110 149 202 245 279 335
#
# _framework density 20.306055000000001
#
# number of rings (size 3 to 8) (size 9 to 14) (size 15 to 20)
#    0.000    2.000    0.000    4.500    0.000    6.000 
#    0.000    3.750    0.000    4.500    0.000    0.000 
#    0.000    0.000    0.000    0.000    0.000    0.000 
#
# Total GULP energy -396898.699428 kJ/mol
# GULP energy per Si atom -12403.084357 kJ/mol
# Density = 2.025984 g / cm^3
# Si number density = 20.306055 Si / 1000 Ang^3
#
#
#
# Elastic Constant Matrix: (Units=GPa)
#
#
# Indices 1 2 3 4 5 6 
#
# 1 26.2338 26.3412 19.8062 0.0000 0.0000 0.0000
# 2 26.3412 154.2178 58.2867 0.0000 0.0000 0.0000
# 3 19.8062 58.2867 160.5697 0.0000 0.0000 0.0000
# 4 0.0000 0.0000 0.0000 43.2474 0.0000 0.0000
# 5 0.0000 0.0000 0.0000 0.0000 12.9171 0.0000
# 6 0.0000 0.0000 0.0000 0.0000 0.0000 58.3712
#
#
#
# Elastic Compliance Matrix: (Units=1/GPa)
#
#
# Indices 1 2 3 4 5 6 
#
# 1 0.047542 -0.006843 -0.003380 0.000000 0.000000 0.000000
# 2 -0.006843 0.008500 -0.002242 0.000000 0.000000 0.000000
# 3 -0.003380 -0.002242 0.007458 0.000000 0.000000 0.000000
# 4 0.000000 0.000000 0.000000 0.023123 0.000000 0.000000
# 5 0.000000 0.000000 0.000000 0.000000 0.077417 0.000000
# 6 0.000000 0.000000 0.000000 0.000000 0.000000 0.017132
#
#
# Mechanical properties :
#
#
# Convention : Reuss Voigt Hill
#
# Bulk Modulus (GPa) = 25.92609 61.09880 43.51245
# Shear Modulus (GPa) = 22.83542 38.67962 30.75752
#
# Velocity S-wave (km/s) = 3.35709 4.36917 3.89613
# Velocity P-wave (km/s) = 5.27467 7.45702 6.45869
#
# Compressibility (1/GPa) = 0.03857118
#
# Stress axis : x y z
#
# Youngs Moduli (GPa) = 21.03418 117.64275 134.07574
#
# Poissons Ratio (x) = 0.80500 0.45322
# Poissons Ratio (y) = 0.14393 0.30054
# Poissons Ratio (z) = 0.07110 0.26370
#
# Static dielectric constant tensor:
#      x y z
#    x 3.203010 0.000000 0.000000 
#    y 0.000000 3.875580 0.000000 
#    z 0.000000 0.000000 4.083430 
# 
# 
# High freq. dielectric constant tensor:
#      x y z
#    x 1.745680 0.000000 0.000000 
#    y 0.000000 1.812920 0.000000 
#    z 0.000000 0.000000 1.814430 
# 
# From -- ./inp_files/377.got.cif
#   From: 2010.03.12/outbox.cif.g09.slc.cpg/sg25_1_cif.got.tgz:377.got - 2010.04.14 03:30:10.
