data_PCOD8166114
_publ_section_title
;
Structure prediction by ZEFSAII (Michael W. Deem and Ramdas Pophale) SiO2 
 PCOD8166114
Probable space group: I 21 21 21
;
_chemical_formula_sum "Si O2"
_cell_formula_units_Z 36
_cell_length_a 10.903437
_cell_length_b 11.492047
_cell_length_c 12.547195
_cell_angle_alpha 90.000000
_cell_angle_beta 90.000000
_cell_angle_gamma 90.000000
_cell_volume 1572.198797
_symmetry_space_group_name_H-M "I 21 21 21"
_symmetry_group_IT_number 24
_symmetry_cell_setting 'orthorhombic'
loop_
_space_group_symop_operation_xyz
x,y,z
-x,1/2-y,z
x,-y,1/2-z
1/2-x,y,-z
1/2+x,1/2+y,1/2+z
1/2-x,-y,1/2+z
1/2+x,1/2-y,-z
-x,1/2+y,1/2-z
loop_
_atom_site_type_symbol
_atom_site_label
_atom_site_fract_x
_atom_site_fract_y
_atom_site_fract_z
Si Si1 0.823948 0.217013 0.186147
Si Si2 0.969350 0.427634 0.109950
Si Si3 0.085122 0.000000 0.750000
Si Si4 0.219200 0.126531 0.379706
Si Si5 0.430796 0.638362 0.399903
O O1 0.863876 0.327097 0.112624
O O2 0.790676 0.259324 0.305600
O O3 0.710726 0.158265 0.125239
O O4 0.929108 0.117580 0.195786
O O5 0.905295 0.550868 0.136836
O O6 0.043064 0.448404 0.998692
O O7 0.166920 0.952830 0.846009
O O8 0.997636 0.898859 0.708225
O O9 0.250000 0.165557 0.500000
O O10 0.500000 0.750000 0.444033
#
# Coordination Sequence:
#
# PCOD8166114 Si02
#       5
#     8   8   4   8   8
#     4  11  24  41  67 101 141 177 228 292 340 410
#     4  11  23  39  73 103 130 182 238 287 335 413
#     4  12  24  40  70 100 136 186 234 288 340 426
#     4  12  23  43  72  99 137 186 229 281 353 417
#     4  12  22  40  69 104 136 180 240 282 342 414
#
# _framework density 22.897869
#
# number of rings (size 3 to 8) (size 9 to 14) (size 15 to 20)
#    0.000    0.444    8.889    0.667    0.000    0.000 
#    8.000    4.444    0.000    0.000    0.000    0.000 
#    0.000    0.000    0.000    0.000    0.000    0.000 
#
# Total GULP energy -223084.040224 kJ/mol
# GULP energy per Si atom -12393.557790 kJ/mol
# Density = 2.284575 g / cm^3
# Si number density = 22.897869 Si / 1000 Ang^3
#
#
#
# Elastic Constant Matrix: (Units=GPa)
#
#
# Indices 1 2 3 4 5 6 
#
# 1 138.5963 28.5289 47.8406 0.0000 0.0000 0.0000
# 2 28.5289 41.9353 29.8733 -0.0001 0.0000 0.0000
# 3 47.8406 29.8733 141.7587 -0.0001 0.0000 0.0000
# 4 0.0000 -0.0001 -0.0001 31.9735 0.0000 0.0000
# 5 0.0000 0.0000 0.0000 0.0000 45.9170 0.0000
# 6 0.0000 0.0000 0.0000 0.0000 0.0000 37.0496
#
#
#
# Elastic Compliance Matrix: (Units=1/GPa)
#
#
# Indices 1 2 3 4 5 6 
#
# 1 0.008857 -0.004584 -0.002023 0.000000 0.000000 0.000000
# 2 -0.004584 0.030431 -0.004866 0.000000 0.000000 0.000000
# 3 -0.002023 -0.004866 0.008762 0.000000 0.000000 0.000000
# 4 0.000000 0.000000 0.000000 0.031276 0.000000 0.000000
# 5 0.000000 0.000000 0.000000 0.000000 0.021778 0.000000
# 6 0.000000 0.000000 0.000000 0.000000 0.000000 0.026991
#
#
# Mechanical properties :
#
#
# Convention : Reuss Voigt Hill
#
# Bulk Modulus (GPa) = 39.83367 59.41952 49.62660
# Shear Modulus (GPa) = 31.36555 37.39118 34.37837
#
# Velocity S-wave (km/s) = 3.70510 4.04537 3.87897
# Velocity P-wave (km/s) = 5.97810 6.91564 6.46389
#
# Compressibility (1/GPa) = 0.02510439
#
# Stress axis : x y z
#
# Youngs Moduli (GPa) = 112.90271 32.86089 114.12487
#
# Poissons Ratio (x) = 0.15065 0.23088
# Poissons Ratio (y) = 0.51760 0.55530
# Poissons Ratio (z) = 0.22840 0.15989
#
# Static dielectric constant tensor:
#      x y z
#    x 4.266590 0.000000 0.000000 
#    y 0.000000 3.771760 0.000000 
#    z 0.000000 0.000000 4.187150 
# 
# 
# High freq. dielectric constant tensor:
#      x y z
#    x 1.919020 0.000000 0.000000 
#    y 0.000000 1.864200 0.000000 
#    z 0.000000 0.000000 1.911150 
# 
# From -- ./inp_files/19210.got.cif
#   From: 2010.03.12/outbox.cif.g09.slc.cpg/sg24_10_cif.got.tgz:19210.got - 2010.04.14 03:06:53.
