data_PCOD8166087
_publ_section_title
;
Structure prediction by ZEFSAII (Michael W. Deem and Ramdas Pophale) SiO2 
 PCOD8166087
Probable space group: I 21 21 21
;
_chemical_formula_sum "Si O2"
_cell_formula_units_Z 48
_cell_length_a 9.239724
_cell_length_b 11.053566
_cell_length_c 24.111033
_cell_angle_alpha 90.000000
_cell_angle_beta 90.000000
_cell_angle_gamma 90.000000
_cell_volume 2462.505588
_symmetry_space_group_name_H-M "I 21 21 21"
_symmetry_group_IT_number 24
_symmetry_cell_setting 'orthorhombic'
loop_
_space_group_symop_operation_xyz
x,y,z
-x,1/2-y,z
x,-y,1/2-z
1/2-x,y,-z
1/2+x,1/2+y,1/2+z
1/2-x,-y,1/2+z
1/2+x,1/2-y,-z
-x,1/2+y,1/2-z
loop_
_atom_site_type_symbol
_atom_site_label
_atom_site_fract_x
_atom_site_fract_y
_atom_site_fract_z
Si Si1 0.328022 0.240787 0.407038
Si Si2 0.106645 0.500000 0.250000
Si Si3 0.520533 0.608824 0.497096
Si Si4 0.397351 0.137903 0.814784
Si Si5 0.166631 0.740646 0.205561
Si Si6 0.750000 0.931069 0.000000
Si Si7 0.243212 0.966894 0.582937
O O1 0.500000 0.250000 0.412071
O O2 0.281152 0.248106 0.343161
O O3 0.255503 0.344618 0.445562
O O4 0.273090 0.109945 0.424704
O O5 0.007347 0.528367 0.303787
O O6 0.205124 0.611603 0.232675
O O7 0.500000 0.750000 0.507525
O O8 0.382291 0.523565 0.502122
O O9 0.624201 0.565400 0.544896
O O10 0.593613 0.594052 0.436744
O O11 0.500000 0.250000 0.835151
O O12 0.314795 0.165628 0.756511
O O13 0.276481 0.089181 0.856894
O O14 0.000000 0.750000 0.184098
#
# Coordination Sequence:
#
# PCOD8166087 Si02
#       7
#     8   4   8   8   8   4   8
#     4  12  26  42  63  94 134 170 213 271 327 386
#     4   8  16  34  56  94 120 158 220 260 302 388
#     4  11  25  44  65  96 126 164 217 266 327 391
#     4   9  18  35  62  96 127 167 217 266 320 378
#     4   9  20  38  63  92 125 168 219 265 315 379
#     4  12  26  44  66  96 130 170 218 268 330 392
#     4  11  22  41  66  93 130 166 215 267 321 386
#
# _framework density 19.492342000000001
#
# number of rings (size 3 to 8) (size 9 to 14) (size 15 to 20)
#    0.000    2.000    1.667    4.500    4.667    0.000 
#    3.000    2.500    0.000    0.000    0.000    0.000 
#    0.000    0.000    0.000    0.000    0.000    0.000 
#
# Total GULP energy -297327.831287 kJ/mol
# GULP energy per Si atom -12388.659637 kJ/mol
# Density = 1.944798 g / cm^3
# Si number density = 19.492342 Si / 1000 Ang^3
#
#
#
# Elastic Constant Matrix: (Units=GPa)
#
#
# Indices 1 2 3 4 5 6 
#
# 1 102.1071 61.1377 55.3422 0.0000 0.0000 0.0000
# 2 61.1377 154.3915 54.3900 0.0000 0.0000 0.0000
# 3 55.3422 54.3900 116.5308 0.0000 0.0000 0.0000
# 4 0.0000 0.0000 0.0000 24.3045 0.0000 0.0000
# 5 0.0000 0.0000 0.0000 0.0000 -110.0834 0.0000
# 6 0.0000 0.0000 0.0000 0.0000 0.0000 32.5361
#
#
#
# Elastic Compliance Matrix: (Units=1/GPa)
#
#
# Indices 1 2 3 4 5 6 
#
# 1 0.015115 -0.004137 -0.005247 0.000000 0.000000 0.000000
# 2 -0.004137 0.008884 -0.002182 0.000000 0.000000 0.000000
# 3 -0.005247 -0.002182 0.012092 0.000000 0.000000 0.000000
# 4 0.000000 0.000000 0.000000 0.041145 0.000000 0.000000
# 5 0.000000 0.000000 0.000000 0.000000 -0.009084 0.000000
# 6 0.000000 0.000000 0.000000 0.000000 0.000000 0.030735
#
#
# Mechanical properties :
#
#
# Convention : Reuss Voigt Hill
#
# Bulk Modulus (GPa) = 77.17020 79.41880 78.29450
# Shear Modulus (GPa) = 39.57658 2.82872 21.20265
#
# Velocity S-wave (km/s) = 4.51085 1.20596 3.30167
# Velocity P-wave (km/s) = 8.17351 6.53997 7.40194
#
# Compressibility (1/GPa) = 0.01295837
#
# Stress axis : x y z
#
# Youngs Moduli (GPa) = 66.16119 112.56480 82.70034
#
# Poissons Ratio (x) = 0.46564 0.43396
# Poissons Ratio (y) = 0.27369 0.18044
# Poissons Ratio (z) = 0.34717 0.24560
#
# Static dielectric constant tensor:
#      x y z
#    x 3.517920 0.000000 0.000000 
#    y 0.000000 4.085270 0.000000 
#    z 0.000000 0.000000 3.512090 
# 
# 
# High freq. dielectric constant tensor:
#      x y z
#    x 1.734120 0.000000 0.000000 
#    y 0.000000 1.787490 0.000000 
#    z 0.000000 0.000000 1.759480 
# 
# From -- ./inp_files/35175.got.cif
#   From: 2010.03.12/outbox.cif.g09.slc.cpg/sg24_18_cif.got.tgz:35175.got - 2010.04.14 03:06:53.
