data_PCOD8166914
_publ_section_title
;
Structure prediction by ZEFSAII (Michael W. Deem and Ramdas Pophale) SiO2 
 PCOD8166914
Probable space group: P M M 2
;
_chemical_formula_sum "Si O2"
_cell_formula_units_Z 32
_cell_length_a 13.994439
_cell_length_b 8.844645
_cell_length_c 12.907395
_cell_angle_alpha 90.000000
_cell_angle_beta 90.000000
_cell_angle_gamma 90.000000
_cell_volume 1597.623722
_symmetry_space_group_name_H-M "P M M 2"
_symmetry_group_IT_number 25
_symmetry_cell_setting 'orthorhombic'
loop_
_space_group_symop_operation_xyz
x,y,z
-x,-y,z
-x,y,z
x,-y,z
loop_
_atom_site_type_symbol
_atom_site_label
_atom_site_fract_x
_atom_site_fract_y
_atom_site_fract_z
Si Si1 0.105097 0.678810 0.084400
Si Si2 0.389950 0.676872 0.406760
Si Si3 0.699337 0.677489 0.999005
Si Si4 0.109802 0.823189 0.516419
Si Si5 0.887269 0.333125 0.310229
Si Si6 0.719922 0.678129 0.611410
Si Si7 0.613519 0.827087 0.197391
Si Si8 0.609639 0.177970 0.800161
O O1 0.096833 0.500000 0.098071
O O2 0.186989 0.719696 0.001260
O O3 0.137764 0.740601 0.198079
O O4 0.000000 0.743208 0.050859
O O5 0.500000 0.719184 0.423383
O O6 0.375769 0.500000 0.387303
O O7 0.336793 0.732630 0.509854
O O8 0.347345 0.765198 0.307495
O O9 0.684072 0.500000 0.978022
O O10 0.653825 0.720061 0.108323
O O11 0.649608 0.774798 0.911204
O O12 0.148567 0.772852 0.403308
O O13 0.172079 0.740719 0.604563
O O14 0.000000 0.775212 0.533487
O O15 0.123898 0.000000 0.527290
O O16 0.840287 0.500000 0.325180
O O17 0.000000 0.349605 0.315643
O O18 0.722255 0.500000 0.622196
O O19 0.670210 0.742399 0.712357
O O20 0.500000 0.813606 0.195140
O O21 0.646783 0.000000 0.181447
O O22 0.500000 0.230544 0.791508
O O23 0.619339 0.000000 0.788157
#
# Coordination Sequence:
#
# PCOD8166914 Si02
#       8
#     4   4   4   4   4   4   4   4
#     4   8  16  32  54  82 116 152 193 240 288 340
#     4   9  19  36  57  83 115 148 185 234 292 355
#     4  11  22  36  60  89 116 151 199 247 294 346
#     4  10  21  36  54  82 122 162 200 243 292 349
#     4   8  14  28  51  77 109 152 197 239 284 337
#     4  11  23  39  63  90 116 150 198 249 300 356
#     4  10  21  36  54  80 117 156 190 231 290 356
#     4  11  25  45  66  87 115 152 195 245 303 365
#
# _framework density 20.029747
#
# number of rings (size 3 to 8) (size 9 to 14) (size 15 to 20)
#    0.000    2.250    0.000    3.375    1.750    5.500 
#    0.000    2.500    0.000    4.500    0.000    0.000 
#    0.000    0.000    0.000    0.000    0.000    0.000 
#
# Total GULP energy -396772.273782 kJ/mol
# GULP energy per Si atom -12399.133556 kJ/mol
# Density = 1.998416 g / cm^3
# Si number density = 20.029747 Si / 1000 Ang^3
#
#
#
# Elastic Constant Matrix: (Units=GPa)
#
#
# Indices 1 2 3 4 5 6 
#
# 1 73.9559 31.1422 36.5790 0.0000 0.0000 0.0000
# 2 31.1422 55.4464 25.9860 0.0000 0.0000 0.0000
# 3 36.5790 25.9860 76.9195 0.0000 0.0000 0.0000
# 4 0.0000 0.0000 0.0000 -17.1962 0.0000 0.0000
# 5 0.0000 0.0000 0.0000 0.0000 34.7728 0.0000
# 6 0.0000 0.0000 0.0000 0.0000 0.0000 24.6727
#
#
#
# Elastic Compliance Matrix: (Units=1/GPa)
#
#
# Indices 1 2 3 4 5 6 
#
# 1 0.020408 -0.008215 -0.006930 0.000000 0.000000 0.000000
# 2 -0.008215 0.024735 -0.004450 0.000000 0.000000 0.000000
# 3 -0.006930 -0.004450 0.017799 0.000000 0.000000 0.000000
# 4 0.000000 0.000000 0.000000 -0.058153 0.000000 0.000000
# 5 0.000000 0.000000 0.000000 0.000000 0.028758 0.000000
# 6 0.000000 0.000000 0.000000 0.000000 0.000000 0.040531
#
#
# Mechanical properties :
#
#
# Convention : Reuss Voigt Hill
#
# Bulk Modulus (GPa) = 42.09875 43.74847 42.92361
# Shear Modulus (GPa) = 41.25903 15.95750 28.60827
#
# Velocity S-wave (km/s) = 4.54352 2.82563 3.78337
# Velocity P-wave (km/s) = 6.97055 5.70392 6.36880
#
# Compressibility (1/GPa) = 0.02375367
#
# Stress axis : x y z
#
# Youngs Moduli (GPa) = 48.99964 40.42883 56.18167
#
# Poissons Ratio (x) = 0.33211 0.38933
# Poissons Ratio (y) = 0.40252 0.24999
# Poissons Ratio (z) = 0.33956 0.17990
#
# Static dielectric constant tensor:
#      x y z
#    x 3.923070 0.000000 0.000000 
#    y 0.000000 3.513470 0.000000 
#    z 0.000000 0.000000 3.625490 
# 
# 
# High freq. dielectric constant tensor:
#      x y z
#    x 1.794980 0.000000 0.000000 
#    y 0.000000 1.769120 0.000000 
#    z 0.000000 0.000000 1.768120 
# 
# From -- ./inp_files/4900.got.cif
#   From: 2010.03.12/outbox.cif.g09.slc.cpg/sg25_3_cif.got.tgz:4900.got - 2010.04.14 03:30:10.
