data_PCOD8166574
_publ_section_title
;
Structure prediction by ZEFSAII (Michael W. Deem and Ramdas Pophale) SiO2 
 PCOD8166574
Probable space group: P M M 2
;
_chemical_formula_sum "Si O2"
_cell_formula_units_Z 32
_cell_length_a 9.349186
_cell_length_b 9.615240
_cell_length_c 20.899652
_cell_angle_alpha 90.000000
_cell_angle_beta 90.000000
_cell_angle_gamma 90.000000
_cell_volume 1878.767261
_symmetry_space_group_name_H-M "P M M 2"
_symmetry_group_IT_number 25
_symmetry_cell_setting 'orthorhombic'
loop_
_space_group_symop_operation_xyz
x,y,z
-x,-y,z
-x,y,z
x,-y,z
loop_
_atom_site_type_symbol
_atom_site_label
_atom_site_fract_x
_atom_site_fract_y
_atom_site_fract_z
Si Si1 0.338926 0.166673 0.144870
Si Si2 0.334734 0.337104 0.645954
Si Si3 0.330331 0.346602 0.502583
Si Si4 0.669774 0.152263 0.007639
Si Si5 0.666919 0.161547 0.386951
Si Si6 0.660362 0.165991 0.870664
Si Si7 0.832991 0.837410 0.748767
Si Si8 0.838695 0.834340 0.264106
O O1 0.500000 0.216720 0.160540
O O2 0.235119 0.225250 0.199920
O O3 0.335326 0.000000 0.142185
O O4 0.286972 0.226803 0.075004
O O5 0.500000 0.295935 0.656797
O O6 0.312224 0.500000 0.659781
O O7 0.284461 0.300252 0.573788
O O8 0.235829 0.246516 0.691195
O O9 0.500000 0.352279 0.500701
O O10 0.268515 0.500000 0.487253
O O11 0.272698 0.239406 0.449678
O O12 0.500000 0.135599 0.007895
O O13 0.712232 0.227772 0.940310
O O14 0.742052 0.000000 0.007690
O O15 0.500000 0.191115 0.375092
O O16 0.752050 0.219391 0.325731
O O17 0.696865 0.000000 0.398331
O O18 0.500000 0.218403 0.854171
O O19 0.766429 0.217591 0.815404
O O20 0.660879 0.000000 0.876114
O O21 0.000000 0.806166 0.750797
O O22 0.799869 0.000000 0.738780
O O23 0.000000 0.777388 0.267474
O O24 0.835196 0.000000 0.262583
#
# Coordination Sequence:
#
# PCOD8166574 Si02
#       8
#     4   4   4   4   4   4   4   4
#     4   8  12  19  32  49  71 102 139 175 209 248
#     4   9  18  33  52  71  89 112 145 184 225 268
#     4   8  15  29  48  68  87 105 131 173 218 254
#     4   7  10  17  31  51  73 100 137 177 213 249
#     4   9  16  26  42  63  84 108 138 168 201 247
#     4   8  13  23  39  57  79 110 146 181 217 256
#     4  10  20  31  43  64  94 124 152 182 218 262
#     4   9  16  24  33  49  77 110 140 171 207 244
#
# _framework density 17.032444999999999
#
# number of rings (size 3 to 8) (size 9 to 14) (size 15 to 20)
#    0.000    3.500    0.000    3.000    0.000    3.000 
#    0.000    2.500    0.000    6.375    0.000    0.000 
#    0.000    1.000    0.000    8.000    0.000    9.875 
#
# Total GULP energy -396440.917573 kJ/mol
# GULP energy per Si atom -12388.778674 kJ/mol
# Density = 1.699368 g / cm^3
# Si number density = 17.032445 Si / 1000 Ang^3
#
#
#
# Elastic Constant Matrix: (Units=GPa)
#
#
# Indices 1 2 3 4 5 6 
#
# 1 82.1225 27.2300 76.5215 0.0000 0.0000 0.0000
# 2 27.2300 27.6598 47.5026 0.0000 0.0000 0.0000
# 3 76.5215 47.5026 196.4282 0.0000 0.0000 0.0000
# 4 0.0000 0.0000 0.0000 -0.1095 0.0000 0.0000
# 5 0.0000 0.0000 0.0000 0.0000 5.1082 0.0000
# 6 0.0000 0.0000 0.0000 0.0000 0.0000 11.7026
#
#
#
# Elastic Compliance Matrix: (Units=1/GPa)
#
#
# Indices 1 2 3 4 5 6 
#
# 1 0.021006 -0.011333 -0.005443 0.000000 0.000000 0.000000
# 2 -0.011333 0.067949 -0.012017 0.000000 0.000000 0.000000
# 3 -0.005443 -0.012017 0.010117 0.000000 0.000000 0.000000
# 4 0.000000 0.000000 0.000000 -9.135117 0.000000 0.000000
# 5 0.000000 0.000000 0.000000 0.000000 0.195765 0.000000
# 6 0.000000 0.000000 0.000000 0.000000 0.000000 0.085451
#
#
# Mechanical properties :
#
#
# Convention : Reuss Voigt Hill
#
# Bulk Modulus (GPa) = 24.10402 67.63541 45.86972
# Shear Modulus (GPa) = -0.57581 13.67068 6.54743
#
# Velocity S-wave (km/s) = -0.58207 2.83614 1.96276
# Velocity P-wave (km/s) = 3.70551 7.10780 5.66797
#
# Compressibility (1/GPa) = 0.04148686
#
# Stress axis : x y z
#
# Youngs Moduli (GPa) = 47.60555 14.71701 98.84005
#
# Poissons Ratio (x) = 0.16678 0.53795
# Poissons Ratio (y) = 0.53949 1.18780
# Poissons Ratio (z) = 0.25910 0.17686
#
# Static dielectric constant tensor:
#      x y z
#    x 2.985650 0.000000 0.000000 
#    y 0.000000 2.691760 0.000000 
#    z 0.000000 0.000000 3.727350 
# 
# 
# High freq. dielectric constant tensor:
#      x y z
#    x 1.628950 0.000000 0.000000 
#    y 0.000000 1.590050 0.000000 
#    z 0.000000 0.000000 1.682920 
# 
# From -- ./inp_files/6318.got.cif
#   From: 2010.03.12/outbox.cif.g09.slc.cpg/sg25_4_cif.got.tgz:6318.got - 2010.04.14 03:30:10.
