data_PCOD8166853
_publ_section_title
;
Structure prediction by ZEFSAII (Michael W. Deem and Ramdas Pophale) SiO2 
 PCOD8166853
Probable space group: P M M 2
;
_chemical_formula_sum "Si O2"
_cell_formula_units_Z 20
_cell_length_a 14.334214
_cell_length_b 8.972206
_cell_length_c 7.769869
_cell_angle_alpha 90.000000
_cell_angle_beta 90.000000
_cell_angle_gamma 90.000000
_cell_volume 999.279129
_symmetry_space_group_name_H-M "P M M 2"
_symmetry_group_IT_number 25
_symmetry_cell_setting 'orthorhombic'
loop_
_space_group_symop_operation_xyz
x,y,z
-x,-y,z
-x,y,z
x,-y,z
loop_
_atom_site_type_symbol
_atom_site_label
_atom_site_fract_x
_atom_site_fract_y
_atom_site_fract_z
Si Si1 0.398867 0.676872 0.018810
Si Si2 0.207443 0.324320 0.168872
Si Si3 0.891284 0.327176 0.818454
Si Si4 0.394603 0.673349 0.627869
Si Si5 0.216923 0.175756 0.511225
O O1 0.500000 0.735179 0.087766
O O2 0.399529 0.500000 0.016809
O O3 0.313353 0.733657 0.134178
O O4 0.384234 0.730381 0.823292
O O5 0.204048 0.500000 0.203129
O O6 0.169462 0.240378 0.337736
O O7 0.142911 0.280081 0.007933
O O8 0.867940 0.500000 0.785518
O O9 0.838394 0.231700 0.676883
O O10 0.000000 0.292922 0.804734
O O11 0.500000 0.699646 0.561135
O O12 0.367663 0.500000 0.610903
O O13 0.323856 0.768441 0.513073
O O14 0.212886 0.000000 0.506244
#
# Coordination Sequence:
#
# PCOD8166853 Si02
#       5
#     4   4   4   4   4
#     4   8  14  28  55  87 114 144 190 247 295 335
#     4  10  20  37  62  89 118 152 201 252 294 346
#     4  10  22  43  69  91 112 146 200 261 308 348
#     4   9  17  34  61  88 116 156 207 254 291 336
#     4  12  25  38  57  89 131 166 193 233 296 370
#
# _framework density 20.014427999999999
#
# number of rings (size 3 to 8) (size 9 to 14) (size 15 to 20)
#    0.000    2.200    2.000    3.000    0.000    3.200 
#    0.000    4.000    0.000    0.000    0.000    0.000 
#    0.000    0.000    0.000    0.000    0.000    0.000 
#
# Total GULP energy -247965.111018 kJ/mol
# GULP energy per Si atom -12398.255551 kJ/mol
# Density = 1.996887 g / cm^3
# Si number density = 20.014428 Si / 1000 Ang^3
#
#
#
# Elastic Constant Matrix: (Units=GPa)
#
#
# Indices 1 2 3 4 5 6 
#
# 1 96.8541 48.4283 45.2807 0.0000 0.0000 0.0000
# 2 48.4283 92.0705 63.9830 0.0000 0.0000 0.0000
# 3 45.2807 63.9830 126.1017 0.0000 0.0000 0.0000
# 4 0.0000 0.0000 0.0000 10.7784 0.0000 0.0000
# 5 0.0000 0.0000 0.0000 0.0000 10.6779 0.0000
# 6 0.0000 0.0000 0.0000 0.0000 0.0000 12.5281
#
#
#
# Elastic Compliance Matrix: (Units=1/GPa)
#
#
# Indices 1 2 3 4 5 6 
#
# 1 0.014342 -0.006124 -0.002042 0.000000 0.000000 0.000000
# 2 -0.006124 0.019392 -0.007640 0.000000 0.000000 0.000000
# 3 -0.002042 -0.007640 0.012540 0.000000 0.000000 0.000000
# 4 0.000000 0.000000 0.000000 0.092778 0.000000 0.000000
# 5 0.000000 0.000000 0.000000 0.000000 0.093652 0.000000
# 6 0.000000 0.000000 0.000000 0.000000 0.000000 0.079820
#
#
# Mechanical properties :
#
#
# Convention : Reuss Voigt Hill
#
# Bulk Modulus (GPa) = 68.21283 70.04559 69.12921
# Shear Modulus (GPa) = 14.32561 17.28583 15.80572
#
# Velocity S-wave (km/s) = 2.67828 2.94201 2.81324
# Velocity P-wave (km/s) = 6.61211 6.82745 6.72065
#
# Compressibility (1/GPa) = 0.01466000
#
# Stress axis : x y z
#
# Youngs Moduli (GPa) = 69.72558 51.56750 79.74410
#
# Poissons Ratio (x) = 0.31582 0.16287
# Poissons Ratio (y) = 0.42702 0.60926
# Poissons Ratio (z) = 0.14241 0.39399
#
# Static dielectric constant tensor:
#      x y z
#    x 3.959320 0.000000 0.000000 
#    y 0.000000 3.198180 0.000000 
#    z 0.000000 0.000000 3.669550 
# 
# 
# High freq. dielectric constant tensor:
#      x y z
#    x 1.785830 0.000000 0.000000 
#    y 0.000000 1.733920 0.000000 
#    z 0.000000 0.000000 1.786110 
# 
# From -- ./inp_files/2984.got.cif
#   From: 2010.03.12/outbox.cif.g09.slc.cpg/sg25_2_cif.got.tgz:2984.got - 2010.04.14 03:30:10.
