data_PCOD8166503
_publ_section_title
;
Structure prediction by ZEFSAII (Michael W. Deem and Ramdas Pophale) SiO2 
 PCOD8166503
Probable space group: P M M 2
;
_chemical_formula_sum "Si O2"
_cell_formula_units_Z 32
_cell_length_a 16.203627
_cell_length_b 9.197961
_cell_length_c 11.652995
_cell_angle_alpha 90.000000
_cell_angle_beta 90.000000
_cell_angle_gamma 90.000000
_cell_volume 1736.766211
_symmetry_space_group_name_H-M "P M M 2"
_symmetry_group_IT_number 25
_symmetry_cell_setting 'orthorhombic'
loop_
_space_group_symop_operation_xyz
x,y,z
-x,-y,z
-x,y,z
x,-y,z
loop_
_atom_site_type_symbol
_atom_site_label
_atom_site_fract_x
_atom_site_fract_y
_atom_site_fract_z
Si Si1 0.347838 0.329798 0.279110
Si Si2 0.591991 0.658085 0.523042
Si Si3 0.723491 0.829470 0.638384
Si Si4 0.905376 0.829759 0.029943
Si Si5 0.202290 0.827828 0.402395
Si Si6 0.254300 0.828212 0.890630
Si Si7 0.405013 0.170741 0.052924
Si Si8 0.904450 0.659664 0.255980
O O1 0.333463 0.500000 0.253377
O O2 0.407075 0.303616 0.388182
O O3 0.262508 0.250323 0.310854
O O4 0.390767 0.256292 0.170534
O O5 0.500000 0.651958 0.567709
O O6 0.635087 0.500000 0.540999
O O7 0.633173 0.779211 0.601612
O O8 0.784141 0.780871 0.534846
O O9 0.745489 0.760549 0.761874
O O10 0.723010 0.000000 0.650186
O O11 0.835650 0.782227 0.938556
O O12 0.000000 0.791890 0.989580
O O13 0.899326 0.000000 0.057983
O O14 0.877662 0.742540 0.141414
O O15 0.114687 0.761617 0.366077
O O16 0.208146 0.000000 0.386736
O O17 0.260655 0.000000 0.884965
O O18 0.335090 0.773259 0.961919
O O19 0.500000 0.201064 0.010331
O O20 0.392912 0.000000 0.076394
O O21 0.861330 0.500000 0.261870
O O22 0.000000 0.634744 0.255615
#
# Coordination Sequence:
#
# PCOD8166503 Si02
#       8
#     4   4   4   4   4   4   4   4
#     4  10  19  32  51  73  99 131 165 205 256 308
#     4   9  18  32  49  70  97 128 162 204 253 300
#     4   9  19  34  51  71  95 127 168 209 246 290
#     4   9  17  31  54  80 103 131 167 207 253 303
#     4  10  19  32  51  75 102 131 165 206 251 299
#     4   9  18  34  52  71  99 132 168 211 254 297
#     4  10  20  32  48  72 102 136 171 208 253 305
#     4  10  20  33  51  77 107 134 161 198 246 302
#
# _framework density 18.425049000000001
#
# number of rings (size 3 to 8) (size 9 to 14) (size 15 to 20)
#    0.000    2.500    0.000    2.250    0.000    4.250 
#    0.000    3.125    0.000    2.250    0.000    1.750 
#    0.000    0.000    0.000    0.000    0.000    0.000 
#
# Total GULP energy -396484.095446 kJ/mol
# GULP energy per Si atom -12390.127983 kJ/mol
# Density = 1.838311 g / cm^3
# Si number density = 18.425049 Si / 1000 Ang^3
#
#
#
# Elastic Constant Matrix: (Units=GPa)
#
#
# Indices 1 2 3 4 5 6 
#
# 1 71.8186 23.5517 71.2088 0.0000 0.0000 0.0000
# 2 23.5517 48.1344 44.3686 0.0000 0.0000 0.0000
# 3 71.2088 44.3686 139.5488 0.0000 0.0000 0.0000
# 4 0.0000 0.0000 0.0000 14.3054 0.0000 0.0000
# 5 0.0000 0.0000 0.0000 0.0000 12.8313 0.0000
# 6 0.0000 0.0000 0.0000 0.0000 0.0000 19.6926
#
#
#
# Elastic Compliance Matrix: (Units=1/GPa)
#
#
# Indices 1 2 3 4 5 6 
#
# 1 0.028202 -0.000755 -0.014151 0.000000 0.000000 0.000000
# 2 -0.000755 0.029408 -0.008965 0.000000 0.000000 0.000000
# 3 -0.014151 -0.008965 0.017237 0.000000 0.000000 0.000000
# 4 0.000000 0.000000 0.000000 0.069903 0.000000 0.000000
# 5 0.000000 0.000000 0.000000 0.000000 0.077934 0.000000
# 6 0.000000 0.000000 0.000000 0.000000 0.000000 0.050780
#
#
# Mechanical properties :
#
#
# Convention : Reuss Voigt Hill
#
# Bulk Modulus (GPa) = 36.89258 59.75110 48.32184
# Shear Modulus (GPa) = 15.14038 17.39075 16.26556
#
# Velocity S-wave (km/s) = 2.86969 3.07557 2.97441
# Velocity P-wave (km/s) = 5.57196 6.71654 6.17084
#
# Compressibility (1/GPa) = 0.02710572
#
# Stress axis : x y z
#
# Youngs Moduli (GPa) = 35.45793 34.00436 58.01436
#
# Poissons Ratio (x) = 0.02568 0.82096
# Poissons Ratio (y) = 0.02678 0.52008
# Poissons Ratio (z) = 0.50176 0.30484
#
# Static dielectric constant tensor:
#      x y z
#    x 3.495110 0.000000 0.000000 
#    y 0.000000 3.618900 0.000000 
#    z 0.000000 0.000000 3.590960 
# 
# 
# High freq. dielectric constant tensor:
#      x y z
#    x 1.713300 0.000000 0.000000 
#    y 0.000000 1.706260 0.000000 
#    z 0.000000 0.000000 1.704690 
# 
# From -- ./inp_files/4160.got.cif
#   From: 2010.03.12/outbox.cif.g09.slc.cpg/sg25_3_cif.got.tgz:4160.got - 2010.04.14 03:30:10.
