data_PCOD8166689
_publ_section_title
;
Structure prediction by ZEFSAII (Michael W. Deem and Ramdas Pophale) SiO2 
 PCOD8166689
Probable space group: P M M 2
;
_chemical_formula_sum "Si O2"
_cell_formula_units_Z 24
_cell_length_a 8.980882
_cell_length_b 9.378883
_cell_length_c 15.547962
_cell_angle_alpha 90.000000
_cell_angle_beta 90.000000
_cell_angle_gamma 90.000000
_cell_volume 1309.614814
_symmetry_space_group_name_H-M "P M M 2"
_symmetry_group_IT_number 25
_symmetry_cell_setting 'orthorhombic'
loop_
_space_group_symop_operation_xyz
x,y,z
-x,-y,z
-x,y,z
x,-y,z
loop_
_atom_site_type_symbol
_atom_site_label
_atom_site_fract_x
_atom_site_fract_y
_atom_site_fract_z
Si Si1 0.171214 0.665829 0.559240
Si Si2 0.324248 0.336902 0.384106
Si Si3 0.823149 0.160160 0.719338
Si Si4 0.177303 0.339276 0.067719
Si Si5 0.822685 0.839315 0.908832
Si Si6 0.175118 0.834378 0.233342
O O1 0.187174 0.500000 0.577152
O O2 0.264485 0.713565 0.476493
O O3 0.241026 0.741898 0.643242
O O4 0.000000 0.710117 0.543536
O O5 0.500000 0.322844 0.383648
O O6 0.273813 0.500000 0.365182
O O7 0.257142 0.231404 0.314528
O O8 0.767999 0.211389 0.813989
O O9 0.000000 0.167431 0.717975
O O10 0.767339 0.000000 0.702713
O O11 0.240164 0.500000 0.074900
O O12 0.232865 0.247668 0.148819
O O13 0.000000 0.340792 0.064905
O O14 0.242202 0.267031 0.981015
O O15 0.000000 0.838491 0.912450
O O16 0.765969 0.000000 0.927375
O O17 0.000000 0.813076 0.246162
O O18 0.217126 0.000000 0.224042
#
# Coordination Sequence:
#
# PCOD8166689 Si02
#       6
#     4   4   4   4   4   4
#     4   9  17  29  46  68  93 121 154 193 235 279
#     4  10  21  36  52  70  94 125 160 199 244 291
#     4   8  14  24  39  61  90 123 155 187 227 275
#     4   9  16  25  40  64  93 124 156 190 230 278
#     4   8  13  22  36  57  89 124 153 185 228 275
#     4  10  20  33  50  72  97 126 160 198 240 286
#
# _framework density 18.325998999999999
#
# number of rings (size 3 to 8) (size 9 to 14) (size 15 to 20)
#    0.000    3.000    0.000    2.500    0.000    5.333 
#    0.000    5.000    0.000    0.000    0.000    1.167 
#    0.000    4.000    0.000    0.000    0.000    0.000 
#
# Total GULP energy -297510.275414 kJ/mol
# GULP energy per Si atom -12396.261476 kJ/mol
# Density = 1.828429 g / cm^3
# Si number density = 18.325999 Si / 1000 Ang^3
#
#
#
# Elastic Constant Matrix: (Units=GPa)
#
#
# Indices 1 2 3 4 5 6 
#
# 1 21.9049 29.0627 31.1878 0.0000 0.0000 0.0000
# 2 29.0627 124.0507 105.7865 0.0000 0.0000 0.0000
# 3 31.1878 105.7865 189.7167 0.0000 0.0000 0.0000
# 4 0.0000 0.0000 0.0000 44.5733 0.0000 0.0000
# 5 0.0000 0.0000 0.0000 0.0000 -2.6457 0.0000
# 6 0.0000 0.0000 0.0000 0.0000 0.0000 12.3001
#
#
#
# Elastic Compliance Matrix: (Units=1/GPa)
#
#
# Indices 1 2 3 4 5 6 
#
# 1 0.068102 -0.012217 -0.004383 0.000000 0.000000 0.000000
# 2 -0.012217 0.017561 -0.007784 0.000000 0.000000 0.000000
# 3 -0.004383 -0.007784 0.010332 0.000000 0.000000 0.000000
# 4 0.000000 0.000000 0.000000 0.022435 0.000000 0.000000
# 5 0.000000 0.000000 0.000000 0.000000 -0.377969 0.000000
# 6 0.000000 0.000000 0.000000 0.000000 0.000000 0.081300
#
#
# Mechanical properties :
#
#
# Convention : Reuss Voigt Hill
#
# Bulk Modulus (GPa) = 21.17446 74.19402 47.68424
# Shear Modulus (GPa) = -43.96403 22.15455 -10.90474
#
# Velocity S-wave (km/s) = -4.90327 3.48072 -2.44199
# Velocity P-wave (km/s) = 4.52511 7.53176 4.25739
#
# Compressibility (1/GPa) = 0.04722670
#
# Stress axis : x y z
#
# Youngs Moduli (GPa) = 14.68394 56.94347 96.78850
#
# Poissons Ratio (x) = 0.69569 0.42422
# Poissons Ratio (y) = 0.17940 0.75338
# Poissons Ratio (z) = 0.06436 0.44324
#
# Static dielectric constant tensor:
#      x y z
#    x 2.790050 0.000000 0.000000 
#    y 0.000000 3.527780 0.000000 
#    z 0.000000 0.000000 3.759980 
# 
# 
# High freq. dielectric constant tensor:
#      x y z
#    x 1.646100 0.000000 0.000000 
#    y 0.000000 1.711390 0.000000 
#    z 0.000000 0.000000 1.729410 
# 
# From -- ./inp_files/5277.got.cif
#   From: 2010.03.12/outbox.cif.g09.slc.cpg/sg25_3_cif.got.tgz:5277.got - 2010.04.14 03:30:10.
