data_PCOD8166652
_publ_section_title
;
Structure prediction by ZEFSAII (Michael W. Deem and Ramdas Pophale) SiO2 
 PCOD8166652
Probable space group: P M M 2
;
_chemical_formula_sum "Si O2"
_cell_formula_units_Z 28
_cell_length_a 9.334903
_cell_length_b 9.169472
_cell_length_c 17.852425
_cell_angle_alpha 90.000000
_cell_angle_beta 90.000000
_cell_angle_gamma 90.000000
_cell_volume 1528.098521
_symmetry_space_group_name_H-M "P M M 2"
_symmetry_group_IT_number 25
_symmetry_cell_setting 'orthorhombic'
loop_
_space_group_symop_operation_xyz
x,y,z
-x,-y,z
-x,y,z
x,-y,z
loop_
_atom_site_type_symbol
_atom_site_label
_atom_site_fract_x
_atom_site_fract_y
_atom_site_fract_z
Si Si1 0.336196 0.332530 0.473350
Si Si2 0.659636 0.826318 0.735926
Si Si3 0.838065 0.173047 0.596392
Si Si4 0.664803 0.667892 0.300062
Si Si5 0.331879 0.330412 0.044445
Si Si6 0.832968 0.171141 0.176061
Si Si7 0.329794 0.162151 0.899490
O O1 0.500000 0.290130 0.490000
O O2 0.308044 0.500000 0.494490
O O3 0.234748 0.230527 0.521475
O O4 0.300217 0.305174 0.386733
O O5 0.500000 0.762597 0.723253
O O6 0.760169 0.763762 0.670378
O O7 0.721791 0.779888 0.817732
O O8 0.654017 0.000000 0.733399
O O9 0.000000 0.229583 0.598635
O O10 0.829686 0.000000 0.594854
O O11 0.500000 0.707328 0.282330
O O12 0.693361 0.500000 0.278100
O O13 0.769019 0.771627 0.253821
O O14 0.500000 0.299863 0.055959
O O15 0.296012 0.500000 0.048703
O O16 0.245908 0.248264 0.107994
O O17 0.277727 0.271488 0.964066
O O18 0.000000 0.209771 0.173176
O O19 0.805223 0.000000 0.170319
O O20 0.500000 0.153746 0.896634
O O21 0.268005 0.000000 0.916052
#
# Coordination Sequence:
#
# PCOD8166652 Si02
#       7
#     4   4   4   4   4   4   4
#     4   9  19  36  56  77 101 131 169 211 254 301
#     4   8  14  27  48  71  96 131 174 215 254 297
#     4  10  20  32  48  74 107 140 173 209 251 300
#     4   9  19  37  59  80 101 128 166 210 255 304
#     4  10  20  34  54  79 105 134 169 208 252 303
#     4  11  24  38  52  75 106 137 170 207 248 297
#     4   8  14  27  49  74  98 128 169 215 258 298
#
# _framework density 18.323426000000001
#
# number of rings (size 3 to 8) (size 9 to 14) (size 15 to 20)
#    0.000    2.714    0.000    3.429    0.000    6.286 
#    0.000    5.714    0.000    5.143    0.000    0.000 
#    0.000    0.000    0.000    0.000    0.000    0.000 
#
# Total GULP energy -347162.796103 kJ/mol
# GULP energy per Si atom -12398.671289 kJ/mol
# Density = 1.828172 g / cm^3
# Si number density = 18.323426 Si / 1000 Ang^3
#
#
#
# Elastic Constant Matrix: (Units=GPa)
#
#
# Indices 1 2 3 4 5 6 
#
# 1 95.4177 48.9792 70.0770 0.0000 0.0000 0.0000
# 2 48.9792 67.8228 53.9823 0.0000 0.0000 0.0000
# 3 70.0770 53.9823 134.7640 0.0000 0.0000 0.0000
# 4 0.0000 0.0000 0.0000 5.5132 0.0000 0.0000
# 5 0.0000 0.0000 0.0000 0.0000 1.1440 0.0000
# 6 0.0000 0.0000 0.0000 0.0000 0.0000 23.9676
#
#
#
# Elastic Compliance Matrix: (Units=1/GPa)
#
#
# Indices 1 2 3 4 5 6 
#
# 1 0.020196 -0.009140 -0.006841 0.000000 0.000000 0.000000
# 2 -0.009140 0.025782 -0.005575 0.000000 0.000000 0.000000
# 3 -0.006841 -0.005575 0.013210 0.000000 0.000000 0.000000
# 4 0.000000 0.000000 0.000000 0.181382 0.000000 0.000000
# 5 0.000000 0.000000 0.000000 0.000000 0.874096 0.000000
# 6 0.000000 0.000000 0.000000 0.000000 0.000000 0.041723
#
#
# Mechanical properties :
#
#
# Convention : Reuss Voigt Hill
#
# Bulk Modulus (GPa) = 62.19786 71.56461 66.88123
# Shear Modulus (GPa) = 4.14986 14.45604 9.30295
#
# Velocity S-wave (km/s) = 1.50655 2.81185 2.25568
# Velocity P-wave (km/s) = 6.08641 7.04863 6.58512
#
# Compressibility (1/GPa) = 0.01607772
#
# Stress axis : x y z
#
# Youngs Moduli (GPa) = 49.51520 38.78680 75.69755
#
# Poissons Ratio (x) = 0.35452 0.51781
# Poissons Ratio (y) = 0.45257 0.42199
# Poissons Ratio (z) = 0.33871 0.21622
#
# Static dielectric constant tensor:
#      x y z
#    x 3.298430 0.000000 0.000000 
#    y 0.000000 3.310000 0.000000 
#    z 0.000000 0.000000 3.646450 
# 
# 
# High freq. dielectric constant tensor:
#      x y z
#    x 1.690960 0.000000 0.000000 
#    y 0.000000 1.692050 0.000000 
#    z 0.000000 0.000000 1.727890 
# 
# From -- ./inp_files/6064.got.cif
#   From: 2010.03.12/outbox.cif.g09.slc.cpg/sg25_4_cif.got.tgz:6064.got - 2010.04.14 03:30:10.
