data_PCOD8166203
_publ_section_title
;
Structure prediction by ZEFSAII (Michael W. Deem and Ramdas Pophale) SiO2 
 PCOD8166203
Probable space group: I 21 21 21
;
_chemical_formula_sum "Si O2"
_cell_formula_units_Z 36
_cell_length_a 24.696236
_cell_length_b 12.823409
_cell_length_c 5.228022
_cell_angle_alpha 90.000000
_cell_angle_beta 90.000000
_cell_angle_gamma 90.000000
_cell_volume 1655.661947
_symmetry_space_group_name_H-M "I 21 21 21"
_symmetry_group_IT_number 24
_symmetry_cell_setting 'orthorhombic'
loop_
_space_group_symop_operation_xyz
x,y,z
-x,1/2-y,z
x,-y,1/2-z
1/2-x,y,-z
1/2+x,1/2+y,1/2+z
1/2-x,-y,1/2+z
1/2+x,1/2-y,-z
-x,1/2+y,1/2-z
loop_
_atom_site_type_symbol
_atom_site_label
_atom_site_fract_x
_atom_site_fract_y
_atom_site_fract_z
Si Si1 0.922258 0.117406 0.298269
Si Si2 0.117886 0.000000 0.250000
Si Si3 0.307843 0.108621 0.096557
Si Si4 0.102874 0.740376 0.717565
Si Si5 0.527780 0.591626 0.081067
O O1 0.893550 0.155617 0.557662
O O2 0.987398 0.122996 0.351242
O O3 0.902952 0.000000 0.250000
O O4 0.905281 0.187834 0.058575
O O5 0.082943 0.042609 0.480438
O O6 0.155401 0.906710 0.346579
O O7 0.340279 0.197572 0.249843
O O8 0.300607 0.000000 0.250000
O O9 0.250000 0.150440 0.000000
O O10 0.048239 0.809751 0.754895
O O11 0.498937 0.500000 0.250000
#
# Coordination Sequence:
#
# PCOD8166203 Si02
#       5
#     8   4   8   8   8
#     4  12  28  45  65  96 140 193 239 283 326 394
#     4  12  20  40  66 102 152 172 216 260 350 426
#     4  12  25  42  71 106 138 180 215 287 358 428
#     4  12  26  45  68 101 138 183 238 281 340 407
#     4  12  24  39  69 101 147 181 223 272 350 428
#
# _framework density 21.743569000000001
#
# number of rings (size 3 to 8) (size 9 to 14) (size 15 to 20)
#    0.000    0.000    6.667    4.000    0.000    5.333 
#    0.000    0.000    0.000    2.667    0.000    1.556 
#    0.000    0.000    0.000    0.000    0.000    0.000 
#
# Total GULP energy -223145.225284 kJ/mol
# GULP energy per Si atom -12396.956960 kJ/mol
# Density = 2.169408 g / cm^3
# Si number density = 21.743569 Si / 1000 Ang^3
#
#
#
# Elastic Constant Matrix: (Units=GPa)
#
#
# Indices 1 2 3 4 5 6 
#
# 1 129.2517 46.5496 38.4914 0.0000 0.0000 0.0000
# 2 46.5496 117.8645 47.0346 0.0000 0.0000 0.0000
# 3 38.4914 47.0346 124.5468 0.0000 0.0000 0.0000
# 4 0.0000 0.0000 0.0000 50.9828 0.0000 0.0000
# 5 0.0000 0.0000 0.0000 0.0000 -2.1452 0.0000
# 6 0.0000 0.0000 0.0000 0.0000 0.0000 24.9821
#
#
#
# Elastic Compliance Matrix: (Units=1/GPa)
#
#
# Indices 1 2 3 4 5 6 
#
# 1 0.009336 -0.002986 -0.001758 0.000000 0.000000 0.000000
# 2 -0.002986 0.010945 -0.003210 0.000000 0.000000 0.000000
# 3 -0.001758 -0.003210 0.009785 0.000000 0.000000 0.000000
# 4 0.000000 0.000000 0.000000 0.019614 0.000000 0.000000
# 5 0.000000 0.000000 0.000000 0.000000 -0.466152 0.000000
# 6 0.000000 0.000000 0.000000 0.000000 0.000000 0.040029
#
#
# Mechanical properties :
#
#
# Convention : Reuss Voigt Hill
#
# Bulk Modulus (GPa) = 70.63435 70.64601 70.64018
# Shear Modulus (GPa) = -14.05216 30.73643 8.34213
#
# Velocity S-wave (km/s) = -2.54494 3.76385 1.96085
# Velocity P-wave (km/s) = 4.89082 7.17285 6.13881
#
# Compressibility (1/GPa) = 0.01415742
#
# Stress axis : x y z
#
# Youngs Moduli (GPa) = 107.11763 91.36908 102.19982
#
# Poissons Ratio (x) = 0.27279 0.17963
# Poissons Ratio (y) = 0.31981 0.32811
# Poissons Ratio (z) = 0.18828 0.29334
#
# Static dielectric constant tensor:
#      x y z
#    x 3.784650 0.000000 0.000000 
#    y 0.000000 4.263690 0.000000 
#    z 0.000000 0.000000 4.091520 
# 
# 
# High freq. dielectric constant tensor:
#      x y z
#    x 1.826670 0.000000 0.000000 
#    y 0.000000 1.852770 0.000000 
#    z 0.000000 0.000000 1.872990 
# 
# From -- ./inp_files/6172.got.cif
#   From: 2010.03.12/outbox.cif.g09.slc.cpg/sg24_4_cif.got.tgz:6172.got - 2010.04.14 03:06:53.
