data_PCOD8166158
_publ_section_title
;
Structure prediction by ZEFSAII (Michael W. Deem and Ramdas Pophale) SiO2 
 PCOD8166158
Probable space group: I 21 21 21
;
_chemical_formula_sum "Si O2"
_cell_formula_units_Z 40
_cell_length_a 12.601492
_cell_length_b 10.267475
_cell_length_c 14.729162
_cell_angle_alpha 90.000000
_cell_angle_beta 90.000000
_cell_angle_gamma 90.000000
_cell_volume 1905.740050
_symmetry_space_group_name_H-M "I 21 21 21"
_symmetry_group_IT_number 24
_symmetry_cell_setting 'orthorhombic'
loop_
_space_group_symop_operation_xyz
x,y,z
-x,1/2-y,z
x,-y,1/2-z
1/2-x,y,-z
1/2+x,1/2+y,1/2+z
1/2-x,-y,1/2+z
1/2+x,1/2-y,-z
-x,1/2+y,1/2-z
loop_
_atom_site_type_symbol
_atom_site_label
_atom_site_fract_x
_atom_site_fract_y
_atom_site_fract_z
Si Si1 0.363310 0.431561 0.032477
Si Si2 0.750000 0.573030 0.000000
Si Si3 0.381858 0.709235 0.092531
Si Si4 0.000000 0.250000 0.091421
Si Si5 0.189558 0.905987 0.334920
Si Si6 0.876839 0.782740 0.708266
O O1 0.370503 0.588201 0.023292
O O2 0.369997 0.402330 0.139166
O O3 0.250000 0.378778 0.000000
O O4 0.455079 0.363834 0.973707
O O5 0.668646 0.662204 0.052793
O O6 0.812802 0.485170 0.071510
O O7 0.500000 0.750000 0.109221
O O8 0.333483 0.676234 0.192173
O O9 0.907456 0.303485 0.157375
O O10 0.304297 0.837321 0.326089
O O11 0.168010 0.000000 0.250000
O O12 0.000000 0.750000 0.711790
#
# Coordination Sequence:
#
# PCOD8166158 Si02
#       6
#     8   4   8   4   8   8
#     4  12  23  44  70  99 137 178 228 285 341 413
#     4  12  24  46  70  98 144 182 228 290 346 420
#     4  11  25  43  68 102 135 176 228 284 350 405
#     4  12  26  48  72 102 136 188 240 282 348 424
#     4  12  26  48  71 102 142 186 236 285 353 418
#     4  11  24  43  71 102 135 176 229 288 342 407
#
# _framework density 20.98922
#
# number of rings (size 3 to 8) (size 9 to 14) (size 15 to 20)
#    0.000    0.400    6.000    3.000    2.800    0.000 
#    9.000    0.000    0.000    0.000    0.000    0.000 
#    0.000    0.000    0.000    0.000    0.000    0.000 
#
# Total GULP energy -248008.874861 kJ/mol
# GULP energy per Si atom -12400.443743 kJ/mol
# Density = 2.094145 g / cm^3
# Si number density = 20.989220 Si / 1000 Ang^3
#
#
#
# Elastic Constant Matrix: (Units=GPa)
#
#
# Indices 1 2 3 4 5 6 
#
# 1 119.6841 45.1406 45.9825 0.0000 0.0000 0.0000
# 2 45.1406 91.6723 24.1271 0.0000 0.0000 0.0000
# 3 45.9825 24.1271 107.0318 0.0000 0.0000 0.0000
# 4 0.0000 0.0000 0.0000 26.6689 0.0000 0.0000
# 5 0.0000 0.0000 0.0000 0.0000 18.4736 0.0000
# 6 0.0000 0.0000 0.0000 0.0000 0.0000 20.9773
#
#
#
# Elastic Compliance Matrix: (Units=1/GPa)
#
#
# Indices 1 2 3 4 5 6 
#
# 1 0.011641 -0.004694 -0.003943 0.000000 0.000000 0.000000
# 2 -0.004694 0.013489 -0.001024 0.000000 0.000000 0.000000
# 3 -0.003943 -0.001024 0.011268 0.000000 0.000000 0.000000
# 4 0.000000 0.000000 0.000000 0.037497 0.000000 0.000000
# 5 0.000000 0.000000 0.000000 0.000000 0.054131 0.000000
# 6 0.000000 0.000000 0.000000 0.000000 0.000000 0.047671
#
#
# Mechanical properties :
#
#
# Convention : Reuss Voigt Hill
#
# Bulk Modulus (GPa) = 58.56329 60.98762 59.77545
# Shear Modulus (GPa) = 24.91148 26.76651 25.83899
#
# Velocity S-wave (km/s) = 3.44884 3.57494 3.51245
# Velocity P-wave (km/s) = 6.61978 6.79411 6.70751
#
# Compressibility (1/GPa) = 0.01707554
#
# Stress axis : x y z
#
# Youngs Moduli (GPa) = 85.90557 74.13186 88.74885
#
# Poissons Ratio (x) = 0.34800 0.34992
# Poissons Ratio (y) = 0.40327 0.09088
# Poissons Ratio (z) = 0.33871 0.07591
#
# Static dielectric constant tensor:
#      x y z
#    x 3.772720 0.000000 0.000000 
#    y 0.000000 3.760420 0.000000 
#    z 0.000000 0.000000 4.134580 
# 
# 
# High freq. dielectric constant tensor:
#      x y z
#    x 1.826010 0.000000 0.000000 
#    y 0.000000 1.827340 0.000000 
#    z 0.000000 0.000000 1.830970 
# 
# From -- ./inp_files/19476.got.cif
#   From: 2010.03.12/outbox.cif.g09.slc.cpg/sg24_10_cif.got.tgz:19476.got - 2010.04.14 03:06:53.
