data_PCOD8166105
_publ_section_title
;
Structure prediction by ZEFSAII (Michael W. Deem and Ramdas Pophale) SiO2 
 PCOD8166105
Probable space group: I 21 21 21
;
_chemical_formula_sum "Si O2"
_cell_formula_units_Z 40
_cell_length_a 12.853372
_cell_length_b 9.257803
_cell_length_c 15.298955
_cell_angle_alpha 90.000000
_cell_angle_beta 90.000000
_cell_angle_gamma 90.000000
_cell_volume 1820.483635
_symmetry_space_group_name_H-M "I 21 21 21"
_symmetry_group_IT_number 24
_symmetry_cell_setting 'orthorhombic'
loop_
_space_group_symop_operation_xyz
x,y,z
-x,1/2-y,z
x,-y,1/2-z
1/2-x,y,-z
1/2+x,1/2+y,1/2+z
1/2-x,-y,1/2+z
1/2+x,1/2-y,-z
-x,1/2+y,1/2-z
loop_
_atom_site_type_symbol
_atom_site_label
_atom_site_fract_x
_atom_site_fract_y
_atom_site_fract_z
Si Si1 0.151030 0.656718 0.451342
Si Si2 0.066545 0.104345 0.669150
Si Si3 0.098063 0.337778 0.228644
Si Si4 0.690045 0.396042 0.668623
Si Si5 0.434975 0.041192 0.985214
O O1 0.250000 0.586118 0.500000
O O2 0.183458 0.677145 0.349388
O O3 0.121037 0.804908 0.500733
O O4 0.050615 0.552582 0.445001
O O5 0.188555 0.135286 0.664048
O O6 0.000000 0.250000 0.680170
O O7 0.037936 0.000000 0.750000
O O8 0.040887 0.029721 0.577862
O O9 0.066081 0.500000 0.250000
O O10 0.139326 0.260893 0.315707
O O11 0.000000 0.250000 0.190519
O O12 0.661936 0.500000 0.750000
O O13 0.641627 0.451442 0.577890
#
# Coordination Sequence:
#
# PCOD8166105 Si02
#       5
#     8   8   8   8   8
#     4  11  23  39  70 104 137 182 227 282 353 417
#     4  11  28  46  70  99 138 187 234 287 347 420
#     4  12  24  42  68 104 139 177 229 292 349 418
#     4  11  22  45  73  98 137 183 231 286 354 412
#     4  11  23  45  69  99 140 180 231 285 348 423
#
# _framework density 21.972183000000001
#
# number of rings (size 3 to 8) (size 9 to 14) (size 15 to 20)
#    0.000    0.800    4.000    3.600    5.600    4.800 
#    0.000    0.000    0.000    0.000    0.000    0.000 
#    0.000    0.000    0.000    0.000    0.000    0.000 
#
# Total GULP energy -247936.569381 kJ/mol
# GULP energy per Si atom -12396.828469 kJ/mol
# Density = 2.192217 g / cm^3
# Si number density = 21.972183 Si / 1000 Ang^3
#
#
#
# Elastic Constant Matrix: (Units=GPa)
#
#
# Indices 1 2 3 4 5 6 
#
# 1 130.6673 52.7028 46.8561 0.0000 0.0000 0.0000
# 2 52.7028 135.7557 60.0795 0.0000 0.0000 0.0000
# 3 46.8561 60.0795 147.3229 0.0000 0.0000 0.0000
# 4 0.0000 0.0000 0.0000 31.9495 0.0000 0.0000
# 5 0.0000 0.0000 0.0000 0.0000 28.9264 0.0000
# 6 0.0000 0.0000 0.0000 0.0000 0.0000 25.5187
#
#
#
# Elastic Compliance Matrix: (Units=1/GPa)
#
#
# Indices 1 2 3 4 5 6 
#
# 1 0.009468 -0.002859 -0.001845 0.000000 0.000000 0.000000
# 2 -0.002859 0.009852 -0.003108 0.000000 0.000000 0.000000
# 3 -0.001845 -0.003108 0.008642 0.000000 0.000000 0.000000
# 4 0.000000 0.000000 0.000000 0.031299 0.000000 0.000000
# 5 0.000000 0.000000 0.000000 0.000000 0.034570 0.000000
# 6 0.000000 0.000000 0.000000 0.000000 0.000000 0.039187
#
#
# Mechanical properties :
#
#
# Convention : Reuss Voigt Hill
#
# Bulk Modulus (GPa) = 81.05922 81.44696 81.25309
# Shear Modulus (GPa) = 32.73191 34.21941 33.47566
#
# Velocity S-wave (km/s) = 3.86385 3.95067 3.90750
# Velocity P-wave (km/s) = 7.54172 7.61308 7.57749
#
# Compressibility (1/GPa) = 0.01233666
#
# Stress axis : x y z
#
# Youngs Moduli (GPa) = 105.62049 101.50580 115.70964
#
# Poissons Ratio (x) = 0.29020 0.21353
# Poissons Ratio (y) = 0.30196 0.35966
# Poissons Ratio (z) = 0.19491 0.31551
#
# Static dielectric constant tensor:
#      x y z
#    x 3.990370 0.000000 0.000000 
#    y 0.000000 3.858380 0.000000 
#    z 0.000000 0.000000 4.051120 
# 
# 
# High freq. dielectric constant tensor:
#      x y z
#    x 1.864650 0.000000 0.000000 
#    y 0.000000 1.853160 0.000000 
#    z 0.000000 0.000000 1.876610 
# 
# From -- ./inp_files/13824.got.cif
#   From: 2010.03.12/outbox.cif.g09.slc.cpg/sg24_7_cif.got.tgz:13824.got - 2010.04.14 03:06:53.
