data_PCOD8166426
_publ_section_title
;
Structure prediction by ZEFSAII (Michael W. Deem and Ramdas Pophale) SiO2 
 PCOD8166426
Probable space group: P M M 2
;
_chemical_formula_sum "Si O2"
_cell_formula_units_Z 28
_cell_length_a 13.921611
_cell_length_b 9.050873
_cell_length_c 15.457959
_cell_angle_alpha 90.000000
_cell_angle_beta 90.000000
_cell_angle_gamma 90.000000
_cell_volume 1947.745082
_symmetry_space_group_name_H-M "P M M 2"
_symmetry_group_IT_number 25
_symmetry_cell_setting 'orthorhombic'
loop_
_space_group_symop_operation_xyz
x,y,z
-x,-y,z
-x,y,z
x,-y,z
loop_
_atom_site_type_symbol
_atom_site_label
_atom_site_fract_x
_atom_site_fract_y
_atom_site_fract_z
Si Si1 0.387515 0.671850 0.661810
Si Si2 0.267010 0.832803 0.805167
Si Si3 0.614365 0.666736 0.321539
Si Si4 0.614399 0.166821 0.489832
Si Si5 0.889533 0.325867 0.895306
Si Si6 0.390306 0.825601 0.149352
Si Si7 0.742972 0.166768 0.994995
O O1 0.500000 0.700780 0.673512
O O2 0.363129 0.500000 0.655837
O O3 0.335737 0.741361 0.743667
O O4 0.348508 0.748149 0.574665
O O5 0.162157 0.753657 0.813018
O O6 0.313000 0.832925 0.902230
O O7 0.254752 0.000000 0.770294
O O8 0.500000 0.669039 0.324648
O O9 0.653871 0.500000 0.322391
O O10 0.656022 0.751717 0.405075
O O11 0.650750 0.747772 0.235111
O O12 0.500000 0.168300 0.487269
O O13 0.653951 0.000000 0.491662
O O14 0.876601 0.500000 0.886914
O O15 0.838475 0.268558 0.984341
O O16 0.000000 0.278181 0.896872
O O17 0.500000 0.777912 0.131409
O O18 0.382886 0.000000 0.162875
O O19 0.327016 0.769554 0.068621
O O20 0.775129 0.000000 0.018474
#
# Coordination Sequence:
#
# PCOD8166426 Si02
#       7
#     4   4   4   4   4   4   4
#     4  10  19  29  41  59  85 115 144 176 210 244
#     4   9  18  30  44  62  83 110 141 174 207 247
#     4   9  16  25  37  55  78 105 139 177 212 242
#     4   9  16  26  40  56  75 105 143 178 210 244
#     4   9  17  30  47  63  81 106 134 170 215 255
#     4   9  16  27  41  57  81 113 145 173 203 241
#     4   8  17  29  42  61  83 110 140 174 208 244
#
# _framework density 14.375598
#
# number of rings (size 3 to 8) (size 9 to 14) (size 15 to 20)
#    0.857    2.143    0.000    1.714    0.000    6.571 
#    0.000    1.429    0.000    0.000    0.000    0.000 
#    0.000    1.143    0.000    8.286    0.000    6.857 
#
# Total GULP energy -346971.284888 kJ/mol
# GULP energy per Si atom -12391.831603 kJ/mol
# Density = 1.434288 g / cm^3
# Si number density = 14.375598 Si / 1000 Ang^3
#
#
#
# Elastic Constant Matrix: (Units=GPa)
#
#
# Indices 1 2 3 4 5 6 
#
# 1 48.1682 42.1841 41.0243 0.0000 0.0000 0.0000
# 2 42.1841 94.6832 54.0734 0.0000 0.0000 0.0000
# 3 41.0243 54.0734 105.1822 0.0000 0.0000 0.0000
# 4 0.0000 0.0000 0.0000 25.3457 0.0000 0.0000
# 5 0.0000 0.0000 0.0000 0.0000 0.8532 0.0000
# 6 0.0000 0.0000 0.0000 0.0000 0.0000 17.8937
#
#
#
# Elastic Compliance Matrix: (Units=1/GPa)
#
#
# Indices 1 2 3 4 5 6 
#
# 1 0.039193 -0.012360 -0.008932 0.000000 0.000000 0.000000
# 2 -0.012360 0.018849 -0.004869 0.000000 0.000000 0.000000
# 3 -0.008932 -0.004869 0.015494 0.000000 0.000000 0.000000
# 4 0.000000 0.000000 0.000000 0.039454 0.000000 0.000000
# 5 0.000000 0.000000 0.000000 0.000000 1.172084 0.000000
# 6 0.000000 0.000000 0.000000 0.000000 0.000000 0.055886
#
#
# Mechanical properties :
#
#
# Convention : Reuss Voigt Hill
#
# Bulk Modulus (GPa) = 47.14116 58.06637 52.60377
# Shear Modulus (GPa) = 3.57052 16.20197 9.88625
#
# Velocity S-wave (km/s) = 1.57770 3.36079 2.62527
# Velocity P-wave (km/s) = 6.01519 7.45251 6.77209
#
# Compressibility (1/GPa) = 0.02121288
#
# Stress axis : x y z
#
# Youngs Moduli (GPa) = 25.51491 53.05219 64.53969
#
# Poissons Ratio (x) = 0.65575 0.57647
# Poissons Ratio (y) = 0.31538 0.31427
# Poissons Ratio (z) = 0.22790 0.25833
#
# Static dielectric constant tensor:
#      x y z
#    x 2.398130 0.000000 0.000000 
#    y 0.000000 2.925910 0.000000 
#    z 0.000000 0.000000 2.833060 
# 
# 
# High freq. dielectric constant tensor:
#      x y z
#    x 1.491280 0.000000 0.000000 
#    y 0.000000 1.565870 0.000000 
#    z 0.000000 0.000000 1.546820 
# 
# From -- ./inp_files/5882.got.cif
#   From: 2010.03.12/outbox.cif.g09.slc.cpg/sg25_3_cif.got.tgz:5882.got - 2010.04.14 03:30:10.
