data_PCOD8166271
_publ_section_title
;
Structure prediction by ZEFSAII (Michael W. Deem and Ramdas Pophale) SiO2 
 PCOD8166271
Probable space group: I 21 21 21
;
_chemical_formula_sum "Si O2"
_cell_formula_units_Z 20
_cell_length_a 4.770359
_cell_length_b 6.121984
_cell_length_c 28.448100
_cell_angle_alpha 90.000000
_cell_angle_beta 90.000000
_cell_angle_gamma 90.000000
_cell_volume 830.800061
_symmetry_space_group_name_H-M "I 21 21 21"
_symmetry_group_IT_number 24
_symmetry_cell_setting 'orthorhombic'
loop_
_space_group_symop_operation_xyz
x,y,z
-x,1/2-y,z
x,-y,1/2-z
1/2-x,y,-z
1/2+x,1/2+y,1/2+z
1/2-x,-y,1/2+z
1/2+x,1/2-y,-z
-x,1/2+y,1/2-z
loop_
_atom_site_type_symbol
_atom_site_label
_atom_site_fract_x
_atom_site_fract_y
_atom_site_fract_z
Si Si1 0.250000 0.901793 0.500000
Si Si2 0.500000 0.750000 0.929122
Si Si3 0.744972 0.395589 0.797376
Si Si4 0.000000 0.750000 0.866139
O O1 0.500000 0.750000 0.479839
O O2 0.374460 0.052495 0.540820
O O3 0.247724 0.648860 0.898047
O O4 0.500000 0.250000 0.820974
O O5 0.615723 0.500000 0.750000
O O6 0.000000 0.250000 0.779643
O O7 0.853414 0.565834 0.835298
#
# Coordination Sequence:
#
# PCOD8166271 Si02
#       4
#     4   4   8   4
#     4  12  26  50  84 110 148 200 244 302 386 460
#     4  12  27  50  78 114 154 192 248 314 375 442
#     4  12  26  46  75 105 146 205 257 303 370 433
#     4  12  27  48  74 114 156 192 254 316 357 444
#
# _framework density 24.073181999999999
#
# number of rings (size 3 to 8) (size 9 to 14) (size 15 to 20)
#    0.000    0.000    2.000    8.400    2.800    6.400 
#    0.000    4.000    0.000    0.000    0.000    0.000 
#    0.000    0.000    0.000    0.000    0.000    0.000 
#
# Total GULP energy -124029.698546 kJ/mol
# GULP energy per Si atom -12402.969855 kJ/mol
# Density = 2.401839 g / cm^3
# Si number density = 24.073182 Si / 1000 Ang^3
#
#
#
# Elastic Constant Matrix: (Units=GPa)
#
#
# Indices 1 2 3 4 5 6 
#
# 1 208.2245 96.1496 85.2273 0.0001 0.0000 0.0000
# 2 96.1496 159.4774 81.3944 0.0000 0.0002 0.0000
# 3 85.2273 81.3944 153.7098 -0.0001 0.0000 0.0000
# 4 0.0001 0.0000 -0.0001 -8.6838 0.0015 0.0000
# 5 0.0000 0.0002 0.0000 0.0015 236.1128 0.0000
# 6 0.0000 0.0000 0.0000 0.0000 0.0000 73.1891
#
#
#
# Elastic Compliance Matrix: (Units=1/GPa)
#
#
# Indices 1 2 3 4 5 6 
#
# 1 0.007215 -0.003163 -0.002326 0.000000 0.000000 0.000000
# 2 -0.003163 0.009979 -0.003531 0.000000 0.000000 0.000000
# 3 -0.002326 -0.003531 0.009665 0.000000 0.000000 0.000000
# 4 0.000000 0.000000 0.000000 -0.115157 0.000001 0.000000
# 5 0.000000 0.000000 0.000000 0.000001 0.004235 0.000000
# 6 0.000000 0.000000 0.000000 0.000000 0.000000 0.013663
#
#
# Mechanical properties :
#
#
# Convention : Reuss Voigt Hill
#
# Bulk Modulus (GPa) = 113.36864 116.32825 114.84844
# Shear Modulus (GPa) = -101.17135 77.36632 -11.90251
#
# Velocity S-wave (km/s) = -6.48982 5.67519 -2.22599
# Velocity P-wave (km/s) = 2.99358 9.55883 6.41910
#
# Compressibility (1/GPa) = 0.00882078
#
# Stress axis : x y z
#
# Youngs Moduli (GPa) = 138.60209 100.20593 103.46826
#
# Poissons Ratio (x) = 0.31695 0.24062
# Poissons Ratio (y) = 0.43840 0.36531
# Poissons Ratio (z) = 0.32232 0.35379
#
# Static dielectric constant tensor:
#      x y z
#    x 93.180590 -0.000050 0.000010 
#    y -0.000050 4.313900 0.000000 
#    z 0.000010 0.000000 4.257090 
# 
# 
# High freq. dielectric constant tensor:
#      x y z
#    x 1.989140 0.000000 0.000000 
#    y 0.000000 1.957460 0.000000 
#    z 0.000000 0.000000 1.952990 
# 
# From -- ./inp_files/265.got.cif
#   From: 2010.03.12/outbox.cif.g09.slc.cpg/sg24_1_cif.got.tgz:265.got - 2010.04.14 03:06:53.
