data_PCOD8166054
_publ_section_title
;
Structure prediction by ZEFSAII (Michael W. Deem and Ramdas Pophale) SiO2 
 PCOD8166054
Probable space group: I 21 21 21
;
_chemical_formula_sum "Si O2"
_cell_formula_units_Z 48
_cell_length_a 30.393919
_cell_length_b 8.326190
_cell_length_c 9.380322
_cell_angle_alpha 90.000000
_cell_angle_beta 90.000000
_cell_angle_gamma 90.000000
_cell_volume 2373.836294
_symmetry_space_group_name_H-M "I 21 21 21"
_symmetry_group_IT_number 24
_symmetry_cell_setting 'orthorhombic'
loop_
_space_group_symop_operation_xyz
x,y,z
-x,1/2-y,z
x,-y,1/2-z
1/2-x,y,-z
1/2+x,1/2+y,1/2+z
1/2-x,-y,1/2+z
1/2+x,1/2-y,-z
-x,1/2+y,1/2-z
loop_
_atom_site_type_symbol
_atom_site_label
_atom_site_fract_x
_atom_site_fract_y
_atom_site_fract_z
Si Si1 0.891760 0.678781 0.564043
Si Si2 0.734575 0.661165 0.660483
Si Si3 0.952891 0.183462 0.708752
Si Si4 0.819798 0.812551 0.766102
Si Si5 0.619020 0.692955 0.008604
Si Si6 0.641598 0.815150 0.709461
O O1 0.935052 0.718401 0.654961
O O2 0.847880 0.715982 0.651321
O O3 0.891758 0.491221 0.534266
O O4 0.892316 0.784012 0.419729
O O5 0.728892 0.500000 0.750000
O O6 0.750000 0.621925 0.500000
O O7 0.768784 0.776302 0.741744
O O8 0.688852 0.754648 0.656391
O O9 0.920064 0.200116 0.574901
O O10 0.000000 0.250000 0.662933
O O11 0.956618 0.000000 0.750000
O O12 0.834654 0.750112 0.921967
O O13 0.829527 0.000000 0.750000
O O14 0.622983 0.714860 0.840920
O O15 0.644128 0.000000 0.750000
#
# Coordination Sequence:
#
# PCOD8166054 Si02
#       6
#     8   8   8   8   8   8
#     4  11  21  41  62  92 124 162 208 252 309 372
#     4  12  26  42  61  88 123 165 215 268 313 371
#     4  11  22  41  68  99 128 162 204 252 307 372
#     4  11  22  39  61  86 119 162 209 258 308 364
#     4  11  23  39  66  91 124 165 204 255 310 375
#     4  12  25  42  62  90 125 166 211 262 317 369
#
# _framework density 20.220434000000001
#
# number of rings (size 3 to 8) (size 9 to 14) (size 15 to 20)
#    0.000    0.667    1.667   10.000    2.333    0.000 
#    0.000    0.833    0.000    0.000    0.000    0.000 
#    0.000    0.000    0.000    0.000    0.000    0.000 
#
# Total GULP energy -297723.496085 kJ/mol
# GULP energy per Si atom -12405.145670 kJ/mol
# Density = 2.017441 g / cm^3
# Si number density = 20.220434 Si / 1000 Ang^3
#
#
#
# Elastic Constant Matrix: (Units=GPa)
#
#
# Indices 1 2 3 4 5 6 
#
# 1 83.7532 0.6185 15.9590 0.0000 0.0000 0.0000
# 2 0.6185 100.6323 -10.7780 0.0000 0.0000 0.0000
# 3 15.9590 -10.7780 89.6608 0.0000 0.0000 0.0000
# 4 0.0000 0.0000 0.0000 30.7604 0.0000 0.0000
# 5 0.0000 0.0000 0.0000 0.0000 16.5368 0.0000
# 6 0.0000 0.0000 0.0000 0.0000 0.0000 -21.7942
#
#
#
# Elastic Compliance Matrix: (Units=1/GPa)
#
#
# Indices 1 2 3 4 5 6 
#
# 1 0.012369 -0.000316 -0.002240 0.000000 0.000000 0.000000
# 2 -0.000316 0.010075 0.001267 0.000000 0.000000 0.000000
# 3 -0.002240 0.001267 0.011704 0.000000 0.000000 0.000000
# 4 0.000000 0.000000 0.000000 0.032509 0.000000 0.000000
# 5 0.000000 0.000000 0.000000 0.000000 0.060471 0.000000
# 6 0.000000 0.000000 0.000000 0.000000 0.000000 -0.045884
#
#
# Mechanical properties :
#
#
# Convention : Reuss Voigt Hill
#
# Bulk Modulus (GPa) = 31.67403 31.73837 31.70620
# Shear Modulus (GPa) = 52.99713 22.98372 37.99042
#
# Velocity S-wave (km/s) = 5.12509 3.37509 4.33923
# Velocity P-wave (km/s) = 7.12183 5.56045 6.38902
#
# Compressibility (1/GPa) = 0.03157161
#
# Stress axis : x y z
#
# Youngs Moduli (GPa) = 80.84785 99.25713 85.44005
#
# Poissons Ratio (x) = 0.03135 0.19135
# Poissons Ratio (y) = 0.02554 -0.10828
# Poissons Ratio (z) = 0.18106 -0.12579
#
# Static dielectric constant tensor:
#      x y z
#    x 3.876040 0.000000 0.000000 
#    y 0.000000 3.773020 0.000000 
#    z 0.000000 0.000000 6.592650 
# 
# 
# High freq. dielectric constant tensor:
#      x y z
#    x 1.775130 0.000000 0.000000 
#    y 0.000000 1.810050 0.000000 
#    z 0.000000 0.000000 1.797400 
# 
# From -- ./inp_files/16838.got.cif
#   From: 2010.03.12/outbox.cif.g09.slc.cpg/sg24_9_cif.got.tgz:16838.got - 2010.04.14 03:06:53.
