data_PCOD8166880
_publ_section_title
;
Structure prediction by ZEFSAII (Michael W. Deem and Ramdas Pophale) SiO2 
 PCOD8166880
Probable space group: P M M 2
;
_chemical_formula_sum "Si O2"
_cell_formula_units_Z 28
_cell_length_a 9.494635
_cell_length_b 9.184104
_cell_length_c 17.731912
_cell_angle_alpha 90.000000
_cell_angle_beta 90.000000
_cell_angle_gamma 90.000000
_cell_volume 1546.217678
_symmetry_space_group_name_H-M "P M M 2"
_symmetry_group_IT_number 25
_symmetry_cell_setting 'orthorhombic'
loop_
_space_group_symop_operation_xyz
x,y,z
-x,-y,z
-x,y,z
x,-y,z
loop_
_atom_site_type_symbol
_atom_site_label
_atom_site_fract_x
_atom_site_fract_y
_atom_site_fract_z
Si Si1 0.662851 0.170176 0.701160
Si Si2 0.838991 0.168496 0.145263
Si Si3 0.837317 0.165576 0.970659
Si Si4 0.155632 0.172919 0.563362
Si Si5 0.336813 0.328185 0.267738
Si Si6 0.164608 0.830638 0.394719
Si Si7 0.663307 0.330437 0.849755
O O1 0.500000 0.204901 0.688922
O O2 0.740303 0.233983 0.627305
O O3 0.721419 0.250649 0.775128
O O4 0.692485 0.000000 0.712084
O O5 0.732476 0.266761 0.191993
O O6 0.000000 0.209640 0.165410
O O7 0.812549 0.000000 0.165032
O O8 0.808666 0.199274 0.057905
O O9 0.744936 0.275726 0.922717
O O10 0.000000 0.190805 0.950921
O O11 0.793768 0.000000 0.951776
O O12 0.204457 0.219561 0.479665
O O13 0.000000 0.235138 0.579995
O O14 0.151856 0.000000 0.565907
O O15 0.500000 0.282419 0.269584
O O16 0.317899 0.500000 0.268109
O O17 0.259848 0.264262 0.340335
O O18 0.000000 0.801661 0.378642
O O19 0.199376 0.000000 0.381887
O O20 0.500000 0.293404 0.861846
O O21 0.690721 0.500000 0.839456
#
# Coordination Sequence:
#
# PCOD8166880 Si02
#       7
#     4   4   4   4   4   4   4
#     4   9  17  30  49  72  98 131 171 210 249 297
#     4   9  19  37  59  80 101 128 166 210 255 304
#     4   9  19  36  57  80 103 128 164 211 258 302
#     4   8  15  29  50  76 101 124 158 208 259 301
#     4  11  24  37  49  73 108 140 171 207 248 297
#     4   9  18  34  56  79 102 131 169 211 255 304
#     4  10  21  35  50  72 105 142 175 207 248 299
#
# _framework density 18.108706000000002
#
# number of rings (size 3 to 8) (size 9 to 14) (size 15 to 20)
#    0.000    2.714    0.000    3.000    0.000    6.857 
#    0.000    7.857    0.000    2.571    0.000    0.000 
#    0.000    0.000    0.000    0.000    0.000    0.000 
#
# Total GULP energy -347199.790333 kJ/mol
# GULP energy per Si atom -12399.992512 kJ/mol
# Density = 1.806749 g / cm^3
# Si number density = 18.108706 Si / 1000 Ang^3
#
#
#
# Elastic Constant Matrix: (Units=GPa)
#
#
# Indices 1 2 3 4 5 6 
#
# 1 95.5398 53.9542 77.4267 0.0000 0.0000 0.0000
# 2 53.9542 64.3332 56.1914 0.0000 0.0000 0.0000
# 3 77.4267 56.1914 135.8202 0.0000 0.0000 0.0000
# 4 0.0000 0.0000 0.0000 2.2494 0.0000 0.0000
# 5 0.0000 0.0000 0.0000 0.0000 19.5828 0.0000
# 6 0.0000 0.0000 0.0000 0.0000 0.0000 27.0634
#
#
#
# Elastic Compliance Matrix: (Units=1/GPa)
#
#
# Indices 1 2 3 4 5 6 
#
# 1 0.025186 -0.013438 -0.008798 0.000000 0.000000 0.000000
# 2 -0.013438 0.031509 -0.005375 0.000000 0.000000 0.000000
# 3 -0.008798 -0.005375 0.014602 0.000000 0.000000 0.000000
# 4 0.000000 0.000000 0.000000 0.444569 0.000000 0.000000
# 5 0.000000 0.000000 0.000000 0.000000 0.051065 0.000000
# 6 0.000000 0.000000 0.000000 0.000000 0.000000 0.036950
#
#
# Mechanical properties :
#
#
# Convention : Reuss Voigt Hill
#
# Bulk Modulus (GPa) = 62.21148 74.53754 68.37451
# Shear Modulus (GPa) = 7.52489 16.98719 12.25604
#
# Velocity S-wave (km/s) = 2.04069 3.06611 2.60437
# Velocity P-wave (km/s) = 6.32310 7.33384 6.84715
#
# Compressibility (1/GPa) = 0.01607420
#
# Stress axis : x y z
#
# Youngs Moduli (GPa) = 39.70523 31.73689 68.48342
#
# Poissons Ratio (x) = 0.42647 0.60252
# Poissons Ratio (y) = 0.53355 0.36813
# Poissons Ratio (z) = 0.34933 0.17060
#
# Static dielectric constant tensor:
#      x y z
#    x 3.546640 0.000000 0.000000 
#    y 0.000000 3.132290 0.000000 
#    z 0.000000 0.000000 3.523620 
# 
# 
# High freq. dielectric constant tensor:
#      x y z
#    x 1.697580 0.000000 0.000000 
#    y 0.000000 1.681360 0.000000 
#    z 0.000000 0.000000 1.715630 
# 
# From -- ./inp_files/6119.got.cif
#   From: 2010.03.12/outbox.cif.g09.slc.cpg/sg25_4_cif.got.tgz:6119.got - 2010.04.14 03:30:10.
