data_PCOD8166765
_publ_section_title
;
Structure prediction by ZEFSAII (Michael W. Deem and Ramdas Pophale) SiO2 
 PCOD8166765
Probable space group: P M M 2
;
_chemical_formula_sum "Si O2"
_cell_formula_units_Z 32
_cell_length_a 14.078041
_cell_length_b 9.536687
_cell_length_c 12.958214
_cell_angle_alpha 90.000000
_cell_angle_beta 90.000000
_cell_angle_gamma 90.000000
_cell_volume 1739.742218
_symmetry_space_group_name_H-M "P M M 2"
_symmetry_group_IT_number 25
_symmetry_cell_setting 'orthorhombic'
loop_
_space_group_symop_operation_xyz
x,y,z
-x,-y,z
-x,y,z
x,-y,z
loop_
_atom_site_type_symbol
_atom_site_label
_atom_site_fract_x
_atom_site_fract_y
_atom_site_fract_z
Si Si1 0.798201 0.665070 0.063370
Si Si2 0.606744 0.838661 0.562731
Si Si3 0.790134 0.162410 0.455270
Si Si4 0.889539 0.334869 0.277542
Si Si5 0.395818 0.665887 0.978343
Si Si6 0.895044 0.833718 0.659029
Si Si7 0.112987 0.157263 0.884008
Si Si8 0.612445 0.344926 0.751779
O O1 0.812121 0.500000 0.048991
O O2 0.843727 0.715760 0.170236
O O3 0.685855 0.707033 0.060708
O O4 0.852018 0.737662 0.970414
O O5 0.500000 0.791320 0.531235
O O6 0.675988 0.815553 0.464203
O O7 0.648704 0.755347 0.660736
O O8 0.608630 0.000000 0.596841
O O9 0.832524 0.256032 0.365717
O O10 0.830971 0.216848 0.564283
O O11 0.816195 0.000000 0.434037
O O12 0.876535 0.500000 0.293621
O O13 0.000000 0.291828 0.279610
O O14 0.500000 0.728224 0.010270
O O15 0.405982 0.500000 0.969686
O O16 0.362388 0.719454 0.864784
O O17 0.852607 0.787085 0.770747
O O18 0.000000 0.769194 0.642145
O O19 0.901916 0.000000 0.661038
O O20 0.000000 0.155055 0.883255
O O21 0.151538 0.000000 0.906438
O O22 0.500000 0.356007 0.744974
O O23 0.657499 0.500000 0.736750
#
# Coordination Sequence:
#
# PCOD8166765 Si02
#       8
#     4   4   4   4   4   4   4   4
#     4  10  20  34  54  77 102 135 172 210 258 307
#     4   9  18  31  47  73 108 139 168 206 254 302
#     4  10  20  34  55  77  98 134 180 214 249 305
#     4  10  22  39  55  74 103 133 165 217 274 311
#     4   8  15  29  49  74 104 137 173 208 244 294
#     4   8  15  29  48  71  99 128 160 204 255 301
#     4   9  18  32  50  74 105 136 164 203 257 312
#     4   8  14  26  45  69  99 136 173 206 240 285
#
# _framework density 18.393529000000001
#
# number of rings (size 3 to 8) (size 9 to 14) (size 15 to 20)
#    0.000    3.000    0.000    2.250    1.750    2.500 
#    0.000    1.250    0.000    1.875    0.000    0.000 
#    0.000    0.000    0.000    0.000    0.000    0.000 
#
# Total GULP energy -396559.286883 kJ/mol
# GULP energy per Si atom -12392.477715 kJ/mol
# Density = 1.835166 g / cm^3
# Si number density = 18.393529 Si / 1000 Ang^3
#
#
#
# Elastic Constant Matrix: (Units=GPa)
#
#
# Indices 1 2 3 4 5 6 
#
# 1 93.0742 28.3376 69.5622 0.0000 0.0000 0.0000
# 2 28.3376 38.2988 43.5808 0.0000 0.0000 0.0000
# 3 69.5622 43.5808 137.6609 0.0000 0.0000 0.0000
# 4 0.0000 0.0000 0.0000 22.2787 0.0000 0.0000
# 5 0.0000 0.0000 0.0000 0.0000 31.8195 0.0000
# 6 0.0000 0.0000 0.0000 0.0000 0.0000 19.2361
#
#
#
# Elastic Compliance Matrix: (Units=1/GPa)
#
#
# Indices 1 2 3 4 5 6 
#
# 1 0.017763 -0.004579 -0.007527 0.000000 0.000000 0.000000
# 2 -0.004579 0.041993 -0.010981 0.000000 0.000000 0.000000
# 3 -0.007527 -0.010981 0.014544 0.000000 0.000000 0.000000
# 4 0.000000 0.000000 0.000000 0.044886 0.000000 0.000000
# 5 0.000000 0.000000 0.000000 0.000000 0.031427 0.000000
# 6 0.000000 0.000000 0.000000 0.000000 0.000000 0.051986
#
#
# Mechanical properties :
#
#
# Convention : Reuss Voigt Hill
#
# Bulk Modulus (GPa) = 35.55084 61.33281 48.44182
# Shear Modulus (GPa) = 19.36878 23.17041 21.26959
#
# Velocity S-wave (km/s) = 3.24855 3.55308 3.40422
# Velocity P-wave (km/s) = 5.78279 7.08870 6.46878
#
# Compressibility (1/GPa) = 0.02812873
#
# Stress axis : x y z
#
# Youngs Moduli (GPa) = 56.29538 23.81332 68.75773
#
# Poissons Ratio (x) = 0.10903 0.51751
# Poissons Ratio (y) = 0.25776 0.75500
# Poissons Ratio (z) = 0.42371 0.26149
#
# Static dielectric constant tensor:
#      x y z
#    x 3.682190 0.000000 0.000000 
#    y 0.000000 3.217380 0.000000 
#    z 0.000000 0.000000 3.438300 
# 
# 
# High freq. dielectric constant tensor:
#      x y z
#    x 1.722150 0.000000 0.000000 
#    y 0.000000 1.681790 0.000000 
#    z 0.000000 0.000000 1.698910 
# 
# From -- ./inp_files/4912.got.cif
#   From: 2010.03.12/outbox.cif.g09.slc.cpg/sg25_3_cif.got.tgz:4912.got - 2010.04.14 03:30:10.
