data_PCOD8166305
_publ_section_title
;
Structure prediction by ZEFSAII (Michael W. Deem and Ramdas Pophale) SiO2 
 PCOD8166305
Probable space group: P M M 2
;
_chemical_formula_sum "Si O2"
_cell_formula_units_Z 32
_cell_length_a 24.780258
_cell_length_b 17.638849
_cell_length_c 5.028341
_cell_angle_alpha 90.000000
_cell_angle_beta 90.000000
_cell_angle_gamma 90.000000
_cell_volume 2197.863861
_symmetry_space_group_name_H-M "P M M 2"
_symmetry_group_IT_number 25
_symmetry_cell_setting 'orthorhombic'
loop_
_space_group_symop_operation_xyz
x,y,z
-x,-y,z
-x,y,z
x,-y,z
loop_
_atom_site_type_symbol
_atom_site_label
_atom_site_fract_x
_atom_site_fract_y
_atom_site_fract_z
Si Si1 0.255304 0.146542 0.824470
Si Si2 0.372679 0.089159 0.816066
Si Si3 0.130887 0.222675 0.428479
Si Si4 0.122802 0.412764 0.825363
Si Si5 0.813176 0.277496 0.928314
Si Si6 0.559863 0.910876 0.325289
Si Si7 0.805268 0.087257 0.324725
Si Si8 0.062423 0.353607 0.325242
O O1 0.318176 0.134373 0.873359
O O2 0.243989 0.237542 0.857102
O O3 0.239290 0.117224 0.532928
O O4 0.219440 0.099379 0.033535
O O5 0.399539 0.120915 0.547509
O O6 0.358860 0.000000 0.803917
O O7 0.415828 0.108793 0.040959
O O8 0.142771 0.234615 0.740480
O O9 0.137863 0.133294 0.360456
O O10 0.073652 0.262515 0.358441
O O11 0.174930 0.265467 0.240352
O O12 0.136264 0.500000 0.874258
O O13 0.179805 0.366841 0.859378
O O14 0.098052 0.401039 0.533796
O O15 0.078693 0.381524 0.033028
O O16 0.500000 0.874490 0.347811
O O17 0.554758 0.000000 0.369528
O O18 0.818923 0.000000 0.371425
O O19 0.000000 0.370086 0.373163
#
# Coordination Sequence:
#
# PCOD8166305 Si02
#       8
#     4   4   4   4   4   4   4   4
#     4  10  18  27  39  57  78  98 123 157 198 231
#     4  10  17  24  36  53  71  92 125 163 190 214
#     4   8  16  28  40  54  73 100 126 147 182 233
#     4  10  19  30  44  62  81 101 127 152 178 221
#     4   8  16  29  41  54  76 102 123 146 182 231
#     4   9  17  27  36  47  68  99 130 158 188 220
#     4  10  17  26  40  56  75  96 122 158 196 231
#     4  10  19  30  43  59  80 103 125 154 189 219
#
# _framework density 14.559590999999999
#
# number of rings (size 3 to 8) (size 9 to 14) (size 15 to 20)
#    0.000    2.625    0.000    3.000    0.000    4.000 
#    0.000    0.000    0.000    0.375    0.000    0.000 
#    0.000   12.000    0.000    0.000    0.000    5.750 
#
# Total GULP energy -396495.665414 kJ/mol
# GULP energy per Si atom -12390.489544 kJ/mol
# Density = 1.452645 g / cm^3
# Si number density = 14.559591 Si / 1000 Ang^3
#
#
#
# Elastic Constant Matrix: (Units=GPa)
#
#
# Indices 1 2 3 4 5 6 
#
# 1 57.2935 44.5890 6.6255 0.0000 0.0000 0.0000
# 2 44.5890 80.8097 3.6446 0.0000 0.0000 0.0000
# 3 6.6255 3.6446 60.0580 0.0000 0.0000 0.0000
# 4 0.0000 0.0000 0.0000 14.1449 0.0000 0.0000
# 5 0.0000 0.0000 0.0000 0.0000 9.3686 0.0000
# 6 0.0000 0.0000 0.0000 0.0000 0.0000 11.0260
#
#
#
# Elastic Compliance Matrix: (Units=1/GPa)
#
#
# Indices 1 2 3 4 5 6 
#
# 1 0.030927 -0.016957 -0.002383 0.000000 0.000000 0.000000
# 2 -0.016957 0.021706 0.000553 0.000000 0.000000 0.000000
# 3 -0.002383 0.000553 0.016880 0.000000 0.000000 0.000000
# 4 0.000000 0.000000 0.000000 0.070697 0.000000 0.000000
# 5 0.000000 0.000000 0.000000 0.000000 0.106740 0.000000
# 6 0.000000 0.000000 0.000000 0.000000 0.000000 0.090695
#
#
# Mechanical properties :
#
#
# Convention : Reuss Voigt Hill
#
# Bulk Modulus (GPa) = 31.30880 34.20883 32.75882
# Shear Modulus (GPa) = 12.95794 16.46136 14.70965
#
# Velocity S-wave (km/s) = 2.98651 3.36612 3.18198
# Velocity P-wave (km/s) = 5.78299 6.21727 6.00405
#
# Compressibility (1/GPa) = 0.03193990
#
# Stress axis : x y z
#
# Youngs Moduli (GPa) = 32.33467 46.06944 59.24224
#
# Poissons Ratio (x) = 0.78121 0.14116
# Poissons Ratio (y) = 0.54830 -0.03279
# Poissons Ratio (z) = 0.07705 -0.02550
#
# Static dielectric constant tensor:
#      x y z
#    x 2.676720 0.000000 0.000000 
#    y 0.000000 2.797670 0.000000 
#    z 0.000000 0.000000 3.037510 
# 
# 
# High freq. dielectric constant tensor:
#      x y z
#    x 1.521470 0.000000 0.000000 
#    y 0.000000 1.521240 0.000000 
#    z 0.000000 0.000000 1.585500 
# 
# From -- ./inp_files/1266.got.cif
#   From: 2010.03.12/outbox.cif.g09.slc.cpg/sg25_1_cif.got.tgz:1266.got - 2010.04.14 03:30:10.
