data_PCOD8166415
_publ_section_title
;
Structure prediction by ZEFSAII (Michael W. Deem and Ramdas Pophale) SiO2 
 PCOD8166415
Probable space group: P M M 2
;
_chemical_formula_sum "Si O2"
_cell_formula_units_Z 32
_cell_length_a 15.366065
_cell_length_b 9.212293
_cell_length_c 11.878230
_cell_angle_alpha 90.000000
_cell_angle_beta 90.000000
_cell_angle_gamma 90.000000
_cell_volume 1681.442958
_symmetry_space_group_name_H-M "P M M 2"
_symmetry_group_IT_number 25
_symmetry_cell_setting 'orthorhombic'
loop_
_space_group_symop_operation_xyz
x,y,z
-x,-y,z
-x,y,z
x,-y,z
loop_
_atom_site_type_symbol
_atom_site_label
_atom_site_fract_x
_atom_site_fract_y
_atom_site_fract_z
Si Si1 0.596076 0.167334 0.846330
Si Si2 0.245591 0.170457 0.997718
Si Si3 0.402005 0.666598 0.380759
Si Si4 0.750116 0.170958 0.257300
Si Si5 0.098749 0.330299 0.385140
Si Si6 0.843151 0.328251 0.625506
Si Si7 0.098770 0.669273 0.865814
Si Si8 0.646517 0.331172 0.630278
O O1 0.500000 0.188739 0.900640
O O2 0.596448 0.249603 0.728390
O O3 0.614818 0.000000 0.820976
O O4 0.669048 0.228200 0.931633
O O5 0.257850 0.212378 0.127034
O O6 0.233102 0.000000 0.981723
O O7 0.159843 0.247671 0.952188
O O8 0.500000 0.694080 0.336343
O O9 0.373211 0.500000 0.360549
O O10 0.336292 0.771014 0.316842
O O11 0.401046 0.701241 0.513252
O O12 0.837397 0.243036 0.304370
O O13 0.755960 0.000000 0.277173
O O14 0.123373 0.500000 0.378253
O O15 0.108401 0.272170 0.513391
O O16 0.000000 0.302908 0.345106
O O17 0.847498 0.500000 0.625537
O O18 0.888831 0.269421 0.738780
O O19 0.744635 0.271485 0.622458
O O20 0.123004 0.500000 0.870112
O O21 0.000000 0.696949 0.903749
O O22 0.645382 0.500000 0.660494
#
# Coordination Sequence:
#
# PCOD8166415 Si02
#       8
#     4   4   4   4   4   4   4   4
#     4  10  21  37  57  81 110 144 184 229 274 326
#     4  10  23  41  57  76 107 150 192 230 276 325
#     4  10  21  38  60  86 116 148 184 229 279 334
#     4  11  24  40  58  80 111 151 193 238 281 327
#     4  10  20  37  62  87 113 148 187 228 279 338
#     4   9  16  31  57  86 114 143 175 219 277 335
#     4  10  20  35  58  87 114 141 179 227 275 327
#     4  10  18  33  59  86 114 146 177 218 275 335
#
# _framework density 19.031271
#
# number of rings (size 3 to 8) (size 9 to 14) (size 15 to 20)
#    0.000    2.000    2.500    1.125    0.000    5.500 
#    0.000    4.375    0.000    1.500    0.000    0.000 
#    0.000    0.000    0.000    0.000    0.000    0.000 
#
# Total GULP energy -396829.221470 kJ/mol
# GULP energy per Si atom -12400.913171 kJ/mol
# Density = 1.898796 g / cm^3
# Si number density = 19.031271 Si / 1000 Ang^3
#
#
#
# Elastic Constant Matrix: (Units=GPa)
#
#
# Indices 1 2 3 4 5 6 
#
# 1 130.7123 45.5022 60.9826 0.0000 0.0000 0.0000
# 2 45.5022 53.6390 53.9243 0.0000 0.0000 0.0000
# 3 60.9826 53.9243 118.1595 0.0000 0.0000 0.0000
# 4 0.0000 0.0000 0.0000 29.4099 0.0000 0.0000
# 5 0.0000 0.0000 0.0000 0.0000 8.1897 0.0000
# 6 0.0000 0.0000 0.0000 0.0000 0.0000 27.6706
#
#
#
# Elastic Compliance Matrix: (Units=1/GPa)
#
#
# Indices 1 2 3 4 5 6 
#
# 1 0.011302 -0.006880 -0.002693 0.000000 0.000000 0.000000
# 2 -0.006880 0.038636 -0.014081 0.000000 0.000000 0.000000
# 3 -0.002693 -0.014081 0.016279 0.000000 0.000000 0.000000
# 4 0.000000 0.000000 0.000000 0.034002 0.000000 0.000000
# 5 0.000000 0.000000 0.000000 0.000000 0.122104 0.000000
# 6 0.000000 0.000000 0.000000 0.000000 0.000000 0.036140
#
#
# Mechanical properties :
#
#
# Convention : Reuss Voigt Hill
#
# Bulk Modulus (GPa) = 52.88763 69.25878 61.07321
# Shear Modulus (GPa) = 16.02186 22.52748 19.27467
#
# Velocity S-wave (km/s) = 2.90465 3.44424 3.18589
# Velocity P-wave (km/s) = 6.25296 7.23105 6.75972
#
# Compressibility (1/GPa) = 0.01890801
#
# Stress axis : x y z
#
# Youngs Moduli (GPa) = 88.48133 25.88289 61.42755
#
# Poissons Ratio (x) = 0.17807 0.16543
# Poissons Ratio (y) = 0.60874 0.86498
# Poissons Ratio (z) = 0.23829 0.36446
#
# Static dielectric constant tensor:
#      x y z
#    x 3.616070 0.000000 0.000000 
#    y 0.000000 3.254910 0.000000 
#    z 0.000000 0.000000 3.517860 
# 
# 
# High freq. dielectric constant tensor:
#      x y z
#    x 1.755940 0.000000 0.000000 
#    y 0.000000 1.715370 0.000000 
#    z 0.000000 0.000000 1.737490 
# 
# From -- ./inp_files/4163.got.cif
#   From: 2010.03.12/outbox.cif.g09.slc.cpg/sg25_3_cif.got.tgz:4163.got - 2010.04.14 03:30:10.
