data_PCOD8166300
_publ_section_title
;
Structure prediction by ZEFSAII (Michael W. Deem and Ramdas Pophale) SiO2 
 PCOD8166300
Probable space group: I 21 21 21
;
_chemical_formula_sum "Si O2"
_cell_formula_units_Z 64
_cell_length_a 13.924067
_cell_length_b 17.423725
_cell_length_c 15.000151
_cell_angle_alpha 90.000000
_cell_angle_beta 90.000000
_cell_angle_gamma 90.000000
_cell_volume 3639.173348
_symmetry_space_group_name_H-M "I 21 21 21"
_symmetry_group_IT_number 24
_symmetry_cell_setting 'orthorhombic'
loop_
_space_group_symop_operation_xyz
x,y,z
-x,1/2-y,z
x,-y,1/2-z
1/2-x,y,-z
1/2+x,1/2+y,1/2+z
1/2-x,-y,1/2+z
1/2+x,1/2-y,-z
-x,1/2+y,1/2-z
loop_
_atom_site_type_symbol
_atom_site_label
_atom_site_fract_x
_atom_site_fract_y
_atom_site_fract_z
Si Si1 0.586826 0.308467 0.152271
Si Si2 0.027180 0.409926 0.532883
Si Si3 0.972821 0.909928 0.532883
Si Si4 0.790450 0.176091 0.595534
Si Si5 0.610362 0.088338 0.847907
Si Si6 0.413176 0.191534 0.347719
Si Si7 0.709546 0.823916 0.404463
Si Si8 0.389642 0.588339 0.847907
O O1 0.500000 0.250000 0.148584
O O2 0.568860 0.371355 0.074535
O O3 0.593121 0.348211 0.249995
O O4 0.682613 0.258503 0.137209
O O5 0.015721 0.499999 0.544263
O O6 0.119606 0.382016 0.588689
O O7 0.038724 0.386115 0.428036
O O8 0.931146 0.371352 0.574543
O O9 0.961266 0.886114 0.428038
O O10 0.880405 0.882017 0.588705
O O11 0.750000 0.195584 0.500000
O O12 0.817389 0.258502 0.637224
O O13 0.708534 0.136392 0.654233
O O14 0.708539 0.136390 0.845756
O O15 0.561085 0.098995 0.750000
O O16 0.638820 0.999999 0.864731
O O17 0.500000 0.250000 0.351404
O O18 0.750000 0.804448 0.500000
#
# Coordination Sequence:
#
# PCOD8166300 Si02
#       8
#     8   8   8   8   8   8   8   8
#     4   9  17  28  42  61  86 116 147 178 213 253
#     4   9  17  28  42  63  89 114 142 177 215 256
#     4   9  17  28  42  63  89 114 142 177 215 256
#     4   9  16  27  44  63  88 115 142 176 217 258
#     4   9  16  26  43  67  92 116 140 170 213 262
#     4   9  17  28  42  61  86 116 147 178 213 253
#     4   9  16  27  44  63  88 115 142 176 217 258
#     4   9  16  26  43  67  92 116 140 170 213 262
#
# _framework density 17.586410999999998
#
# number of rings (size 3 to 8) (size 9 to 14) (size 15 to 20)
#    0.000    3.000    0.000    1.500    0.000    4.500 
#    0.000    0.000    0.000   21.000    0.000    0.000 
#    0.000    0.000    0.000    0.000    0.000    0.000 
#
# Total GULP energy -396510.740004 kJ/mol
# GULP energy per Si atom -12390.960625 kJ/mol
# Density = 1.754638 g / cm^3
# Si number density = 17.586411 Si / 1000 Ang^3
#
#
#
# Elastic Constant Matrix: (Units=GPa)
#
#
# Indices 1 2 3 4 5 6 
#
# 1 33.2896 35.2901 26.6453 0.0000 0.0000 0.0000
# 2 35.2901 83.2249 54.9036 0.0000 0.0000 0.0000
# 3 26.6453 54.9036 126.6582 0.0000 0.0000 0.0000
# 4 0.0000 0.0000 0.0000 26.9975 0.0000 0.0000
# 5 0.0000 0.0000 0.0000 0.0000 13.0703 0.0000
# 6 0.0000 0.0000 0.0000 0.0000 0.0000 29.2644
#
#
#
# Elastic Compliance Matrix: (Units=1/GPa)
#
#
# Indices 1 2 3 4 5 6 
#
# 1 0.054944 -0.021950 -0.002044 0.000000 0.000000 0.000000
# 2 -0.021950 0.025597 -0.006478 0.000000 0.000000 0.000000
# 3 -0.002044 -0.006478 0.011133 0.000000 0.000000 0.000000
# 4 0.000000 0.000000 0.000000 0.037041 0.000000 0.000000
# 5 0.000000 0.000000 0.000000 0.000000 0.076509 0.000000
# 6 0.000000 0.000000 0.000000 0.000000 0.000000 0.034171
#
#
# Mechanical properties :
#
#
# Convention : Reuss Voigt Hill
#
# Bulk Modulus (GPa) = 32.54071 52.98344 42.76207
# Shear Modulus (GPa) = 16.09881 22.28868 19.19375
#
# Velocity S-wave (km/s) = 3.02886 3.56389 3.30721
# Velocity P-wave (km/s) = 5.54757 6.86498 6.24113
#
# Compressibility (1/GPa) = 0.03073074
#
# Stress axis : x y z
#
# Youngs Moduli (GPa) = 18.20027 39.06772 89.82050
#
# Poissons Ratio (x) = 0.85753 0.18359
# Poissons Ratio (y) = 0.39949 0.58185
# Poissons Ratio (z) = 0.03720 0.25308
#
# Static dielectric constant tensor:
#      x y z
#    x 3.073110 0.000000 0.000000 
#    y 0.000000 3.206500 0.000000 
#    z 0.000000 0.000000 3.559750 
# 
# 
# High freq. dielectric constant tensor:
#      x y z
#    x 1.627970 0.000000 0.000000 
#    y 0.000000 1.661800 0.000000 
#    z 0.000000 0.000000 1.695940 
# 
# From -- ./inp_files/26740.got.cif
#   From: 2010.03.12/outbox.cif.g09.slc.cpg/sg24_14_cif.got.tgz:26740.got - 2010.04.14 03:06:53.
