data_PCOD8166655
_publ_section_title
;
Structure prediction by ZEFSAII (Michael W. Deem and Ramdas Pophale) SiO2 
 PCOD8166655
Probable space group: P M M 2
;
_chemical_formula_sum "Si O2"
_cell_formula_units_Z 24
_cell_length_a 9.314411
_cell_length_b 9.334574
_cell_length_c 15.506045
_cell_angle_alpha 90.000000
_cell_angle_beta 90.000000
_cell_angle_gamma 90.000000
_cell_volume 1348.189499
_symmetry_space_group_name_H-M "P M M 2"
_symmetry_group_IT_number 25
_symmetry_cell_setting 'orthorhombic'
loop_
_space_group_symop_operation_xyz
x,y,z
-x,-y,z
-x,y,z
x,-y,z
loop_
_atom_site_type_symbol
_atom_site_label
_atom_site_fract_x
_atom_site_fract_y
_atom_site_fract_z
Si Si1 0.332608 0.665590 0.988810
Si Si2 0.664953 0.330006 0.503579
Si Si3 0.832346 0.167018 0.651159
Si Si4 0.162057 0.330167 0.150695
Si Si5 0.161108 0.329734 0.340342
Si Si6 0.664872 0.166566 0.821696
O O1 0.500000 0.688815 0.001613
O O2 0.291538 0.500000 0.976391
O O3 0.277302 0.748402 0.904612
O O4 0.259558 0.733094 0.074166
O O5 0.500000 0.280873 0.509548
O O6 0.679888 0.500000 0.512369
O O7 0.756012 0.258519 0.578344
O O8 0.728293 0.274244 0.412424
O O9 0.763373 0.212444 0.741889
O O10 0.000000 0.204739 0.653160
O O11 0.805405 0.000000 0.632511
O O12 0.175226 0.500000 0.150037
O O13 0.210901 0.273900 0.245552
O O14 0.000000 0.280850 0.132960
O O15 0.158655 0.500000 0.339433
O O16 0.000000 0.273457 0.361108
O O17 0.500000 0.207346 0.800270
O O18 0.680216 0.000000 0.842598
#
# Coordination Sequence:
#
# PCOD8166655 Si02
#       6
#     4   4   4   4   4   4
#     4   9  17  28  44  68  94 118 149 192 235 272
#     4  10  20  32  49  75 102 127 158 197 240 285
#     4  10  21  36  53  72  94 124 162 200 240 289
#     4   8  14  25  42  65  93 124 155 187 227 274
#     4   8  14  26  44  66  94 126 157 191 232 277
#     4   9  18  33  50  66  89 123 157 189 232 286
#
# _framework density 17.801649999999999
#
# number of rings (size 3 to 8) (size 9 to 14) (size 15 to 20)
#    0.000    3.000    0.000    2.000    0.000    4.000 
#    0.000    5.000    0.000    1.000    0.000    4.667 
#    0.000    0.000    0.000    0.000    0.000    0.000 
#
# Total GULP energy -297517.100696 kJ/mol
# GULP energy per Si atom -12396.545862 kJ/mol
# Density = 1.776113 g / cm^3
# Si number density = 17.801650 Si / 1000 Ang^3
#
#
#
# Elastic Constant Matrix: (Units=GPa)
#
#
# Indices 1 2 3 4 5 6 
#
# 1 107.5225 30.5941 93.9978 0.0000 0.0000 0.0000
# 2 30.5941 25.8608 44.9958 0.0000 0.0000 0.0000
# 3 93.9978 44.9958 186.1877 0.0000 0.0000 0.0000
# 4 0.0000 0.0000 0.0000 -4.8647 0.0000 0.0000
# 5 0.0000 0.0000 0.0000 0.0000 41.7270 0.0000
# 6 0.0000 0.0000 0.0000 0.0000 0.0000 18.2358
#
#
#
# Elastic Compliance Matrix: (Units=1/GPa)
#
#
# Indices 1 2 3 4 5 6 
#
# 1 0.017881 -0.009399 -0.006756 0.000000 0.000000 0.000000
# 2 -0.009399 0.071666 -0.012574 0.000000 0.000000 0.000000
# 3 -0.006756 -0.012574 0.011820 0.000000 0.000000 0.000000
# 4 0.000000 0.000000 0.000000 -0.205562 0.000000 0.000000
# 5 0.000000 0.000000 0.000000 0.000000 0.023965 0.000000
# 6 0.000000 0.000000 0.000000 0.000000 0.000000 0.054837
#
#
# Mechanical properties :
#
#
# Convention : Reuss Voigt Hill
#
# Bulk Modulus (GPa) = 22.77428 73.19404 47.98416
# Shear Modulus (GPa) = 107.06005 21.01851 64.03928
#
# Velocity S-wave (km/s) = 7.76345 3.43987 6.00432
# Velocity P-wave (km/s) = 9.65311 7.54868 8.66502
#
# Compressibility (1/GPa) = 0.04390918
#
# Stress axis : x y z
#
# Youngs Moduli (GPa) = 55.92625 13.95358 84.59933
#
# Poissons Ratio (x) = 0.13115 0.57153
# Poissons Ratio (y) = 0.52565 1.06378
# Poissons Ratio (z) = 0.37782 0.17546
#
# Static dielectric constant tensor:
#      x y z
#    x 3.477050 0.000000 0.000000 
#    y 0.000000 2.917740 0.000000 
#    z 0.000000 0.000000 3.755600 
# 
# 
# High freq. dielectric constant tensor:
#      x y z
#    x 1.689300 0.000000 0.000000 
#    y 0.000000 1.642920 0.000000 
#    z 0.000000 0.000000 1.705970 
# 
# From -- ./inp_files/3921.got.cif
#   From: 2010.03.12/outbox.cif.g09.slc.cpg/sg25_2_cif.got.tgz:3921.got - 2010.04.14 03:30:10.
