data_PCOD8166059
_publ_section_title
;
Structure prediction by ZEFSAII (Michael W. Deem and Ramdas Pophale) SiO2 
 PCOD8166059
Probable space group: I 21 21 21
;
_chemical_formula_sum "Si O2"
_cell_formula_units_Z 64
_cell_length_a 14.732231
_cell_length_b 18.076231
_cell_length_c 11.260589
_cell_angle_alpha 90.000000
_cell_angle_beta 90.000000
_cell_angle_gamma 90.000000
_cell_volume 2998.731005
_symmetry_space_group_name_H-M "I 21 21 21"
_symmetry_group_IT_number 24
_symmetry_cell_setting 'orthorhombic'
loop_
_space_group_symop_operation_xyz
x,y,z
-x,1/2-y,z
x,-y,1/2-z
1/2-x,y,-z
1/2+x,1/2+y,1/2+z
1/2-x,-y,1/2+z
1/2+x,1/2-y,-z
-x,1/2+y,1/2-z
loop_
_atom_site_type_symbol
_atom_site_label
_atom_site_fract_x
_atom_site_fract_y
_atom_site_fract_z
Si Si1 0.375209 0.413869 0.727932
Si Si2 0.206411 0.830972 0.251260
Si Si3 0.393475 0.336340 0.488928
Si Si4 0.393475 0.163660 0.511072
Si Si5 0.475220 0.834355 0.629163
Si Si6 0.024780 0.334355 0.870837
Si Si7 0.124791 0.086131 0.727932
Si Si8 0.206411 0.669028 0.748740
O O1 0.384649 0.500000 0.750000
O O2 0.352212 0.386996 0.593588
O O3 0.469311 0.378446 0.771325
O O4 0.286294 0.385067 0.796789
O O5 0.153151 0.860272 0.134016
O O6 0.132840 0.837471 0.355754
O O7 0.286294 0.885067 0.296789
O O8 0.250000 0.750000 0.234387
O O9 0.370329 0.250000 0.500000
O O10 0.500000 0.350666 0.500000
O O11 0.346849 0.360272 0.365984
O O12 0.352212 0.113004 0.406412
O O13 0.500000 0.750000 0.644658
O O14 0.500000 0.866399 0.500000
O O15 0.132840 0.337471 0.855754
O O16 0.000000 0.250000 0.855342
O O17 0.969311 0.378446 0.771325
O O18 0.115351 0.000000 0.750000
#
# Coordination Sequence:
#
# PCOD8166059 Si02
#       8
#     8   8   8   8   8   8   8   8
#     4  12  27  45  67 108 149 181 232 311 371 411
#     4  12  23  44  77 106 133 182 252 303 345 433
#     4  11  21  41  77 104 135 183 242 301 356 428
#     4  11  21  41  77 104 135 183 242 301 356 428
#     4  11  24  47  73  96 136 194 243 281 356 447
#     4  11  24  47  73  96 136 194 243 281 356 447
#     4  12  27  45  67 108 149 181 232 311 371 411
#     4  12  23  44  77 106 133 182 252 303 345 433
#
# _framework density 21.342362000000001
#
# number of rings (size 3 to 8) (size 9 to 14) (size 15 to 20)
#    0.000    0.500    7.500    0.750    0.000    3.000 
#    9.000    0.000    0.000    0.000    0.000    0.000 
#    0.000    0.000    0.000    0.000    0.000    0.000 
#
# Total GULP energy -396647.275646 kJ/mol
# GULP energy per Si atom -12395.227364 kJ/mol
# Density = 2.129379 g / cm^3
# Si number density = 21.342362 Si / 1000 Ang^3
#
#
#
# Elastic Constant Matrix: (Units=GPa)
#
#
# Indices 1 2 3 4 5 6 
#
# 1 155.0018 21.4603 28.5758 0.0000 0.0000 0.0000
# 2 21.4603 68.9755 36.1967 0.0000 0.0000 0.0000
# 3 28.5758 36.1967 98.6843 0.0000 0.0000 0.0000
# 4 0.0000 0.0000 0.0000 34.1084 0.0000 0.0000
# 5 0.0000 0.0000 0.0000 0.0000 27.8114 0.0000
# 6 0.0000 0.0000 0.0000 0.0000 0.0000 26.4997
#
#
#
# Elastic Compliance Matrix: (Units=1/GPa)
#
#
# Indices 1 2 3 4 5 6 
#
# 1 0.006917 -0.001364 -0.001503 0.000000 0.000000 0.000000
# 2 -0.001364 0.018222 -0.006289 0.000000 0.000000 0.000000
# 3 -0.001503 -0.006289 0.012875 0.000000 0.000000 0.000000
# 4 0.000000 0.000000 0.000000 0.029318 0.000000 0.000000
# 5 0.000000 0.000000 0.000000 0.000000 0.035956 0.000000
# 6 0.000000 0.000000 0.000000 0.000000 0.000000 0.037736
#
#
# Mechanical properties :
#
#
# Convention : Reuss Voigt Hill
#
# Bulk Modulus (GPa) = 50.75057 55.01412 52.88234
# Shear Modulus (GPa) = 30.13771 33.44584 31.79177
#
# Velocity S-wave (km/s) = 3.76188 3.96297 3.86373
# Velocity P-wave (km/s) = 6.53451 6.83908 6.68853
#
# Compressibility (1/GPa) = 0.01970421
#
# Stress axis : x y z
#
# Youngs Moduli (GPa) = 144.56314 54.87736 77.66813
#
# Poissons Ratio (x) = 0.07483 0.11673
# Poissons Ratio (y) = 0.19711 0.48846
# Poissons Ratio (z) = 0.21727 0.34513
#
# Static dielectric constant tensor:
#      x y z
#    x 3.811920 0.000000 0.000000 
#    y 0.000000 3.560210 0.000000 
#    z 0.000000 0.000000 3.997310 
# 
# 
# High freq. dielectric constant tensor:
#      x y z
#    x 1.868590 0.000000 0.000000 
#    y 0.000000 1.802140 0.000000 
#    z 0.000000 0.000000 1.830330 
# 
# From -- ./inp_files/21069.got.cif
#   From: 2010.03.12/outbox.cif.g09.slc.cpg/sg24_11_cif.got.tgz:21069.got - 2010.04.14 03:06:53.
