data_PCOD8166136
_publ_section_title
;
Structure prediction by ZEFSAII (Michael W. Deem and Ramdas Pophale) SiO2 
 PCOD8166136
Probable space group: I 21 21 21
;
_chemical_formula_sum "Si O2"
_cell_formula_units_Z 56
_cell_length_a 18.787999
_cell_length_b 9.598976
_cell_length_c 14.129155
_cell_angle_alpha 90.000000
_cell_angle_beta 90.000000
_cell_angle_gamma 90.000000
_cell_volume 2548.130251
_symmetry_space_group_name_H-M "I 21 21 21"
_symmetry_group_IT_number 24
_symmetry_cell_setting 'orthorhombic'
loop_
_space_group_symop_operation_xyz
x,y,z
-x,1/2-y,z
x,-y,1/2-z
1/2-x,y,-z
1/2+x,1/2+y,1/2+z
1/2-x,-y,1/2+z
1/2+x,1/2-y,-z
-x,1/2+y,1/2-z
loop_
_atom_site_type_symbol
_atom_site_label
_atom_site_fract_x
_atom_site_fract_y
_atom_site_fract_z
Si Si1 0.969300 0.403833 0.166196
Si Si2 0.795284 0.270008 0.909104
Si Si3 0.737913 0.220011 0.390769
Si Si4 0.369233 0.958542 0.144136
Si Si5 0.369884 0.505074 0.358697
Si Si6 0.312042 0.848570 0.737048
Si Si7 0.501334 0.092022 0.484853
O O1 0.002048 0.500000 0.250000
O O2 0.886261 0.379385 0.186494
O O3 0.000000 0.250000 0.163901
O O4 0.985316 0.482655 0.068648
O O5 0.829014 0.423099 0.916413
O O6 0.738717 0.253986 0.825550
O O7 0.860056 0.164194 0.891213
O O8 0.750000 0.231754 0.000000
O O9 0.750000 0.244725 0.500000
O O10 0.677652 0.320942 0.350195
O O11 0.708345 0.066220 0.368722
O O12 0.812407 0.261782 0.336720
O O13 0.442655 0.923006 0.094680
O O14 0.389202 0.000000 0.250000
O O15 0.397458 0.500000 0.250000
O O16 0.423591 0.435943 0.433575
O O17 0.274487 0.000000 0.750000
O O18 0.500000 0.250000 0.525809
#
# Coordination Sequence:
#
# PCOD8166136 Si02
#       7
#     8   8   8   8   8   8   8
#     4  11  28  51  76 110 147 198 250 300 360 437
#     4  12  24  41  70 105 143 180 237 308 366 437
#     4  12  24  43  73 106 140 187 244 296 373 446
#     4  12  23  45  71 104 142 188 245 298 368 444
#     4  12  26  48  68 105 148 185 242 308 380 443
#     4  11  23  44  72 103 143 188 237 296 361 434
#     4  12  28  47  74 104 147 201 246 304 372 451
#
# _framework density 21.976897999999998
#
# number of rings (size 3 to 8) (size 9 to 14) (size 15 to 20)
#    0.000    0.286    5.714    2.571    8.000    1.143 
#    2.571    0.000    0.000    0.000    0.000    0.000 
#    0.000    0.000    0.000    0.000    0.000    0.000 
#
# Total GULP energy -347169.987749 kJ/mol
# GULP energy per Si atom -12398.928134 kJ/mol
# Density = 2.192688 g / cm^3
# Si number density = 21.976898 Si / 1000 Ang^3
#
#
#
# Elastic Constant Matrix: (Units=GPa)
#
#
# Indices 1 2 3 4 5 6 
#
# 1 72.2703 35.6638 41.5210 0.0000 0.0000 0.0000
# 2 35.6638 116.1915 43.1115 0.0000 0.0000 0.0000
# 3 41.5210 43.1115 133.9021 0.0000 0.0000 0.0000
# 4 0.0000 0.0000 0.0000 19.6186 0.0000 0.0000
# 5 0.0000 0.0000 0.0000 0.0000 29.9118 0.0000
# 6 0.0000 0.0000 0.0000 0.0000 0.0000 36.0741
#
#
#
# Elastic Compliance Matrix: (Units=1/GPa)
#
#
# Indices 1 2 3 4 5 6 
#
# 1 0.018336 -0.003996 -0.004399 0.000000 0.000000 0.000000
# 2 -0.003996 0.010645 -0.002188 0.000000 0.000000 0.000000
# 3 -0.004399 -0.002188 0.009537 0.000000 0.000000 0.000000
# 4 0.000000 0.000000 0.000000 0.050972 0.000000 0.000000
# 5 0.000000 0.000000 0.000000 0.000000 0.033432 0.000000
# 6 0.000000 0.000000 0.000000 0.000000 0.000000 0.027721
#
#
# Mechanical properties :
#
#
# Convention : Reuss Voigt Hill
#
# Bulk Modulus (GPa) = 57.63251 62.55073 60.09162
# Shear Modulus (GPa) = 28.15429 30.59208 29.37319
#
# Velocity S-wave (km/s) = 3.58311 3.73501 3.65985
# Velocity P-wave (km/s) = 6.58781 6.86471 6.72769
#
# Compressibility (1/GPa) = 0.01735132
#
# Stress axis : x y z
#
# Youngs Moduli (GPa) = 54.53661 93.94200 104.85680
#
# Poissons Ratio (x) = 0.37538 0.46130
# Poissons Ratio (y) = 0.21792 0.22945
# Poissons Ratio (z) = 0.23992 0.20556
#
# Static dielectric constant tensor:
#      x y z
#    x 4.024240 0.000000 0.000000 
#    y 0.000000 4.284880 0.000000 
#    z 0.000000 0.000000 3.828080 
# 
# 
# High freq. dielectric constant tensor:
#      x y z
#    x 1.853430 0.000000 0.000000 
#    y 0.000000 1.877350 0.000000 
#    z 0.000000 0.000000 1.879820 
# 
# From -- ./inp_files/27556.got.cif
#   From: 2010.03.12/outbox.cif.g09.slc.cpg/sg24_14_cif.got.tgz:27556.got - 2010.04.14 03:06:53.
