data_PCOD8166329
_publ_section_title
;
Structure prediction by ZEFSAII (Michael W. Deem and Ramdas Pophale) SiO2 
 PCOD8166329
Probable space group: P M M 2
;
_chemical_formula_sum "Si O2"
_cell_formula_units_Z 32
_cell_length_a 9.584162
_cell_length_b 14.206050
_cell_length_c 15.759420
_cell_angle_alpha 90.000000
_cell_angle_beta 90.000000
_cell_angle_gamma 90.000000
_cell_volume 2145.693644
_symmetry_space_group_name_H-M "P M M 2"
_symmetry_group_IT_number 25
_symmetry_cell_setting 'orthorhombic'
loop_
_space_group_symop_operation_xyz
x,y,z
-x,-y,z
-x,y,z
x,-y,z
loop_
_atom_site_type_symbol
_atom_site_label
_atom_site_fract_x
_atom_site_fract_y
_atom_site_fract_z
Si Si1 0.340207 0.104668 0.582460
Si Si2 0.660800 0.705842 0.662362
Si Si3 0.834645 0.395224 0.990569
Si Si4 0.165737 0.607035 0.172663
Si Si5 0.162282 0.611239 0.807116
Si Si6 0.163338 0.295070 0.340173
Si Si7 0.660528 0.610413 0.486817
Si Si8 0.839739 0.104446 0.418978
O O1 0.500000 0.111036 0.552258
O O2 0.312062 0.181699 0.655382
O O3 0.249438 0.129883 0.500994
O O4 0.304614 0.000000 0.617604
O O5 0.500000 0.682799 0.681843
O O6 0.751500 0.667697 0.738604
O O7 0.707625 0.657178 0.574957
O O8 0.773396 0.500000 0.993076
O O9 0.785772 0.348769 0.080597
O O10 0.000000 0.400196 0.987882
O O11 0.787769 0.349582 0.900607
O O12 0.221317 0.500000 0.184242
O O13 0.222802 0.672110 0.248749
O O14 0.000000 0.605730 0.175311
O O15 0.191838 0.500000 0.799930
O O16 0.000000 0.632328 0.791678
O O17 0.243264 0.351270 0.412444
O O18 0.190742 0.182778 0.347283
O O19 0.000000 0.318920 0.349765
O O20 0.500000 0.635532 0.466415
O O21 0.683932 0.500000 0.495654
O O22 0.000000 0.108483 0.447742
O O23 0.801899 0.000000 0.383634
#
# Coordination Sequence:
#
# PCOD8166329 Si02
#       8
#     4   4   4   4   4   4   4   4
#     4   9  17  30  47  62  76 101 140 178 205 238
#     4  10  19  30  43  60  83 110 138 168 206 249
#     4   7  11  22  39  58  80 104 132 170 209 238
#     4   8  13  22  38  60  83 105 133 170 206 238
#     4   9  17  28  43  63  84 108 141 175 203 238
#     4  10  18  27  42  63  83 107 142 175 200 237
#     4  10  20  31  40  54  83 118 142 161 196 244
#     4   9  17  28  41  59  84 109 133 170 216 246
#
# _framework density 14.913593000000001
#
# number of rings (size 3 to 8) (size 9 to 14) (size 15 to 20)
#    0.000    3.000    1.250    2.250    0.000    2.500 
#    0.000    0.000    0.000    0.750    0.000    2.625 
#    0.000    3.000    0.000    0.000    0.000    0.000 
#
# Total GULP energy -396429.775175 kJ/mol
# GULP energy per Si atom -12388.430474 kJ/mol
# Density = 1.487965 g / cm^3
# Si number density = 14.913593 Si / 1000 Ang^3
#
#
#
# Elastic Constant Matrix: (Units=GPa)
#
#
# Indices 1 2 3 4 5 6 
#
# 1 35.1459 29.9796 45.8345 0.0000 0.0000 0.0000
# 2 29.9796 82.1422 63.9678 0.0000 0.0000 0.0000
# 3 45.8345 63.9678 150.1944 0.0000 0.0000 0.0000
# 4 0.0000 0.0000 0.0000 9.0115 0.0000 0.0000
# 5 0.0000 0.0000 0.0000 0.0000 -5.7246 0.0000
# 6 0.0000 0.0000 0.0000 0.0000 0.0000 17.5432
#
#
#
# Elastic Compliance Matrix: (Units=1/GPa)
#
#
# Indices 1 2 3 4 5 6 
#
# 1 0.052175 -0.009940 -0.011689 0.000000 0.000000 0.000000
# 2 -0.009940 0.020109 -0.005531 0.000000 0.000000 0.000000
# 3 -0.011689 -0.005531 0.012581 0.000000 0.000000 0.000000
# 4 0.000000 0.000000 0.000000 0.110969 0.000000 0.000000
# 5 0.000000 0.000000 0.000000 0.000000 -0.174686 0.000000
# 6 0.000000 0.000000 0.000000 0.000000 0.000000 0.057002
#
#
# Mechanical properties :
#
#
# Convention : Reuss Voigt Hill
#
# Bulk Modulus (GPa) = 32.73804 60.78293 46.76049
# Shear Modulus (GPa) = 35.05032 12.67941 23.86487
#
# Velocity S-wave (km/s) = 4.85317 2.91897 4.00460
# Velocity P-wave (km/s) = 7.30779 7.22535 7.26669
#
# Compressibility (1/GPa) = 0.03054551
#
# Stress axis : x y z
#
# Youngs Moduli (GPa) = 19.16616 49.72858 79.48610
#
# Poissons Ratio (x) = 0.49430 0.92910
# Poissons Ratio (y) = 0.19051 0.43965
# Poissons Ratio (z) = 0.22403 0.27506
#
# Static dielectric constant tensor:
#      x y z
#    x 2.704490 0.000000 0.000000 
#    y 0.000000 3.001970 0.000000 
#    z 0.000000 0.000000 3.121890 
# 
# 
# High freq. dielectric constant tensor:
#      x y z
#    x 1.549920 0.000000 0.000000 
#    y 0.000000 1.556850 0.000000 
#    z 0.000000 0.000000 1.563860 
# 
# From -- ./inp_files/5723.got.cif
#   From: 2010.03.12/outbox.cif.g09.slc.cpg/sg25_3_cif.got.tgz:5723.got - 2010.04.14 03:30:10.
