data_PCOD8166210
_publ_section_title
;
Structure prediction by ZEFSAII (Michael W. Deem and Ramdas Pophale) SiO2 
 PCOD8166210
Probable space group: I 21 21 21
;
_chemical_formula_sum "Si O2"
_cell_formula_units_Z 48
_cell_length_a 29.996752
_cell_length_b 5.097792
_cell_length_c 15.506308
_cell_angle_alpha 90.000000
_cell_angle_beta 90.000000
_cell_angle_gamma 90.000000
_cell_volume 2371.181238
_symmetry_space_group_name_H-M "I 21 21 21"
_symmetry_group_IT_number 24
_symmetry_cell_setting 'orthorhombic'
loop_
_space_group_symop_operation_xyz
x,y,z
-x,1/2-y,z
x,-y,1/2-z
1/2-x,y,-z
1/2+x,1/2+y,1/2+z
1/2-x,-y,1/2+z
1/2+x,1/2-y,-z
-x,1/2+y,1/2-z
loop_
_atom_site_type_symbol
_atom_site_label
_atom_site_fract_x
_atom_site_fract_y
_atom_site_fract_z
Si Si1 0.525892 0.507002 0.559435
Si Si2 0.453405 0.000000 0.750000
Si Si3 0.662123 0.988909 0.596752
Si Si4 0.129152 0.000024 0.494665
Si Si5 0.240309 0.444973 0.899740
Si Si6 0.101112 0.500000 0.250000
Si Si7 0.814218 0.555499 0.848574
O O1 0.500000 0.250000 0.528189
O O2 0.519156 0.550901 0.662842
O O3 0.576614 0.504753 0.525459
O O4 0.500000 0.750000 0.515577
O O5 0.426517 0.747488 0.780607
O O6 0.653321 0.779643 0.520895
O O7 0.710534 0.967025 0.641115
O O8 0.653193 0.282295 0.563964
O O9 0.628695 0.896571 0.670005
O O10 0.140057 0.056803 0.595242
O O11 0.208254 0.659646 0.857065
O O12 0.220905 0.157261 0.883429
O O13 0.250000 0.502248 0.000000
O O14 0.827463 0.500000 0.750000
#
# Coordination Sequence:
#
# PCOD8166210 Si02
#       7
#     8   4   8   8   8   4   8
#     4  12  24  40  61  90 120 160 205 256 318 384
#     4  12  22  39  60  88 132 160 204 254 308 365
#     4  12  23  38  61  89 126 172 209 244 299 361
#     4  12  23  44  64  84 124 167 206 260 310 376
#     4  12  23  42  65  93 129 169 211 260 305 368
#     4  12  22  37  56  90 128 170 206 242 290 377
#     4  12  26  43  65  97 127 167 219 265 316 364
#
# _framework density 20.243075999999999
#
# number of rings (size 3 to 8) (size 9 to 14) (size 15 to 20)
#    0.000    0.000    6.667    4.500    2.333    0.000 
#    0.000    0.000    0.000    1.000    0.000    0.000 
#    0.000    0.000    0.000    0.000    0.000    0.000 
#
# Total GULP energy -297552.477374 kJ/mol
# GULP energy per Si atom -12398.019891 kJ/mol
# Density = 2.019700 g / cm^3
# Si number density = 20.243076 Si / 1000 Ang^3
#
#
#
# Elastic Constant Matrix: (Units=GPa)
#
#
# Indices 1 2 3 4 5 6 
#
# 1 113.2757 43.3203 21.8798 0.0000 0.0000 0.0000
# 2 43.3203 117.5455 5.2308 0.0000 0.0000 0.0000
# 3 21.8798 5.2308 82.6951 0.0000 0.0000 0.0000
# 4 0.0000 0.0000 0.0000 20.9590 0.0000 0.0000
# 5 0.0000 0.0000 0.0000 0.0000 24.3479 0.0000
# 6 0.0000 0.0000 0.0000 0.0000 0.0000 21.7782
#
#
#
# Elastic Compliance Matrix: (Units=1/GPa)
#
#
# Indices 1 2 3 4 5 6 
#
# 1 0.010813 -0.003869 -0.002616 0.000000 0.000000 0.000000
# 2 -0.003869 0.009915 0.000396 0.000000 0.000000 0.000000
# 3 -0.002616 0.000396 0.012760 0.000000 0.000000 0.000000
# 4 0.000000 0.000000 0.000000 0.047712 0.000000 0.000000
# 5 0.000000 0.000000 0.000000 0.000000 0.041071 0.000000
# 6 0.000000 0.000000 0.000000 0.000000 0.000000 0.045917
#
#
# Mechanical properties :
#
#
# Convention : Reuss Voigt Hill
#
# Bulk Modulus (GPa) = 46.92361 50.48646 48.70504
# Shear Modulus (GPa) = 26.67102 29.62271 28.14686
#
# Velocity S-wave (km/s) = 3.63373 3.82953 3.73291
# Velocity P-wave (km/s) = 6.39028 6.67443 6.53390
#
# Compressibility (1/GPa) = 0.02131123
#
# Stress axis : x y z
#
# Youngs Moduli (GPa) = 92.48294 100.85302 78.37142
#
# Poissons Ratio (x) = 0.39015 0.20504
# Poissons Ratio (y) = 0.35777 -0.03106
# Poissons Ratio (z) = 0.24195 -0.03997
#
# Static dielectric constant tensor:
#      x y z
#    x 3.907890 0.000000 0.000000 
#    y 0.000000 3.852140 0.000000 
#    z 0.000000 0.000000 3.641050 
# 
# 
# High freq. dielectric constant tensor:
#      x y z
#    x 1.791590 0.000000 0.000000 
#    y 0.000000 1.819340 0.000000 
#    z 0.000000 0.000000 1.760550 
# 
# From -- ./inp_files/28038.got.cif
#   From: 2010.03.12/outbox.cif.g09.slc.cpg/sg24_15_cif.got.tgz:28038.got - 2010.04.14 03:06:53.
