data_PCOD8166003
_publ_section_title
;
Structure prediction by ZEFSAII (Michael W. Deem and Ramdas Pophale) SiO2 
 PCOD8166003
Probable space group: I 21 21 21
;
_chemical_formula_sum "Si O2"
_cell_formula_units_Z 64
_cell_length_a 9.441464
_cell_length_b 13.055217
_cell_length_c 30.662369
_cell_angle_alpha 90.000000
_cell_angle_beta 90.000000
_cell_angle_gamma 90.000000
_cell_volume 3779.454682
_symmetry_space_group_name_H-M "I 21 21 21"
_symmetry_group_IT_number 24
_symmetry_cell_setting 'orthorhombic'
loop_
_space_group_symop_operation_xyz
x,y,z
-x,1/2-y,z
x,-y,1/2-z
1/2-x,y,-z
1/2+x,1/2+y,1/2+z
1/2-x,-y,1/2+z
1/2+x,1/2-y,-z
-x,1/2+y,1/2-z
loop_
_atom_site_type_symbol
_atom_site_label
_atom_site_fract_x
_atom_site_fract_y
_atom_site_fract_z
Si Si1 0.459690 0.064470 0.685967
Si Si2 0.509106 0.948687 0.183210
Si Si3 0.282909 0.146806 0.368544
Si Si4 0.340977 0.864312 0.959679
Si Si5 0.731769 0.884167 0.864960
Si Si6 0.159092 0.380040 0.459550
Si Si7 0.081962 0.149286 0.773212
Si Si8 0.418974 0.148865 0.778100
O O1 0.307536 0.102482 0.671042
O O2 0.571921 0.108068 0.651848
O O3 0.489239 0.114387 0.732763
O O4 0.453502 0.940930 0.687459
O O5 0.438697 0.896842 0.140666
O O6 0.673961 0.950731 0.168717
O O7 0.480100 0.881216 0.226103
O O8 0.455024 0.063206 0.191213
O O9 0.231359 0.101804 0.414587
O O10 0.285134 0.268375 0.365552
O O11 0.495993 0.915485 0.963243
O O12 0.344211 0.742188 0.960076
O O13 0.250000 0.907031 0.000000
O O14 0.730066 0.923296 0.915115
O O15 0.250000 0.423455 0.500000
O O16 0.250766 0.166735 0.772409
O O17 0.000000 0.250000 0.788816
O O18 0.500000 0.250000 0.794711
#
# Coordination Sequence:
#
# PCOD8166003 Si02
#       8
#     8   8   8   8   8   8   8   8
#     4  11  21  36  53  75 103 131 181 216 248 299
#     4  11  23  36  52  75 104 136 177 212 255 305
#     4  11  18  35  51  73 105 141 174 212 248 299
#     4   9  18  29  47  68  99 139 170 203 252 303
#     4  11  22  31  53  78 101 142 174 211 250 303
#     4   9  18  31  43  69 104 133 170 208 248 301
#     4  11  23  39  53  72 106 135 169 219 263 303
#     4  11  23  37  56  74 100 137 170 218 265 300
#
# _framework density 16.93366
#
# number of rings (size 3 to 8) (size 9 to 14) (size 15 to 20)
#    0.000    1.500    3.750    3.000    5.250    1.000 
#    0.000    0.000    0.000    0.000    0.000    0.000 
#    0.000    6.000    0.000    0.000    0.000    0.000 
#
# Total GULP energy -396770.438573 kJ/mol
# GULP energy per Si atom -12399.076205 kJ/mol
# Density = 1.689512 g / cm^3
# Si number density = 16.933660 Si / 1000 Ang^3
#
#
#
# Elastic Constant Matrix: (Units=GPa)
#
#
# Indices 1 2 3 4 5 6 
#
# 1 76.6617 29.9332 34.3374 0.0000 0.0000 0.0000
# 2 29.9332 64.1724 17.6731 0.0000 0.0000 0.0000
# 3 34.3374 17.6731 86.7160 0.0000 0.0000 0.0000
# 4 0.0000 0.0000 0.0000 12.9736 0.0000 0.0000
# 5 0.0000 0.0000 0.0000 0.0000 20.0559 0.0000
# 6 0.0000 0.0000 0.0000 0.0000 0.0000 24.9540
#
#
#
# Elastic Compliance Matrix: (Units=1/GPa)
#
#
# Indices 1 2 3 4 5 6 
#
# 1 0.018389 -0.006963 -0.005862 0.000000 0.000000 0.000000
# 2 -0.006963 0.019146 -0.001145 0.000000 0.000000 0.000000
# 3 -0.005862 -0.001145 0.014087 0.000000 0.000000 0.000000
# 4 0.000000 0.000000 0.000000 0.077079 0.000000 0.000000
# 5 0.000000 0.000000 0.000000 0.000000 0.049861 0.000000
# 6 0.000000 0.000000 0.000000 0.000000 0.000000 0.040074
#
#
# Mechanical properties :
#
#
# Convention : Reuss Voigt Hill
#
# Bulk Modulus (GPa) = 42.22790 43.49307 42.86048
# Shear Modulus (GPa) = 19.64867 21.30379 20.47623
#
# Velocity S-wave (km/s) = 3.41006 3.55078 3.48113
# Velocity P-wave (km/s) = 6.36365 6.52310 6.44387
#
# Compressibility (1/GPa) = 0.02368103
#
# Stress axis : x y z
#
# Youngs Moduli (GPa) = 54.38055 52.22959 70.98930
#
# Poissons Ratio (x) = 0.36367 0.41617
# Poissons Ratio (y) = 0.37865 0.08128
# Poissons Ratio (z) = 0.31880 0.05980
#
# Static dielectric constant tensor:
#      x y z
#    x 3.264100 0.000000 0.000000 
#    y 0.000000 2.901200 0.000000 
#    z 0.000000 0.000000 3.181820 
# 
# 
# High freq. dielectric constant tensor:
#      x y z
#    x 1.670810 0.000000 0.000000 
#    y 0.000000 1.607280 0.000000 
#    z 0.000000 0.000000 1.645580 
# 
# From -- ./inp_files/38462.got.cif
#   From: 2010.03.12/outbox.cif.g09.slc.cpg/sg24_20_cif.got.tgz:38462.got - 2010.04.14 03:06:53.
