data_PCOD8166911
_publ_section_title
;
Structure prediction by ZEFSAII (Michael W. Deem and Ramdas Pophale) SiO2 
 PCOD8166911
Probable space group: P M M 2
;
_chemical_formula_sum "Si O2"
_cell_formula_units_Z 28
_cell_length_a 8.908396
_cell_length_b 9.351010
_cell_length_c 17.873037
_cell_angle_alpha 90.000000
_cell_angle_beta 90.000000
_cell_angle_gamma 90.000000
_cell_volume 1488.868666
_symmetry_space_group_name_H-M "P M M 2"
_symmetry_group_IT_number 25
_symmetry_cell_setting 'orthorhombic'
loop_
_space_group_symop_operation_xyz
x,y,z
-x,-y,z
-x,y,z
x,-y,z
loop_
_atom_site_type_symbol
_atom_site_label
_atom_site_fract_x
_atom_site_fract_y
_atom_site_fract_z
Si Si1 0.325264 0.664549 0.965690
Si Si2 0.825154 0.666195 0.385133
Si Si3 0.672110 0.665768 0.538163
Si Si4 0.675735 0.833512 0.252759
Si Si5 0.177107 0.663653 0.119518
Si Si6 0.673045 0.166387 0.683004
Si Si7 0.828067 0.831481 0.834310
O O1 0.500000 0.690504 0.979247
O O2 0.288613 0.500000 0.947903
O O3 0.271799 0.757786 0.896678
O O4 0.239260 0.715511 0.039851
O O5 0.789839 0.500000 0.369456
O O6 0.774702 0.709534 0.468263
O O7 0.731288 0.760814 0.328344
O O8 0.000000 0.699529 0.375231
O O9 0.500000 0.705890 0.519471
O O10 0.688862 0.500000 0.557327
O O11 0.731482 0.751636 0.609866
O O12 0.500000 0.806940 0.244250
O O13 0.757546 0.765127 0.182433
O O14 0.716306 0.000000 0.255989
O O15 0.225890 0.500000 0.135684
O O16 0.000000 0.679617 0.118924
O O17 0.500000 0.203482 0.699741
O O18 0.770309 0.218946 0.753306
O O19 0.696698 0.000000 0.667587
O O20 0.000000 0.784132 0.843412
O O21 0.807246 0.000000 0.843281
#
# Coordination Sequence:
#
# PCOD8166911 Si02
#       7
#     4   4   4   4   4   4   4
#     4  10  21  37  58  83 109 140 180 223 267 317
#     4  10  21  37  57  81 109 142 180 221 268 321
#     4   9  18  33  53  77 105 138 177 220 265 315
#     4  11  24  39  56  81 111 143 181 222 264 314
#     4  10  21  38  60  84 110 141 177 218 267 321
#     4   9  18  33  52  74 103 140 180 221 265 315
#     4  10  21  36  54  78 109 145 183 222 268 321
#
# _framework density 18.806225000000001
#
# number of rings (size 3 to 8) (size 9 to 14) (size 15 to 20)
#    0.000    2.143    0.000    2.571    0.000    8.571 
#    0.000    2.857    0.000    0.000    0.000    0.000 
#    0.000    0.000    0.000    0.000    0.000    0.000 
#
# Total GULP energy -347332.724981 kJ/mol
# GULP energy per Si atom -12404.740178 kJ/mol
# Density = 1.876342 g / cm^3
# Si number density = 18.806225 Si / 1000 Ang^3
#
#
#
# Elastic Constant Matrix: (Units=GPa)
#
#
# Indices 1 2 3 4 5 6 
#
# 1 69.1113 36.6324 43.1459 0.0000 0.0000 0.0000
# 2 36.6324 57.3548 59.1680 0.0000 0.0000 0.0000
# 3 43.1459 59.1680 134.7276 0.0000 0.0000 0.0000
# 4 0.0000 0.0000 0.0000 61.1283 0.0000 0.0000
# 5 0.0000 0.0000 0.0000 0.0000 91.8036 0.0000
# 6 0.0000 0.0000 0.0000 0.0000 0.0000 22.9933
#
#
#
# Elastic Compliance Matrix: (Units=1/GPa)
#
#
# Indices 1 2 3 4 5 6 
#
# 1 0.022063 -0.012437 -0.001603 0.000000 0.000000 0.000000
# 2 -0.012437 0.038889 -0.013096 0.000000 0.000000 0.000000
# 3 -0.001603 -0.013096 0.013687 0.000000 0.000000 0.000000
# 4 0.000000 0.000000 0.000000 0.016359 0.000000 0.000000
# 5 0.000000 0.000000 0.000000 0.000000 0.010893 0.000000
# 6 0.000000 0.000000 0.000000 0.000000 0.000000 0.043491
#
#
# Mechanical properties :
#
#
# Convention : Reuss Voigt Hill
#
# Bulk Modulus (GPa) = 49.10215 59.89847 54.50031
# Shear Modulus (GPa) = 24.21977 43.33485 33.77731
#
# Velocity S-wave (km/s) = 3.59257 4.80550 4.24261
# Velocity P-wave (km/s) = 6.58597 7.91896 7.28302
#
# Compressibility (1/GPa) = 0.02036571
#
# Stress axis : x y z
#
# Youngs Moduli (GPa) = 45.32504 25.71444 73.06170
#
# Poissons Ratio (x) = 0.31982 0.11715
# Poissons Ratio (y) = 0.56372 0.95679
# Poissons Ratio (z) = 0.07268 0.33675
#
# Static dielectric constant tensor:
#      x y z
#    x 3.402400 0.000000 0.000000 
#    y 0.000000 3.428030 0.000000 
#    z 0.000000 0.000000 3.603420 
# 
# 
# High freq. dielectric constant tensor:
#      x y z
#    x 1.738670 0.000000 0.000000 
#    y 0.000000 1.723600 0.000000 
#    z 0.000000 0.000000 1.743170 
# 
# From -- ./inp_files/6076.got.cif
#   From: 2010.03.12/outbox.cif.g09.slc.cpg/sg25_4_cif.got.tgz:6076.got - 2010.04.14 03:30:10.
