data_PCOD8166684
_publ_section_title
;
Structure prediction by ZEFSAII (Michael W. Deem and Ramdas Pophale) SiO2 
 PCOD8166684
Probable space group: P M M 2
;
_chemical_formula_sum "Si O2"
_cell_formula_units_Z 32
_cell_length_a 9.093878
_cell_length_b 9.603241
_cell_length_c 20.751177
_cell_angle_alpha 90.000000
_cell_angle_beta 90.000000
_cell_angle_gamma 90.000000
_cell_volume 1812.214856
_symmetry_space_group_name_H-M "P M M 2"
_symmetry_group_IT_number 25
_symmetry_cell_setting 'orthorhombic'
loop_
_space_group_symop_operation_xyz
x,y,z
-x,-y,z
-x,y,z
x,-y,z
loop_
_atom_site_type_symbol
_atom_site_label
_atom_site_fract_x
_atom_site_fract_y
_atom_site_fract_z
Si Si1 0.828519 0.837824 0.497310
Si Si2 0.334052 0.666115 0.134555
Si Si3 0.663885 0.665872 0.886247
Si Si4 0.330415 0.838769 0.627973
Si Si5 0.165051 0.666121 0.009268
Si Si6 0.165687 0.334495 0.259556
Si Si7 0.324821 0.344932 0.745408
Si Si8 0.327912 0.337302 0.388123
O O1 0.767176 0.795916 0.567092
O O2 0.741919 0.747638 0.445937
O O3 0.000000 0.801187 0.494347
O O4 0.799100 0.000000 0.483240
O O5 0.500000 0.723212 0.137155
O O6 0.333372 0.500000 0.135341
O O7 0.257824 0.722820 0.069760
O O8 0.245916 0.725032 0.196145
O O9 0.500000 0.726474 0.896707
O O10 0.657169 0.500000 0.889038
O O11 0.727984 0.709640 0.815923
O O12 0.766688 0.725325 0.942932
O O13 0.500000 0.800027 0.613361
O O14 0.266939 0.755870 0.689364
O O15 0.313498 0.000000 0.644664
O O16 0.166949 0.500000 0.008847
O O17 0.000000 0.723194 0.015522
O O18 0.163231 0.500000 0.256558
O O19 0.254157 0.284168 0.322192
O O20 0.000000 0.275057 0.262468
O O21 0.500000 0.347889 0.746710
O O22 0.263460 0.500000 0.731809
O O23 0.500000 0.305725 0.383961
O O24 0.296689 0.500000 0.399711
#
# Coordination Sequence:
#
# PCOD8166684 Si02
#       8
#     4   4   4   4   4   4   4   4
#     4  10  21  36  52  70  94 124 156 191 233 279
#     4   9  15  22  33  50  75 110 150 185 216 258
#     4   8  13  22  35  50  71 102 138 173 210 255
#     4   9  17  30  48  68  89 114 146 185 227 270
#     4   9  15  21  30  47  73 105 140 177 217 260
#     4   9  16  26  40  59  86 118 149 184 227 271
#     4   8  14  25  42  63  86 113 145 180 219 265
#     4  10  20  33  50  72  96 123 156 193 233 278
#
# _framework density 17.65795
#
# number of rings (size 3 to 8) (size 9 to 14) (size 15 to 20)
#    0.000    3.000    0.000    2.625    0.000    6.500 
#    0.000    1.875    0.000    0.750    0.000    0.000 
#    0.000    1.000    0.000    5.000    0.000    7.125 
#
# Total GULP energy -396704.761388 kJ/mol
# GULP energy per Si atom -12397.023793 kJ/mol
# Density = 1.761776 g / cm^3
# Si number density = 17.657950 Si / 1000 Ang^3
#
#
#
# Elastic Constant Matrix: (Units=GPa)
#
#
# Indices 1 2 3 4 5 6 
#
# 1 128.9126 28.1165 87.2219 0.0000 0.0000 0.0000
# 2 28.1165 26.7664 45.5588 0.0000 0.0000 0.0000
# 3 87.2219 45.5588 185.8126 0.0000 0.0000 0.0000
# 4 0.0000 0.0000 0.0000 -1.1858 0.0000 0.0000
# 5 0.0000 0.0000 0.0000 0.0000 17.0498 0.0000
# 6 0.0000 0.0000 0.0000 0.0000 0.0000 12.6504
#
#
#
# Elastic Compliance Matrix: (Units=1/GPa)
#
#
# Indices 1 2 3 4 5 6 
#
# 1 0.011756 -0.005074 -0.004274 0.000000 0.000000 0.000000
# 2 -0.005074 0.066309 -0.013877 0.000000 0.000000 0.000000
# 3 -0.004274 -0.013877 0.010790 0.000000 0.000000 0.000000
# 4 0.000000 0.000000 0.000000 -0.843338 0.000000 0.000000
# 5 0.000000 0.000000 0.000000 0.000000 0.058652 0.000000
# 6 0.000000 0.000000 0.000000 0.000000 0.000000 0.079049
#
#
# Mechanical properties :
#
#
# Convention : Reuss Voigt Hill
#
# Bulk Modulus (GPa) = 23.58128 73.69847 48.63987
# Shear Modulus (GPa) = -8.98960 17.74252 4.37646
#
# Velocity S-wave (km/s) = -2.25876 3.17328 1.57602
# Velocity P-wave (km/s) = 2.56530 7.43328 5.56032
#
# Compressibility (1/GPa) = 0.04240652
#
# Stress axis : x y z
#
# Youngs Moduli (GPa) = 85.06512 15.08092 92.67423
#
# Poissons Ratio (x) = 0.07651 0.39611
# Poissons Ratio (y) = 0.43158 1.28600
# Poissons Ratio (z) = 0.36359 0.20927
#
# Static dielectric constant tensor:
#      x y z
#    x 3.345960 0.000000 0.000000 
#    y 0.000000 2.751670 0.000000 
#    z 0.000000 0.000000 3.603520 
# 
# 
# High freq. dielectric constant tensor:
#      x y z
#    x 1.680540 0.000000 0.000000 
#    y 0.000000 1.613960 0.000000 
#    z 0.000000 0.000000 1.702670 
# 
# From -- ./inp_files/6270.got.cif
#   From: 2010.03.12/outbox.cif.g09.slc.cpg/sg25_4_cif.got.tgz:6270.got - 2010.04.14 03:30:10.
