data_PCOD8166613
_publ_section_title
;
Structure prediction by ZEFSAII (Michael W. Deem and Ramdas Pophale) SiO2 
 PCOD8166613
Probable space group: P M M 2
;
_chemical_formula_sum "Si O2"
_cell_formula_units_Z 28
_cell_length_a 9.144509
_cell_length_b 9.173782
_cell_length_c 18.492613
_cell_angle_alpha 90.000000
_cell_angle_beta 90.000000
_cell_angle_gamma 90.000000
_cell_volume 1551.340350
_symmetry_space_group_name_H-M "P M M 2"
_symmetry_group_IT_number 25
_symmetry_cell_setting 'orthorhombic'
loop_
_space_group_symop_operation_xyz
x,y,z
-x,-y,z
-x,y,z
x,-y,z
loop_
_atom_site_type_symbol
_atom_site_label
_atom_site_fract_x
_atom_site_fract_y
_atom_site_fract_z
Si Si1 0.830031 0.671062 0.483670
Si Si2 0.328627 0.830470 0.355015
Si Si3 0.826307 0.834932 0.624197
Si Si4 0.164953 0.825365 0.934075
Si Si5 0.335336 0.173962 0.072570
Si Si6 0.164772 0.826652 0.211787
Si Si7 0.173620 0.837419 0.779541
O O1 0.805131 0.500000 0.484759
O O2 0.735002 0.739456 0.420636
O O3 0.768392 0.734378 0.559366
O O4 0.000000 0.711612 0.471833
O O5 0.500000 0.801693 0.347628
O O6 0.252594 0.773097 0.281979
O O7 0.293818 0.000000 0.368373
O O8 0.776823 0.765474 0.702648
O O9 0.000000 0.838682 0.622393
O O10 0.766369 0.000000 0.614306
O O11 0.225160 0.764131 0.855780
O O12 0.000000 0.771073 0.949198
O O13 0.167587 0.000000 0.931216
O O14 0.266489 0.765060 0.998201
O O15 0.500000 0.232713 0.078872
O O16 0.243610 0.235572 0.140300
O O17 0.331986 0.000000 0.072720
O O18 0.000000 0.764884 0.215045
O O19 0.163615 0.000000 0.208779
O O20 0.000000 0.842762 0.784196
O O21 0.237209 0.000000 0.776007
#
# Coordination Sequence:
#
# PCOD8166613 Si02
#       7
#     4   4   4   4   4   4   4
#     4  10  20  32  47  69  95 121 151 188 230 277
#     4  10  20  33  49  68  90 118 153 191 231 276
#     4   8  13  23  41  63  86 114 149 188 227 265
#     4   8  12  18  29  46  70 101 137 175 214 257
#     4   9  15  21  30  48  78 113 143 171 210 261
#     4   9  16  26  41  60  82 110 145 183 221 263
#     4   7  10  17  31  52  75 101 138 181 219 256
#
# _framework density 18.048908999999998
#
# number of rings (size 3 to 8) (size 9 to 14) (size 15 to 20)
#    0.000    3.286    0.000    3.429    0.000    5.143 
#    0.000    0.000    0.000    0.857    0.000    4.000 
#    0.000    1.143    0.000    8.571    0.000    9.143 
#
# Total GULP energy -346870.768733 kJ/mol
# GULP energy per Si atom -12388.241740 kJ/mol
# Density = 1.800783 g / cm^3
# Si number density = 18.048909 Si / 1000 Ang^3
#
#
#
# Elastic Constant Matrix: (Units=GPa)
#
#
# Indices 1 2 3 4 5 6 
#
# 1 91.5823 22.5647 75.4113 0.0000 0.0000 0.0000
# 2 22.5647 27.6134 36.0600 0.0000 0.0000 0.0000
# 3 75.4113 36.0600 213.6235 0.0000 0.0000 0.0000
# 4 0.0000 0.0000 0.0000 -0.8646 0.0000 0.0000
# 5 0.0000 0.0000 0.0000 0.0000 5.9862 0.0000
# 6 0.0000 0.0000 0.0000 0.0000 0.0000 10.1217
#
#
#
# Elastic Compliance Matrix: (Units=1/GPa)
#
#
# Indices 1 2 3 4 5 6 
#
# 1 0.016538 -0.007556 -0.004563 0.000000 0.000000 0.000000
# 2 -0.007556 0.049907 -0.005757 0.000000 0.000000 0.000000
# 3 -0.004563 -0.005757 0.007264 0.000000 0.000000 0.000000
# 4 0.000000 0.000000 0.000000 -1.156590 0.000000 0.000000
# 5 0.000000 0.000000 0.000000 0.000000 0.167051 0.000000
# 6 0.000000 0.000000 0.000000 0.000000 0.000000 0.098797
#
#
# Mechanical properties :
#
#
# Convention : Reuss Voigt Hill
#
# Bulk Modulus (GPa) = 26.34556 66.76570 46.55563
# Shear Modulus (GPa) = -6.50508 16.30088 4.89790
#
# Velocity S-wave (km/s) = -1.90052 3.00851 1.64911
# Velocity P-wave (km/s) = 3.13249 7.00999 5.42920
#
# Compressibility (1/GPa) = 0.03795706
#
# Stress axis : x y z
#
# Youngs Moduli (GPa) = 60.46781 20.03740 137.67363
#
# Poissons Ratio (x) = 0.15140 0.62814
# Poissons Ratio (y) = 0.45689 0.79259
# Poissons Ratio (z) = 0.27589 0.11536
#
# Static dielectric constant tensor:
#      x y z
#    x 3.133830 0.000000 0.000000 
#    y 0.000000 2.703170 0.000000 
#    z 0.000000 0.000000 3.955420 
# 
# 
# High freq. dielectric constant tensor:
#      x y z
#    x 1.669530 0.000000 0.000000 
#    y 0.000000 1.620840 0.000000 
#    z 0.000000 0.000000 1.731370 
# 
# From -- ./inp_files/6232.got.cif
#   From: 2010.03.12/outbox.cif.g09.slc.cpg/sg25_4_cif.got.tgz:6232.got - 2010.04.14 03:30:10.
