data_PCOD8166193
_publ_section_title
;
Structure prediction by ZEFSAII (Michael W. Deem and Ramdas Pophale) SiO2 
 PCOD8166193
Probable space group: I 21 21 21
;
_chemical_formula_sum "Si O2"
_cell_formula_units_Z 60
_cell_length_a 27.360334
_cell_length_b 10.830274
_cell_length_c 9.389320
_cell_angle_alpha 90.000000
_cell_angle_beta 90.000000
_cell_angle_gamma 90.000000
_cell_volume 2782.242494
_symmetry_space_group_name_H-M "I 21 21 21"
_symmetry_group_IT_number 24
_symmetry_cell_setting 'orthorhombic'
loop_
_space_group_symop_operation_xyz
x,y,z
-x,1/2-y,z
x,-y,1/2-z
1/2-x,y,-z
1/2+x,1/2+y,1/2+z
1/2-x,-y,1/2+z
1/2+x,1/2-y,-z
-x,1/2+y,1/2-z
loop_
_atom_site_type_symbol
_atom_site_label
_atom_site_fract_x
_atom_site_fract_y
_atom_site_fract_z
Si Si1 0.528894 0.623935 0.832068
Si Si2 0.694562 0.214619 0.248063
Si Si3 0.664620 0.876368 0.536486
Si Si4 0.995515 0.888548 0.849064
Si Si5 0.228939 0.893360 0.149676
Si Si6 0.736681 0.000000 0.750000
Si Si7 0.871070 0.261174 0.302290
Si Si8 0.386332 0.606416 0.068385
O O1 0.500000 0.750000 0.783913
O O2 0.509639 0.500000 0.750000
O O3 0.586858 0.635172 0.797523
O O4 0.524091 0.605683 0.001308
O O5 0.722796 0.339974 0.276592
O O6 0.643595 0.202514 0.332697
O O7 0.729204 0.107336 0.310142
O O8 0.689294 0.214747 0.077133
O O9 0.704709 0.955186 0.618776
O O10 0.632487 0.796223 0.644701
O O11 0.634443 0.968370 0.435692
O O12 0.938971 0.912701 0.868052
O O13 0.000000 0.750000 0.781592
O O14 0.016708 0.000000 0.750000
O O15 0.182160 0.802653 0.138401
O O16 0.208450 0.000000 0.250000
O O17 0.250000 0.940716 0.000000
O O18 0.890001 0.154833 0.407356
#
# Coordination Sequence:
#
# PCOD8166193 Si02
#       8
#     8   8   8   8   8   4   8   8
#     4  11  26  49  74 105 139 178 233 297 359 429
#     4  12  25  41  63 101 140 179 228 286 336 408
#     4  12  24  37  69 103 141 184 228 277 346 421
#     4  11  25  48  76 104 142 182 233 296 365 435
#     4  12  28  45  67  92 137 190 237 282 341 415
#     4  12  22  34  64 100 140 174 216 268 334 394
#     4  12  24  44  69  98 141 179 231 287 352 416
#     4  12  22  45  67 105 139 180 222 293 352 418
#
# _framework density 21.565338000000001
#
# number of rings (size 3 to 8) (size 9 to 14) (size 15 to 20)
#    0.000    0.267    8.000    1.600    3.733    0.533 
#    2.400    1.333    0.000    0.000    0.000    0.000 
#    0.000    0.000    0.000    0.000    0.000    0.000 
#
# Total GULP energy -371947.874532 kJ/mol
# GULP energy per Si atom -12398.262484 kJ/mol
# Density = 2.151625 g / cm^3
# Si number density = 21.565338 Si / 1000 Ang^3
#
#
#
# Elastic Constant Matrix: (Units=GPa)
#
#
# Indices 1 2 3 4 5 6 
#
# 1 85.3652 7.7339 31.6197 0.0000 0.0000 0.0000
# 2 7.7339 100.0588 46.1861 0.0000 0.0000 0.0000
# 3 31.6197 46.1861 117.5469 0.0000 0.0000 0.0000
# 4 0.0000 0.0000 0.0000 43.0729 0.0000 0.0000
# 5 0.0000 0.0000 0.0000 0.0000 21.9609 0.0000
# 6 0.0000 0.0000 0.0000 0.0000 0.0000 28.4920
#
#
#
# Elastic Compliance Matrix: (Units=1/GPa)
#
#
# Indices 1 2 3 4 5 6 
#
# 1 0.013056 0.000748 -0.003806 0.000000 0.000000 0.000000
# 2 0.000748 0.012251 -0.005015 0.000000 0.000000 0.000000
# 3 -0.003806 -0.005015 0.011501 0.000000 0.000000 0.000000
# 4 0.000000 0.000000 0.000000 0.023216 0.000000 0.000000
# 5 0.000000 0.000000 0.000000 0.000000 0.045535 0.000000
# 6 0.000000 0.000000 0.000000 0.000000 0.000000 0.035098
#
#
# Mechanical properties :
#
#
# Convention : Reuss Voigt Hill
#
# Bulk Modulus (GPa) = 48.39621 52.67225 50.53423
# Shear Modulus (GPa) = 30.54518 33.20057 31.87287
#
# Velocity S-wave (km/s) = 3.76759 3.92795 3.84861
# Velocity P-wave (km/s) = 6.43558 6.71187 6.57518
#
# Compressibility (1/GPa) = 0.02066277
#
# Stress axis : x y z
#
# Youngs Moduli (GPa) = 76.59112 81.62537 86.94612
#
# Poissons Ratio (x) = -0.06102 0.33090
# Poissons Ratio (y) = -0.05726 0.43601
# Poissons Ratio (z) = 0.29149 0.40933
#
# Static dielectric constant tensor:
#      x y z
#    x 4.001810 0.000000 0.000000 
#    y 0.000000 3.881670 0.000000 
#    z 0.000000 0.000000 4.078840 
# 
# 
# High freq. dielectric constant tensor:
#      x y z
#    x 1.850190 0.000000 0.000000 
#    y 0.000000 1.835340 0.000000 
#    z 0.000000 0.000000 1.851700 
# 
# From -- ./inp_files/16441.got.cif
#   From: 2010.03.12/outbox.cif.g09.slc.cpg/sg24_9_cif.got.tgz:16441.got - 2010.04.14 03:06:53.
