data_PCOD8166363
_publ_section_title
;
Structure prediction by ZEFSAII (Michael W. Deem and Ramdas Pophale) SiO2 
 PCOD8166363
Probable space group: P M M 2
;
_chemical_formula_sum "Si O2"
_cell_formula_units_Z 24
_cell_length_a 8.984025
_cell_length_b 12.720696
_cell_length_c 11.798501
_cell_angle_alpha 90.000000
_cell_angle_beta 90.000000
_cell_angle_gamma 90.000000
_cell_volume 1348.368690
_symmetry_space_group_name_H-M "P M M 2"
_symmetry_group_IT_number 25
_symmetry_cell_setting 'orthorhombic'
loop_
_space_group_symop_operation_xyz
x,y,z
-x,-y,z
-x,y,z
x,-y,z
loop_
_atom_site_type_symbol
_atom_site_label
_atom_site_fract_x
_atom_site_fract_y
_atom_site_fract_z
Si Si1 0.322868 0.384532 0.897670
Si Si2 0.676670 0.000000 0.885811
Si Si3 0.824583 0.201824 0.500869
Si Si4 0.825487 0.000000 0.644769
Si Si5 0.672203 0.622298 0.642075
Si Si6 0.323399 0.878903 0.281889
Si Si7 0.677155 0.809500 0.036923
O O1 0.500000 0.387056 0.899106
O O2 0.260426 0.500000 0.930058
O O3 0.273041 0.353988 0.770310
O O4 0.260803 0.301412 0.989222
O O5 0.739308 0.000000 0.761090
O O6 0.500000 0.000000 0.878613
O O7 0.736954 0.101133 0.952723
O O8 0.774869 0.102687 0.576099
O O9 0.770585 0.309527 0.557126
O O10 0.750339 0.191260 0.378399
O O11 0.000000 0.205667 0.484918
O O12 0.000000 0.000000 0.668697
O O13 0.500000 0.653796 0.627360
O O14 0.696169 0.500000 0.612839
O O15 0.500000 0.870541 0.291296
O O16 0.264498 0.830911 0.163335
O O17 0.271650 0.000000 0.291042
O O18 0.500000 0.811050 0.037239
#
# Coordination Sequence:
#
# PCOD8166363 Si02
#       7
#     4   2   4   2   4   4   4
#     4   8  14  26  47  75 105 132 157 197 255 311
#     4  10  18  29  50  76  98 125 163 212 263 310
#     4  11  22  36  52  72 104 141 180 218 260 311
#     4  10  22  35  46  70 106 137 167 214 265 312
#     4   9  18  34  56  82 108 134 171 216 261 312
#     4  10  19  33  52  73 100 136 177 219 261 305
#     4   9  16  28  47  73 101 127 165 211 256 305
#
# _framework density 17.799287
#
# number of rings (size 3 to 8) (size 9 to 14) (size 15 to 20)
#    0.000    2.500    1.667    2.500    0.000    3.000 
#    0.000    1.667    0.000    4.000    0.000    0.000 
#    0.000    0.000    0.000    0.000    0.000    0.000 
#
# Total GULP energy -297579.495950 kJ/mol
# GULP energy per Si atom -12399.145665 kJ/mol
# Density = 1.775877 g / cm^3
# Si number density = 17.799287 Si / 1000 Ang^3
#
#
#
# Elastic Constant Matrix: (Units=GPa)
#
#
# Indices 1 2 3 4 5 6 
#
# 1 25.4242 23.0662 30.8120 0.0000 0.0000 0.0000
# 2 23.0662 117.0688 72.9822 0.0000 0.0000 0.0000
# 3 30.8120 72.9822 146.0007 0.0000 0.0000 0.0000
# 4 0.0000 0.0000 0.0000 31.0834 0.0000 0.0000
# 5 0.0000 0.0000 0.0000 0.0000 -1.8178 0.0000
# 6 0.0000 0.0000 0.0000 0.0000 0.0000 17.8253
#
#
#
# Elastic Compliance Matrix: (Units=1/GPa)
#
#
# Indices 1 2 3 4 5 6 
#
# 1 0.054967 -0.005227 -0.008987 0.000000 0.000000 0.000000
# 2 -0.005227 0.012906 -0.005348 0.000000 0.000000 0.000000
# 3 -0.008987 -0.005348 0.011419 0.000000 0.000000 0.000000
# 4 0.000000 0.000000 0.000000 0.032171 0.000000 0.000000
# 5 0.000000 0.000000 0.000000 0.000000 -0.550126 0.000000
# 6 0.000000 0.000000 0.000000 0.000000 0.000000 0.056100
#
#
# Mechanical properties :
#
#
# Convention : Reuss Voigt Hill
#
# Bulk Modulus (GPa) = 24.89622 60.24604 42.57113
# Shear Modulus (GPa) = -15.14935 20.19376 2.52221
#
# Velocity S-wave (km/s) = -2.92056 3.37193 1.19168
# Velocity P-wave (km/s) = 1.62624 7.00577 5.08554
#
# Compressibility (1/GPa) = 0.04016673
#
# Stress axis : x y z
#
# Youngs Moduli (GPa) = 18.19274 77.48261 87.57038
#
# Poissons Ratio (x) = 0.40504 0.78701
# Poissons Ratio (y) = 0.09510 0.46835
# Poissons Ratio (z) = 0.16350 0.41440
#
# Static dielectric constant tensor:
#      x y z
#    x 2.875150 0.000000 0.000000 
#    y 0.000000 3.543120 0.000000 
#    z 0.000000 0.000000 3.363570 
# 
# 
# High freq. dielectric constant tensor:
#      x y z
#    x 1.648090 0.000000 0.000000 
#    y 0.000000 1.694920 0.000000 
#    z 0.000000 0.000000 1.693030 
# 
# From -- ./inp_files/3951.got.cif
#   From: 2010.03.12/outbox.cif.g09.slc.cpg/sg25_2_cif.got.tgz:3951.got - 2010.04.14 03:30:10.
