data_PCOD8166740
_publ_section_title
;
Structure prediction by ZEFSAII (Michael W. Deem and Ramdas Pophale) SiO2 
 PCOD8166740
Probable space group: P M M 2
;
_chemical_formula_sum "Si O2"
_cell_formula_units_Z 32
_cell_length_a 8.956601
_cell_length_b 23.764294
_cell_length_c 7.691836
_cell_angle_alpha 90.000000
_cell_angle_beta 90.000000
_cell_angle_gamma 90.000000
_cell_volume 1637.186520
_symmetry_space_group_name_H-M "P M M 2"
_symmetry_group_IT_number 25
_symmetry_cell_setting 'orthorhombic'
loop_
_space_group_symop_operation_xyz
x,y,z
-x,-y,z
-x,y,z
x,-y,z
loop_
_atom_site_type_symbol
_atom_site_label
_atom_site_fract_x
_atom_site_fract_y
_atom_site_fract_z
Si Si1 0.828141 0.934074 0.401360
Si Si2 0.328543 0.642380 0.082122
Si Si3 0.174698 0.125892 0.050574
Si Si4 0.676984 0.437374 0.382785
Si Si5 0.671694 0.358780 0.692880
Si Si6 0.175145 0.753303 0.191482
Si Si7 0.323552 0.134552 0.701980
Si Si8 0.823666 0.753493 0.588422
O O1 0.781084 0.915305 0.208182
O O2 0.726057 0.903141 0.540467
O O3 0.000000 0.916639 0.435235
O O4 0.802793 0.000000 0.419873
O O5 0.500000 0.652902 0.130347
O O6 0.258755 0.598180 0.219525
O O7 0.249129 0.702290 0.089589
O O8 0.310381 0.617429 0.888285
O O9 0.222634 0.189099 0.099834
O O10 0.000000 0.121670 0.008562
O O11 0.265719 0.106386 0.880810
O O12 0.500000 0.441830 0.369214
O O13 0.747150 0.500000 0.379126
O O14 0.725557 0.407349 0.561622
O O15 0.500000 0.341694 0.654723
O O16 0.776363 0.305059 0.672426
O O17 0.230957 0.755111 0.389697
O O18 0.000000 0.744052 0.185414
O O19 0.500000 0.138493 0.704033
O O20 0.254971 0.196668 0.692405
O O21 0.000000 0.761471 0.606413
#
# Coordination Sequence:
#
# PCOD8166740 Si02
#       8
#     4   4   4   4   4   4   4   4
#     4  10  22  43  68  90 116 157 207 250 288 338
#     4  10  20  33  53  80 110 142 182 225 278 343
#     4  10  21  40  63  89 119 154 200 245 289 347
#     4   9  18  33  52  76 109 147 186 231 280 332
#     4  10  20  34  54  83 112 144 184 231 287 344
#     4  10  20  35  58  84 112 145 185 234 286 339
#     4  12  25  39  60  92 127 159 192 238 297 355
#     4  11  21  37  60  85 114 151 193 236 286 348
#
# _framework density 19.545725999999998
#
# number of rings (size 3 to 8) (size 9 to 14) (size 15 to 20)
#    0.000    1.750    2.500    2.250    0.000    5.250 
#    0.000    3.750    0.000    1.500    0.000    1.750 
#    0.000    0.000    0.000    0.000    0.000    0.000 
#
# Total GULP energy -396913.062413 kJ/mol
# GULP energy per Si atom -12403.533200 kJ/mol
# Density = 1.950124 g / cm^3
# Si number density = 19.545726 Si / 1000 Ang^3
#
#
#
# Elastic Constant Matrix: (Units=GPa)
#
#
# Indices 1 2 3 4 5 6 
#
# 1 58.0640 32.1778 35.7181 0.0000 0.0000 0.0000
# 2 32.1778 89.2904 25.8529 0.0000 0.0000 0.0000
# 3 35.7181 25.8529 116.8995 0.0000 0.0000 0.0000
# 4 0.0000 0.0000 0.0000 13.1597 0.0000 0.0000
# 5 0.0000 0.0000 0.0000 0.0000 24.4504 0.0000
# 6 0.0000 0.0000 0.0000 0.0000 0.0000 21.7962
#
#
#
# Elastic Compliance Matrix: (Units=1/GPa)
#
#
# Indices 1 2 3 4 5 6 
#
# 1 0.024939 -0.007245 -0.006018 0.000000 0.000000 0.000000
# 2 -0.007245 0.014070 -0.000898 0.000000 0.000000 0.000000
# 3 -0.006018 -0.000898 0.010592 0.000000 0.000000 0.000000
# 4 0.000000 0.000000 0.000000 0.075990 0.000000 0.000000
# 5 0.000000 0.000000 0.000000 0.000000 0.040899 0.000000
# 6 0.000000 0.000000 0.000000 0.000000 0.000000 0.045880
#
#
# Mechanical properties :
#
#
# Convention : Reuss Voigt Hill
#
# Bulk Modulus (GPa) = 46.99355 50.19461 48.59408
# Shear Modulus (GPa) = 20.17882 23.24827 21.71355
#
# Velocity S-wave (km/s) = 3.21657 3.45255 3.33665
# Velocity P-wave (km/s) = 6.15550 6.45212 6.30555
#
# Compressibility (1/GPa) = 0.02127952
#
# Stress axis : x y z
#
# Youngs Moduli (GPa) = 40.09743 71.07151 94.41385
#
# Poissons Ratio (x) = 0.51492 0.56816
# Poissons Ratio (y) = 0.29051 0.08479
# Poissons Ratio (z) = 0.24130 0.06382
#
# Static dielectric constant tensor:
#      x y z
#    x 3.316680 0.000000 0.000000 
#    y 0.000000 3.579230 0.000000 
#    z 0.000000 0.000000 3.804070 
# 
# 
# High freq. dielectric constant tensor:
#      x y z
#    x 1.735790 0.000000 0.000000 
#    y 0.000000 1.755450 0.000000 
#    z 0.000000 0.000000 1.781070 
# 
# From -- ./inp_files/2402.got.cif
#   From: 2010.03.12/outbox.cif.g09.slc.cpg/sg25_2_cif.got.tgz:2402.got - 2010.04.14 03:30:10.
