data_PCOD8166725
_publ_section_title
;
Structure prediction by ZEFSAII (Michael W. Deem and Ramdas Pophale) SiO2 
 PCOD8166725
Probable space group: P M M 2
;
_chemical_formula_sum "Si O2"
_cell_formula_units_Z 32
_cell_length_a 9.186974
_cell_length_b 9.426317
_cell_length_c 20.130778
_cell_angle_alpha 90.000000
_cell_angle_beta 90.000000
_cell_angle_gamma 90.000000
_cell_volume 1743.311871
_symmetry_space_group_name_H-M "P M M 2"
_symmetry_group_IT_number 25
_symmetry_cell_setting 'orthorhombic'
loop_
_space_group_symop_operation_xyz
x,y,z
-x,-y,z
-x,y,z
x,-y,z
loop_
_atom_site_type_symbol
_atom_site_label
_atom_site_fract_x
_atom_site_fract_y
_atom_site_fract_z
Si Si1 0.331193 0.665790 0.879250
Si Si2 0.834267 0.835533 0.246108
Si Si3 0.671356 0.663638 0.508630
Si Si4 0.168089 0.837523 0.399421
Si Si5 0.168090 0.162478 0.617838
Si Si6 0.834267 0.164466 0.771152
Si Si7 0.164513 0.668776 0.008630
Si Si8 0.668807 0.665790 0.138010
O O1 0.500000 0.698376 0.890250
O O2 0.301472 0.500000 0.869557
O O3 0.276475 0.743614 0.813721
O O4 0.245821 0.726126 0.943239
O O5 0.800805 0.803321 0.322758
O O6 0.723523 0.743615 0.203540
O O7 0.000000 0.792536 0.228998
O O8 0.808834 0.000000 0.230263
O O9 0.500000 0.683647 0.508629
O O10 0.717514 0.500000 0.508629
O O11 0.733275 0.734867 0.442568
O O12 0.733273 0.734864 0.574693
O O13 0.000000 0.810116 0.416824
O O14 0.208597 0.000000 0.415584
O O15 0.199212 0.196662 0.694502
O O16 0.000000 0.189902 0.600443
O O17 0.208584 0.000000 0.601667
O O18 0.000000 0.207476 0.788255
O O19 0.808847 0.000000 0.787006
O O20 0.168656 0.500000 0.008630
O O21 0.245821 0.726126 0.074021
O O22 0.000000 0.727042 0.008630
O O23 0.500000 0.698374 0.127010
O O24 0.698531 0.500000 0.147704
#
# Coordination Sequence:
#
# PCOD8166725 Si02
#       8
#     4   4   4   4   4   4   4   4
#     4  10  20  33  51  77 108 139 171 211 259 309
#     4   9  19  36  56  78 104 134 171 215 259 304
#     4  11  24  37  50  76 112 141 168 209 258 306
#     4   9  19  37  59  79 100 132 175 217 256 304
#     4   9  19  37  59  79 100 132 175 217 256 304
#     4   9  19  36  56  78 104 134 171 215 259 304
#     4   9  17  31  52  75 100 135 178 218 256 303
#     4  10  20  33  51  77 108 139 171 211 259 309
#
# _framework density 18.355867
#
# number of rings (size 3 to 8) (size 9 to 14) (size 15 to 20)
#    0.000    2.500    0.000    3.375    0.000    8.500 
#    0.000    8.125    0.000    3.750    0.000    0.000 
#    0.000    0.000    0.000    0.000    0.000    0.000 
#
# Total GULP energy -396877.955947 kJ/mol
# GULP energy per Si atom -12402.436123 kJ/mol
# Density = 1.831409 g / cm^3
# Si number density = 18.355867 Si / 1000 Ang^3
#
#
#
# Elastic Constant Matrix: (Units=GPa)
#
#
# Indices 1 2 3 4 5 6 
#
# 1 113.0410 63.8829 74.4108 0.0000 0.0000 0.0000
# 2 63.8829 79.6272 64.6624 0.0000 0.0000 0.0000
# 3 74.4108 64.6624 124.0930 0.0000 0.0000 0.0000
# 4 0.0000 0.0000 0.0000 57.0281 0.0000 0.0000
# 5 0.0000 0.0000 0.0000 0.0000 24.9657 0.0000
# 6 0.0000 0.0000 0.0000 0.0000 0.0000 31.1907
#
#
#
# Elastic Compliance Matrix: (Units=1/GPa)
#
#
# Indices 1 2 3 4 5 6 
#
# 1 0.018283 -0.009994 -0.005755 0.000000 0.000000 0.000000
# 2 -0.009994 0.027234 -0.008198 0.000000 0.000000 0.000000
# 3 -0.005755 -0.008198 0.015782 0.000000 0.000000 0.000000
# 4 0.000000 0.000000 0.000000 0.017535 0.000000 0.000000
# 5 0.000000 0.000000 0.000000 0.000000 0.040055 0.000000
# 6 0.000000 0.000000 0.000000 0.000000 0.000000 0.032061
#
#
# Mechanical properties :
#
#
# Convention : Reuss Voigt Hill
#
# Bulk Modulus (GPa) = 74.61037 80.29705 77.45371
# Shear Modulus (GPa) = 24.59263 30.22390 27.40827
#
# Velocity S-wave (km/s) = 3.66426 4.06218 3.86834
# Velocity P-wave (km/s) = 7.65749 8.11426 7.88919
#
# Compressibility (1/GPa) = 0.01340296
#
# Stress axis : x y z
#
# Youngs Moduli (GPa) = 54.69591 36.71858 63.36516
#
# Poissons Ratio (x) = 0.36697 0.36469
# Poissons Ratio (y) = 0.54664 0.51949
# Poissons Ratio (z) = 0.31479 0.30103
#
# Static dielectric constant tensor:
#      x y z
#    x 3.373920 0.000000 0.000000 
#    y 0.000000 3.178640 0.000000 
#    z 0.000000 0.000000 3.424380 
# 
# 
# High freq. dielectric constant tensor:
#      x y z
#    x 1.715580 0.000000 0.000000 
#    y 0.000000 1.692900 0.000000 
#    z 0.000000 0.000000 1.724530 
# 
# From -- ./inp_files/6457.got.cif
#   From: 2010.03.12/outbox.cif.g09.slc.cpg/sg25_4_cif.got.tgz:6457.got - 2010.04.14 03:30:10.
