data_PCOD8166060
_publ_section_title
;
Structure prediction by ZEFSAII (Michael W. Deem and Ramdas Pophale) SiO2 
 PCOD8166060
Probable space group: I 21 21 21
;
_chemical_formula_sum "Si O2"
_cell_formula_units_Z 40
_cell_length_a 10.571844
_cell_length_b 19.202430
_cell_length_c 8.276235
_cell_angle_alpha 90.000000
_cell_angle_beta 90.000000
_cell_angle_gamma 90.000000
_cell_volume 1680.117867
_symmetry_space_group_name_H-M "I 21 21 21"
_symmetry_group_IT_number 24
_symmetry_cell_setting 'orthorhombic'
loop_
_space_group_symop_operation_xyz
x,y,z
-x,1/2-y,z
x,-y,1/2-z
1/2-x,y,-z
1/2+x,1/2+y,1/2+z
1/2-x,-y,1/2+z
1/2+x,1/2-y,-z
-x,1/2+y,1/2-z
loop_
_atom_site_type_symbol
_atom_site_label
_atom_site_fract_x
_atom_site_fract_y
_atom_site_fract_z
Si Si1 0.363720 0.315571 0.616333
Si Si2 0.002419 0.575456 0.320476
Si Si3 0.996645 0.674254 0.802024
Si Si4 0.279574 0.839190 0.818295
Si Si5 0.135758 0.436374 0.873502
O O1 0.250000 0.337480 0.500000
O O2 0.384745 0.373059 0.756497
O O3 0.489672 0.319265 0.499909
O O4 0.336007 0.239747 0.695367
O O5 0.026099 0.500000 0.250000
O O6 0.010693 0.564547 0.513439
O O7 0.867553 0.606657 0.274339
O O8 0.859633 0.648511 0.742230
O O9 0.000000 0.750000 0.724195
O O10 0.118224 0.632269 0.735647
O O11 0.250000 0.860731 0.000000
O O12 0.141606 0.500000 0.750000
O O13 0.250000 0.436354 0.000000
#
# Coordination Sequence:
#
# PCOD8166060 Si02
#       5
#     8   8   8   8   8
#     4  11  21  42  80 113 150 205 256 310 385 466
#     4  12  26  46  73 108 152 205 255 326 389 460
#     4  12  23  45  74 114 153 203 255 318 387 466
#     4  11  23  43  78 116 154 202 256 312 386 477
#     4  12  30  52  75 110 151 206 265 331 396 463
#
# _framework density 23.807853000000001
#
# number of rings (size 3 to 8) (size 9 to 14) (size 15 to 20)
#    0.000    0.400    6.000    3.600    0.000    4.800 
#    0.000    0.000    0.000    0.000    0.000    0.000 
#    0.000    0.000    0.000    0.000    0.000    0.000 
#
# Total GULP energy -247781.655675 kJ/mol
# GULP energy per Si atom -12389.082784 kJ/mol
# Density = 2.375367 g / cm^3
# Si number density = 23.807853 Si / 1000 Ang^3
#
#
#
# Elastic Constant Matrix: (Units=GPa)
#
#
# Indices 1 2 3 4 5 6 
#
# 1 102.0643 51.6447 30.6375 0.0000 0.0001 0.0000
# 2 51.6447 148.8542 72.3861 -0.0004 0.0001 0.0001
# 3 30.6375 72.3861 114.8903 -0.0036 -0.0004 0.0008
# 4 0.0000 -0.0004 -0.0036 43.8832 0.0001 0.0003
# 5 0.0001 0.0001 -0.0004 0.0001 38.3811 -0.0001
# 6 0.0000 0.0001 0.0008 0.0003 -0.0001 27.9531
#
#
#
# Elastic Compliance Matrix: (Units=1/GPa)
#
#
# Indices 1 2 3 4 5 6 
#
# 1 0.011938 -0.003740 -0.000827 0.000000 0.000000 0.000000
# 2 -0.003740 0.010857 -0.005843 0.000000 0.000000 0.000000
# 3 -0.000827 -0.005843 0.012606 0.000001 0.000000 0.000000
# 4 0.000000 0.000000 0.000001 0.022788 0.000000 0.000000
# 5 0.000000 0.000000 0.000000 0.000000 0.026054 0.000000
# 6 0.000000 0.000000 0.000000 0.000000 0.000000 0.035774
#
#
# Mechanical properties :
#
#
# Convention : Reuss Voigt Hill
#
# Bulk Modulus (GPa) = 68.58259 75.01617 71.79938
# Shear Modulus (GPa) = 34.31747 36.11951 35.21849
#
# Velocity S-wave (km/s) = 3.80074 3.89926 3.85031
# Velocity P-wave (km/s) = 6.93759 7.20067 7.07035
#
# Compressibility (1/GPa) = 0.01458096
#
# Stress axis : x y z
#
# Youngs Moduli (GPa) = 83.76344 92.10763 79.32723
#
# Poissons Ratio (x) = 0.34445 0.06564
# Poissons Ratio (y) = 0.31324 0.46352
# Poissons Ratio (z) = 0.06931 0.53819
#
# Static dielectric constant tensor:
#      x y z
#    x 4.906220 0.000000 0.000010 
#    y 0.000000 4.150070 0.000000 
#    z 0.000010 0.000000 4.614300 
# 
# 
# High freq. dielectric constant tensor:
#      x y z
#    x 1.969440 0.000000 0.000000 
#    y 0.000000 1.935430 0.000000 
#    z 0.000000 0.000000 1.931410 
# 
# From -- ./inp_files/10715.got.cif
#   From: 2010.03.12/outbox.cif.g09.slc.cpg/sg24_6_cif.got.tgz:10715.got - 2010.04.14 03:06:53.
