data_PCOD8166680
_publ_section_title
;
Structure prediction by ZEFSAII (Michael W. Deem and Ramdas Pophale) SiO2 
 PCOD8166680
Probable space group: P M M 2
;
_chemical_formula_sum "Si O2"
_cell_formula_units_Z 32
_cell_length_a 8.932413
_cell_length_b 14.056071
_cell_length_c 15.491675
_cell_angle_alpha 90.000000
_cell_angle_beta 90.000000
_cell_angle_gamma 90.000000
_cell_volume 1945.051543
_symmetry_space_group_name_H-M "P M M 2"
_symmetry_group_IT_number 25
_symmetry_cell_setting 'orthorhombic'
loop_
_space_group_symop_operation_xyz
x,y,z
-x,-y,z
-x,y,z
x,-y,z
loop_
_atom_site_type_symbol
_atom_site_label
_atom_site_fract_x
_atom_site_fract_y
_atom_site_fract_z
Si Si1 0.176617 0.717614 0.703520
Si Si2 0.675236 0.892293 0.632197
Si Si3 0.824855 0.390463 0.874709
Si Si4 0.668592 0.386950 0.046570
Si Si5 0.173126 0.387838 0.219221
Si Si6 0.673457 0.610540 0.548139
Si Si7 0.825541 0.108359 0.449894
Si Si8 0.324177 0.280274 0.374465
O O1 0.252060 0.821685 0.701657
O O2 0.228587 0.668498 0.791894
O O3 0.227744 0.653177 0.624126
O O4 0.000000 0.729436 0.699367
O O5 0.500000 0.872913 0.625395
O O6 0.744071 0.869149 0.539448
O O7 0.710909 0.000000 0.661110
O O8 0.782093 0.500000 0.857689
O O9 0.000000 0.379383 0.892196
O O10 0.739562 0.348214 0.957801
O O11 0.500000 0.347874 0.055786
O O12 0.671101 0.500000 0.044159
O O13 0.766871 0.350942 0.127015
O O14 0.198433 0.500000 0.229260
O O15 0.268053 0.336443 0.291909
O O16 0.000000 0.360074 0.227499
O O17 0.500000 0.628586 0.569829
O O18 0.710787 0.500000 0.538893
O O19 0.719428 0.659534 0.458747
O O20 0.756886 0.177703 0.377754
O O21 0.000000 0.128935 0.462608
O O22 0.796286 0.000000 0.420356
O O23 0.500000 0.264130 0.366431
#
# Coordination Sequence:
#
# PCOD8166680 Si02
#       8
#     4   4   4   4   4   4   4   4
#     4  11  21  32  49  72  98 130 167 205 246 292
#     4  10  20  34  51  70  94 126 164 206 251 295
#     4   9  18  32  48  69  99 132 164 199 241 290
#     4   9  17  30  49  72  96 125 163 206 247 287
#     4  10  20  33  50  72 100 134 168 204 246 292
#     4  10  21  34  46  64  96 136 171 201 237 283
#     4  10  20  34  52  73  96 124 162 207 251 294
#     4  11  21  33  50  72  99 132 168 204 244 291
#
# _framework density 16.452006999999998
#
# number of rings (size 3 to 8) (size 9 to 14) (size 15 to 20)
#    0.000    2.000    1.250    3.000    0.000    6.500 
#    0.000    1.250    0.000    0.000    0.000    0.875 
#    0.000    3.000    0.000    0.000    0.000    0.000 
#
# Total GULP energy -396893.002000 kJ/mol
# GULP energy per Si atom -12402.906313 kJ/mol
# Density = 1.641456 g / cm^3
# Si number density = 16.452007 Si / 1000 Ang^3
#
#
#
# Elastic Constant Matrix: (Units=GPa)
#
#
# Indices 1 2 3 4 5 6 
#
# 1 76.6491 39.3653 48.7811 0.0000 0.0000 0.0000
# 2 39.3653 81.7555 45.3651 0.0000 0.0000 0.0000
# 3 48.7811 45.3651 115.1162 0.0000 0.0000 0.0000
# 4 0.0000 0.0000 0.0000 8.1223 0.0000 0.0000
# 5 0.0000 0.0000 0.0000 0.0000 28.1984 0.0000
# 6 0.0000 0.0000 0.0000 0.0000 0.0000 26.9708
#
#
#
# Elastic Compliance Matrix: (Units=1/GPa)
#
#
# Indices 1 2 3 4 5 6 
#
# 1 0.020150 -0.006354 -0.006035 0.000000 0.000000 0.000000
# 2 -0.006354 0.017658 -0.004266 0.000000 0.000000 0.000000
# 3 -0.006035 -0.004266 0.012926 0.000000 0.000000 0.000000
# 4 0.000000 0.000000 0.000000 0.123117 0.000000 0.000000
# 5 0.000000 0.000000 0.000000 0.000000 0.035463 0.000000
# 6 0.000000 0.000000 0.000000 0.000000 0.000000 0.037077
#
#
# Mechanical properties :
#
#
# Convention : Reuss Voigt Hill
#
# Bulk Modulus (GPa) = 57.39179 60.06045 58.72612
# Shear Modulus (GPa) = 17.51254 21.99225 19.75239
#
# Velocity S-wave (km/s) = 3.26615 3.66013 3.46874
# Velocity P-wave (km/s) = 7.01311 7.37887 7.19832
#
# Compressibility (1/GPa) = 0.01742409
#
# Stress axis : x y z
#
# Youngs Moduli (GPa) = 49.62683 56.63074 77.36637
#
# Poissons Ratio (x) = 0.35981 0.46690
# Poissons Ratio (y) = 0.31531 0.33007
# Poissons Ratio (z) = 0.29950 0.24161
#
# Static dielectric constant tensor:
#      x y z
#    x 3.216070 0.000000 0.000000 
#    y 0.000000 3.093440 0.000000 
#    z 0.000000 0.000000 3.084980 
# 
# 
# High freq. dielectric constant tensor:
#      x y z
#    x 1.649160 0.000000 0.000000 
#    y 0.000000 1.615560 0.000000 
#    z 0.000000 0.000000 1.621230 
# 
# From -- ./inp_files/4901.got.cif
#   From: 2010.03.12/outbox.cif.g09.slc.cpg/sg25_3_cif.got.tgz:4901.got - 2010.04.14 03:30:10.
