data_PCOD8166387
_publ_section_title
;
Structure prediction by ZEFSAII (Michael W. Deem and Ramdas Pophale) SiO2 
 PCOD8166387
Probable space group: P M M 2
;
_chemical_formula_sum "Si O2"
_cell_formula_units_Z 32
_cell_length_a 14.622643
_cell_length_b 8.857693
_cell_length_c 12.415904
_cell_angle_alpha 90.000000
_cell_angle_beta 90.000000
_cell_angle_gamma 90.000000
_cell_volume 1608.143675
_symmetry_space_group_name_H-M "P M M 2"
_symmetry_group_IT_number 25
_symmetry_cell_setting 'orthorhombic'
loop_
_space_group_symop_operation_xyz
x,y,z
-x,-y,z
-x,y,z
x,-y,z
loop_
_atom_site_type_symbol
_atom_site_label
_atom_site_fract_x
_atom_site_fract_y
_atom_site_fract_z
Si Si1 0.895069 0.820247 0.590940
Si Si2 0.100408 0.171031 0.941161
Si Si3 0.813991 0.829898 0.151570
Si Si4 0.399845 0.675713 0.324352
Si Si5 0.359977 0.325012 0.085293
Si Si6 0.223099 0.322956 0.779675
Si Si7 0.783603 0.175975 0.387671
Si Si8 0.602225 0.173886 0.864322
O O1 0.835113 0.758963 0.688453
O O2 0.847125 0.757157 0.482140
O O3 0.000000 0.760904 0.596607
O O4 0.894785 0.000000 0.594537
O O5 0.174408 0.285353 0.892768
O O6 0.000000 0.216688 0.899658
O O7 0.123836 0.000000 0.903795
O O8 0.098955 0.178208 0.072232
O O9 0.746246 0.710685 0.098016
O O10 0.835369 0.785047 0.275114
O O11 0.772014 0.000000 0.151318
O O12 0.500000 0.713359 0.374972
O O13 0.377074 0.500000 0.332928
O O14 0.405812 0.722644 0.198578
O O15 0.319588 0.759483 0.389063
O O16 0.375414 0.500000 0.058555
O O17 0.401242 0.231240 0.987086
O O18 0.224387 0.500000 0.757805
O O19 0.327541 0.264910 0.787817
O O20 0.773000 0.000000 0.406641
O O21 0.500000 0.192941 0.815962
O O22 0.632913 0.000000 0.865070
#
# Coordination Sequence:
#
# PCOD8166387 Si02
#       8
#     4   4   4   4   4   4   4   4
#     4  10  22  42  66  87 111 148 194 244 297 350
#     4  10  20  34  55  83 117 156 191 228 284 349
#     4   9  17  31  52  80 118 156 190 232 284 340
#     4   9  18  32  51  79 118 161 197 229 276 338
#     4  10  18  30  51  80 116 157 197 234 276 331
#     4  12  25  40  60  85 115 149 191 244 292 343
#     4   9  19  35  57  86 114 145 192 243 288 337
#     4  11  23  38  58  84 115 152 192 235 287 347
#
# _framework density 19.898717999999999
#
# number of rings (size 3 to 8) (size 9 to 14) (size 15 to 20)
#    0.000    2.000    1.250    2.625    0.000    5.250 
#    0.000    3.125    0.000    0.750    0.000    5.250 
#    0.000    0.000    0.000    0.000    0.000    0.000 
#
# Total GULP energy -396591.600519 kJ/mol
# GULP energy per Si atom -12393.487516 kJ/mol
# Density = 1.985343 g / cm^3
# Si number density = 19.898718 Si / 1000 Ang^3
#
#
#
# Elastic Constant Matrix: (Units=GPa)
#
#
# Indices 1 2 3 4 5 6 
#
# 1 126.1455 31.5743 54.8898 0.0000 0.0000 0.0000
# 2 31.5743 45.2922 19.0326 0.0000 0.0000 0.0000
# 3 54.8898 19.0326 102.5332 0.0000 0.0000 0.0000
# 4 0.0000 0.0000 0.0000 19.0571 0.0000 0.0000
# 5 0.0000 0.0000 0.0000 0.0000 16.3069 0.0000
# 6 0.0000 0.0000 0.0000 0.0000 0.0000 12.8247
#
#
#
# Elastic Compliance Matrix: (Units=1/GPa)
#
#
# Indices 1 2 3 4 5 6 
#
# 1 0.011654 -0.005968 -0.005131 0.000000 0.000000 0.000000
# 2 -0.005968 0.027003 -0.001818 0.000000 0.000000 0.000000
# 3 -0.005131 -0.001818 0.012837 0.000000 0.000000 0.000000
# 4 0.000000 0.000000 0.000000 0.052474 0.000000 0.000000
# 5 0.000000 0.000000 0.000000 0.000000 0.061324 0.000000
# 6 0.000000 0.000000 0.000000 0.000000 0.000000 0.077975
#
#
# Mechanical properties :
#
#
# Convention : Reuss Voigt Hill
#
# Bulk Modulus (GPa) = 38.96957 53.88492 46.42725
# Shear Modulus (GPa) = 18.00811 20.86935 19.43873
#
# Velocity S-wave (km/s) = 3.01157 3.24200 3.12890
# Velocity P-wave (km/s) = 5.63198 6.41502 6.03621
#
# Compressibility (1/GPa) = 0.02566105
#
# Stress axis : x y z
#
# Youngs Moduli (GPa) = 85.80933 37.03283 77.89951
#
# Poissons Ratio (x) = 0.22101 0.39969
# Poissons Ratio (y) = 0.51211 0.14158
# Poissons Ratio (z) = 0.44028 0.06731
#
# Static dielectric constant tensor:
#      x y z
#    x 3.713560 0.000000 0.000000 
#    y 0.000000 3.506320 0.000000 
#    z 0.000000 0.000000 3.646020 
# 
# 
# High freq. dielectric constant tensor:
#      x y z
#    x 1.777690 0.000000 0.000000 
#    y 0.000000 1.763630 0.000000 
#    z 0.000000 0.000000 1.762380 
# 
# From -- ./inp_files/4157.got.cif
#   From: 2010.03.12/outbox.cif.g09.slc.cpg/sg25_3_cif.got.tgz:4157.got - 2010.04.14 03:30:10.
