data_PCOD8166131
_publ_section_title
;
Structure prediction by ZEFSAII (Michael W. Deem and Ramdas Pophale) SiO2 
 PCOD8166131
Probable space group: I 21 21 21
;
_chemical_formula_sum "Si O2"
_cell_formula_units_Z 48
_cell_length_a 14.872294
_cell_length_b 17.478760
_cell_length_c 9.016354
_cell_angle_alpha 90.000000
_cell_angle_beta 90.000000
_cell_angle_gamma 90.000000
_cell_volume 2343.794527
_symmetry_space_group_name_H-M "I 21 21 21"
_symmetry_group_IT_number 24
_symmetry_cell_setting 'orthorhombic'
loop_
_space_group_symop_operation_xyz
x,y,z
-x,1/2-y,z
x,-y,1/2-z
1/2-x,y,-z
1/2+x,1/2+y,1/2+z
1/2-x,-y,1/2+z
1/2+x,1/2-y,-z
-x,1/2+y,1/2-z
loop_
_atom_site_type_symbol
_atom_site_label
_atom_site_fract_x
_atom_site_fract_y
_atom_site_fract_z
Si Si1 0.826840 0.727980 0.621054
Si Si2 0.831834 0.447194 0.888271
Si Si3 0.949864 0.881459 0.254318
Si Si4 0.152191 0.500000 0.750000
Si Si5 0.253043 0.350238 0.676675
Si Si6 0.000000 0.250000 0.056902
Si Si7 0.982262 0.005977 0.482018
O O1 0.750000 0.735348 0.500000
O O2 0.843937 0.639973 0.667035
O O3 0.802073 0.775870 0.768391
O O4 0.915636 0.764376 0.549445
O O5 0.808810 0.500000 0.750000
O O6 0.750000 0.454607 0.000000
O O7 0.922078 0.475318 0.966593
O O8 0.855964 0.839433 0.223987
O O9 0.934081 0.950698 0.366401
O O10 0.017080 0.822245 0.335013
O O11 0.994193 0.911844 0.100581
O O12 0.214638 0.425268 0.759968
O O13 0.087600 0.485710 0.612747
O O14 0.250000 0.358367 0.500000
#
# Coordination Sequence:
#
# PCOD8166131 Si02
#       7
#     8   8   8   4   8   4   8
#     4  11  25  44  72  96 137 184 236 285 349 432
#     4  11  26  45  67  97 130 183 237 291 347 411
#     4  11  24  42  70  99 134 182 227 288 348 426
#     4  12  24  40  68 102 142 178 222 284 370 434
#     4  12  26  44  66 109 143 177 229 293 365 430
#     4  12  22  44  72 104 136 192 234 286 362 426
#     4  11  23  43  69 100 135 177 235 283 349 426
#
# _framework density 20.479611999999999
#
# number of rings (size 3 to 8) (size 9 to 14) (size 15 to 20)
#    0.000    0.667    5.833    2.000    2.333    0.667 
#    3.000    0.000    0.000    0.000    0.000    0.000 
#    0.000    0.000    0.000    0.000    0.000    0.000 
#
# Total GULP energy -297643.355316 kJ/mol
# GULP energy per Si atom -12401.806472 kJ/mol
# Density = 2.043300 g / cm^3
# Si number density = 20.479612 Si / 1000 Ang^3
#
#
#
# Elastic Constant Matrix: (Units=GPa)
#
#
# Indices 1 2 3 4 5 6 
#
# 1 97.1888 30.9542 16.3653 0.0000 0.0000 0.0000
# 2 30.9542 128.4351 48.3284 0.0000 0.0000 0.0000
# 3 16.3653 48.3284 92.5202 0.0000 0.0000 0.0000
# 4 0.0000 0.0000 0.0000 37.9069 0.0000 0.0000
# 5 0.0000 0.0000 0.0000 0.0000 28.4075 0.0000
# 6 0.0000 0.0000 0.0000 0.0000 0.0000 33.9439
#
#
#
# Elastic Compliance Matrix: (Units=1/GPa)
#
#
# Indices 1 2 3 4 5 6 
#
# 1 0.011182 -0.002428 -0.000710 0.000000 0.000000 0.000000
# 2 -0.002428 0.010218 -0.004908 0.000000 0.000000 0.000000
# 3 -0.000710 -0.004908 0.013498 0.000000 0.000000 0.000000
# 4 0.000000 0.000000 0.000000 0.026380 0.000000 0.000000
# 5 0.000000 0.000000 0.000000 0.000000 0.035202 0.000000
# 6 0.000000 0.000000 0.000000 0.000000 0.000000 0.029460
#
#
# Mechanical properties :
#
#
# Convention : Reuss Voigt Hill
#
# Bulk Modulus (GPa) = 53.17291 56.60442 54.88867
# Shear Modulus (GPa) = 33.71534 34.88474 34.30004
#
# Velocity S-wave (km/s) = 4.06185 4.13169 4.09692
# Velocity P-wave (km/s) = 6.92953 7.10356 7.01708
#
# Compressibility (1/GPa) = 0.01880657
#
# Stress axis : x y z
#
# Youngs Moduli (GPa) = 89.42908 97.86658 74.08685
#
# Poissons Ratio (x) = 0.23762 0.05258
# Poissons Ratio (y) = 0.21713 0.36361
# Poissons Ratio (z) = 0.06346 0.48032
#
# Static dielectric constant tensor:
#      x y z
#    x 4.205320 0.000000 0.000000 
#    y 0.000000 4.023840 0.000000 
#    z 0.000000 0.000000 3.807110 
# 
# 
# High freq. dielectric constant tensor:
#      x y z
#    x 1.806700 0.000000 0.000000 
#    y 0.000000 1.806740 0.000000 
#    z 0.000000 0.000000 1.804410 
# 
# From -- ./inp_files/12845.got.cif
#   From: 2010.03.12/outbox.cif.g09.slc.cpg/sg24_7_cif.got.tgz:12845.got - 2010.04.14 03:06:53.
