data_PCOD8166869
_publ_section_title
;
Structure prediction by ZEFSAII (Michael W. Deem and Ramdas Pophale) SiO2 
 PCOD8166869
Probable space group: P M M 2
;
_chemical_formula_sum "Si O2"
_cell_formula_units_Z 32
_cell_length_a 9.131420
_cell_length_b 9.607550
_cell_length_c 20.863629
_cell_angle_alpha 90.000000
_cell_angle_beta 90.000000
_cell_angle_gamma 90.000000
_cell_volume 1830.378153
_symmetry_space_group_name_H-M "P M M 2"
_symmetry_group_IT_number 25
_symmetry_cell_setting 'orthorhombic'
loop_
_space_group_symop_operation_xyz
x,y,z
-x,-y,z
-x,y,z
x,-y,z
loop_
_atom_site_type_symbol
_atom_site_label
_atom_site_fract_x
_atom_site_fract_y
_atom_site_fract_z
Si Si1 0.825606 0.842219 0.054740
Si Si2 0.328578 0.659635 0.806126
Si Si3 0.839712 0.334865 0.308648
Si Si4 0.824243 0.656052 0.445809
Si Si5 0.171480 0.339981 0.935714
Si Si6 0.167946 0.835861 0.701540
Si Si7 0.175534 0.343074 0.170743
Si Si8 0.826165 0.153753 0.558391
O O1 0.763895 0.763910 0.117742
O O2 0.000000 0.841753 0.056401
O O3 0.764836 0.000000 0.053014
O O4 0.770200 0.758337 0.992634
O O5 0.500000 0.681062 0.814410
O O6 0.287840 0.500000 0.790939
O O7 0.252933 0.708240 0.871699
O O8 0.273328 0.754389 0.748707
O O9 0.857349 0.500000 0.311184
O O10 0.762735 0.289511 0.376042
O O11 0.760229 0.296265 0.241075
O O12 0.000000 0.264777 0.307183
O O13 0.769619 0.500000 0.459143
O O14 0.758621 0.748413 0.503297
O O15 0.000000 0.661363 0.444058
O O16 0.207497 0.500000 0.953427
O O17 0.000000 0.319001 0.924173
O O18 0.214847 0.792252 0.629405
O O19 0.000000 0.793470 0.714983
O O20 0.188725 0.000000 0.711303
O O21 0.227593 0.500000 0.153524
O O22 0.000000 0.340929 0.173559
O O23 0.000000 0.148633 0.552811
O O24 0.760949 0.000000 0.547705
#
# Coordination Sequence:
#
# PCOD8166869 Si02
#       8
#     4   4   4   4   4   4   4   4
#     4   9  16  24  35  54  78 101 131 175 216 245
#     4  10  21  35  50  70  94 116 141 179 225 269
#     4   7  10  16  26  41  63  94 132 169 202 241
#     4   8  12  18  29  46  68  96 133 173 208 244
#     4   9  17  30  47  64  83 111 144 173 207 257
#     4   9  18  32  49  68  90 118 152 186 219 261
#     4   8  12  19  31  45  65  98 136 169 204 248
#     4   8  14  24  36  52  76 104 135 173 213 249
#
# _framework density 17.482727000000001
#
# number of rings (size 3 to 8) (size 9 to 14) (size 15 to 20)
#    0.000    3.500    0.000    3.000    0.000    3.500 
#    0.000    3.125    0.000    3.750    0.000    0.000 
#    0.000    0.000    0.000    1.125    0.000   22.250 
#
# Total GULP energy -396449.553078 kJ/mol
# GULP energy per Si atom -12389.048534 kJ/mol
# Density = 1.744294 g / cm^3
# Si number density = 17.482727 Si / 1000 Ang^3
#
#
#
# Elastic Constant Matrix: (Units=GPa)
#
#
# Indices 1 2 3 4 5 6 
#
# 1 17.4376 15.1250 26.2053 0.0000 0.0000 0.0000
# 2 15.1250 86.9542 85.0534 0.0000 0.0000 0.0000
# 3 26.2053 85.0534 188.2877 0.0000 0.0000 0.0000
# 4 0.0000 0.0000 0.0000 14.9773 0.0000 0.0000
# 5 0.0000 0.0000 0.0000 0.0000 -0.6813 0.0000
# 6 0.0000 0.0000 0.0000 0.0000 0.0000 10.4596
#
#
#
# Elastic Compliance Matrix: (Units=1/GPa)
#
#
# Indices 1 2 3 4 5 6 
#
# 1 0.073705 -0.004993 -0.008003 0.000000 0.000000 0.000000
# 2 -0.004993 0.020942 -0.008765 0.000000 0.000000 0.000000
# 3 -0.008003 -0.008765 0.010384 0.000000 0.000000 0.000000
# 4 0.000000 0.000000 0.000000 0.066768 0.000000 0.000000
# 5 0.000000 0.000000 0.000000 0.000000 -1.467795 0.000000
# 6 0.000000 0.000000 0.000000 0.000000 0.000000 0.095606
#
#
# Mechanical properties :
#
#
# Convention : Reuss Voigt Hill
#
# Bulk Modulus (GPa) = 16.25750 60.60521 38.43135
# Shear Modulus (GPa) = -4.39999 16.03751 5.81876
#
# Velocity S-wave (km/s) = -1.58815 3.03204 1.82634
# Velocity P-wave (km/s) = 2.44057 6.85556 5.14563
#
# Compressibility (1/GPa) = 0.06151009
#
# Stress axis : x y z
#
# Youngs Moduli (GPa) = 13.56769 47.75004 96.29950
#
# Poissons Ratio (x) = 0.23839 0.77066
# Poissons Ratio (y) = 0.06774 0.84409
# Poissons Ratio (z) = 0.10858 0.41854
#
# Static dielectric constant tensor:
#      x y z
#    x 2.547030 0.000000 0.000000 
#    y 0.000000 3.259070 0.000000 
#    z 0.000000 0.000000 3.717070 
# 
# 
# High freq. dielectric constant tensor:
#      x y z
#    x 1.597050 0.000000 0.000000 
#    y 0.000000 1.659290 0.000000 
#    z 0.000000 0.000000 1.699810 
# 
# From -- ./inp_files/6539.got.cif
#   From: 2010.03.12/outbox.cif.g09.slc.cpg/sg25_4_cif.got.tgz:6539.got - 2010.04.14 03:30:10.
