data_PCOD8166678
_publ_section_title
;
Structure prediction by ZEFSAII (Michael W. Deem and Ramdas Pophale) SiO2 
 PCOD8166678
Probable space group: P M M 2
;
_chemical_formula_sum "Si O2"
_cell_formula_units_Z 32
_cell_length_a 9.364604
_cell_length_b 9.250731
_cell_length_c 20.697120
_cell_angle_alpha 90.000000
_cell_angle_beta 90.000000
_cell_angle_gamma 90.000000
_cell_volume 1792.979761
_symmetry_space_group_name_H-M "P M M 2"
_symmetry_group_IT_number 25
_symmetry_cell_setting 'orthorhombic'
loop_
_space_group_symop_operation_xyz
x,y,z
-x,-y,z
-x,y,z
x,-y,z
loop_
_atom_site_type_symbol
_atom_site_label
_atom_site_fract_x
_atom_site_fract_y
_atom_site_fract_z
Si Si1 0.334423 0.667740 0.452600
Si Si2 0.329694 0.162320 0.328030
Si Si3 0.833003 0.168097 0.706453
Si Si4 0.669924 0.837651 0.943952
Si Si5 0.165822 0.334293 0.578216
Si Si6 0.330139 0.337482 0.064738
Si Si7 0.330172 0.662251 0.207351
Si Si8 0.331525 0.667554 0.817841
O O1 0.500000 0.701253 0.464203
O O2 0.306745 0.500000 0.438757
O O3 0.273761 0.753630 0.390995
O O4 0.251568 0.720668 0.515951
O O5 0.500000 0.166853 0.326256
O O6 0.266397 0.235162 0.263040
O O7 0.271133 0.000000 0.331042
O O8 0.788989 0.232761 0.637336
O O9 0.745280 0.253412 0.759554
O O10 0.000000 0.191941 0.719708
O O11 0.791215 0.000000 0.708104
O O12 0.500000 0.840329 0.946596
O O13 0.721831 0.741293 0.883954
O O14 0.730701 0.000000 0.936684
O O15 0.732632 0.768479 0.009921
O O16 0.205372 0.500000 0.595430
O O17 0.000000 0.318657 0.561992
O O18 0.500000 0.338125 0.060988
O O19 0.273761 0.500000 0.052101
O O20 0.280834 0.283896 0.136052
O O21 0.500000 0.663119 0.210689
O O22 0.273911 0.500000 0.219423
O O23 0.500000 0.686297 0.808686
O O24 0.287223 0.500000 0.819517
#
# Coordination Sequence:
#
# PCOD8166678 Si02
#       8
#     4   4   4   4   4   4   4   4
#     4   9  17  29  45  64  87 116 148 181 219 265
#     4   9  16  24  35  54  81 111 143 181 223 264
#     4  10  21  36  53  73  97 124 153 188 233 282
#     4   9  16  25  38  58  86 118 150 187 231 274
#     4   9  18  33  51  69  90 117 149 185 224 267
#     4   8  13  21  33  50  75 110 150 186 220 263
#     4   8  13  21  33  49  73 109 149 184 219 262
#     4  10  20  33  50  71  95 125 160 196 233 275
#
# _framework density 17.847384999999999
#
# number of rings (size 3 to 8) (size 9 to 14) (size 15 to 20)
#    0.000    3.000    0.000    2.250    0.000    6.000 
#    0.000    3.750    0.000    0.000    0.000    0.000 
#    0.000    1.000    0.000    8.250    0.000   12.625 
#
# Total GULP energy -396711.822569 kJ/mol
# GULP energy per Si atom -12397.244455 kJ/mol
# Density = 1.780676 g / cm^3
# Si number density = 17.847385 Si / 1000 Ang^3
#
#
#
# Elastic Constant Matrix: (Units=GPa)
#
#
# Indices 1 2 3 4 5 6 
#
# 1 17.8728 27.2198 37.1547 0.0000 0.0000 0.0000
# 2 27.2198 141.8436 108.0848 0.0000 0.0000 0.0000
# 3 37.1547 108.0848 191.3997 0.0000 0.0000 0.0000
# 4 0.0000 0.0000 0.0000 20.7108 0.0000 0.0000
# 5 0.0000 0.0000 0.0000 0.0000 -2.7900 0.0000
# 6 0.0000 0.0000 0.0000 0.0000 0.0000 13.7475
#
#
#
# Elastic Compliance Matrix: (Units=1/GPa)
#
#
# Indices 1 2 3 4 5 6 
#
# 1 0.098244 -0.007584 -0.014788 0.000000 0.000000 0.000000
# 2 -0.007584 0.012961 -0.005847 0.000000 0.000000 0.000000
# 3 -0.014788 -0.005847 0.011397 0.000000 0.000000 0.000000
# 4 0.000000 0.000000 0.000000 0.048284 0.000000 0.000000
# 5 0.000000 0.000000 0.000000 0.000000 -0.358427 0.000000
# 6 0.000000 0.000000 0.000000 0.000000 0.000000 0.072741
#
#
# Mechanical properties :
#
#
# Convention : Reuss Voigt Hill
#
# Bulk Modulus (GPa) = 15.11417 77.33719 46.22568
# Shear Modulus (GPa) = -137.71113 18.24411 -59.73351
#
# Velocity S-wave (km/s) = -8.79363 3.20070 -5.79152
# Velocity P-wave (km/s) = 9.72712 7.55552 4.33192
#
# Compressibility (1/GPa) = 0.06616308
#
# Stress axis : x y z
#
# Youngs Moduli (GPa) = 10.17873 77.15667 87.74221
#
# Poissons Ratio (x) = 0.58519 1.29755
# Poissons Ratio (y) = 0.07720 0.51300
# Poissons Ratio (z) = 0.15053 0.45111
#
# Static dielectric constant tensor:
#      x y z
#    x 2.727850 0.000000 0.000000 
#    y 0.000000 3.488150 0.000000 
#    z 0.000000 0.000000 3.606070 
# 
# 
# High freq. dielectric constant tensor:
#      x y z
#    x 1.622670 0.000000 0.000000 
#    y 0.000000 1.696200 0.000000 
#    z 0.000000 0.000000 1.708890 
# 
# From -- ./inp_files/6282.got.cif
#   From: 2010.03.12/outbox.cif.g09.slc.cpg/sg25_4_cif.got.tgz:6282.got - 2010.04.14 03:30:10.
