data_PCOD8166214
_publ_section_title
;
Structure prediction by ZEFSAII (Michael W. Deem and Ramdas Pophale) SiO2 
 PCOD8166214
Probable space group: I 21 21 21
;
_chemical_formula_sum "Si O2"
_cell_formula_units_Z 24
_cell_length_a 4.930638
_cell_length_b 13.379940
_cell_length_c 16.753222
_cell_angle_alpha 90.000000
_cell_angle_beta 90.000000
_cell_angle_gamma 90.000000
_cell_volume 1105.237541
_symmetry_space_group_name_H-M "I 21 21 21"
_symmetry_group_IT_number 24
_symmetry_cell_setting 'orthorhombic'
loop_
_space_group_symop_operation_xyz
x,y,z
-x,1/2-y,z
x,-y,1/2-z
1/2-x,y,-z
1/2+x,1/2+y,1/2+z
1/2-x,-y,1/2+z
1/2+x,1/2-y,-z
-x,1/2+y,1/2-z
loop_
_atom_site_type_symbol
_atom_site_label
_atom_site_fract_x
_atom_site_fract_y
_atom_site_fract_z
Si Si1 0.000000 0.750000 0.730033
Si Si2 0.132881 0.958048 0.666689
Si Si3 0.500000 0.250000 0.653528
Si Si4 0.627075 0.956854 0.913368
O O1 0.966551 0.655862 0.671336
O O2 0.749740 0.756639 0.788192
O O3 0.252463 0.000000 0.750000
O O4 0.377080 0.967034 0.602530
O O5 0.873689 0.026835 0.647569
O O6 0.502291 0.154013 0.595726
O O7 0.750000 0.976175 0.000000
#
# Coordination Sequence:
#
# PCOD8166214 Si02
#       4
#     4   8   4   8
#     4  12  24  39  74 101 130 178 246 288 330 409
#     4  12  23  45  69 101 138 184 234 285 339 419
#     4  12  22  41  68 103 136 176 226 292 352 415
#     4  12  26  43  68 103 146 180 223 287 362 416
#
# _framework density 21.714787000000001
#
# number of rings (size 3 to 8) (size 9 to 14) (size 15 to 20)
#    0.000    0.000    6.667    4.000    0.000    4.000 
#    0.000    3.333    0.000    0.000    0.000    0.000 
#    0.000    0.000    0.000    0.000    0.000    0.000 
#
# Total GULP energy -148845.774656 kJ/mol
# GULP energy per Si atom -12403.814555 kJ/mol
# Density = 2.166536 g / cm^3
# Si number density = 21.714787 Si / 1000 Ang^3
#
#
#
# Elastic Constant Matrix: (Units=GPa)
#
#
# Indices 1 2 3 4 5 6 
#
# 1 165.8746 56.4046 52.2354 0.0000 0.0000 0.0000
# 2 56.4046 137.4280 70.4189 0.0000 0.0000 0.0000
# 3 52.2354 70.4189 94.8500 0.0000 0.0000 0.0000
# 4 0.0000 0.0000 0.0000 30.7823 0.0000 0.0000
# 5 0.0000 0.0000 0.0000 0.0000 53.8357 0.0000
# 6 0.0000 0.0000 0.0000 0.0000 0.0000 39.8350
#
#
#
# Elastic Compliance Matrix: (Units=1/GPa)
#
#
# Indices 1 2 3 4 5 6 
#
# 1 0.007493 -0.001551 -0.002975 0.000000 0.000000 0.000000
# 2 -0.001551 0.012065 -0.008104 0.000000 0.000000 0.000000
# 3 -0.002975 -0.008104 0.018198 0.000000 0.000000 0.000000
# 4 0.000000 0.000000 0.000000 0.032486 0.000000 0.000000
# 5 0.000000 0.000000 0.000000 0.000000 0.018575 0.000000
# 6 0.000000 0.000000 0.000000 0.000000 0.000000 0.025104
#
#
# Mechanical properties :
#
#
# Convention : Reuss Voigt Hill
#
# Bulk Modulus (GPa) = 80.01934 84.03004 82.02469
# Shear Modulus (GPa) = 34.88086 39.49687 37.18887
#
# Velocity S-wave (km/s) = 4.01224 4.26947 4.14285
# Velocity P-wave (km/s) = 7.64161 7.94265 7.79359
#
# Compressibility (1/GPa) = 0.01249698
#
# Stress axis : x y z
#
# Youngs Moduli (GPa) = 133.45999 82.88196 54.95226
#
# Poissons Ratio (x) = 0.12854 0.16349
# Poissons Ratio (y) = 0.20698 0.44531
# Poissons Ratio (z) = 0.39705 0.67164
#
# Static dielectric constant tensor:
#      x y z
#    x 4.124050 0.000000 0.000000 
#    y 0.000000 4.234340 0.000000 
#    z 0.000000 0.000000 3.322950 
# 
# 
# High freq. dielectric constant tensor:
#      x y z
#    x 1.880000 0.000000 0.000000 
#    y 0.000000 1.855150 0.000000 
#    z 0.000000 0.000000 1.836150 
# 
# From -- ./inp_files/1722.got.cif
#   From: 2010.03.12/outbox.cif.g09.slc.cpg/sg24_1_cif.got.tgz:1722.got - 2010.04.14 03:06:53.
