data_PCOD8166345
_publ_section_title
;
Structure prediction by ZEFSAII (Michael W. Deem and Ramdas Pophale) SiO2 
 PCOD8166345
Probable space group: P M M 2
;
_chemical_formula_sum "Si O2"
_cell_formula_units_Z 20
_cell_length_a 12.515701
_cell_length_b 17.895714
_cell_length_c 5.260566
_cell_angle_alpha 90.000000
_cell_angle_beta 90.000000
_cell_angle_gamma 90.000000
_cell_volume 1178.247925
_symmetry_space_group_name_H-M "P M M 2"
_symmetry_group_IT_number 25
_symmetry_cell_setting 'orthorhombic'
loop_
_space_group_symop_operation_xyz
x,y,z
-x,-y,z
-x,y,z
x,-y,z
loop_
_atom_site_type_symbol
_atom_site_label
_atom_site_fract_x
_atom_site_fract_y
_atom_site_fract_z
Si Si1 0.806653 0.161861 0.443150
Si Si2 0.873119 0.670765 0.446249
Si Si3 0.126712 0.416295 0.946415
Si Si4 0.820628 0.084458 0.938568
Si Si5 0.619808 0.084461 0.653588
O O1 0.814502 0.250371 0.447339
O O2 0.858834 0.129574 0.185911
O O3 0.680954 0.137940 0.451622
O O4 0.868187 0.125518 0.686401
O O5 0.833805 0.626159 0.694464
O O6 0.000000 0.682770 0.445393
O O7 0.833548 0.626268 0.197963
O O8 0.174720 0.500000 0.946444
O O9 0.000000 0.420669 0.946786
O O10 0.864856 0.000000 0.953638
O O11 0.690411 0.085065 0.913584
O O12 0.500000 0.113842 0.707204
O O13 0.617627 0.000000 0.543225
#
# Coordination Sequence:
#
# PCOD8166345 Si02
#       5
#     4   4   4   4   4
#     4  10  18  29  45  65  92 119 148 189 225 269
#     4  10  19  30  46  68  95 125 149 176 222 268
#     4   9  17  30  48  69  92 118 148 181 219 268
#     4   9  17  29  44  60  84 118 151 188 228 263
#     4   8  16  29  46  66  87 116 152 190 234 272
#
# _framework density 16.974356
#
# number of rings (size 3 to 8) (size 9 to 14) (size 15 to 20)
#    1.200    1.600    0.000    3.000    0.000    3.200 
#    0.000    2.000    0.000    6.600    0.000    0.000 
#    0.000    4.800    0.000    0.000    0.000    0.000 
#
# Total GULP energy -247776.800824 kJ/mol
# GULP energy per Si atom -12388.840041 kJ/mol
# Density = 1.693572 g / cm^3
# Si number density = 16.974356 Si / 1000 Ang^3
#
#
#
# Elastic Constant Matrix: (Units=GPa)
#
#
# Indices 1 2 3 4 5 6 
#
# 1 27.0420 17.5686 7.4242 0.0000 0.0000 0.0000
# 2 17.5686 167.8996 82.3621 0.0000 0.0000 0.0000
# 3 7.4242 82.3621 161.6951 0.0000 0.0000 0.0000
# 4 0.0000 0.0000 0.0000 34.8106 0.0000 0.0000
# 5 0.0000 0.0000 0.0000 0.0000 4.7387 0.0000
# 6 0.0000 0.0000 0.0000 0.0000 0.0000 51.7244
#
#
#
# Elastic Compliance Matrix: (Units=1/GPa)
#
#
# Indices 1 2 3 4 5 6 
#
# 1 0.039695 -0.004345 0.000391 0.000000 0.000000 0.000000
# 2 -0.004345 0.008416 -0.004087 0.000000 0.000000 0.000000
# 3 0.000391 -0.004087 0.008248 0.000000 0.000000 0.000000
# 4 0.000000 0.000000 0.000000 0.028727 0.000000 0.000000
# 5 0.000000 0.000000 0.000000 0.000000 0.211030 0.000000
# 6 0.000000 0.000000 0.000000 0.000000 0.000000 0.019333
#
#
# Mechanical properties :
#
#
# Convention : Reuss Voigt Hill
#
# Bulk Modulus (GPa) = 24.82869 63.48291 44.15580
# Shear Modulus (GPa) = 14.49452 34.87353 24.68402
#
# Velocity S-wave (km/s) = 2.92534 4.53756 3.81753
# Velocity P-wave (km/s) = 5.10579 8.05811 6.74545
#
# Compressibility (1/GPa) = 0.04027598
#
# Stress axis : x y z
#
# Youngs Moduli (GPa) = 25.19187 118.82832 121.23633
#
# Poissons Ratio (x) = 0.51634 -0.04737
# Poissons Ratio (y) = 0.10947 0.49550
# Poissons Ratio (z) = -0.00984 0.48566
#
# Static dielectric constant tensor:
#      x y z
#    x 2.666110 0.000000 0.000000 
#    y 0.000000 3.148010 0.000000 
#    z 0.000000 0.000000 3.266400 
# 
# 
# High freq. dielectric constant tensor:
#      x y z
#    x 1.590680 0.000000 0.000000 
#    y 0.000000 1.654290 0.000000 
#    z 0.000000 0.000000 1.664450 
# 
# From -- ./inp_files/1120.got.cif
#   From: 2010.03.12/outbox.cif.g09.slc.cpg/sg25_1_cif.got.tgz:1120.got - 2010.04.14 03:30:10.
