data_PCOD8166925
_publ_section_title
;
Structure prediction by ZEFSAII (Michael W. Deem and Ramdas Pophale) SiO2 
 PCOD8166925
Probable space group: P M M 2
;
_chemical_formula_sum "Si O2"
_cell_formula_units_Z 32
_cell_length_a 13.794537
_cell_length_b 9.104744
_cell_length_c 13.047203
_cell_angle_alpha 90.000000
_cell_angle_beta 90.000000
_cell_angle_gamma 90.000000
_cell_volume 1638.672959
_symmetry_space_group_name_H-M "P M M 2"
_symmetry_group_IT_number 25
_symmetry_cell_setting 'orthorhombic'
loop_
_space_group_symop_operation_xyz
x,y,z
-x,-y,z
-x,y,z
x,-y,z
loop_
_atom_site_type_symbol
_atom_site_label
_atom_site_fract_x
_atom_site_fract_y
_atom_site_fract_z
Si Si1 0.220375 0.174604 0.939030
Si Si2 0.115023 0.836960 0.360624
Si Si3 0.614968 0.164947 0.235103
Si Si4 0.203890 0.330469 0.546293
Si Si5 0.114094 0.328516 0.755446
Si Si6 0.107047 0.173781 0.137397
Si Si7 0.609129 0.669878 0.435692
Si Si8 0.387583 0.327832 0.029876
O O1 0.154990 0.232224 0.847209
O O2 0.230468 0.000000 0.931199
O O3 0.171993 0.231236 0.044374
O O4 0.326816 0.249850 0.938708
O O5 0.146049 0.730374 0.450158
O O6 0.155110 0.785072 0.248241
O O7 0.000000 0.838342 0.350607
O O8 0.153612 0.000000 0.386621
O O9 0.500000 0.161643 0.241138
O O10 0.652221 0.237510 0.340624
O O11 0.647466 0.259232 0.137622
O O12 0.657624 0.000000 0.224390
O O13 0.178029 0.500000 0.548340
O O14 0.166689 0.264666 0.653525
O O15 0.319463 0.302077 0.532068
O O16 0.137565 0.500000 0.773998
O O17 0.000000 0.301122 0.744729
O O18 0.000000 0.244841 0.126196
O O19 0.097154 0.000000 0.130594
O O20 0.500000 0.718396 0.466858
O O21 0.610125 0.500000 0.402310
O O22 0.500000 0.294323 0.008415
O O23 0.366427 0.500000 0.031909
#
# Coordination Sequence:
#
# PCOD8166925 Si02
#       8
#     4   4   4   4   4   4   4   4
#     4  11  22  36  59  87 113 145 191 242 289 341
#     4   9  18  33  53  78 109 142 176 221 283 351
#     4   9  17  30  50  77 110 149 190 231 275 325
#     4  10  21  36  56  81 109 146 193 240 284 331
#     4  10  22  41  61  81 111 149 190 240 294 349
#     4   8  16  32  52  77 110 143 174 218 281 345
#     4   9  18  33  52  77 111 149 189 232 281 338
#     4  10  21  37  56  80 115 156 194 232 278 337
#
# _framework density 19.527996000000002
#
# number of rings (size 3 to 8) (size 9 to 14) (size 15 to 20)
#    0.000    2.500    0.000    2.625    1.750    4.750 
#    0.000    1.250    0.000    3.750    0.000    0.000 
#    0.000    0.000    0.000    0.000    0.000    0.000 
#
# Total GULP energy -396728.298428 kJ/mol
# GULP energy per Si atom -12397.759326 kJ/mol
# Density = 1.948355 g / cm^3
# Si number density = 19.527996 Si / 1000 Ang^3
#
#
#
# Elastic Constant Matrix: (Units=GPa)
#
#
# Indices 1 2 3 4 5 6 
#
# 1 79.3915 42.0492 59.7566 0.0000 0.0000 0.0000
# 2 42.0492 74.2295 45.7702 0.0000 0.0000 0.0000
# 3 59.7566 45.7702 128.3007 0.0000 0.0000 0.0000
# 4 0.0000 0.0000 0.0000 29.7348 0.0000 0.0000
# 5 0.0000 0.0000 0.0000 0.0000 35.4564 0.0000
# 6 0.0000 0.0000 0.0000 0.0000 0.0000 24.0449
#
#
#
# Elastic Compliance Matrix: (Units=1/GPa)
#
#
# Indices 1 2 3 4 5 6 
#
# 1 0.022657 -0.008112 -0.007659 0.000000 0.000000 0.000000
# 2 -0.008112 0.020175 -0.003419 0.000000 0.000000 0.000000
# 3 -0.007659 -0.003419 0.012581 0.000000 0.000000 0.000000
# 4 0.000000 0.000000 0.000000 0.033631 0.000000 0.000000
# 5 0.000000 0.000000 0.000000 0.000000 0.028204 0.000000
# 6 0.000000 0.000000 0.000000 0.000000 0.000000 0.041589
#
#
# Mechanical properties :
#
#
# Convention : Reuss Voigt Hill
#
# Bulk Modulus (GPa) = 58.70828 64.11929 61.41379
# Shear Modulus (GPa) = 24.64343 26.80360 25.72352
#
# Velocity S-wave (km/s) = 3.55625 3.70884 3.63335
# Velocity P-wave (km/s) = 6.85503 7.15867 7.00850
#
# Compressibility (1/GPa) = 0.01703337
#
# Stress axis : x y z
#
# Youngs Moduli (GPa) = 44.13669 49.56546 79.48549
#
# Poissons Ratio (x) = 0.40209 0.60874
# Poissons Ratio (y) = 0.35805 0.27177
# Poissons Ratio (z) = 0.33802 0.16947
#
# Static dielectric constant tensor:
#      x y z
#    x 3.779180 0.000000 0.000000 
#    y 0.000000 3.451250 0.000000 
#    z 0.000000 0.000000 3.553310 
# 
# 
# High freq. dielectric constant tensor:
#      x y z
#    x 1.775090 0.000000 0.000000 
#    y 0.000000 1.744950 0.000000 
#    z 0.000000 0.000000 1.745390 
# 
# From -- ./inp_files/4268.got.cif
#   From: 2010.03.12/outbox.cif.g09.slc.cpg/sg25_3_cif.got.tgz:4268.got - 2010.04.14 03:30:10.
