data_PCOD8166702
_publ_section_title
;
Structure prediction by ZEFSAII (Michael W. Deem and Ramdas Pophale) SiO2 
 PCOD8166702
Probable space group: P M M 2
;
_chemical_formula_sum "Si O2"
_cell_formula_units_Z 28
_cell_length_a 9.195777
_cell_length_b 9.216357
_cell_length_c 18.009516
_cell_angle_alpha 90.000000
_cell_angle_beta 90.000000
_cell_angle_gamma 90.000000
_cell_volume 1526.334643
_symmetry_space_group_name_H-M "P M M 2"
_symmetry_group_IT_number 25
_symmetry_cell_setting 'orthorhombic'
loop_
_space_group_symop_operation_xyz
x,y,z
-x,-y,z
-x,y,z
x,-y,z
loop_
_atom_site_type_symbol
_atom_site_label
_atom_site_fract_x
_atom_site_fract_y
_atom_site_fract_z
Si Si1 0.331456 0.830028 0.609010
Si Si2 0.172801 0.835200 0.175670
Si Si3 0.165620 0.328758 0.481516
Si Si4 0.331123 0.330584 0.046007
Si Si5 0.164156 0.172581 0.753252
Si Si6 0.668985 0.832313 0.897669
Si Si7 0.827570 0.339519 0.316004
O O1 0.500000 0.794165 0.619583
O O2 0.273537 0.751290 0.536416
O O3 0.248005 0.768153 0.681077
O O4 0.303266 0.000000 0.599203
O O5 0.237772 0.739886 0.110471
O O6 0.230207 0.772469 0.254274
O O7 0.000000 0.826117 0.170665
O O8 0.228025 0.000000 0.168727
O O9 0.176869 0.500000 0.493354
O O10 0.217938 0.287000 0.398254
O O11 0.000000 0.276452 0.495455
O O12 0.500000 0.299202 0.061507
O O13 0.296484 0.500000 0.042566
O O14 0.282370 0.260097 0.968531
O O15 0.242168 0.229369 0.827587
O O16 0.000000 0.232170 0.751434
O O17 0.168639 0.000000 0.753036
O O18 0.500000 0.811742 0.879212
O O19 0.706027 0.000000 0.913961
O O20 0.762876 0.500000 0.299416
O O21 0.000000 0.349722 0.313473
#
# Coordination Sequence:
#
# PCOD8166702 Si02
#       7
#     4   4   4   4   4   4   4
#     4  10  20  33  50  74 104 137 173 210 249 297
#     4  10  20  33  52  79 106 132 167 210 254 301
#     4   9  18  33  53  76 101 131 169 211 255 304
#     4  10  21  36  53  74 102 137 174 208 247 299
#     4   9  17  30  50  75 100 128 166 211 256 300
#     4   9  17  31  51  72  96 128 165 207 256 306
#     4   8  15  30  51  73  99 132 168 207 253 303
#
# _framework density 18.344602999999999
#
# number of rings (size 3 to 8) (size 9 to 14) (size 15 to 20)
#    0.000    2.714    0.000    2.571    0.000    5.714 
#    0.000    4.286    0.000    3.429    0.000    0.000 
#    0.000    0.000    0.000    0.000    0.000    0.000 
#
# Total GULP energy -347200.674460 kJ/mol
# GULP energy per Si atom -12400.024088 kJ/mol
# Density = 1.830285 g / cm^3
# Si number density = 18.344603 Si / 1000 Ang^3
#
#
#
# Elastic Constant Matrix: (Units=GPa)
#
#
# Indices 1 2 3 4 5 6 
#
# 1 70.0757 34.6037 63.7621 0.0000 0.0000 0.0000
# 2 34.6037 71.7976 64.7086 0.0000 0.0000 0.0000
# 3 63.7621 64.7086 170.9089 0.0000 0.0000 0.0000
# 4 0.0000 0.0000 0.0000 -36.2008 0.0000 0.0000
# 5 0.0000 0.0000 0.0000 0.0000 17.7140 0.0000
# 6 0.0000 0.0000 0.0000 0.0000 0.0000 23.0675
#
#
#
# Elastic Compliance Matrix: (Units=1/GPa)
#
#
# Indices 1 2 3 4 5 6 
#
# 1 0.022741 -0.005030 -0.006580 0.000000 0.000000 0.000000
# 2 -0.005030 0.022255 -0.006549 0.000000 0.000000 0.000000
# 3 -0.006580 -0.006549 0.010785 0.000000 0.000000 0.000000
# 4 0.000000 0.000000 0.000000 -0.027624 0.000000 0.000000
# 5 0.000000 0.000000 0.000000 0.000000 0.056452 0.000000
# 6 0.000000 0.000000 0.000000 0.000000 0.000000 0.043351
#
#
# Mechanical properties :
#
#
# Convention : Reuss Voigt Hill
#
# Bulk Modulus (GPa) = 51.37956 70.99233 61.18594
# Shear Modulus (GPa) = 29.27946 10.89667 20.08806
#
# Velocity S-wave (km/s) = 3.99943 2.43985 3.31273
# Velocity P-wave (km/s) = 7.02823 6.83524 6.93241
#
# Compressibility (1/GPa) = 0.01946299
#
# Stress axis : x y z
#
# Youngs Moduli (GPa) = 43.97323 44.93312 92.71730
#
# Poissons Ratio (x) = 0.22603 0.61004
# Poissons Ratio (y) = 0.22120 0.60725
# Poissons Ratio (z) = 0.28933 0.29429
#
# Static dielectric constant tensor:
#      x y z
#    x 3.233600 0.000000 0.000000 
#    y 0.000000 3.656700 0.000000 
#    z 0.000000 0.000000 3.617470 
# 
# 
# High freq. dielectric constant tensor:
#      x y z
#    x 1.694100 0.000000 0.000000 
#    y 0.000000 1.693740 0.000000 
#    z 0.000000 0.000000 1.727220 
# 
# From -- ./inp_files/6025.got.cif
#   From: 2010.03.12/outbox.cif.g09.slc.cpg/sg25_4_cif.got.tgz:6025.got - 2010.04.14 03:30:10.
