data_PCOD8166123
_publ_section_title
;
Structure prediction by ZEFSAII (Michael W. Deem and Ramdas Pophale) SiO2 
 PCOD8166123
Probable space group: I 21 21 21
;
_chemical_formula_sum "Si O2"
_cell_formula_units_Z 60
_cell_length_a 11.121820
_cell_length_b 12.083894
_cell_length_c 21.193395
_cell_angle_alpha 90.000000
_cell_angle_beta 90.000000
_cell_angle_gamma 90.000000
_cell_volume 2848.284074
_symmetry_space_group_name_H-M "I 21 21 21"
_symmetry_group_IT_number 24
_symmetry_cell_setting 'orthorhombic'
loop_
_space_group_symop_operation_xyz
x,y,z
-x,1/2-y,z
x,-y,1/2-z
1/2-x,y,-z
1/2+x,1/2+y,1/2+z
1/2-x,-y,1/2+z
1/2+x,1/2-y,-z
-x,1/2+y,1/2-z
loop_
_atom_site_type_symbol
_atom_site_label
_atom_site_fract_x
_atom_site_fract_y
_atom_site_fract_z
Si Si1 0.869827 0.007683 0.150855
Si Si2 0.208483 0.927330 0.658088
Si Si3 0.524709 0.377011 0.054779
Si Si4 0.666368 0.062751 0.440418
Si Si5 0.563282 0.635055 0.583864
Si Si6 0.388592 0.325049 0.744640
Si Si7 0.304531 0.842990 0.208050
Si Si8 0.500000 0.250000 0.382619
O O1 0.835546 0.115218 0.193127
O O2 0.969983 0.037104 0.099230
O O3 0.748973 0.960043 0.120261
O O4 0.932706 0.916058 0.194774
O O5 0.101529 0.936904 0.608245
O O6 0.320568 0.863169 0.628266
O O7 0.157179 0.863558 0.719278
O O8 0.256140 0.047843 0.678311
O O9 0.500000 0.250000 0.074428
O O10 0.403395 0.448059 0.045739
O O11 0.599565 0.378363 0.989344
O O12 0.750000 0.094006 0.500000
O O13 0.576719 0.165943 0.426676
O O14 0.500000 0.750000 0.595767
O O15 0.500000 0.250000 0.766222
O O16 0.288828 0.256311 0.707277
O O17 0.417673 0.819641 0.164310
#
# Coordination Sequence:
#
# PCOD8166123 Si02
#       8
#     8   8   8   8   8   8   8   4
#     4  11  23  41  70 100 133 185 231 291 349 413
#     4  11  24  43  66 100 140 182 227 288 349 421
#     4  11  26  42  70 101 137 186 231 293 353 422
#     4  12  26  52  74 102 142 182 242 291 351 421
#     4  11  23  42  68  99 140 180 230 292 347 417
#     4  11  23  41  67 102 140 180 231 288 348 419
#     4  11  24  43  68  98 139 180 227 289 346 420
#     4  12  26  52  72 104 138 184 238 290 348 422
#
# _framework density 21.065314000000001
#
# number of rings (size 3 to 8) (size 9 to 14) (size 15 to 20)
#    0.000    0.800    4.000    3.200    4.667    2.133 
#    3.600    0.000    0.000    0.000    0.000    0.000 
#    0.000    0.000    0.000    0.000    0.000    0.000 
#
# Total GULP energy -372028.690139 kJ/mol
# GULP energy per Si atom -12400.956338 kJ/mol
# Density = 2.101737 g / cm^3
# Si number density = 21.065314 Si / 1000 Ang^3
#
#
#
# Elastic Constant Matrix: (Units=GPa)
#
#
# Indices 1 2 3 4 5 6 
#
# 1 99.3658 43.9423 54.1579 0.0000 0.0000 0.0000
# 2 43.9423 117.6365 60.1665 0.0000 0.0000 0.0000
# 3 54.1579 60.1665 133.4746 0.0000 0.0000 0.0000
# 4 0.0000 0.0000 0.0000 34.2549 0.0000 0.0000
# 5 0.0000 0.0000 0.0000 0.0000 40.1897 0.0000
# 6 0.0000 0.0000 0.0000 0.0000 0.0000 40.5784
#
#
#
# Elastic Compliance Matrix: (Units=1/GPa)
#
#
# Indices 1 2 3 4 5 6 
#
# 1 0.013665 -0.002948 -0.004216 0.000000 0.000000 0.000000
# 2 -0.002948 0.011684 -0.004070 0.000000 0.000000 0.000000
# 3 -0.004216 -0.004070 0.011037 0.000000 0.000000 0.000000
# 4 0.000000 0.000000 0.000000 0.029193 0.000000 0.000000
# 5 0.000000 0.000000 0.000000 0.000000 0.024882 0.000000
# 6 0.000000 0.000000 0.000000 0.000000 0.000000 0.024644
#
#
# Mechanical properties :
#
#
# Convention : Reuss Voigt Hill
#
# Bulk Modulus (GPa) = 71.85138 74.11224 72.98181
# Shear Modulus (GPa) = 35.15830 35.81864 35.48847
#
# Velocity S-wave (km/s) = 4.08979 4.12802 4.10895
# Velocity P-wave (km/s) = 7.51563 7.61441 7.56518
#
# Compressibility (1/GPa) = 0.01391762
#
# Stress axis : x y z
#
# Youngs Moduli (GPa) = 73.17736 85.58698 90.60049
#
# Poissons Ratio (x) = 0.25235 0.38195
# Poissons Ratio (y) = 0.21576 0.36879
# Poissons Ratio (z) = 0.30850 0.34838
#
# Static dielectric constant tensor:
#      x y z
#    x 3.070370 0.000000 0.000000 
#    y 0.000000 3.969260 0.000000 
#    z 0.000000 0.000000 3.989010 
# 
# 
# High freq. dielectric constant tensor:
#      x y z
#    x 1.811400 0.000000 0.000000 
#    y 0.000000 1.837530 0.000000 
#    z 0.000000 0.000000 1.841810 
# 
# From -- ./inp_files/33442.got.cif
#   From: 2010.03.12/outbox.cif.g09.slc.cpg/sg24_17_cif.got.tgz:33442.got - 2010.04.14 03:06:53.
