data_PCOD8166362
_publ_section_title
;
Structure prediction by ZEFSAII (Michael W. Deem and Ramdas Pophale) SiO2 
 PCOD8166362
Probable space group: P M M 2
;
_chemical_formula_sum "Si O2"
_cell_formula_units_Z 32
_cell_length_a 9.052436
_cell_length_b 14.567187
_cell_length_c 12.306077
_cell_angle_alpha 90.000000
_cell_angle_beta 90.000000
_cell_angle_gamma 90.000000
_cell_volume 1622.784260
_symmetry_space_group_name_H-M "P M M 2"
_symmetry_group_IT_number 25
_symmetry_cell_setting 'orthorhombic'
loop_
_space_group_symop_operation_xyz
x,y,z
-x,-y,z
-x,y,z
x,-y,z
loop_
_atom_site_type_symbol
_atom_site_label
_atom_site_fract_x
_atom_site_fract_y
_atom_site_fract_z
Si Si1 0.831245 0.601284 0.135690
Si Si2 0.324959 0.893848 0.844555
Si Si3 0.664706 0.162453 0.434626
Si Si4 0.171823 0.788439 0.038135
Si Si5 0.667642 0.101184 0.209941
Si Si6 0.826464 0.795079 0.645002
Si Si7 0.830051 0.400692 0.571012
Si Si8 0.333899 0.635412 0.356489
O O1 0.809813 0.500000 0.082231
O O2 0.789498 0.679665 0.047091
O O3 0.735194 0.605729 0.243366
O O4 0.000000 0.617460 0.171463
O O5 0.500000 0.887576 0.840177
O O6 0.259913 0.847609 0.737716
O O7 0.273128 0.000000 0.852406
O O8 0.269213 0.835974 0.946514
O O9 0.500000 0.147701 0.484225
O O10 0.700727 0.090234 0.339304
O O11 0.783660 0.157176 0.530887
O O12 0.673719 0.256203 0.367805
O O13 0.213680 0.833011 0.153511
O O14 0.000000 0.804611 0.011871
O O15 0.500000 0.138487 0.192082
O O16 0.682469 0.000000 0.158055
O O17 0.775571 0.687069 0.642231
O O18 0.000000 0.805645 0.665733
O O19 0.808778 0.500000 0.632024
O O20 0.748036 0.410521 0.457315
O O21 0.000000 0.382274 0.543653
O O22 0.500000 0.598384 0.357912
#
# Coordination Sequence:
#
# PCOD8166362 Si02
#       8
#     4   4   4   4   4   4   4   4
#     4  10  21  36  54  79 114 155 193 229 279 341
#     4  11  25  45  67  86 108 145 189 234 292 357
#     4   9  18  33  52  79 119 159 191 229 281 339
#     4  11  23  39  61  86 114 146 188 242 289 332
#     4  10  20  35  56  82 115 155 191 226 281 350
#     4  10  21  37  60  88 116 147 191 242 286 330
#     4   9  18  33  53  80 118 160 194 226 275 338
#     4  10  18  29  49  79 115 155 198 240 275 318
#
# _framework density 19.719196
#
# number of rings (size 3 to 8) (size 9 to 14) (size 15 to 20)
#    0.000    2.000    1.250    2.250    0.000    7.250 
#    0.000    1.875    0.000    3.750    0.000    0.000 
#    0.000    0.000    0.000    0.000    0.000    0.000 
#
# Total GULP energy -396639.375074 kJ/mol
# GULP energy per Si atom -12394.980471 kJ/mol
# Density = 1.967431 g / cm^3
# Si number density = 19.719196 Si / 1000 Ang^3
#
#
#
# Elastic Constant Matrix: (Units=GPa)
#
#
# Indices 1 2 3 4 5 6 
#
# 1 74.9038 49.0209 40.4954 0.0000 0.0000 0.0000
# 2 49.0209 132.0096 59.0134 0.0000 0.0000 0.0000
# 3 40.4954 59.0134 93.3723 0.0000 0.0000 0.0000
# 4 0.0000 0.0000 0.0000 19.8579 0.0000 0.0000
# 5 0.0000 0.0000 0.0000 0.0000 27.6811 0.0000
# 6 0.0000 0.0000 0.0000 0.0000 0.0000 21.9511
#
#
#
# Elastic Compliance Matrix: (Units=1/GPa)
#
#
# Indices 1 2 3 4 5 6 
#
# 1 0.019400 -0.004799 -0.005381 0.000000 0.000000 0.000000
# 2 -0.004799 0.011745 -0.005342 0.000000 0.000000 0.000000
# 3 -0.005381 -0.005342 0.016420 0.000000 0.000000 0.000000
# 4 0.000000 0.000000 0.000000 0.050358 0.000000 0.000000
# 5 0.000000 0.000000 0.000000 0.000000 0.036126 0.000000
# 6 0.000000 0.000000 0.000000 0.000000 0.000000 0.045556
#
#
# Mechanical properties :
#
#
# Convention : Reuss Voigt Hill
#
# Bulk Modulus (GPa) = 60.52598 66.37168 63.44883
# Shear Modulus (GPa) = 23.13152 24.01506 23.57329
#
# Velocity S-wave (km/s) = 3.42869 3.49356 3.46128
# Velocity P-wave (km/s) = 6.81433 7.07140 6.94406
#
# Compressibility (1/GPa) = 0.01652183
#
# Stress axis : x y z
#
# Youngs Moduli (GPa) = 51.54639 85.14061 60.90173
#
# Poissons Ratio (x) = 0.40855 0.32771
# Poissons Ratio (y) = 0.24735 0.32535
# Poissons Ratio (z) = 0.27737 0.45483
#
# Static dielectric constant tensor:
#      x y z
#    x 3.627900 0.000000 0.000000 
#    y 0.000000 4.028900 0.000000 
#    z 0.000000 0.000000 3.384040 
# 
# 
# High freq. dielectric constant tensor:
#      x y z
#    x 1.768280 0.000000 0.000000 
#    y 0.000000 1.785730 0.000000 
#    z 0.000000 0.000000 1.741250 
# 
# From -- ./inp_files/4180.got.cif
#   From: 2010.03.12/outbox.cif.g09.slc.cpg/sg25_3_cif.got.tgz:4180.got - 2010.04.14 03:30:10.
