data_PCOD8166236
_publ_section_title
;
Structure prediction by ZEFSAII (Michael W. Deem and Ramdas Pophale) SiO2 
 PCOD8166236
Probable space group: I 21 21 21
;
_chemical_formula_sum "Si O2"
_cell_formula_units_Z 40
_cell_length_a 5.542945
_cell_length_b 17.391359
_cell_length_c 16.172098
_cell_angle_alpha 90.000000
_cell_angle_beta 90.000000
_cell_angle_gamma 90.000000
_cell_volume 1558.979677
_symmetry_space_group_name_H-M "I 21 21 21"
_symmetry_group_IT_number 24
_symmetry_cell_setting 'orthorhombic'
loop_
_space_group_symop_operation_xyz
x,y,z
-x,1/2-y,z
x,-y,1/2-z
1/2-x,y,-z
1/2+x,1/2+y,1/2+z
1/2-x,-y,1/2+z
1/2+x,1/2-y,-z
-x,1/2+y,1/2-z
loop_
_atom_site_type_symbol
_atom_site_label
_atom_site_fract_x
_atom_site_fract_y
_atom_site_fract_z
Si Si1 0.492986 0.532819 0.878553
Si Si2 0.500000 0.750000 0.633722
Si Si3 0.000000 0.250000 0.624740
Si Si4 0.252122 0.862184 0.241858
Si Si5 0.118857 0.500000 0.750000
Si Si6 0.750000 0.569061 0.500000
Si Si7 0.250000 0.637832 0.000000
Si Si8 0.750000 0.839195 0.500000
O O1 0.557541 0.583916 0.800122
O O2 0.260872 0.491866 0.838237
O O3 0.704437 0.476937 0.912791
O O4 0.447725 0.583585 0.959402
O O5 0.373512 0.821321 0.680461
O O6 0.715918 0.784941 0.579290
O O7 0.808216 0.292061 0.681351
O O8 0.867558 0.188243 0.569923
O O9 0.475374 0.919305 0.256895
O O10 0.498037 0.613468 0.485396
#
# Coordination Sequence:
#
# PCOD8166236 Si02
#       8
#     8   4   4   8   4   4   4   4
#     4  12  28  52  81 128 166 223 287 367 442 527
#     4  12  32  58  86 124 182 232 310 362 454 520
#     4  12  24  46  82 120 168 220 284 354 450 532
#     4  12  29  53  85 123 171 228 288 372 440 536
#     4  12  30  54  82 128 176 230 296 358 452 532
#     4  12  31  53  94 127 177 226 300 366 449 531
#     4  12  23  47  80 120 174 218 288 354 446 536
#     4  12  32  58  88 129 173 246 296 370 433 537
#
# _framework density 25.657806000000001
#
# number of rings (size 3 to 8) (size 9 to 14) (size 15 to 20)
#    0.000    0.000    2.000    5.400    8.400    4.000 
#    0.000    0.000    0.000    0.000    0.000    0.000 
#    0.000    0.000    0.000    0.000    0.000    0.000 
#
# Total GULP energy -247847.029855 kJ/mol
# GULP energy per Si atom -12392.351493 kJ/mol
# Density = 2.559941 g / cm^3
# Si number density = 25.657806 Si / 1000 Ang^3
#
#
#
# Elastic Constant Matrix: (Units=GPa)
#
#
# Indices 1 2 3 4 5 6 
#
# 1 164.8061 80.9089 78.6324 0.0000 0.0000 0.0000
# 2 80.9089 148.0909 84.5681 0.0000 0.0000 -0.0001
# 3 78.6324 84.5681 156.7921 -0.0001 0.0000 -0.0007
# 4 0.0000 0.0000 -0.0001 123.5917 0.0000 -0.0002
# 5 0.0000 0.0000 0.0000 0.0000 83.4807 0.0000
# 6 0.0000 -0.0001 -0.0007 -0.0002 0.0000 -364.0996
#
#
#
# Elastic Compliance Matrix: (Units=1/GPa)
#
#
# Indices 1 2 3 4 5 6 
#
# 1 0.009016 -0.003387 -0.002695 0.000000 0.000000 0.000000
# 2 -0.003387 0.011031 -0.004251 0.000000 0.000000 0.000000
# 3 -0.002695 -0.004251 0.010022 0.000000 0.000000 0.000000
# 4 0.000000 0.000000 0.000000 0.008091 0.000000 0.000000
# 5 0.000000 0.000000 0.000000 0.000000 0.011979 0.000000
# 6 0.000000 0.000000 0.000000 0.000000 0.000000 -0.002747
#
#
# Mechanical properties :
#
#
# Convention : Reuss Voigt Hill
#
# Bulk Modulus (GPa) = 106.34451 106.43420 106.38935
# Shear Modulus (GPa) = 70.23178 -16.36679 26.93250
#
# Velocity S-wave (km/s) = 5.23755 -2.52838 3.24339
# Velocity P-wave (km/s) = 8.83816 5.74879 7.45526
#
# Compressibility (1/GPa) = 0.00940340
#
# Stress axis : x y z
#
# Youngs Moduli (GPa) = 110.90925 90.65662 99.77914
#
# Poissons Ratio (x) = 0.30707 0.26889
# Poissons Ratio (y) = 0.37567 0.42415
# Poissons Ratio (z) = 0.29889 0.38537
#
# Static dielectric constant tensor:
#      x y z
#    x 4.664100 0.000000 0.000000 
#    y 0.000000 4.414200 0.000000 
#    z 0.000000 0.000000 4.792530 
# 
# 
# High freq. dielectric constant tensor:
#      x y z
#    x 2.031580 0.000000 0.000000 
#    y 0.000000 2.050240 0.000000 
#    z 0.000000 0.000000 2.047240 
# 
# From -- ./inp_files/28668.got.cif
#   From: 2010.03.12/outbox.cif.g09.slc.cpg/sg24_15_cif.got.tgz:28668.got - 2010.04.14 03:06:53.
