data_PCOD8166731
_publ_section_title
;
Structure prediction by ZEFSAII (Michael W. Deem and Ramdas Pophale) SiO2 
 PCOD8166731
Probable space group: P M M 2
;
_chemical_formula_sum "Si O2"
_cell_formula_units_Z 32
_cell_length_a 9.122126
_cell_length_b 9.035819
_cell_length_c 20.676942
_cell_angle_alpha 90.000000
_cell_angle_beta 90.000000
_cell_angle_gamma 90.000000
_cell_volume 1704.315128
_symmetry_space_group_name_H-M "P M M 2"
_symmetry_group_IT_number 25
_symmetry_cell_setting 'orthorhombic'
loop_
_space_group_symop_operation_xyz
x,y,z
-x,-y,z
-x,y,z
x,-y,z
loop_
_atom_site_type_symbol
_atom_site_label
_atom_site_fract_x
_atom_site_fract_y
_atom_site_fract_z
Si Si1 0.171800 0.330588 0.090980
Si Si2 0.333588 0.675088 0.214964
Si Si3 0.167515 0.324334 0.481425
Si Si4 0.171748 0.328692 0.714940
Si Si5 0.335367 0.676015 0.356648
Si Si6 0.832432 0.174392 0.961570
Si Si7 0.670532 0.329187 0.846896
Si Si8 0.669682 0.826076 0.598407
O O1 0.222439 0.500000 0.081786
O O2 0.239499 0.258091 0.156018
O O3 0.000000 0.316844 0.098926
O O4 0.227186 0.240940 0.028722
O O5 0.500000 0.723320 0.203466
O O6 0.315653 0.500000 0.214110
O O7 0.281785 0.733659 0.285843
O O8 0.181359 0.500000 0.487591
O O9 0.224755 0.267144 0.411756
O O10 0.267769 0.252083 0.535373
O O11 0.000000 0.272788 0.489968
O O12 0.202938 0.500000 0.698497
O O13 0.243441 0.282941 0.782600
O O14 0.242265 0.227805 0.660479
O O15 0.000000 0.295567 0.718746
O O16 0.500000 0.734553 0.371095
O O17 0.338382 0.500000 0.355771
O O18 0.729177 0.230403 0.904822
O O19 0.000000 0.225822 0.948788
O O20 0.820784 0.000000 0.965975
O O21 0.500000 0.296353 0.835724
O O22 0.699463 0.500000 0.864007
O O23 0.500000 0.782480 0.606327
O O24 0.691383 0.000000 0.590902
#
# Coordination Sequence:
#
# PCOD8166731 Si02
#       8
#     4   4   4   4   4   4   4   4
#     4   9  17  29  47  71  98 129 167 213 262 309
#     4   8  14  25  43  69  99 129 164 208 257 307
#     4  10  20  33  52  79 107 136 173 216 261 309
#     4  10  21  38  61  86 109 135 169 209 254 305
#     4   8  14  26  45  70 100 132 166 209 261 311
#     4  10  21  36  53  74 103 140 178 215 257 305
#     4  10  21  37  58  83 108 135 169 210 256 305
#     4  11  24  39  55  77 106 141 178 214 254 302
#
# _framework density 18.775870999999999
#
# number of rings (size 3 to 8) (size 9 to 14) (size 15 to 20)
#    0.000    2.500    0.000    3.000    0.000    7.000 
#    0.000    3.750    0.000    0.750    0.000    3.500 
#    0.000    0.000    0.000    0.000    0.000    0.000 
#
# Total GULP energy -396772.823248 kJ/mol
# GULP energy per Si atom -12399.150727 kJ/mol
# Density = 1.873314 g / cm^3
# Si number density = 18.775871 Si / 1000 Ang^3
#
#
#
# Elastic Constant Matrix: (Units=GPa)
#
#
# Indices 1 2 3 4 5 6 
#
# 1 94.5125 31.7866 68.3318 0.0000 0.0000 0.0000
# 2 31.7866 37.9079 39.9823 0.0000 0.0000 0.0000
# 3 68.3318 39.9823 159.2118 0.0000 0.0000 0.0000
# 4 0.0000 0.0000 0.0000 -8.1790 0.0000 0.0000
# 5 0.0000 0.0000 0.0000 0.0000 41.9933 0.0000
# 6 0.0000 0.0000 0.0000 0.0000 0.0000 21.5834
#
#
#
# Elastic Compliance Matrix: (Units=1/GPa)
#
#
# Indices 1 2 3 4 5 6 
#
# 1 0.017389 -0.009127 -0.005171 0.000000 0.000000 0.000000
# 2 -0.009127 0.040675 -0.006297 0.000000 0.000000 0.000000
# 3 -0.005171 -0.006297 0.010082 0.000000 0.000000 0.000000
# 4 0.000000 0.000000 0.000000 -0.122264 0.000000 0.000000
# 5 0.000000 0.000000 0.000000 0.000000 0.023813 0.000000
# 6 0.000000 0.000000 0.000000 0.000000 0.000000 0.046332
#
#
# Mechanical properties :
#
#
# Convention : Reuss Voigt Hill
#
# Bulk Modulus (GPa) = 37.09922 63.53705 50.31813
# Shear Modulus (GPa) = 75.52600 21.18161 48.35380
#
# Velocity S-wave (km/s) = 6.34920 3.36241 5.08026
# Velocity P-wave (km/s) = 8.57623 6.99911 7.82749
#
# Compressibility (1/GPa) = 0.02695474
#
# Stress axis : x y z
#
# Youngs Moduli (GPa) = 57.50823 24.58524 99.18908
#
# Poissons Ratio (x) = 0.22439 0.51291
# Poissons Ratio (y) = 0.52487 0.62463
# Poissons Ratio (z) = 0.29738 0.15482
#
# Static dielectric constant tensor:
#      x y z
#    x 3.540000 0.000000 0.000000 
#    y 0.000000 3.123100 0.000000 
#    z 0.000000 0.000000 4.000320 
# 
# 
# High freq. dielectric constant tensor:
#      x y z
#    x 1.731880 0.000000 0.000000 
#    y 0.000000 1.692150 0.000000 
#    z 0.000000 0.000000 1.748840 
# 
# From -- ./inp_files/6564.got.cif
#   From: 2010.03.12/outbox.cif.g09.slc.cpg/sg25_4_cif.got.tgz:6564.got - 2010.04.14 03:30:10.
