data_PCOD8166181
_publ_section_title
;
Structure prediction by ZEFSAII (Michael W. Deem and Ramdas Pophale) SiO2 
 PCOD8166181
Probable space group: I 21 21 21
;
_chemical_formula_sum "Si O2"
_cell_formula_units_Z 20
_cell_length_a 29.964904
_cell_length_b 5.078146
_cell_length_c 5.083068
_cell_angle_alpha 90.000000
_cell_angle_beta 90.000000
_cell_angle_gamma 90.000000
_cell_volume 773.470925
_symmetry_space_group_name_H-M "I 21 21 21"
_symmetry_group_IT_number 24
_symmetry_cell_setting 'orthorhombic'
loop_
_space_group_symop_operation_xyz
x,y,z
-x,1/2-y,z
x,-y,1/2-z
1/2-x,y,-z
1/2+x,1/2+y,1/2+z
1/2-x,-y,1/2+z
1/2+x,1/2-y,-z
-x,1/2+y,1/2-z
loop_
_atom_site_type_symbol
_atom_site_label
_atom_site_fract_x
_atom_site_fract_y
_atom_site_fract_z
Si Si1 0.778973 0.000000 0.750000
Si Si2 0.925587 0.000000 0.750000
Si Si3 0.500000 0.750000 0.578492
Si Si4 0.651198 0.757385 0.929194
O O1 0.750000 0.901232 0.500000
O O2 0.810699 0.246481 0.657484
O O3 0.896703 0.186634 0.559530
O O4 0.956148 0.797771 0.592378
O O5 0.512364 0.500000 0.750000
O O6 0.649213 0.500000 0.750000
O O7 0.665565 0.000000 0.750000
#
# Coordination Sequence:
#
# PCOD8166181 Si02
#       4
#     4   4   4   8
#     4  11  24  54  86 126 164 222 274 342 408 503
#     4  11  28  48  80 116 160 220 278 340 414 485
#     4  12  28  48  76 116 158 214 280 344 406 486
#     4  11  27  52  80 120 165 215 270 340 415 492
#
# _framework density 25.857472000000001
#
# number of rings (size 3 to 8) (size 9 to 14) (size 15 to 20)
#    0.000    0.800    2.000    2.400    0.000   22.400 
#    7.200    0.000    0.000    0.000    0.000    0.000 
#    0.000    0.000    0.000    0.000    0.000    0.000 
#
# Total GULP energy -123986.187762 kJ/mol
# GULP energy per Si atom -12398.618776 kJ/mol
# Density = 2.579862 g / cm^3
# Si number density = 25.857472 Si / 1000 Ang^3
#
#
#
# Elastic Constant Matrix: (Units=GPa)
#
#
# Indices 1 2 3 4 5 6 
#
# 1 213.6100 77.6023 110.3613 0.0000 0.0001 0.0000
# 2 77.6023 195.6099 100.6654 0.0001 0.0000 0.0000
# 3 110.3613 100.6654 196.1452 0.0001 0.0001 0.0000
# 4 0.0000 0.0001 0.0001 44.5475 0.0000 0.0000
# 5 0.0001 0.0000 0.0001 0.0000 198.1288 0.0000
# 6 0.0000 0.0000 0.0000 0.0000 0.0000 10.1639
#
#
#
# Elastic Compliance Matrix: (Units=1/GPa)
#
#
# Indices 1 2 3 4 5 6 
#
# 1 0.006736 -0.000981 -0.003286 0.000000 0.000000 0.000000
# 2 -0.000981 0.007090 -0.003087 0.000000 0.000000 0.000000
# 3 -0.003286 -0.003087 0.008532 0.000000 0.000000 0.000000
# 4 0.000000 0.000000 0.000000 0.022448 0.000000 0.000000
# 5 0.000000 0.000000 0.000000 0.000000 0.005047 0.000000
# 6 0.000000 0.000000 0.000000 0.000000 0.000000 0.098388
#
#
# Mechanical properties :
#
#
# Convention : Reuss Voigt Hill
#
# Bulk Modulus (GPa) = 130.73674 131.40256 131.06965
# Shear Modulus (GPa) = 30.21188 71.68376 50.94782
#
# Velocity S-wave (km/s) = 3.42190 5.27094 4.44366
# Velocity P-wave (km/s) = 8.14142 9.37935 8.78222
#
# Compressibility (1/GPa) = 0.00764896
#
# Stress axis : x y z
#
# Youngs Moduli (GPa) = 148.46225 141.04624 117.21193
#
# Poissons Ratio (x) = 0.13835 0.38521
# Poissons Ratio (y) = 0.14563 0.36180
# Poissons Ratio (z) = 0.48791 0.43537
#
# Static dielectric constant tensor:
#      x y z
#    x 5.013590 0.000000 0.000000 
#    y 0.000000 3.683140 0.000000 
#    z 0.000000 0.000000 5.298160 
# 
# 
# High freq. dielectric constant tensor:
#      x y z
#    x 2.059620 0.000000 0.000000 
#    y 0.000000 2.013060 0.000000 
#    z 0.000000 0.000000 2.065270 
# 
# From -- ./inp_files/381.got.cif
#   From: 2010.03.12/outbox.cif.g09.slc.cpg/sg24_1_cif.got.tgz:381.got - 2010.04.14 03:06:53.
