data_PCOD8166635
_publ_section_title
;
Structure prediction by ZEFSAII (Michael W. Deem and Ramdas Pophale) SiO2 
 PCOD8166635
Probable space group: P M M 2
;
_chemical_formula_sum "Si O2"
_cell_formula_units_Z 32
_cell_length_a 9.140533
_cell_length_b 14.126496
_cell_length_c 15.368582
_cell_angle_alpha 90.000000
_cell_angle_beta 90.000000
_cell_angle_gamma 90.000000
_cell_volume 1984.448216
_symmetry_space_group_name_H-M "P M M 2"
_symmetry_group_IT_number 25
_symmetry_cell_setting 'orthorhombic'
loop_
_space_group_symop_operation_xyz
x,y,z
-x,-y,z
-x,y,z
x,-y,z
loop_
_atom_site_type_symbol
_atom_site_label
_atom_site_fract_x
_atom_site_fract_y
_atom_site_fract_z
Si Si1 0.328281 0.891073 0.243460
Si Si2 0.169763 0.607243 0.674778
Si Si3 0.661753 0.112334 0.049384
Si Si4 0.327435 0.783347 0.730864
Si Si5 0.826155 0.796110 0.399915
Si Si6 0.173475 0.397334 0.477961
Si Si7 0.166134 0.887622 0.883708
Si Si8 0.668228 0.890554 0.556701
O O1 0.500000 0.878981 0.261702
O O2 0.288168 0.856335 0.145972
O O3 0.236465 0.825166 0.307152
O O4 0.282112 0.000000 0.258046
O O5 0.194177 0.500000 0.707824
O O6 0.262482 0.677539 0.735421
O O7 0.229316 0.618038 0.576314
O O8 0.000000 0.635449 0.680810
O O9 0.500000 0.153256 0.028758
O O10 0.653201 0.000000 0.048741
O O11 0.774806 0.149444 0.977014
O O12 0.500000 0.779751 0.741823
O O13 0.264014 0.844945 0.808400
O O14 0.280033 0.831125 0.640089
O O15 0.771194 0.688467 0.417755
O O16 0.767307 0.865067 0.474555
O O17 0.000000 0.803423 0.398667
O O18 0.230681 0.500000 0.443054
O O19 0.000000 0.399207 0.480955
O O20 0.000000 0.852841 0.873795
O O21 0.178342 0.000000 0.877910
O O22 0.500000 0.868814 0.533040
O O23 0.690967 0.000000 0.579679
#
# Coordination Sequence:
#
# PCOD8166635 Si02
#       8
#     4   4   4   4   4   4   4   4
#     4   9  18  32  48  66  94 130 159 185 227 284
#     4   9  17  32  52  69  90 122 158 199 245 287
#     4   8  15  30  50  68  88 120 159 194 231 278
#     4  11  21  32  48  69  95 127 162 198 234 281
#     4  11  20  29  46  70  92 118 157 199 234 273
#     4   8  15  29  47  65  88 119 153 192 238 282
#     4  10  20  32  48  71  98 126 157 197 240 282
#     4  10  21  34  44  58  89 131 164 188 222 270
#
# _framework density 16.125388999999998
#
# number of rings (size 3 to 8) (size 9 to 14) (size 15 to 20)
#    0.000    2.500    1.250    3.375    0.000    4.500 
#    0.000    1.250    0.000    1.500    0.000    0.875 
#    0.000    3.000    0.000    0.000    0.000    0.000 
#
# Total GULP energy -396735.347774 kJ/mol
# GULP energy per Si atom -12397.979618 kJ/mol
# Density = 1.608869 g / cm^3
# Si number density = 16.125389 Si / 1000 Ang^3
#
#
#
# Elastic Constant Matrix: (Units=GPa)
#
#
# Indices 1 2 3 4 5 6 
#
# 1 70.4901 33.3850 46.1380 0.0000 0.0000 0.0000
# 2 33.3850 66.7051 28.5370 0.0000 0.0000 0.0000
# 3 46.1380 28.5370 92.6050 0.0000 0.0000 0.0000
# 4 0.0000 0.0000 0.0000 10.4639 0.0000 0.0000
# 5 0.0000 0.0000 0.0000 0.0000 27.1218 0.0000
# 6 0.0000 0.0000 0.0000 0.0000 0.0000 20.4983
#
#
#
# Elastic Compliance Matrix: (Units=1/GPa)
#
#
# Indices 1 2 3 4 5 6 
#
# 1 0.024296 -0.008041 -0.009627 0.000000 0.000000 0.000000
# 2 -0.008041 0.019929 -0.002135 0.000000 0.000000 0.000000
# 3 -0.009627 -0.002135 0.016253 0.000000 0.000000 0.000000
# 4 0.000000 0.000000 0.000000 0.095566 0.000000 0.000000
# 5 0.000000 0.000000 0.000000 0.000000 0.036871 0.000000
# 6 0.000000 0.000000 0.000000 0.000000 0.000000 0.048784
#
#
# Mechanical properties :
#
#
# Convention : Reuss Voigt Hill
#
# Bulk Modulus (GPa) = 47.91172 49.54669 48.72921
# Shear Modulus (GPa) = 17.34527 19.73282 18.53904
#
# Velocity S-wave (km/s) = 3.28327 3.50195 3.39437
# Velocity P-wave (km/s) = 6.64452 6.86616 6.75625
#
# Compressibility (1/GPa) = 0.02087172
#
# Stress axis : x y z
#
# Youngs Moduli (GPa) = 41.15914 50.17736 61.52801
#
# Poissons Ratio (x) = 0.40349 0.59232
# Poissons Ratio (y) = 0.33098 0.13136
# Poissons Ratio (z) = 0.39623 0.10713
#
# Static dielectric constant tensor:
#      x y z
#    x 3.015680 0.000000 0.000000 
#    y 0.000000 3.085340 0.000000 
#    z 0.000000 0.000000 3.070860 
# 
# 
# High freq. dielectric constant tensor:
#      x y z
#    x 1.616210 0.000000 0.000000 
#    y 0.000000 1.601880 0.000000 
#    z 0.000000 0.000000 1.608280 
# 
# From -- ./inp_files/5716.got.cif
#   From: 2010.03.12/outbox.cif.g09.slc.cpg/sg25_3_cif.got.tgz:5716.got - 2010.04.14 03:30:10.
