data_PCOD8166724
_publ_section_title
;
Structure prediction by ZEFSAII (Michael W. Deem and Ramdas Pophale) SiO2 
 PCOD8166724
Probable space group: P M M 2
;
_chemical_formula_sum "Si O2"
_cell_formula_units_Z 32
_cell_length_a 14.034934
_cell_length_b 9.030830
_cell_length_c 13.766503
_cell_angle_alpha 90.000000
_cell_angle_beta 90.000000
_cell_angle_gamma 90.000000
_cell_volume 1744.864374
_symmetry_space_group_name_H-M "P M M 2"
_symmetry_group_IT_number 25
_symmetry_cell_setting 'orthorhombic'
loop_
_space_group_symop_operation_xyz
x,y,z
-x,-y,z
-x,y,z
x,-y,z
loop_
_atom_site_type_symbol
_atom_site_label
_atom_site_fract_x
_atom_site_fract_y
_atom_site_fract_z
Si Si1 0.608978 0.828939 0.613440
Si Si2 0.890776 0.172414 0.657452
Si Si3 0.739119 0.826336 0.972857
Si Si4 0.270337 0.675565 0.771629
Si Si5 0.890327 0.327386 0.095171
Si Si6 0.392025 0.172949 0.152934
Si Si7 0.240368 0.672343 0.273676
Si Si8 0.227051 0.830806 0.470373
O O1 0.500000 0.790068 0.590173
O O2 0.645096 0.727714 0.701192
O O3 0.669531 0.796158 0.516609
O O4 0.622607 0.000000 0.644546
O O5 0.832033 0.267039 0.735115
O O6 0.854353 0.205711 0.548985
O O7 0.000000 0.221126 0.665033
O O8 0.875999 0.000000 0.682244
O O9 0.707671 0.741672 0.876682
O O10 0.747686 0.000000 0.952007
O O11 0.840785 0.766765 0.010314
O O12 0.658048 0.788533 0.051330
O O13 0.268827 0.500000 0.776851
O O14 0.877664 0.500000 0.070587
O O15 0.843791 0.287867 0.198766
O O16 0.000000 0.280227 0.099853
O O17 0.500000 0.231306 0.147984
O O18 0.338868 0.251958 0.241726
O O19 0.388045 0.000000 0.174542
O O20 0.259723 0.500000 0.278884
O O21 0.208101 0.727695 0.378758
O O22 0.220801 0.000000 0.435793
#
# Coordination Sequence:
#
# PCOD8166724 Si02
#       8
#     4   4   4   4   4   4   4   4
#     4   9  19  37  58  77 101 137 179 220 260 303
#     4   9  19  37  58  78 102 135 177 221 260 302
#     4  10  20  35  55  78 103 133 172 215 257 305
#     4  11  22  35  53  79 110 140 170 209 260 316
#     4   9  19  36  54  73 102 138 173 211 257 307
#     4   9  19  36  56  76  99 131 172 215 256 300
#     4  10  20  33  51  77 107 138 170 207 254 307
#     4   9  18  33  53  78 106 136 171 212 258 305
#
# _framework density 18.339534
#
# number of rings (size 3 to 8) (size 9 to 14) (size 15 to 20)
#    0.000    2.500    0.000    2.625    0.000    6.000 
#    0.000    2.500    0.000    0.000    0.000    0.000 
#    0.000    0.000    0.000    0.000    0.000    0.000 
#
# Total GULP energy -396904.449893 kJ/mol
# GULP energy per Si atom -12403.264059 kJ/mol
# Density = 1.829779 g / cm^3
# Si number density = 18.339534 Si / 1000 Ang^3
#
#
#
# Elastic Constant Matrix: (Units=GPa)
#
#
# Indices 1 2 3 4 5 6 
#
# 1 73.6171 9.6359 -15.6056 0.0000 0.0000 0.0000
# 2 9.6359 61.3672 21.8821 0.0000 0.0000 0.0000
# 3 -15.6056 21.8821 55.5932 0.0000 0.0000 0.0000
# 4 0.0000 0.0000 0.0000 33.5396 0.0000 0.0000
# 5 0.0000 0.0000 0.0000 0.0000 12.7743 0.0000
# 6 0.0000 0.0000 0.0000 0.0000 0.0000 24.8889
#
#
#
# Elastic Compliance Matrix: (Units=1/GPa)
#
#
# Indices 1 2 3 4 5 6 
#
# 1 0.015500 -0.004636 0.006176 0.000000 0.000000 0.000000
# 2 -0.004636 0.020342 -0.009308 0.000000 0.000000 0.000000
# 3 0.006176 -0.009308 0.023385 0.000000 0.000000 0.000000
# 4 0.000000 0.000000 0.000000 0.029815 0.000000 0.000000
# 5 0.000000 0.000000 0.000000 0.000000 0.078282 0.000000
# 6 0.000000 0.000000 0.000000 0.000000 0.000000 0.040179
#
#
# Mechanical properties :
#
#
# Convention : Reuss Voigt Hill
#
# Bulk Modulus (GPa) = 22.88836 24.71136 23.79986
# Shear Modulus (GPa) = 21.04343 25.88491 23.46417
#
# Velocity S-wave (km/s) = 3.39106 3.76097 3.58079
# Velocity P-wave (km/s) = 5.27634 5.68889 5.48650
#
# Compressibility (1/GPa) = 0.04369034
#
# Stress axis : x y z
#
# Youngs Moduli (GPa) = 64.51721 49.15838 42.76201
#
# Poissons Ratio (x) = 0.22789 -0.26408
# Poissons Ratio (y) = 0.29909 0.39804
# Poissons Ratio (z) = -0.39844 0.45758
#
# Static dielectric constant tensor:
#      x y z
#    x 3.475620 0.000000 0.000000 
#    y 0.000000 3.323970 0.000000 
#    z 0.000000 0.000000 3.310870 
# 
# 
# High freq. dielectric constant tensor:
#      x y z
#    x 1.712050 0.000000 0.000000 
#    y 0.000000 1.708690 0.000000 
#    z 0.000000 0.000000 1.710250 
# 
# From -- ./inp_files/4932.got.cif
#   From: 2010.03.12/outbox.cif.g09.slc.cpg/sg25_3_cif.got.tgz:4932.got - 2010.04.14 03:30:10.
