data_PCOD8166625
_publ_section_title
;
Structure prediction by ZEFSAII (Michael W. Deem and Ramdas Pophale) SiO2 
 PCOD8166625
Probable space group: P M M 2
;
_chemical_formula_sum "Si O2"
_cell_formula_units_Z 28
_cell_length_a 9.469979
_cell_length_b 9.060913
_cell_length_c 18.451202
_cell_angle_alpha 90.000000
_cell_angle_beta 90.000000
_cell_angle_gamma 90.000000
_cell_volume 1583.235940
_symmetry_space_group_name_H-M "P M M 2"
_symmetry_group_IT_number 25
_symmetry_cell_setting 'orthorhombic'
loop_
_space_group_symop_operation_xyz
x,y,z
-x,-y,z
-x,y,z
x,-y,z
loop_
_atom_site_type_symbol
_atom_site_label
_atom_site_fract_x
_atom_site_fract_y
_atom_site_fract_z
Si Si1 0.158986 0.676620 0.668910
Si Si2 0.667805 0.166315 0.391099
Si Si3 0.664272 0.327818 0.533631
Si Si4 0.832985 0.829821 0.121364
Si Si5 0.336273 0.673493 0.246780
Si Si6 0.832346 0.667201 0.979541
Si Si7 0.832380 0.664334 0.823702
O O1 0.162667 0.500000 0.672875
O O2 0.257683 0.735602 0.604597
O O3 0.216692 0.739409 0.747363
O O4 0.000000 0.732069 0.653573
O O5 0.500000 0.169235 0.393183
O O6 0.726038 0.244326 0.463500
O O7 0.721182 0.254246 0.320824
O O8 0.726528 0.000000 0.387478
O O9 0.500000 0.295520 0.544639
O O10 0.694735 0.500000 0.522233
O O11 0.755753 0.735738 0.181914
O O12 0.000000 0.806734 0.129635
O O13 0.790245 0.000000 0.128962
O O14 0.776747 0.771866 0.043613
O O15 0.500000 0.713539 0.233478
O O16 0.313303 0.500000 0.252826
O O17 0.773955 0.500000 0.989889
O O18 0.785099 0.737246 0.900813
O O19 0.000000 0.661437 0.981828
O O20 0.770078 0.500000 0.827183
O O21 0.000000 0.657762 0.819108
#
# Coordination Sequence:
#
# PCOD8166625 Si02
#       7
#     4   4   4   4   4   4   4
#     4   8  13  22  38  61  87 113 143 180 221 263
#     4   9  17  30  48  67  87 115 150 183 217 264
#     4   9  16  26  42  64  87 110 141 182 222 259
#     4  10  20  32  47  70  99 127 154 186 227 275
#     4  10  20  34  53  74  93 116 151 193 233 274
#     4   8  13  23  41  63  86 115 152 190 224 260
#     4   7  10  18  35  59  83 109 145 185 220 256
#
# _framework density 17.685299000000001
#
# number of rings (size 3 to 8) (size 9 to 14) (size 15 to 20)
#    0.000    3.286    0.000    3.000    0.000    3.429 
#    0.000    0.714    0.000    4.714    0.000    6.000 
#    0.000    0.000    0.000    0.000    0.000    0.000 
#
# Total GULP energy -346879.825271 kJ/mol
# GULP energy per Si atom -12388.565188 kJ/mol
# Density = 1.764505 g / cm^3
# Si number density = 17.685299 Si / 1000 Ang^3
#
#
#
# Elastic Constant Matrix: (Units=GPa)
#
#
# Indices 1 2 3 4 5 6 
#
# 1 27.6150 21.2240 41.2905 0.0000 0.0000 0.0000
# 2 21.2240 66.1653 56.1248 0.0000 0.0000 0.0000
# 3 41.2905 56.1248 199.8628 0.0000 0.0000 0.0000
# 4 0.0000 0.0000 0.0000 5.0972 0.0000 0.0000
# 5 0.0000 0.0000 0.0000 0.0000 -13.7872 0.0000
# 6 0.0000 0.0000 0.0000 0.0000 0.0000 13.9096
#
#
#
# Elastic Compliance Matrix: (Units=1/GPa)
#
#
# Indices 1 2 3 4 5 6 
#
# 1 0.057987 -0.011078 -0.008869 0.000000 0.000000 0.000000
# 2 -0.011078 0.021956 -0.003877 0.000000 0.000000 0.000000
# 3 -0.008869 -0.003877 0.007924 0.000000 0.000000 0.000000
# 4 0.000000 0.000000 0.000000 0.196185 0.000000 0.000000
# 5 0.000000 0.000000 0.000000 0.000000 -0.072531 0.000000
# 6 0.000000 0.000000 0.000000 0.000000 0.000000 0.071893
#
#
# Mechanical properties :
#
#
# Convention : Reuss Voigt Hill
#
# Bulk Modulus (GPa) = 24.86310 58.99129 41.92720
# Shear Modulus (GPa) = 14.51513 12.71083 13.61298
#
# Velocity S-wave (km/s) = 2.86797 2.68381 2.77742
# Velocity P-wave (km/s) = 5.00561 6.55990 5.83474
#
# Compressibility (1/GPa) = 0.04022024
#
# Stress axis : x y z
#
# Youngs Moduli (GPa) = 17.24515 45.54632 126.19180
#
# Poissons Ratio (x) = 0.50454 1.11920
# Poissons Ratio (y) = 0.19103 0.48924
# Poissons Ratio (z) = 0.15295 0.17658
#
# Static dielectric constant tensor:
#      x y z
#    x 2.867690 0.000000 0.000000 
#    y 0.000000 3.099740 0.000000 
#    z 0.000000 0.000000 3.901790 
# 
# 
# High freq. dielectric constant tensor:
#      x y z
#    x 1.627730 0.000000 0.000000 
#    y 0.000000 1.652650 0.000000 
#    z 0.000000 0.000000 1.713710 
# 
# From -- ./inp_files/6239.got.cif
#   From: 2010.03.12/outbox.cif.g09.slc.cpg/sg25_4_cif.got.tgz:6239.got - 2010.04.14 03:30:10.
