data_PCOD8166737
_publ_section_title
;
Structure prediction by ZEFSAII (Michael W. Deem and Ramdas Pophale) SiO2 
 PCOD8166737
Probable space group: P M M 2
;
_chemical_formula_sum "Si O2"
_cell_formula_units_Z 32
_cell_length_a 9.207207
_cell_length_b 14.389790
_cell_length_c 12.468650
_cell_angle_alpha 90.000000
_cell_angle_beta 90.000000
_cell_angle_gamma 90.000000
_cell_volume 1651.968636
_symmetry_space_group_name_H-M "P M M 2"
_symmetry_group_IT_number 25
_symmetry_cell_setting 'orthorhombic'
loop_
_space_group_symop_operation_xyz
x,y,z
-x,-y,z
-x,y,z
x,-y,z
loop_
_atom_site_type_symbol
_atom_site_label
_atom_site_fract_x
_atom_site_fract_y
_atom_site_fract_z
Si Si1 0.162327 0.137269 0.540680
Si Si2 0.338568 0.398191 0.416866
Si Si3 0.159208 0.344447 0.603286
Si Si4 0.168409 0.896049 0.301362
Si Si5 0.173679 0.720779 0.832010
Si Si6 0.331644 0.895988 0.752986
Si Si7 0.670046 0.609124 0.016777
Si Si8 0.671747 0.724434 0.226231
O O1 0.154535 0.247371 0.542060
O O2 0.223712 0.107237 0.424656
O O3 0.269026 0.100659 0.632524
O O4 0.000000 0.095962 0.559403
O O5 0.500000 0.362838 0.442009
O O6 0.340512 0.500000 0.362903
O O7 0.259368 0.408911 0.530864
O O8 0.266671 0.328275 0.331514
O O9 0.220076 0.332152 0.723141
O O10 0.000000 0.389878 0.608829
O O11 0.255114 0.825913 0.223604
O O12 0.000000 0.867985 0.297672
O O13 0.194101 0.000000 0.256612
O O14 0.244859 0.823773 0.829224
O O15 0.000000 0.732686 0.840181
O O16 0.234242 0.657278 0.925895
O O17 0.500000 0.865761 0.748261
O O18 0.315999 0.000000 0.801892
O O19 0.500000 0.622002 0.991068
O O20 0.709519 0.500000 0.025958
O O21 0.715321 0.662077 0.124866
O O22 0.500000 0.736981 0.230883
#
# Coordination Sequence:
#
# PCOD8166737 Si02
#       8
#     4   4   4   4   4   4   4   4
#     4   9  17  31  51  76 112 156 195 231 276 332
#     4  10  20  33  52  80 112 146 182 222 275 337
#     4   9  18  33  52  77 111 148 182 222 274 329
#     4  10  20  34  54  81 115 154 193 232 278 336
#     4  10  22  39  59  84 115 150 191 240 290 342
#     4  10  20  33  53  84 119 154 194 237 282 338
#     4  10  22  42  66  87 109 144 191 242 296 349
#     4  10  21  38  59  83 113 146 186 238 287 336
#
# _framework density 19.370826999999998
#
# number of rings (size 3 to 8) (size 9 to 14) (size 15 to 20)
#    0.000    2.250    1.250    2.250    0.000    7.750 
#    0.000    3.125    0.000    3.000    0.000    0.000 
#    0.000    0.000    0.000    0.000    0.000    0.000 
#
# Total GULP energy -396670.856174 kJ/mol
# GULP energy per Si atom -12395.964255 kJ/mol
# Density = 1.932674 g / cm^3
# Si number density = 19.370827 Si / 1000 Ang^3
#
#
#
# Elastic Constant Matrix: (Units=GPa)
#
#
# Indices 1 2 3 4 5 6 
#
# 1 77.3589 49.8017 52.5904 0.0000 0.0000 0.0000
# 2 49.8017 124.0407 61.6406 0.0000 0.0000 0.0000
# 3 52.5904 61.6406 107.4501 0.0000 0.0000 0.0000
# 4 0.0000 0.0000 0.0000 21.4452 0.0000 0.0000
# 5 0.0000 0.0000 0.0000 0.0000 27.8896 0.0000
# 6 0.0000 0.0000 0.0000 0.0000 0.0000 -6.7984
#
#
#
# Elastic Compliance Matrix: (Units=1/GPa)
#
#
# Indices 1 2 3 4 5 6 
#
# 1 0.021154 -0.004683 -0.007667 0.000000 0.000000 0.000000
# 2 -0.004683 0.012313 -0.004772 0.000000 0.000000 0.000000
# 3 -0.007667 -0.004772 0.015797 0.000000 0.000000 0.000000
# 4 0.000000 0.000000 0.000000 0.046631 0.000000 0.000000
# 5 0.000000 0.000000 0.000000 0.000000 0.035856 0.000000
# 6 0.000000 0.000000 0.000000 0.000000 0.000000 -0.147093
#
#
# Mechanical properties :
#
#
# Convention : Reuss Voigt Hill
#
# Bulk Modulus (GPa) = 66.57717 70.76835 68.67276
# Shear Modulus (GPa) = 209.14053 18.16173 113.65113
#
# Velocity S-wave (km/s) = 10.40198 3.06532 7.66803
# Velocity P-wave (km/s) = 13.36834 7.01006 10.67365
#
# Compressibility (1/GPa) = 0.01502016
#
# Stress axis : x y z
#
# Youngs Moduli (GPa) = 47.27272 81.21276 63.30510
#
# Poissons Ratio (x) = 0.38033 0.48536
# Poissons Ratio (y) = 0.22139 0.30207
# Poissons Ratio (z) = 0.36244 0.38752
#
# Static dielectric constant tensor:
#      x y z
#    x 3.496480 0.000000 0.000000 
#    y 0.000000 3.580340 0.000000 
#    z 0.000000 0.000000 3.358020 
# 
# 
# High freq. dielectric constant tensor:
#      x y z
#    x 1.746510 0.000000 0.000000 
#    y 0.000000 1.763160 0.000000 
#    z 0.000000 0.000000 1.732920 
# 
# From -- ./inp_files/4256.got.cif
#   From: 2010.03.12/outbox.cif.g09.slc.cpg/sg25_3_cif.got.tgz:4256.got - 2010.04.14 03:30:10.
