data_PCOD8166771
_publ_section_title
;
Structure prediction by ZEFSAII (Michael W. Deem and Ramdas Pophale) SiO2 
 PCOD8166771
Probable space group: P M M 2
;
_chemical_formula_sum "Si O2"
_cell_formula_units_Z 28
_cell_length_a 9.086059
_cell_length_b 9.217481
_cell_length_c 18.115804
_cell_angle_alpha 90.000000
_cell_angle_beta 90.000000
_cell_angle_gamma 90.000000
_cell_volume 1517.209023
_symmetry_space_group_name_H-M "P M M 2"
_symmetry_group_IT_number 25
_symmetry_cell_setting 'orthorhombic'
loop_
_space_group_symop_operation_xyz
x,y,z
-x,-y,z
-x,y,z
x,-y,z
loop_
_atom_site_type_symbol
_atom_site_label
_atom_site_fract_x
_atom_site_fract_y
_atom_site_fract_z
Si Si1 0.828702 0.168678 0.757640
Si Si2 0.834023 0.672564 0.033661
Si Si3 0.328124 0.331520 0.179420
Si Si4 0.330009 0.831844 0.608286
Si Si5 0.331294 0.328069 0.888886
Si Si6 0.675319 0.836182 0.323518
Si Si7 0.675268 0.336274 0.464498
O O1 0.765324 0.214865 0.678484
O O2 0.747384 0.261037 0.818826
O O3 0.000000 0.206395 0.759422
O O4 0.798207 0.000000 0.772737
O O5 0.831299 0.500000 0.033240
O O6 0.756739 0.729158 0.107990
O O7 0.000000 0.732705 0.030444
O O8 0.746128 0.731928 0.962861
O O9 0.500000 0.305806 0.165442
O O10 0.294295 0.500000 0.194064
O O11 0.268995 0.242897 0.249626
O O12 0.500000 0.796675 0.625581
O O13 0.270007 0.740145 0.539235
O O14 0.308752 0.000000 0.588423
O O15 0.500000 0.277866 0.890634
O O16 0.317028 0.500000 0.883458
O O17 0.500000 0.834912 0.325699
O O18 0.738872 0.750868 0.394295
O O19 0.736229 0.000000 0.324754
O O20 0.500000 0.334848 0.461772
O O21 0.736265 0.500000 0.462136
#
# Coordination Sequence:
#
# PCOD8166771 Si02
#       7
#     4   4   4   4   4   4   4
#     4  10  21  36  53  74 102 136 171 206 249 302
#     4   9  17  30  49  72  98 129 164 202 246 295
#     4   9  16  27  45  68  93 122 159 202 244 287
#     4   9  17  30  48  69  95 128 164 202 246 295
#     4  10  20  34  54  79 104 131 167 210 253 298
#     4   9  16  26  42  66  96 127 158 195 242 292
#     4   9  16  26  43  69  98 125 157 200 246 289
#
# _framework density 18.454937000000001
#
# number of rings (size 3 to 8) (size 9 to 14) (size 15 to 20)
#    0.000    2.714    0.000    2.143    0.000    7.429 
#    0.000    2.143    0.000    3.857    0.000    0.000 
#    0.000    0.000    0.000    0.000    0.000    0.000 
#
# Total GULP energy -347228.099952 kJ/mol
# GULP energy per Si atom -12401.003570 kJ/mol
# Density = 1.841293 g / cm^3
# Si number density = 18.454937 Si / 1000 Ang^3
#
#
#
# Elastic Constant Matrix: (Units=GPa)
#
#
# Indices 1 2 3 4 5 6 
#
# 1 82.8505 33.2156 68.4109 0.0000 0.0000 0.0000
# 2 33.2156 77.8030 71.0858 0.0000 0.0000 0.0000
# 3 68.4109 71.0858 185.5830 0.0000 0.0000 0.0000
# 4 0.0000 0.0000 0.0000 17.5213 0.0000 0.0000
# 5 0.0000 0.0000 0.0000 0.0000 1.3338 0.0000
# 6 0.0000 0.0000 0.0000 0.0000 0.0000 14.6738
#
#
#
# Elastic Compliance Matrix: (Units=1/GPa)
#
#
# Indices 1 2 3 4 5 6 
#
# 1 0.017649 -0.002447 -0.005569 0.000000 0.000000 0.000000
# 2 -0.002447 0.020112 -0.006802 0.000000 0.000000 0.000000
# 3 -0.005569 -0.006802 0.010047 0.000000 0.000000 0.000000
# 4 0.000000 0.000000 0.000000 0.057074 0.000000 0.000000
# 5 0.000000 0.000000 0.000000 0.000000 0.749745 0.000000
# 6 0.000000 0.000000 0.000000 0.000000 0.000000 0.068149
#
#
# Mechanical properties :
#
#
# Convention : Reuss Voigt Hill
#
# Bulk Modulus (GPa) = 55.02631 76.85125 65.93878
# Shear Modulus (GPa) = 5.21667 18.27405 11.74536
#
# Velocity S-wave (km/s) = 1.68310 3.15016 2.52550
# Velocity P-wave (km/s) = 5.80159 7.41380 6.65668
#
# Compressibility (1/GPa) = 0.01817312
#
# Stress axis : x y z
#
# Youngs Moduli (GPa) = 56.66037 49.72121 99.53664
#
# Poissons Ratio (x) = 0.12166 0.55429
# Poissons Ratio (y) = 0.13864 0.67703
# Poissons Ratio (z) = 0.31552 0.33819
#
# Static dielectric constant tensor:
#      x y z
#    x 3.180840 0.000000 0.000000 
#    y 0.000000 3.291640 0.000000 
#    z 0.000000 0.000000 3.595320 
# 
# 
# High freq. dielectric constant tensor:
#      x y z
#    x 1.685450 0.000000 0.000000 
#    y 0.000000 1.698310 0.000000 
#    z 0.000000 0.000000 1.733690 
# 
# From -- ./inp_files/6081.got.cif
#   From: 2010.03.12/outbox.cif.g09.slc.cpg/sg25_4_cif.got.tgz:6081.got - 2010.04.14 03:30:10.
