data_PCOD8166273
_publ_section_title
;
Structure prediction by ZEFSAII (Michael W. Deem and Ramdas Pophale) SiO2 
 PCOD8166273
Probable space group: I 21 21 21
;
_chemical_formula_sum "Si O2"
_cell_formula_units_Z 20
_cell_length_a 4.868177
_cell_length_b 30.917801
_cell_length_c 5.579100
_cell_angle_alpha 90.000000
_cell_angle_beta 90.000000
_cell_angle_gamma 90.000000
_cell_volume 839.728907
_symmetry_space_group_name_H-M "I 21 21 21"
_symmetry_group_IT_number 24
_symmetry_cell_setting 'orthorhombic'
loop_
_space_group_symop_operation_xyz
x,y,z
-x,1/2-y,z
x,-y,1/2-z
1/2-x,y,-z
1/2+x,1/2+y,1/2+z
1/2-x,-y,1/2+z
1/2+x,1/2-y,-z
-x,1/2+y,1/2-z
loop_
_atom_site_type_symbol
_atom_site_label
_atom_site_fract_x
_atom_site_fract_y
_atom_site_fract_z
Si Si1 0.498766 0.152385 0.150234
Si Si2 0.250000 0.475529 0.500000
Si Si3 0.750000 0.778566 0.000000
Si Si4 0.250000 0.083063 0.500000
O O1 0.623609 0.191600 0.297101
O O2 0.366848 0.113038 0.292235
O O3 0.750000 0.132122 0.000000
O O4 0.250000 0.173155 0.000000
O O5 0.332935 0.500000 0.250000
O O6 0.504005 0.446813 0.591981
O O7 0.500000 0.750000 0.894042
#
# Coordination Sequence:
#
# PCOD8166273 Si02
#       4
#     8   4   4   4
#     4  12  26  47  77 109 142 203 256 304 386 452
#     4  12  29  50  78 119 158 204 256 321 402 460
#     4  12  26  48  70 108 156 188 252 320 374 456
#     4  12  27  50  76 107 154 194 254 319 364 482
#
# _framework density 23.817211
#
# number of rings (size 3 to 8) (size 9 to 14) (size 15 to 20)
#    0.000    0.000    0.000   10.800    8.400    3.200 
#    0.000    4.000    0.000    0.000    0.000    0.000 
#    0.000    0.000    0.000    0.000    0.000    0.000 
#
# Total GULP energy -123965.655589 kJ/mol
# GULP energy per Si atom -12396.565559 kJ/mol
# Density = 2.376300 g / cm^3
# Si number density = 23.817211 Si / 1000 Ang^3
#
#
#
# Elastic Constant Matrix: (Units=GPa)
#
#
# Indices 1 2 3 4 5 6 
#
# 1 236.7192 92.4158 82.1915 -0.0007 0.0000 -0.0014
# 2 92.4158 144.1426 70.7958 0.0009 -0.0002 -0.0201
# 3 82.1915 70.7958 152.0176 -0.0012 -0.0002 -0.0284
# 4 -0.0007 0.0009 -0.0012 11.4879 -0.0002 -0.0211
# 5 0.0000 -0.0002 -0.0002 -0.0002 62.3698 0.0007
# 6 -0.0014 -0.0201 -0.0284 -0.0211 0.0007 60.6230
#
#
#
# Elastic Compliance Matrix: (Units=1/GPa)
#
#
# Indices 1 2 3 4 5 6 
#
# 1 0.006027 -0.002935 -0.001892 0.000000 0.000000 -0.000002
# 2 -0.002935 0.010424 -0.003268 -0.000001 0.000000 0.000002
# 3 -0.001892 -0.003268 0.009123 0.000001 0.000000 0.000003
# 4 0.000000 -0.000001 0.000001 0.087048 0.000000 0.000030
# 5 0.000000 0.000000 0.000000 0.000000 0.016033 0.000000
# 6 -0.000002 0.000002 0.000003 0.000030 0.000000 0.016495
#
#
# Mechanical properties :
#
#
# Convention : Reuss Voigt Hill
#
# Bulk Modulus (GPa) = 106.55304 113.74286 110.14795
# Shear Modulus (GPa) = 30.40091 46.06124 38.23107
#
# Velocity S-wave (km/s) = 3.57659 4.40244 4.01082
# Velocity P-wave (km/s) = 7.86708 8.58500 8.23387
#
# Compressibility (1/GPa) = 0.00938500
#
# Stress axis : x y z
#
# Youngs Moduli (GPa) = 165.91640 95.92918 109.61461
#
# Poissons Ratio (x) = 0.28156 0.20737
# Poissons Ratio (y) = 0.48698 0.35820
# Poissons Ratio (z) = 0.31388 0.31348
#
# Static dielectric constant tensor:
#      x y z
#    x 4.607090 0.000010 -0.000150 
#    y 0.000010 4.369330 -0.000370 
#    z -0.000150 -0.000370 6.673330 
# 
# 
# High freq. dielectric constant tensor:
#      x y z
#    x 1.984440 0.000000 0.000000 
#    y 0.000000 1.949230 0.000000 
#    z 0.000000 0.000000 1.941400 
# 
# From -- ./inp_files/297.got.cif
#   From: 2010.03.12/outbox.cif.g09.slc.cpg/sg24_1_cif.got.tgz:297.got - 2010.04.14 03:06:53.
