data_PCOD8166910
_publ_section_title
;
Structure prediction by ZEFSAII (Michael W. Deem and Ramdas Pophale) SiO2 
 PCOD8166910
Probable space group: P M M 2
;
_chemical_formula_sum "Si O2"
_cell_formula_units_Z 28
_cell_length_a 9.362916
_cell_length_b 8.975822
_cell_length_c 17.692381
_cell_angle_alpha 90.000000
_cell_angle_beta 90.000000
_cell_angle_gamma 90.000000
_cell_volume 1486.865354
_symmetry_space_group_name_H-M "P M M 2"
_symmetry_group_IT_number 25
_symmetry_cell_setting 'orthorhombic'
loop_
_space_group_symop_operation_xyz
x,y,z
-x,-y,z
-x,y,z
x,-y,z
loop_
_atom_site_type_symbol
_atom_site_label
_atom_site_fract_x
_atom_site_fract_y
_atom_site_fract_z
Si Si1 0.665937 0.168433 0.784000
Si Si2 0.664677 0.325885 0.373576
Si Si3 0.831695 0.171224 0.506314
Si Si4 0.834724 0.328391 0.658089
Si Si5 0.335951 0.175117 0.218823
Si Si6 0.664442 0.827803 0.958062
Si Si7 0.167013 0.326768 0.085652
O O1 0.500000 0.185640 0.765639
O O2 0.751487 0.283490 0.733128
O O3 0.696448 0.207813 0.870910
O O4 0.716376 0.000000 0.766722
O O5 0.500000 0.288277 0.390070
O O6 0.691795 0.500000 0.364751
O O7 0.757252 0.265354 0.441797
O O8 0.716127 0.248407 0.296661
O O9 0.779695 0.232067 0.587263
O O10 0.000000 0.193045 0.497293
O O11 0.785478 0.000000 0.499609
O O12 0.804785 0.500000 0.639435
O O13 0.000000 0.297182 0.673695
O O14 0.500000 0.218114 0.201381
O O15 0.237741 0.233676 0.152236
O O16 0.315964 0.000000 0.226409
O O17 0.500000 0.792686 0.977755
O O18 0.697394 0.000000 0.976545
O O19 0.766281 0.722183 0.006186
O O20 0.197849 0.500000 0.098989
O O21 0.000000 0.291225 0.083981
#
# Coordination Sequence:
#
# PCOD8166910 Si02
#       7
#     4   4   4   4   4   4   4
#     4   9  19  36  57  81 108 139 178 223 269 319
#     4  10  21  37  58  84 112 142 177 218 267 321
#     4  10  21  37  57  80 107 143 185 224 266 318
#     4  10  21  36  54  78 109 144 181 222 269 320
#     4  10  21  38  60  83 107 139 180 223 267 317
#     4   9  19  37  59  81 106 139 180 223 268 320
#     4  11  24  38  53  79 113 145 179 220 266 317
#
# _framework density 18.831562000000002
#
# number of rings (size 3 to 8) (size 9 to 14) (size 15 to 20)
#    0.000    2.143    0.000    3.429    0.000    9.143 
#    0.000    4.286    0.000    0.000    0.000    0.000 
#    0.000    0.000    0.000    0.000    0.000    0.000 
#
# Total GULP energy -347328.740116 kJ/mol
# GULP energy per Si atom -12404.597861 kJ/mol
# Density = 1.878870 g / cm^3
# Si number density = 18.831562 Si / 1000 Ang^3
#
#
#
# Elastic Constant Matrix: (Units=GPa)
#
#
# Indices 1 2 3 4 5 6 
#
# 1 64.4888 42.6652 54.0444 0.0000 0.0000 0.0000
# 2 42.6652 81.0808 48.7280 0.0000 0.0000 0.0000
# 3 54.0444 48.7280 116.7458 0.0000 0.0000 0.0000
# 4 0.0000 0.0000 0.0000 22.1150 0.0000 0.0000
# 5 0.0000 0.0000 0.0000 0.0000 53.7169 0.0000
# 6 0.0000 0.0000 0.0000 0.0000 0.0000 33.7420
#
#
#
# Elastic Compliance Matrix: (Units=1/GPa)
#
#
# Indices 1 2 3 4 5 6 
#
# 1 0.030475 -0.010088 -0.009897 0.000000 0.000000 0.000000
# 2 -0.010088 0.019803 -0.003595 0.000000 0.000000 0.000000
# 3 -0.009897 -0.003595 0.014648 0.000000 0.000000 0.000000
# 4 0.000000 0.000000 0.000000 0.045218 0.000000 0.000000
# 5 0.000000 0.000000 0.000000 0.000000 0.018616 0.000000
# 6 0.000000 0.000000 0.000000 0.000000 0.000000 0.029637
#
#
# Mechanical properties :
#
#
# Convention : Reuss Voigt Hill
#
# Bulk Modulus (GPa) = 56.29207 61.46562 58.87884
# Shear Modulus (GPa) = 23.64313 29.70664 26.67488
#
# Velocity S-wave (km/s) = 3.54716 3.97607 3.76772
# Velocity P-wave (km/s) = 6.83621 7.33413 7.08954
#
# Compressibility (1/GPa) = 0.01776449
#
# Stress axis : x y z
#
# Youngs Moduli (GPa) = 32.81399 50.49866 68.27016
#
# Poissons Ratio (x) = 0.50944 0.67566
# Poissons Ratio (y) = 0.33103 0.24545
# Poissons Ratio (z) = 0.32475 0.18155
#
# Static dielectric constant tensor:
#      x y z
#    x 3.370830 0.000000 0.000000 
#    y 0.000000 3.658050 0.000000 
#    z 0.000000 0.000000 3.527840 
# 
# 
# High freq. dielectric constant tensor:
#      x y z
#    x 1.724390 0.000000 0.000000 
#    y 0.000000 1.741420 0.000000 
#    z 0.000000 0.000000 1.743230 
# 
# From -- ./inp_files/6033.got.cif
#   From: 2010.03.12/outbox.cif.g09.slc.cpg/sg25_4_cif.got.tgz:6033.got - 2010.04.14 03:30:10.
