data_PCOD8166903
_publ_section_title
;
Structure prediction by ZEFSAII (Michael W. Deem and Ramdas Pophale) SiO2 
 PCOD8166903
Probable space group: P M M 2
;
_chemical_formula_sum "Si O2"
_cell_formula_units_Z 32
_cell_length_a 9.443256
_cell_length_b 9.225801
_cell_length_c 20.636925
_cell_angle_alpha 90.000000
_cell_angle_beta 90.000000
_cell_angle_gamma 90.000000
_cell_volume 1797.921938
_symmetry_space_group_name_H-M "P M M 2"
_symmetry_group_IT_number 25
_symmetry_cell_setting 'orthorhombic'
loop_
_space_group_symop_operation_xyz
x,y,z
-x,-y,z
-x,y,z
x,-y,z
loop_
_atom_site_type_symbol
_atom_site_label
_atom_site_fract_x
_atom_site_fract_y
_atom_site_fract_z
Si Si1 0.659507 0.327483 0.451670
Si Si2 0.335485 0.167250 0.959221
Si Si3 0.831396 0.660969 0.712108
Si Si4 0.841450 0.673090 0.570453
Si Si5 0.162990 0.830532 0.835545
Si Si6 0.163728 0.332593 0.328447
Si Si7 0.334047 0.668034 0.088170
Si Si8 0.834876 0.831822 0.198395
O O1 0.500000 0.266265 0.449420
O O2 0.659844 0.500000 0.454420
O O3 0.737147 0.264534 0.515453
O O4 0.742929 0.275129 0.388100
O O5 0.500000 0.187460 0.943625
O O6 0.249524 0.225794 0.897446
O O7 0.298597 0.000000 0.974453
O O8 0.287746 0.262896 0.020057
O O9 0.769606 0.500000 0.722562
O O10 0.784901 0.723058 0.641524
O O11 0.773365 0.759567 0.770401
O O12 0.000000 0.656875 0.712812
O O13 0.845470 0.500000 0.569168
O O14 0.000000 0.732811 0.557257
O O15 0.000000 0.786842 0.846217
O O16 0.182905 0.000000 0.826786
O O17 0.196847 0.500000 0.311902
O O18 0.206260 0.235916 0.267305
O O19 0.000000 0.312634 0.347556
O O20 0.500000 0.690225 0.100198
O O21 0.291345 0.500000 0.088011
O O22 0.252154 0.749507 0.144231
O O23 0.000000 0.809391 0.183783
O O24 0.792586 0.000000 0.198644
#
# Coordination Sequence:
#
# PCOD8166903 Si02
#       8
#     4   4   4   4   4   4   4   4
#     4   9  16  25  40  65  94 120 150 192 236 275
#     4   9  18  33  50  67  92 127 161 191 230 283
#     4   8  14  25  42  64  89 117 150 188 230 277
#     4   8  13  23  40  60  83 115 153 188 226 277
#     4   9  17  29  46  68  92 118 152 194 234 273
#     4   9  17  30  48  69  94 124 156 191 234 283
#     4  10  21  36  54  76 101 129 162 200 241 287
#     4  10  21  36  54  76 101 129 162 200 241 287
#
# _framework density 17.798324000000001
#
# number of rings (size 3 to 8) (size 9 to 14) (size 15 to 20)
#    0.000    3.000    0.000    1.875    0.000    4.500 
#    0.000    3.125    0.000    1.500    0.000    3.500 
#    0.000    0.000    0.000    0.000    0.000    0.000 
#
# Total GULP energy -396741.304219 kJ/mol
# GULP energy per Si atom -12398.165757 kJ/mol
# Density = 1.775781 g / cm^3
# Si number density = 17.798324 Si / 1000 Ang^3
#
#
#
# Elastic Constant Matrix: (Units=GPa)
#
#
# Indices 1 2 3 4 5 6 
#
# 1 74.5679 36.0483 82.9088 0.0000 0.0000 0.0000
# 2 36.0483 67.9577 71.6643 0.0000 0.0000 0.0000
# 3 82.9088 71.6643 196.3087 0.0000 0.0000 0.0000
# 4 0.0000 0.0000 0.0000 -9.3788 0.0000 0.0000
# 5 0.0000 0.0000 0.0000 0.0000 9.2325 0.0000
# 6 0.0000 0.0000 0.0000 0.0000 0.0000 16.5973
#
#
#
# Elastic Compliance Matrix: (Units=1/GPa)
#
#
# Indices 1 2 3 4 5 6 
#
# 1 0.025805 -0.003570 -0.009595 0.000000 0.000000 0.000000
# 2 -0.003570 0.024420 -0.007407 0.000000 0.000000 0.000000
# 3 -0.009595 -0.007407 0.011850 0.000000 0.000000 0.000000
# 4 0.000000 0.000000 0.000000 -0.106624 0.000000 0.000000
# 5 0.000000 0.000000 0.000000 0.000000 0.108313 0.000000
# 6 0.000000 0.000000 0.000000 0.000000 0.000000 0.060251
#
#
# Mechanical properties :
#
#
# Convention : Reuss Voigt Hill
#
# Bulk Modulus (GPa) = 47.77588 80.00857 63.89223
# Shear Modulus (GPa) = 29.04693 13.17107 21.10900
#
# Velocity S-wave (km/s) = 4.04419 2.72328 3.44759
# Velocity P-wave (km/s) = 6.97915 7.41207 7.19886
#
# Compressibility (1/GPa) = 0.02093106
#
# Stress axis : x y z
#
# Youngs Moduli (GPa) = 38.75253 40.95086 84.38505
#
# Poissons Ratio (x) = 0.14618 0.80969
# Poissons Ratio (y) = 0.13833 0.62504
# Poissons Ratio (z) = 0.37184 0.30332
#
# Static dielectric constant tensor:
#      x y z
#    x 3.234760 0.000000 0.000000 
#    y 0.000000 3.103040 0.000000 
#    z 0.000000 0.000000 3.602130 
# 
# 
# High freq. dielectric constant tensor:
#      x y z
#    x 1.670670 0.000000 0.000000 
#    y 0.000000 1.658340 0.000000 
#    z 0.000000 0.000000 1.704640 
# 
# From -- ./inp_files/6500.got.cif
#   From: 2010.03.12/outbox.cif.g09.slc.cpg/sg25_4_cif.got.tgz:6500.got - 2010.04.14 03:30:10.
