data_PCOD8166155
_publ_section_title
;
Structure prediction by ZEFSAII (Michael W. Deem and Ramdas Pophale) SiO2 
 PCOD8166155
Probable space group: I 21 21 21
;
_chemical_formula_sum "Si O2"
_cell_formula_units_Z 36
_cell_length_a 11.394425
_cell_length_b 5.070768
_cell_length_c 24.720162
_cell_angle_alpha 90.000000
_cell_angle_beta 90.000000
_cell_angle_gamma 90.000000
_cell_volume 1428.293526
_symmetry_space_group_name_H-M "I 21 21 21"
_symmetry_group_IT_number 24
_symmetry_cell_setting 'orthorhombic'
loop_
_space_group_symop_operation_xyz
x,y,z
-x,1/2-y,z
x,-y,1/2-z
1/2-x,y,-z
1/2+x,1/2+y,1/2+z
1/2-x,-y,1/2+z
1/2+x,1/2-y,-z
-x,1/2+y,1/2-z
loop_
_atom_site_type_symbol
_atom_site_label
_atom_site_fract_x
_atom_site_fract_y
_atom_site_fract_z
Si Si1 0.000000 0.250000 0.719236
Si Si2 0.124952 0.382098 0.022875
Si Si3 0.420663 0.500000 0.750000
Si Si4 0.650162 0.495958 0.369781
Si Si5 0.500000 0.750000 0.045415
Si Si6 0.792737 0.999808 0.363657
O O1 0.058311 0.500000 0.750000
O O2 0.895913 0.387084 0.686862
O O3 0.122540 0.405622 0.087797
O O4 0.000000 0.250000 0.006427
O O5 0.250000 0.257365 0.000000
O O6 0.110562 0.659303 0.991400
O O7 0.500000 0.750000 0.759553
O O8 0.346885 0.466297 0.804582
O O9 0.552492 0.478902 0.416262
O O10 0.680943 0.803739 0.365008
O O11 0.760379 0.299948 0.379946
#
# Coordination Sequence:
#
# PCOD8166155 Si02
#       6
#     4   8   4   8   4   8
#     4  11  24  42  74 110 156 208 267 326 400 480
#     4  12  27  48  81 116 159 214 269 333 404 482
#     4  12  28  50  74 110 154 206 268 332 390 476
#     4  11  26  47  73 116 158 201 262 335 403 475
#     4  11  26  46  78 112 164 198 271 332 404 478
#     4  12  27  48  79 111 157 210 263 330 402 480
#
# _framework density 25.204903000000002
#
# number of rings (size 3 to 8) (size 9 to 14) (size 15 to 20)
#    0.000    0.444    2.222    4.667    9.333    2.667 
#    0.000    0.000    0.000    0.000    0.000    0.000 
#    0.000    0.000    0.000    0.000    0.000    0.000 
#
# Total GULP energy -223027.299193 kJ/mol
# GULP energy per Si atom -12390.405511 kJ/mol
# Density = 2.514754 g / cm^3
# Si number density = 25.204903 Si / 1000 Ang^3
#
#
#
# Elastic Constant Matrix: (Units=GPa)
#
#
# Indices 1 2 3 4 5 6 
#
# 1 127.7646 20.7741 55.6376 0.0000 0.0000 0.0000
# 2 20.7741 87.2075 21.1246 0.0000 0.0000 0.0000
# 3 55.6376 21.1246 199.6304 0.0000 0.0000 0.0000
# 4 0.0000 0.0000 0.0000 21.8563 0.0000 0.0000
# 5 0.0000 0.0000 0.0000 0.0000 6.0968 0.0000
# 6 0.0000 0.0000 0.0000 0.0000 0.0000 42.2849
#
#
#
# Elastic Compliance Matrix: (Units=1/GPa)
#
#
# Indices 1 2 3 4 5 6 
#
# 1 0.009120 -0.001598 -0.002373 0.000000 0.000000 0.000000
# 2 -0.001598 0.012048 -0.000830 0.000000 0.000000 0.000000
# 3 -0.002373 -0.000830 0.005758 0.000000 0.000000 0.000000
# 4 0.000000 0.000000 0.000000 0.045753 0.000000 0.000000
# 5 0.000000 0.000000 0.000000 0.000000 0.164020 0.000000
# 6 0.000000 0.000000 0.000000 0.000000 0.000000 0.023649
#
#
# Mechanical properties :
#
#
# Convention : Reuss Voigt Hill
#
# Bulk Modulus (GPa) = 57.71489 67.74167 62.72828
# Shear Modulus (GPa) = 18.13402 35.18536 26.65969
#
# Velocity S-wave (km/s) = 2.68519 3.74033 3.25579
# Velocity P-wave (km/s) = 5.70628 6.75190 6.25099
#
# Compressibility (1/GPa) = 0.01732655
#
# Stress axis : x y z
#
# Youngs Moduli (GPa) = 109.65023 82.99806 173.66173
#
# Poissons Ratio (x) = 0.13261 0.41204
# Poissons Ratio (y) = 0.17519 0.14408
# Poissons Ratio (z) = 0.26016 0.06886
#
# Static dielectric constant tensor:
#      x y z
#    x 4.667200 0.000000 0.000000 
#    y 0.000000 8.123170 0.000000 
#    z 0.000000 0.000000 4.815390 
# 
# 
# High freq. dielectric constant tensor:
#      x y z
#    x 1.995680 0.000000 0.000000 
#    y 0.000000 2.005480 0.000000 
#    z 0.000000 0.000000 2.033130 
# 
# From -- ./inp_files/22468.got.cif
#   From: 2010.03.12/outbox.cif.g09.slc.cpg/sg24_12_cif.got.tgz:22468.got - 2010.04.14 03:06:53.
