data_PCOD8166399
_publ_section_title
;
Structure prediction by ZEFSAII (Michael W. Deem and Ramdas Pophale) SiO2 
 PCOD8166399
Probable space group: P M M 2
;
_chemical_formula_sum "Si O2"
_cell_formula_units_Z 32
_cell_length_a 9.226920
_cell_length_b 19.407013
_cell_length_c 10.197414
_cell_angle_alpha 90.000000
_cell_angle_beta 90.000000
_cell_angle_gamma 90.000000
_cell_volume 1826.019888
_symmetry_space_group_name_H-M "P M M 2"
_symmetry_group_IT_number 25
_symmetry_cell_setting 'orthorhombic'
loop_
_space_group_symop_operation_xyz
x,y,z
-x,-y,z
-x,y,z
x,-y,z
loop_
_atom_site_type_symbol
_atom_site_label
_atom_site_fract_x
_atom_site_fract_y
_atom_site_fract_z
Si Si1 0.328092 0.075404 0.285660
Si Si2 0.172585 0.282872 0.945987
Si Si3 0.328661 0.924417 0.578517
Si Si4 0.670935 0.787584 0.708474
Si Si5 0.333352 0.702052 0.452096
Si Si6 0.168452 0.422484 0.537140
Si Si7 0.669282 0.218592 0.187312
Si Si8 0.171790 0.424997 0.832294
O O1 0.500000 0.078022 0.296562
O O2 0.263555 0.085509 0.432173
O O3 0.279209 0.138268 0.191595
O O4 0.278858 0.000000 0.229990
O O5 0.238361 0.235560 0.833134
O O6 0.223453 0.362378 0.924609
O O7 0.000000 0.276033 0.944162
O O8 0.233768 0.259130 0.084414
O O9 0.500000 0.917544 0.566279
O O10 0.274860 0.865321 0.677266
O O11 0.284259 0.000000 0.633512
O O12 0.500000 0.784026 0.740191
O O13 0.712524 0.741393 0.583896
O O14 0.500000 0.682112 0.455350
O O15 0.246928 0.630559 0.440243
O O16 0.297751 0.750036 0.329259
O O17 0.198354 0.500000 0.486994
O O18 0.230580 0.413358 0.684788
O O19 0.000000 0.405153 0.533695
O O20 0.500000 0.225176 0.149602
O O21 0.227479 0.500000 0.885172
O O22 0.000000 0.426808 0.824504
#
# Coordination Sequence:
#
# PCOD8166399 Si02
#       8
#     4   4   4   4   4   4   4   4
#     4   8  13  25  49  77 100 126 166 212 253 295
#     4  11  22  35  52  75 102 137 175 210 251 300
#     4   8  13  24  47  78 104 126 163 213 255 295
#     4  10  18  31  52  78 104 130 163 207 259 307
#     4  10  19  31  51  78 106 132 161 203 263 313
#     4   9  17  31  52  76 101 132 171 213 252 293
#     4  10  20  35  52  75 107 138 167 208 257 304
#     4   8  15  30  51  72  94 123 164 212 252 287
#
# _framework density 17.524453999999999
#
# number of rings (size 3 to 8) (size 9 to 14) (size 15 to 20)
#    0.000    2.750    2.500    1.875    0.000    0.750 
#    0.000    1.250    0.000    8.250    0.000    1.750 
#    0.000    0.000    0.000    0.000    0.000    0.000 
#
# Total GULP energy -396571.367181 kJ/mol
# GULP energy per Si atom -12392.855224 kJ/mol
# Density = 1.748457 g / cm^3
# Si number density = 17.524454 Si / 1000 Ang^3
#
#
#
# Elastic Constant Matrix: (Units=GPa)
#
#
# Indices 1 2 3 4 5 6 
#
# 1 36.0705 35.8806 21.1495 0.0000 0.0000 0.0000
# 2 35.8806 151.6496 33.1117 0.0000 0.0000 0.0000
# 3 21.1495 33.1117 46.0785 0.0000 0.0000 0.0000
# 4 0.0000 0.0000 0.0000 27.1414 0.0000 0.0000
# 5 0.0000 0.0000 0.0000 0.0000 20.2707 0.0000
# 6 0.0000 0.0000 0.0000 0.0000 0.0000 15.2797
#
#
#
# Elastic Compliance Matrix: (Units=1/GPa)
#
#
# Indices 1 2 3 4 5 6 
#
# 1 0.043445 -0.007028 -0.014891 0.000000 0.000000 0.000000
# 2 -0.007028 0.008958 -0.003212 0.000000 0.000000 0.000000
# 3 -0.014891 -0.003212 0.030845 0.000000 0.000000 0.000000
# 4 0.000000 0.000000 0.000000 0.036844 0.000000 0.000000
# 5 0.000000 0.000000 0.000000 0.000000 0.049332 0.000000
# 6 0.000000 0.000000 0.000000 0.000000 0.000000 0.065446
#
#
# Mechanical properties :
#
#
# Convention : Reuss Voigt Hill
#
# Bulk Modulus (GPa) = 30.31429 46.00915 38.16172
# Shear Modulus (GPa) = 16.88464 22.11548 19.50006
#
# Velocity S-wave (km/s) = 3.10738 3.55629 3.33939
# Velocity P-wave (km/s) = 5.49639 6.57070 6.05741
#
# Compressibility (1/GPa) = 0.03298774
#
# Stress axis : x y z
#
# Youngs Moduli (GPa) = 23.01740 111.62943 32.42061
#
# Poissons Ratio (x) = 0.78453 0.48276
# Poissons Ratio (y) = 0.16177 0.10412
# Poissons Ratio (z) = 0.34274 0.35850
#
# Static dielectric constant tensor:
#      x y z
#    x 2.869890 0.000000 0.000000 
#    y 0.000000 3.791740 0.000000 
#    z 0.000000 0.000000 3.040380 
# 
# 
# High freq. dielectric constant tensor:
#      x y z
#    x 1.634110 0.000000 0.000000 
#    y 0.000000 1.699960 0.000000 
#    z 0.000000 0.000000 1.649480 
# 
# From -- ./inp_files/4452.got.cif
#   From: 2010.03.12/outbox.cif.g09.slc.cpg/sg25_3_cif.got.tgz:4452.got - 2010.04.14 03:30:10.
