data_PCOD8166015
_publ_section_title
;
Structure prediction by ZEFSAII (Michael W. Deem and Ramdas Pophale) SiO2 
 PCOD8166015
Probable space group: I 21 21 21
;
_chemical_formula_sum "Si O2"
_cell_formula_units_Z 44
_cell_length_a 12.232587
_cell_length_b 15.763903
_cell_length_c 10.944688
_cell_angle_alpha 90.000000
_cell_angle_beta 90.000000
_cell_angle_gamma 90.000000
_cell_volume 2110.500468
_symmetry_space_group_name_H-M "I 21 21 21"
_symmetry_group_IT_number 24
_symmetry_cell_setting 'orthorhombic'
loop_
_space_group_symop_operation_xyz
x,y,z
-x,1/2-y,z
x,-y,1/2-z
1/2-x,y,-z
1/2+x,1/2+y,1/2+z
1/2-x,-y,1/2+z
1/2+x,1/2-y,-z
-x,1/2+y,1/2-z
loop_
_atom_site_type_symbol
_atom_site_label
_atom_site_fract_x
_atom_site_fract_y
_atom_site_fract_z
Si Si1 0.128141 0.839522 0.139788
Si Si2 0.332626 0.239944 0.258769
Si Si3 0.000000 0.750000 0.939685
Si Si4 0.932117 0.570930 0.654752
Si Si5 0.864516 0.150344 0.971095
Si Si6 0.500000 0.750000 0.663342
Si Si7 0.250000 0.981377 0.000000
O O1 0.218636 0.768855 0.170149
O O2 0.045831 0.830147 0.255460
O O3 0.189761 0.927695 0.108858
O O4 0.058617 0.821660 0.018880
O O5 0.409394 0.293054 0.351701
O O6 0.389378 0.149641 0.233006
O O7 0.322132 0.287061 0.132934
O O8 0.967787 0.500000 0.750000
O O9 0.837145 0.541700 0.563689
O O10 0.038773 0.589575 0.572365
O O11 0.750000 0.100277 0.000000
O O12 0.904639 0.209823 0.081732
#
# Coordination Sequence:
#
# PCOD8166015 Si02
#       7
#     8   8   4   8   8   4   4
#     4  11  23  39  64 103 131 163 215 280 335 384
#     4  12  21  41  69  95 128 173 223 274 328 386
#     4  11  19  38  64  96 133 159 212 268 332 391
#     4  12  25  41  66  96 135 178 216 269 335 406
#     4  12  25  43  69  96 129 174 230 275 322 398
#     4  11  23  40  68 100 131 165 224 278 330 379
#     4  12  26  40  64 100 140 170 218 272 342 398
#
# _framework density 20.848136
#
# number of rings (size 3 to 8) (size 9 to 14) (size 15 to 20)
#    0.000    0.364    9.091    0.000    3.818    0.000 
#    0.000    1.818    4.000    0.000    0.000    0.000 
#    0.000    0.000    0.000    0.000    0.000    0.000 
#
# Total GULP energy -272585.777172 kJ/mol
# GULP energy per Si atom -12390.262599 kJ/mol
# Density = 2.080068 g / cm^3
# Si number density = 20.848136 Si / 1000 Ang^3
#
#
#
# Elastic Constant Matrix: (Units=GPa)
#
#
# Indices 1 2 3 4 5 6 
#
# 1 162.9487 43.5814 66.3468 0.0000 0.0000 0.0000
# 2 43.5814 66.5307 31.2092 0.0000 0.0000 0.0000
# 3 66.3468 31.2092 125.7154 0.0000 0.0000 0.0000
# 4 0.0000 0.0000 0.0000 22.1446 0.0000 0.0000
# 5 0.0000 0.0000 0.0000 0.0000 -15.8784 0.0000
# 6 0.0000 0.0000 0.0000 0.0000 0.0000 32.9684
#
#
#
# Elastic Compliance Matrix: (Units=1/GPa)
#
#
# Indices 1 2 3 4 5 6 
#
# 1 0.008663 -0.003995 -0.003580 0.000000 0.000000 0.000000
# 2 -0.003995 0.018854 -0.002572 0.000000 0.000000 0.000000
# 3 -0.003580 -0.002572 0.010482 0.000000 0.000000 0.000000
# 4 0.000000 0.000000 0.000000 0.045158 0.000000 0.000000
# 5 0.000000 0.000000 0.000000 0.000000 -0.062979 0.000000
# 6 0.000000 0.000000 0.000000 0.000000 0.000000 0.030332
#
#
# Mechanical properties :
#
#
# Convention : Reuss Voigt Hill
#
# Bulk Modulus (GPa) = 56.48198 70.82994 63.65596
# Shear Modulus (GPa) = 65.18191 22.11740 43.64966
#
# Velocity S-wave (km/s) = 5.59759 3.26065 4.58066
# Velocity P-wave (km/s) = 8.30230 6.94433 7.65350
#
# Compressibility (1/GPa) = 0.01770476
#
# Stress axis : x y z
#
# Youngs Moduli (GPa) = 115.43051 53.03786 95.39762
#
# Poissons Ratio (x) = 0.21191 0.34154
# Poissons Ratio (y) = 0.46120 0.24537
# Poissons Ratio (z) = 0.41326 0.13642
#
# Static dielectric constant tensor:
#      x y z
#    x 4.171320 0.000000 0.000000 
#    y 0.000000 3.369500 0.000000 
#    z 0.000000 0.000000 4.183390 
# 
# 
# High freq. dielectric constant tensor:
#      x y z
#    x 1.843660 0.000000 0.000000 
#    y 0.000000 1.762410 0.000000 
#    z 0.000000 0.000000 1.843750 
# 
# From -- ./inp_files/19657.got.cif
#   From: 2010.03.12/outbox.cif.g09.slc.cpg/sg24_10_cif.got.tgz:19657.got - 2010.04.14 03:06:53.
