data_PCOD8166746
_publ_section_title
;
Structure prediction by ZEFSAII (Michael W. Deem and Ramdas Pophale) SiO2 
 PCOD8166746
Probable space group: P M M 2
;
_chemical_formula_sum "Si O2"
_cell_formula_units_Z 32
_cell_length_a 8.861382
_cell_length_b 14.206928
_cell_length_c 15.755453
_cell_angle_alpha 90.000000
_cell_angle_beta 90.000000
_cell_angle_gamma 90.000000
_cell_volume 1983.501497
_symmetry_space_group_name_H-M "P M M 2"
_symmetry_group_IT_number 25
_symmetry_cell_setting 'orthorhombic'
loop_
_space_group_symop_operation_xyz
x,y,z
-x,-y,z
-x,y,z
x,-y,z
loop_
_atom_site_type_symbol
_atom_site_label
_atom_site_fract_x
_atom_site_fract_y
_atom_site_fract_z
Si Si1 0.821285 0.217807 0.321960
Si Si2 0.180630 0.894376 0.160267
Si Si3 0.179205 0.891394 0.794641
Si Si4 0.323763 0.109102 0.476434
Si Si5 0.834987 0.111462 0.978869
Si Si6 0.676695 0.606393 0.389832
Si Si7 0.824601 0.606837 0.569615
Si Si8 0.322670 0.778429 0.644413
O O1 0.759329 0.172622 0.234806
O O2 0.768197 0.155856 0.400824
O O3 0.756072 0.323321 0.324337
O O4 0.000000 0.221872 0.323090
O O5 0.000000 0.893595 0.155819
O O6 0.237944 0.000000 0.180172
O O7 0.246131 0.858649 0.067948
O O8 0.243165 0.862383 0.888920
O O9 0.268667 0.827878 0.729410
O O10 0.000000 0.874154 0.788565
O O11 0.216740 0.000000 0.775299
O O12 0.500000 0.123201 0.458244
O O13 0.275927 0.157527 0.564459
O O14 0.279391 0.000000 0.482713
O O15 0.000000 0.158805 0.977255
O O16 0.854253 0.000000 0.982082
O O17 0.500000 0.625851 0.390442
O O18 0.715561 0.500000 0.361963
O O19 0.736475 0.628076 0.483318
O O20 0.796469 0.500000 0.600602
O O21 0.760011 0.677432 0.640064
O O22 0.000000 0.626051 0.553118
O O23 0.500000 0.761742 0.648456
#
# Coordination Sequence:
#
# PCOD8166746 Si02
#       8
#     4   4   4   4   4   4   4   4
#     4  11  20  29  46  71  95 121 155 195 236 273
#     4   8  14  25  42  67  97 124 152 188 231 277
#     4   9  17  29  47  70  94 123 160 199 235 271
#     4  10  21  34  44  58  89 132 167 188 215 264
#     4   7  11  23  43  65  90 120 153 191 234 275
#     4  10  20  34  50  66  88 121 157 191 232 281
#     4  10  20  34  52  72  91 113 149 198 241 273
#     4  11  21  32  47  67  94 129 160 186 227 279
#
# _framework density 16.133085999999999
#
# number of rings (size 3 to 8) (size 9 to 14) (size 15 to 20)
#    0.000    2.500    1.250    3.750    0.000    3.500 
#    0.000    0.000    0.000    1.500    0.000    4.375 
#    0.000    3.000    0.000    0.000    0.000    0.000 
#
# Total GULP energy -396600.178085 kJ/mol
# GULP energy per Si atom -12393.755565 kJ/mol
# Density = 1.609637 g / cm^3
# Si number density = 16.133086 Si / 1000 Ang^3
#
#
#
# Elastic Constant Matrix: (Units=GPa)
#
#
# Indices 1 2 3 4 5 6 
#
# 1 42.2093 32.1319 34.3896 0.0000 0.0000 0.0000
# 2 32.1319 99.9365 61.0614 0.0000 0.0000 0.0000
# 3 34.3896 61.0614 135.8528 0.0000 0.0000 0.0000
# 4 0.0000 0.0000 0.0000 11.5546 0.0000 0.0000
# 5 0.0000 0.0000 0.0000 0.0000 -0.0767 0.0000
# 6 0.0000 0.0000 0.0000 0.0000 0.0000 24.1419
#
#
#
# Elastic Compliance Matrix: (Units=1/GPa)
#
#
# Indices 1 2 3 4 5 6 
#
# 1 0.033706 -0.007753 -0.005047 0.000000 0.000000 0.000000
# 2 -0.007753 0.015578 -0.005039 0.000000 0.000000 0.000000
# 3 -0.005047 -0.005039 0.010904 0.000000 0.000000 0.000000
# 4 0.000000 0.000000 0.000000 0.086546 0.000000 0.000000
# 5 0.000000 0.000000 0.000000 0.000000-13.037330 0.000000
# 6 0.000000 0.000000 0.000000 0.000000 0.000000 0.041422
#
#
# Mechanical properties :
#
#
# Convention : Reuss Voigt Hill
#
# Bulk Modulus (GPa) = 40.80322 59.24049 50.02186
# Shear Modulus (GPa) = -0.39046 17.15167 8.38060
#
# Velocity S-wave (km/s) = -0.49250 3.26411 2.28165
# Velocity P-wave (km/s) = 5.00231 7.14181 6.16558
#
# Compressibility (1/GPa) = 0.02450787
#
# Stress axis : x y z
#
# Youngs Moduli (GPa) = 29.66836 64.19234 91.71289
#
# Poissons Ratio (x) = 0.49770 0.46292
# Poissons Ratio (y) = 0.23003 0.46216
# Poissons Ratio (z) = 0.14975 0.32348
#
# Static dielectric constant tensor:
#      x y z
#    x 2.878740 0.000000 0.000000 
#    y 0.000000 3.083070 0.000000 
#    z 0.000000 0.000000 3.314930 
# 
# 
# High freq. dielectric constant tensor:
#      x y z
#    x 1.605630 0.000000 0.000000 
#    y 0.000000 1.604720 0.000000 
#    z 0.000000 0.000000 1.615220 
# 
# From -- ./inp_files/5684.got.cif
#   From: 2010.03.12/outbox.cif.g09.slc.cpg/sg25_3_cif.got.tgz:5684.got - 2010.04.14 03:30:10.
