data_PCOD8166705
_publ_section_title
;
Structure prediction by ZEFSAII (Michael W. Deem and Ramdas Pophale) SiO2 
 PCOD8166705
Probable space group: P M M 2
;
_chemical_formula_sum "Si O2"
_cell_formula_units_Z 32
_cell_length_a 9.211320
_cell_length_b 9.427429
_cell_length_c 20.641794
_cell_angle_alpha 90.000000
_cell_angle_beta 90.000000
_cell_angle_gamma 90.000000
_cell_volume 1792.514097
_symmetry_space_group_name_H-M "P M M 2"
_symmetry_group_IT_number 25
_symmetry_cell_setting 'orthorhombic'
loop_
_space_group_symop_operation_xyz
x,y,z
-x,-y,z
-x,y,z
x,-y,z
loop_
_atom_site_type_symbol
_atom_site_label
_atom_site_fract_x
_atom_site_fract_y
_atom_site_fract_z
Si Si1 0.826930 0.340045 0.287210
Si Si2 0.829706 0.163216 0.164603
Si Si3 0.172865 0.841536 0.406211
Si Si4 0.667101 0.664640 0.912390
Si Si5 0.333061 0.832123 0.672471
Si Si6 0.830083 0.335327 0.783108
Si Si7 0.331389 0.836044 0.036540
Si Si8 0.838588 0.831508 0.548347
O O1 0.766464 0.500000 0.285320
O O2 0.770729 0.256575 0.224123
O O3 0.764470 0.262897 0.351292
O O4 0.000000 0.338787 0.288801
O O5 0.753298 0.218584 0.099586
O O6 0.000000 0.183045 0.154957
O O7 0.789374 0.000000 0.178987
O O8 0.218178 0.782303 0.477364
O O9 0.000000 0.848197 0.402746
O O10 0.235503 0.000000 0.394390
O O11 0.500000 0.702397 0.896907
O O12 0.686987 0.500000 0.928100
O O13 0.762988 0.711751 0.851495
O O14 0.724757 0.749936 0.974454
O O15 0.500000 0.785869 0.677190
O O16 0.242714 0.757743 0.728139
O O17 0.271659 0.778267 0.603404
O O18 0.314064 0.000000 0.680048
O O19 0.796941 0.500000 0.769317
O O20 0.000000 0.303119 0.784540
O O21 0.500000 0.807214 0.048876
O O22 0.297862 0.000000 0.023178
O O23 0.000000 0.769838 0.562629
O O24 0.847531 0.000000 0.547424
#
# Coordination Sequence:
#
# PCOD8166705 Si02
#       8
#     4   4   4   4   4   4   4   4
#     4   9  16  25  39  63  93 120 149 190 235 274
#     4   9  17  29  45  65  90 120 152 186 227 276
#     4   8  13  23  41  62  84 116 156 193 233 282
#     4   9  18  33  51  69  92 124 158 191 232 284
#     4  10  20  33  51  75 101 130 164 201 242 289
#     4  10  21  36  53  74 100 130 164 201 241 286
#     4   9  18  32  49  69  93 120 152 191 231 273
#     4   8  14  26  45  68  93 121 155 196 239 282
#
# _framework density 17.852022000000002
#
# number of rings (size 3 to 8) (size 9 to 14) (size 15 to 20)
#    0.000    3.000    0.000    1.875    0.000    4.500 
#    0.000    1.875    0.000    3.000    0.000    3.500 
#    0.000    0.000    0.000    0.000    0.000    0.000 
#
# Total GULP energy -396752.952854 kJ/mol
# GULP energy per Si atom -12398.529777 kJ/mol
# Density = 1.781139 g / cm^3
# Si number density = 17.852022 Si / 1000 Ang^3
#
#
#
# Elastic Constant Matrix: (Units=GPa)
#
#
# Indices 1 2 3 4 5 6 
#
# 1 59.7546 31.1824 62.0038 0.0000 0.0000 0.0000
# 2 31.1824 70.0970 74.6689 0.0000 0.0000 0.0000
# 3 62.0038 74.6689 189.5485 0.0000 0.0000 0.0000
# 4 0.0000 0.0000 0.0000 9.8135 0.0000 0.0000
# 5 0.0000 0.0000 0.0000 0.0000 -1.6070 0.0000
# 6 0.0000 0.0000 0.0000 0.0000 0.0000 16.8803
#
#
#
# Elastic Compliance Matrix: (Units=1/GPa)
#
#
# Indices 1 2 3 4 5 6 
#
# 1 0.026076 -0.004331 -0.006824 0.000000 0.000000 0.000000
# 2 -0.004331 0.025300 -0.008550 0.000000 0.000000 0.000000
# 3 -0.006824 -0.008550 0.010876 0.000000 0.000000 0.000000
# 4 0.000000 0.000000 0.000000 0.101901 0.000000 0.000000
# 5 0.000000 0.000000 0.000000 0.000000 -0.622287 0.000000
# 6 0.000000 0.000000 0.000000 0.000000 0.000000 0.059241
#
#
# Mechanical properties :
#
#
# Convention : Reuss Voigt Hill
#
# Bulk Modulus (GPa) = 43.77766 72.79005 58.28385
# Shear Modulus (GPa) = -14.20971 15.12036 0.45532
#
# Velocity S-wave (km/s) = -2.82436 2.91345 0.50558
# Velocity P-wave (km/s) = 3.73360 7.22359 5.74978
#
# Compressibility (1/GPa) = 0.02284270
#
# Stress axis : x y z
#
# Youngs Moduli (GPa) = 38.35004 39.52591 91.94801
#
# Poissons Ratio (x) = 0.17119 0.62741
# Poissons Ratio (y) = 0.16610 0.78612
# Poissons Ratio (z) = 0.26168 0.33793
#
# Static dielectric constant tensor:
#      x y z
#    x 3.129930 0.000000 0.000000 
#    y 0.000000 3.225950 0.000000 
#    z 0.000000 0.000000 3.631860 
# 
# 
# High freq. dielectric constant tensor:
#      x y z
#    x 1.660280 0.000000 0.000000 
#    y 0.000000 1.672440 0.000000 
#    z 0.000000 0.000000 1.706650 
# 
# From -- ./inp_files/6584.got.cif
#   From: 2010.03.12/outbox.cif.g09.slc.cpg/sg25_4_cif.got.tgz:6584.got - 2010.04.14 03:30:10.
