data_PCOD8166749
_publ_section_title
;
Structure prediction by ZEFSAII (Michael W. Deem and Ramdas Pophale) SiO2 
 PCOD8166749
Probable space group: P M M 2
;
_chemical_formula_sum "Si O2"
_cell_formula_units_Z 28
_cell_length_a 14.177390
_cell_length_b 8.910495
_cell_length_c 12.872504
_cell_angle_alpha 90.000000
_cell_angle_beta 90.000000
_cell_angle_gamma 90.000000
_cell_volume 1626.152056
_symmetry_space_group_name_H-M "P M M 2"
_symmetry_group_IT_number 25
_symmetry_cell_setting 'orthorhombic'
loop_
_space_group_symop_operation_xyz
x,y,z
-x,-y,z
-x,y,z
x,-y,z
loop_
_atom_site_type_symbol
_atom_site_label
_atom_site_fract_x
_atom_site_fract_y
_atom_site_fract_z
Si Si1 0.280905 0.322134 0.706220
Si Si2 0.278518 0.175297 0.099410
Si Si3 0.893233 0.175433 0.792268
Si Si4 0.389102 0.327425 0.279014
Si Si5 0.604146 0.322315 0.511115
Si Si6 0.893074 0.325467 0.011533
Si Si7 0.609579 0.174847 0.893110
O O1 0.273813 0.500000 0.707866
O O2 0.176116 0.253789 0.710759
O O3 0.325271 0.260621 0.598809
O O4 0.345034 0.270483 0.801580
O O5 0.332824 0.219297 0.203188
O O6 0.178929 0.263262 0.097451
O O7 0.257042 0.000000 0.101244
O O8 0.342051 0.221517 0.001056
O O9 0.000000 0.211509 0.757877
O O10 0.872469 0.000000 0.795244
O O11 0.871501 0.237893 0.905934
O O12 0.500000 0.303533 0.262520
O O13 0.361645 0.500000 0.257299
O O14 0.360131 0.278964 0.396011
O O15 0.500000 0.253526 0.531145
O O16 0.596517 0.500000 0.518828
O O17 0.875258 0.500000 0.990872
O O18 0.000000 0.295837 0.049784
O O19 0.500000 0.216178 0.901822
O O20 0.625184 0.000000 0.869100
#
# Coordination Sequence:
#
# PCOD8166749 Si02
#       7
#     4   4   4   4   4   4   4
#     4  11  20  31  52  78 103 132 170 214 257 303
#     4  11  21  33  51  75 106 139 169 206 255 307
#     4  10  20  34  51  72 102 138 171 205 252 308
#     4   9  18  34  55  75  99 135 178 219 256 297
#     4   8  16  32  52  75 102 133 171 215 258 298
#     4  10  20  34  53  77 102 130 170 214 252 299
#     4  10  21  34  46  67 104 143 170 198 246 305
#
# _framework density 17.218561000000001
#
# number of rings (size 3 to 8) (size 9 to 14) (size 15 to 20)
#    0.000    2.143    1.429    3.429    0.000    4.000 
#    0.000    1.429    0.000    2.571    0.000    2.000 
#    0.000    0.000    0.000    0.000    0.000    0.000 
#
# Total GULP energy -347232.421005 kJ/mol
# GULP energy per Si atom -12401.157893 kJ/mol
# Density = 1.717937 g / cm^3
# Si number density = 17.218561 Si / 1000 Ang^3
#
#
#
# Elastic Constant Matrix: (Units=GPa)
#
#
# Indices 1 2 3 4 5 6 
#
# 1 115.3038 44.6074 62.8041 0.0000 0.0000 0.0000
# 2 44.6074 63.0089 40.4943 0.0000 0.0000 0.0000
# 3 62.8041 40.4943 115.7575 0.0000 0.0000 0.0000
# 4 0.0000 0.0000 0.0000 8.4956 0.0000 0.0000
# 5 0.0000 0.0000 0.0000 0.0000 23.6573 0.0000
# 6 0.0000 0.0000 0.0000 0.0000 0.0000 29.7715
#
#
#
# Elastic Compliance Matrix: (Units=1/GPa)
#
#
# Indices 1 2 3 4 5 6 
#
# 1 0.014137 -0.006552 -0.005378 0.000000 0.000000 0.000000
# 2 -0.006552 0.023510 -0.004670 0.000000 0.000000 0.000000
# 3 -0.005378 -0.004670 0.013190 0.000000 0.000000 0.000000
# 4 0.000000 0.000000 0.000000 0.117708 0.000000 0.000000
# 5 0.000000 0.000000 0.000000 0.000000 0.042270 0.000000
# 6 0.000000 0.000000 0.000000 0.000000 0.000000 0.033589
#
#
# Mechanical properties :
#
#
# Convention : Reuss Voigt Hill
#
# Bulk Modulus (GPa) = 56.69515 65.54242 61.11878
# Shear Modulus (GPa) = 17.63774 22.12917 19.88345
#
# Velocity S-wave (km/s) = 3.20401 3.58885 3.40188
# Velocity P-wave (km/s) = 6.83270 7.43779 7.14166
#
# Compressibility (1/GPa) = 0.01763819
#
# Stress axis : x y z
#
# Youngs Moduli (GPa) = 70.73791 42.53461 75.81480
#
# Poissons Ratio (x) = 0.27868 0.40772
# Poissons Ratio (y) = 0.46347 0.35403
# Poissons Ratio (z) = 0.38042 0.19862
#
# Static dielectric constant tensor:
#      x y z
#    x 3.456720 0.000000 0.000000 
#    y 0.000000 3.118480 0.000000 
#    z 0.000000 0.000000 3.196490 
# 
# 
# High freq. dielectric constant tensor:
#      x y z
#    x 1.670000 0.000000 0.000000 
#    y 0.000000 1.662000 0.000000 
#    z 0.000000 0.000000 1.647030 
# 
# From -- ./inp_files/4804.got.cif
#   From: 2010.03.12/outbox.cif.g09.slc.cpg/sg25_3_cif.got.tgz:4804.got - 2010.04.14 03:30:10.
