data_PCOD8166813
_publ_section_title
;
Structure prediction by ZEFSAII (Michael W. Deem and Ramdas Pophale) SiO2 
 PCOD8166813
Probable space group: P M M 2
;
_chemical_formula_sum "Si O2"
_cell_formula_units_Z 20
_cell_length_a 9.321569
_cell_length_b 7.838356
_cell_length_c 14.463464
_cell_angle_alpha 90.000000
_cell_angle_beta 90.000000
_cell_angle_gamma 90.000000
_cell_volume 1056.784225
_symmetry_space_group_name_H-M "P M M 2"
_symmetry_group_IT_number 25
_symmetry_cell_setting 'orthorhombic'
loop_
_space_group_symop_operation_xyz
x,y,z
-x,-y,z
-x,y,z
x,-y,z
loop_
_atom_site_type_symbol
_atom_site_label
_atom_site_fract_x
_atom_site_fract_y
_atom_site_fract_z
Si Si1 0.329711 0.000000 0.150360
Si Si2 0.671586 0.000000 0.357886
Si Si3 0.662149 0.300506 0.687155
Si Si4 0.670649 0.688849 0.479409
Si Si5 0.334830 0.309876 0.025898
Si Si6 0.162187 0.805886 0.856940
O O1 0.266574 0.000000 0.253926
O O2 0.274832 0.170641 0.098469
O O3 0.500000 0.000000 0.155858
O O4 0.731145 0.830746 0.409040
O O5 0.500000 0.000000 0.359137
O O6 0.500000 0.231464 0.699714
O O7 0.666813 0.500000 0.708714
O O8 0.718326 0.263355 0.583453
O O9 0.766464 0.203422 0.756506
O O10 0.500000 0.684120 0.476654
O O11 0.729324 0.500000 0.451921
O O12 0.500000 0.269187 0.002180
O O13 0.318788 0.500000 0.068886
O O14 0.248103 0.306263 0.930621
O O15 0.000000 0.736740 0.850488
O O16 0.165364 0.000000 0.891344
#
# Coordination Sequence:
#
# PCOD8166813 Si02
#       6
#     2   2   4   4   4   4
#     4   9  18  32  48  73 104 130 167 213 252 301
#     4   9  16  26  45  71 100 134 163 197 254 299
#     4   9  18  32  50  74 103 136 173 208 246 297
#     4   8  15  27  43  69 103 133 165 202 240 293
#     4  10  20  35  55  76 101 136 172 207 254 306
#     4  11  23  35  49  74 105 136 172 212 255 302
#
# _framework density 18.925338
#
# number of rings (size 3 to 8) (size 9 to 14) (size 15 to 20)
#    0.000    2.600    1.000    2.400    1.400    5.200 
#    0.000    4.000    0.000    0.000    0.000    2.800 
#    0.000    3.200    0.000    0.000    0.000    0.000 
#
# Total GULP energy -247962.791492 kJ/mol
# GULP energy per Si atom -12398.139575 kJ/mol
# Density = 1.888226 g / cm^3
# Si number density = 18.925338 Si / 1000 Ang^3
#
#
#
# Elastic Constant Matrix: (Units=GPa)
#
#
# Indices 1 2 3 4 5 6 
#
# 1 54.9102 26.8616 35.5381 0.0000 0.0000 0.0000
# 2 26.8616 124.0636 72.1962 0.0000 0.0000 0.0000
# 3 35.5381 72.1962 142.3143 0.0000 0.0000 0.0000
# 4 0.0000 0.0000 0.0000 27.4776 0.0000 0.0000
# 5 0.0000 0.0000 0.0000 0.0000 0.6327 0.0000
# 6 0.0000 0.0000 0.0000 0.0000 0.0000 13.5634
#
#
#
# Elastic Compliance Matrix: (Units=1/GPa)
#
#
# Indices 1 2 3 4 5 6 
#
# 1 0.022152 -0.002238 -0.004396 0.000000 0.000000 0.000000
# 2 -0.002238 0.011663 -0.005358 0.000000 0.000000 0.000000
# 3 -0.004396 -0.005358 0.010843 0.000000 0.000000 0.000000
# 4 0.000000 0.000000 0.000000 0.036393 0.000000 0.000000
# 5 0.000000 0.000000 0.000000 0.000000 1.580559 0.000000
# 6 0.000000 0.000000 0.000000 0.000000 0.000000 0.073728
#
#
# Mechanical properties :
#
#
# Convention : Reuss Voigt Hill
#
# Bulk Modulus (GPa) = 48.37194 65.60885 56.99040
# Shear Modulus (GPa) = 2.83092 20.78088 11.80590
#
# Velocity S-wave (km/s) = 1.22437 3.31727 2.50034
# Velocity P-wave (km/s) = 5.25487 7.02957 6.20598
#
# Compressibility (1/GPa) = 0.02067314
#
# Stress axis : x y z
#
# Youngs Moduli (GPa) = 45.14343 85.74358 92.22960
#
# Poissons Ratio (x) = 0.19187 0.40548
# Poissons Ratio (y) = 0.10102 0.49414
# Poissons Ratio (z) = 0.19847 0.45939
#
# Static dielectric constant tensor:
#      x y z
#    x 2.997940 0.000000 0.000000 
#    y 0.000000 3.653420 0.000000 
#    z 0.000000 0.000000 3.508890 
# 
# 
# High freq. dielectric constant tensor:
#      x y z
#    x 1.677600 0.000000 0.000000 
#    y 0.000000 1.747840 0.000000 
#    z 0.000000 0.000000 1.730370 
# 
# From -- ./inp_files/5123.got.cif
#   From: 2010.03.12/outbox.cif.g09.slc.cpg/sg25_3_cif.got.tgz:5123.got - 2010.04.14 03:30:10.
