data_PCOD8166855
_publ_section_title
;
Structure prediction by ZEFSAII (Michael W. Deem and Ramdas Pophale) SiO2 
 PCOD8166855
Probable space group: P M M 2
;
_chemical_formula_sum "Si O2"
_cell_formula_units_Z 24
_cell_length_a 8.865131
_cell_length_b 8.080623
_cell_length_c 17.035496
_cell_angle_alpha 90.000000
_cell_angle_beta 90.000000
_cell_angle_gamma 90.000000
_cell_volume 1220.351068
_symmetry_space_group_name_H-M "P M M 2"
_symmetry_group_IT_number 25
_symmetry_cell_setting 'orthorhombic'
loop_
_space_group_symop_operation_xyz
x,y,z
-x,-y,z
-x,y,z
x,-y,z
loop_
_atom_site_type_symbol
_atom_site_label
_atom_site_fract_x
_atom_site_fract_y
_atom_site_fract_z
Si Si1 0.167088 0.808371 0.900540
Si Si2 0.166502 0.310550 0.063677
Si Si3 0.677707 0.805957 0.743291
Si Si4 0.167647 0.317950 0.355356
Si Si5 0.678213 0.500000 0.483116
Si Si6 0.179613 0.500000 0.652006
Si Si7 0.332350 0.812477 0.211467
O O1 0.276944 0.748565 0.831190
O O2 0.000000 0.723812 0.894058
O O3 0.145416 0.000000 0.890183
O O4 0.239970 0.771803 0.985981
O O5 0.151823 0.500000 0.042975
O O6 0.266333 0.292328 0.140590
O O7 0.000000 0.233097 0.079498
O O8 0.500000 0.786094 0.733078
O O9 0.758013 0.672791 0.687123
O O10 0.724008 0.000000 0.725637
O O11 0.156217 0.500000 0.315398
O O12 0.271491 0.335351 0.433700
O O13 0.238761 0.196419 0.291796
O O14 0.000000 0.253918 0.378232
O O15 0.500000 0.500000 0.498544
O O16 0.771526 0.500000 0.562188
O O17 0.000000 0.500000 0.660041
O O18 0.500000 0.746152 0.229058
O O19 0.333283 0.000000 0.182674
#
# Coordination Sequence:
#
# PCOD8166855 Si02
#       7
#     4   4   4   4   2   2   4
#     4   9  18  34  55  80 113 154 197 243 297 352
#     4  10  21  35  53  79 111 148 195 244 291 347
#     4  10  22  40  62  91 127 164 205 255 310 365
#     4   9  19  36  59  84 110 142 183 226 277 340
#     4  10  20  38  64  91 120 151 184 230 290 349
#     4  12  24  40  66  95 126 163 206 250 298 367
#     4  11  23  36  52  78 111 150 196 242 291 343
#
# _framework density 19.666471999999999
#
# number of rings (size 3 to 8) (size 9 to 14) (size 15 to 20)
#    0.500    1.500    0.000    3.750    1.167    6.000 
#    0.000    2.500    0.000    5.000    0.000    0.000 
#    0.000    0.000    0.000    0.000    0.000    0.000 
#
# Total GULP energy -297393.479429 kJ/mol
# GULP energy per Si atom -12391.394976 kJ/mol
# Density = 1.962171 g / cm^3
# Si number density = 19.666472 Si / 1000 Ang^3
#
#
#
# Elastic Constant Matrix: (Units=GPa)
#
#
# Indices 1 2 3 4 5 6 
#
# 1 118.2221 33.8332 45.9125 0.0000 0.0000 0.0000
# 2 33.8332 58.0940 35.6566 0.0000 0.0000 0.0000
# 3 45.9125 35.6566 131.3060 0.0000 0.0000 0.0000
# 4 0.0000 0.0000 0.0000 28.1543 0.0000 0.0000
# 5 0.0000 0.0000 0.0000 0.0000 25.6424 0.0000
# 6 0.0000 0.0000 0.0000 0.0000 0.0000 25.1107
#
#
#
# Elastic Compliance Matrix: (Units=1/GPa)
#
#
# Indices 1 2 3 4 5 6 
#
# 1 0.010783 -0.004759 -0.002478 0.000000 0.000000 0.000000
# 2 -0.004759 0.022757 -0.004516 0.000000 0.000000 0.000000
# 3 -0.002478 -0.004516 0.009709 0.000000 0.000000 0.000000
# 4 0.000000 0.000000 0.000000 0.035519 0.000000 0.000000
# 5 0.000000 0.000000 0.000000 0.000000 0.038998 0.000000
# 6 0.000000 0.000000 0.000000 0.000000 0.000000 0.039824
#
#
# Mechanical properties :
#
#
# Convention : Reuss Voigt Hill
#
# Bulk Modulus (GPa) = 50.65123 59.82521 55.23822
# Shear Modulus (GPa) = 26.64190 28.59613 27.61901
#
# Velocity S-wave (km/s) = 3.68460 3.81734 3.75156
# Velocity P-wave (km/s) = 6.62667 7.06508 6.84938
#
# Compressibility (1/GPa) = 0.01974286
#
# Stress axis : x y z
#
# Youngs Moduli (GPa) = 92.73895 43.94334 103.00229
#
# Poissons Ratio (x) = 0.20912 0.25525
# Poissons Ratio (y) = 0.44133 0.46512
# Poissons Ratio (z) = 0.22981 0.19843
#
# Static dielectric constant tensor:
#      x y z
#    x 3.869140 0.000000 0.000000 
#    y 0.000000 3.445030 0.000000 
#    z 0.000000 0.000000 3.469800 
# 
# 
# High freq. dielectric constant tensor:
#      x y z
#    x 1.769380 0.000000 0.000000 
#    y 0.000000 1.751340 0.000000 
#    z 0.000000 0.000000 1.763560 
# 
# From -- ./inp_files/6006.got.cif
#   From: 2010.03.12/outbox.cif.g09.slc.cpg/sg25_4_cif.got.tgz:6006.got - 2010.04.14 03:30:10.
