data_PCOD8166538
_publ_section_title
;
Structure prediction by ZEFSAII (Michael W. Deem and Ramdas Pophale) SiO2 
 PCOD8166538
Probable space group: P M M 2
;
_chemical_formula_sum "Si O2"
_cell_formula_units_Z 32
_cell_length_a 13.583696
_cell_length_b 13.554762
_cell_length_c 10.321444
_cell_angle_alpha 90.000000
_cell_angle_beta 90.000000
_cell_angle_gamma 90.000000
_cell_volume 1900.423144
_symmetry_space_group_name_H-M "P M M 2"
_symmetry_group_IT_number 25
_symmetry_cell_setting 'orthorhombic'
loop_
_space_group_symop_operation_xyz
x,y,z
-x,-y,z
-x,y,z
x,-y,z
loop_
_atom_site_type_symbol
_atom_site_label
_atom_site_fract_x
_atom_site_fract_y
_atom_site_fract_z
Si Si1 0.765388 0.887280 0.814540
Si Si2 0.885619 0.692758 0.202349
Si Si3 0.808497 0.614588 0.467852
Si Si4 0.888772 0.891698 0.072058
Si Si5 0.219539 0.385670 0.956074
Si Si6 0.114279 0.717356 0.719659
Si Si7 0.608402 0.387969 0.590079
Si Si8 0.612658 0.266297 0.849189
O O1 0.826345 0.821061 0.711909
O O2 0.655074 0.844463 0.832374
O O3 0.760420 0.000000 0.765709
O O4 0.817545 0.876237 0.952176
O O5 0.842187 0.672835 0.342516
O O6 0.867701 0.809132 0.179271
O O7 0.000000 0.664103 0.198025
O O8 0.830195 0.627723 0.095502
O O9 0.834037 0.500000 0.451324
O O10 0.866815 0.654164 0.591744
O O11 0.691257 0.632910 0.482726
O O12 0.000000 0.881350 0.018961
O O13 0.872002 0.000000 0.134937
O O14 0.239513 0.500000 0.930599
O O15 0.148129 0.343945 0.845071
O O16 0.323849 0.327859 0.953660
O O17 0.000000 0.741506 0.732704
O O18 0.500000 0.369068 0.528852
O O19 0.617824 0.500000 0.640878
O O20 0.625898 0.318654 0.711756
O O21 0.500000 0.261320 0.895870
#
# Coordination Sequence:
#
# PCOD8166538 Si02
#       8
#     4   4   4   4   4   4   4   4
#     4  10  19  33  55  82 108 136 175 227 278 322
#     4  11  22  36  53  78 112 148 183 221 269 322
#     4  11  22  36  53  78 112 148 183 221 269 322
#     4   9  17  33  57  79 102 140 185 222 263 318
#     4  11  21  34  52  78 109 144 185 223 265 320
#     4  11  21  34  52  78 109 144 185 223 265 320
#     4   9  17  33  57  79 102 140 185 222 263 318
#     4  10  19  33  55  82 108 136 175 227 278 322
#
# _framework density 16.838356000000001
#
# number of rings (size 3 to 8) (size 9 to 14) (size 15 to 20)
#    0.000    1.750    5.000    2.250    0.000    4.750 
#    0.000    1.250    0.000    3.000    0.000    0.000 
#    0.000    0.000    0.000    0.000    0.000    0.000 
#
# Total GULP energy -396766.356803 kJ/mol
# GULP energy per Si atom -12398.948650 kJ/mol
# Density = 1.680003 g / cm^3
# Si number density = 16.838356 Si / 1000 Ang^3
#
#
#
# Elastic Constant Matrix: (Units=GPa)
#
#
# Indices 1 2 3 4 5 6 
#
# 1 119.9438 40.8185 24.2932 0.0000 0.0000 0.0000
# 2 40.8185 99.2020 8.7266 0.0000 0.0000 0.0000
# 3 24.2932 8.7266 49.2240 0.0000 0.0000 0.0000
# 4 0.0000 0.0000 0.0000 21.6064 0.0000 0.0000
# 5 0.0000 0.0000 0.0000 0.0000 22.7901 0.0000
# 6 0.0000 0.0000 0.0000 0.0000 0.0000 21.6356
#
#
#
# Elastic Compliance Matrix: (Units=1/GPa)
#
#
# Indices 1 2 3 4 5 6 
#
# 1 0.010604 -0.003965 -0.004530 0.000000 0.000000 0.000000
# 2 -0.003965 0.011722 -0.000122 0.000000 0.000000 0.000000
# 3 -0.004530 -0.000122 0.022573 0.000000 0.000000 0.000000
# 4 0.000000 0.000000 0.000000 0.046283 0.000000 0.000000
# 5 0.000000 0.000000 0.000000 0.000000 0.043879 0.000000
# 6 0.000000 0.000000 0.000000 0.000000 0.000000 0.046220
#
#
# Mechanical properties :
#
#
# Convention : Reuss Voigt Hill
#
# Bulk Modulus (GPa) = 36.14562 46.22737 41.18650
# Shear Modulus (GPa) = 24.06899 26.17518 25.12209
#
# Velocity S-wave (km/s) = 3.78486 3.94699 3.86678
# Velocity P-wave (km/s) = 6.37284 6.94873 6.66701
#
# Compressibility (1/GPa) = 0.02766587
#
# Stress axis : x y z
#
# Youngs Moduli (GPa) = 94.30337 85.30619 44.30120
#
# Poissons Ratio (x) = 0.33821 0.20071
# Poissons Ratio (y) = 0.37388 0.00538
# Poissons Ratio (z) = 0.42724 0.01037
#
# Static dielectric constant tensor:
#      x y z
#    x 3.413490 0.000000 0.000000 
#    y 0.000000 3.409040 0.000000 
#    z 0.000000 0.000000 2.911760 
# 
# 
# High freq. dielectric constant tensor:
#      x y z
#    x 1.656970 0.000000 0.000000 
#    y 0.000000 1.656590 0.000000 
#    z 0.000000 0.000000 1.618750 
# 
# From -- ./inp_files/3301.got.cif
#   From: 2010.03.12/outbox.cif.g09.slc.cpg/sg25_2_cif.got.tgz:3301.got - 2010.04.14 03:30:10.
