data_PCOD8166404
_publ_section_title
;
Structure prediction by ZEFSAII (Michael W. Deem and Ramdas Pophale) SiO2 
 PCOD8166404
Probable space group: P M M 2
;
_chemical_formula_sum "Si O2"
_cell_formula_units_Z 32
_cell_length_a 9.027694
_cell_length_b 14.587568
_cell_length_c 12.324830
_cell_angle_alpha 90.000000
_cell_angle_beta 90.000000
_cell_angle_gamma 90.000000
_cell_volume 1623.082746
_symmetry_space_group_name_H-M "P M M 2"
_symmetry_group_IT_number 25
_symmetry_cell_setting 'orthorhombic'
loop_
_space_group_symop_operation_xyz
x,y,z
-x,-y,z
-x,y,z
x,-y,z
loop_
_atom_site_type_symbol
_atom_site_label
_atom_site_fract_x
_atom_site_fract_y
_atom_site_fract_z
Si Si1 0.675751 0.605714 0.907180
Si Si2 0.829905 0.101851 0.195937
Si Si3 0.328286 0.101361 0.656477
Si Si4 0.666844 0.599863 0.304889
Si Si5 0.325012 0.273296 0.109633
Si Si6 0.327424 0.141046 0.414200
Si Si7 0.830911 0.682112 0.476616
Si Si8 0.171246 0.281877 0.720951
O O1 0.500000 0.608462 0.897782
O O2 0.729891 0.500000 0.919075
O O3 0.743532 0.651142 0.800669
O O4 0.731881 0.667211 0.007773
O O5 0.749650 0.173136 0.114840
O O6 0.760278 0.095542 0.315898
O O7 0.000000 0.131711 0.207130
O O8 0.815476 0.000000 0.144529
O O9 0.500000 0.128520 0.668850
O O10 0.285593 0.095040 0.529255
O O11 0.234116 0.177920 0.720066
O O12 0.296748 0.000000 0.706200
O O13 0.500000 0.622717 0.343001
O O14 0.670802 0.500000 0.248691
O O15 0.723205 0.673151 0.217365
O O16 0.777933 0.593665 0.409042
O O17 0.500000 0.259621 0.102755
O O18 0.500000 0.131306 0.387623
O O19 0.281766 0.246014 0.423267
O O20 0.806048 0.670790 0.604197
O O21 0.000000 0.709007 0.452424
O O22 0.000000 0.275869 0.754093
#
# Coordination Sequence:
#
# PCOD8166404 Si02
#       8
#     4   4   4   4   4   4   4   4
#     4  10  22  42  67  90 111 143 192 247 298 348
#     4  11  23  36  53  82 120 158 193 232 281 340
#     4   9  18  33  55  84 117 154 197 241 285 338
#     4  10  20  34  55  84 115 148 185 229 288 352
#     4  10  21  39  62  86 113 146 189 243 292 340
#     4  10  18  31  53  81 114 154 197 238 281 332
#     4  10  20  34  52  79 118 157 191 232 284 340
#     4  10  22  38  57  84 118 154 193 239 290 345
#
# _framework density 19.715568000000001
#
# number of rings (size 3 to 8) (size 9 to 14) (size 15 to 20)
#    0.000    2.000    1.250    2.250    0.000    6.750 
#    0.000    3.125    0.000    3.000    0.000    0.000 
#    0.000    0.000    0.000    0.000    0.000    0.000 
#
# Total GULP energy -396670.259424 kJ/mol
# GULP energy per Si atom -12395.945607 kJ/mol
# Density = 1.967069 g / cm^3
# Si number density = 19.715568 Si / 1000 Ang^3
#
#
#
# Elastic Constant Matrix: (Units=GPa)
#
#
# Indices 1 2 3 4 5 6 
#
# 1 60.9458 44.0996 40.8336 0.0000 0.0000 0.0000
# 2 44.0996 130.3011 56.1500 0.0000 0.0000 0.0000
# 3 40.8336 56.1500 91.5193 0.0000 0.0000 0.0000
# 4 0.0000 0.0000 0.0000 9.4275 0.0000 0.0000
# 5 0.0000 0.0000 0.0000 0.0000 24.0443 0.0000
# 6 0.0000 0.0000 0.0000 0.0000 0.0000 20.9266
#
#
#
# Elastic Compliance Matrix: (Units=1/GPa)
#
#
# Indices 1 2 3 4 5 6 
#
# 1 0.025679 -0.005103 -0.008327 0.000000 0.000000 0.000000
# 2 -0.005103 0.011447 -0.004746 0.000000 0.000000 0.000000
# 3 -0.008327 -0.004746 0.017554 0.000000 0.000000 0.000000
# 4 0.000000 0.000000 0.000000 0.106073 0.000000 0.000000
# 5 0.000000 0.000000 0.000000 0.000000 0.041590 0.000000
# 6 0.000000 0.000000 0.000000 0.000000 0.000000 0.047786
#
#
# Mechanical properties :
#
#
# Convention : Reuss Voigt Hill
#
# Bulk Modulus (GPa) = 54.56028 62.77028 58.66528
# Shear Modulus (GPa) = 17.08877 20.32521 18.70699
#
# Velocity S-wave (km/s) = 2.94728 3.21428 3.08367
# Velocity P-wave (km/s) = 6.27023 6.75888 6.51914
#
# Compressibility (1/GPa) = 0.01832835
#
# Stress axis : x y z
#
# Youngs Moduli (GPa) = 38.94206 87.36061 56.96770
#
# Poissons Ratio (x) = 0.44578 0.47435
# Poissons Ratio (y) = 0.19871 0.27038
# Poissons Ratio (z) = 0.32426 0.41464
#
# Static dielectric constant tensor:
#      x y z
#    x 3.512710 0.000000 0.000000 
#    y 0.000000 3.823690 0.000000 
#    z 0.000000 0.000000 3.443370 
# 
# 
# High freq. dielectric constant tensor:
#      x y z
#    x 1.765010 0.000000 0.000000 
#    y 0.000000 1.777720 0.000000 
#    z 0.000000 0.000000 1.747820 
# 
# From -- ./inp_files/4278.got.cif
#   From: 2010.03.12/outbox.cif.g09.slc.cpg/sg25_3_cif.got.tgz:4278.got - 2010.04.14 03:30:10.
