data_PCOD8166953
_publ_section_title
;
Structure prediction by ZEFSAII (Michael W. Deem and Ramdas Pophale) SiO2 
 PCOD8166953
Probable space group: P M M 2
;
_chemical_formula_sum "Si O2"
_cell_formula_units_Z 24
_cell_length_a 12.503380
_cell_length_b 8.797222
_cell_length_c 11.712414
_cell_angle_alpha 90.000000
_cell_angle_beta 90.000000
_cell_angle_gamma 90.000000
_cell_volume 1288.307090
_symmetry_space_group_name_H-M "P M M 2"
_symmetry_group_IT_number 25
_symmetry_cell_setting 'orthorhombic'
loop_
_space_group_symop_operation_xyz
x,y,z
-x,-y,z
-x,y,z
x,-y,z
loop_
_atom_site_type_symbol
_atom_site_label
_atom_site_fract_x
_atom_site_fract_y
_atom_site_fract_z
Si Si1 0.311617 0.177248 0.105500
Si Si2 0.622448 0.679437 0.335918
Si Si3 0.300788 0.823016 0.564182
Si Si4 0.500000 0.175681 0.723398
Si Si5 0.124469 0.676097 0.710894
Si Si6 0.500000 0.321508 0.964708
Si Si7 0.878879 0.174615 0.945455
O O1 0.314928 0.248271 0.230444
O O2 0.337435 0.000000 0.113551
O O3 0.395679 0.253141 0.021768
O O4 0.194283 0.209906 0.054570
O O5 0.500000 0.738252 0.337109
O O6 0.626375 0.500000 0.324102
O O7 0.682863 0.729112 0.449391
O O8 0.395933 0.784032 0.650565
O O9 0.188967 0.773957 0.619076
O O10 0.298471 0.000000 0.533543
O O11 0.500000 0.284291 0.831620
O O12 0.500000 0.000000 0.762471
O O13 0.152103 0.500000 0.694508
O O14 0.157907 0.723657 0.838689
O O15 0.000000 0.711005 0.690338
O O16 0.500000 0.500000 0.984634
O O17 0.000000 0.212960 0.982012
O O18 0.866735 0.000000 0.906569
#
# Coordination Sequence:
#
# PCOD8166953 Si02
#       7
#     4   4   4   2   4   2   4
#     4  11  22  37  59  83 112 150 192 236 283 338
#     4  11  23  39  59  83 114 152 193 236 287 343
#     4  11  22  38  60  84 113 150 194 237 283 341
#     4  10  22  37  54  81 114 145 181 231 285 340
#     4  10  21  37  58  86 119 153 190 236 290 343
#     4  12  24  35  52  81 116 149 183 231 285 340
#     4   9  19  37  60  86 115 149 190 235 285 341
#
# _framework density 18.629100000000001
#
# number of rings (size 3 to 8) (size 9 to 14) (size 15 to 20)
#    0.000    1.500    1.667    3.750    0.000    8.333 
#    0.000    0.833    0.000    3.000    0.000    0.000 
#    0.000    0.000    0.000    0.000    0.000    0.000 
#
# Total GULP energy -297746.484042 kJ/mol
# GULP energy per Si atom -12406.103502 kJ/mol
# Density = 1.858670 g / cm^3
# Si number density = 18.629100 Si / 1000 Ang^3
#
#
#
# Elastic Constant Matrix: (Units=GPa)
#
#
# Indices 1 2 3 4 5 6 
#
# 1 97.0707 42.5014 60.8242 0.0000 0.0000 0.0000
# 2 42.5014 83.4496 47.8301 0.0000 0.0000 0.0000
# 3 60.8242 47.8301 127.5838 0.0000 0.0000 0.0000
# 4 0.0000 0.0000 0.0000 219.1689 0.0000 0.0000
# 5 0.0000 0.0000 0.0000 0.0000 13.9104 0.0000
# 6 0.0000 0.0000 0.0000 0.0000 0.0000 21.3184
#
#
#
# Elastic Compliance Matrix: (Units=1/GPa)
#
#
# Indices 1 2 3 4 5 6 
#
# 1 0.016090 -0.004838 -0.005857 0.000000 0.000000 0.000000
# 2 -0.004838 0.016717 -0.003961 0.000000 0.000000 0.000000
# 3 -0.005857 -0.003961 0.012115 0.000000 0.000000 0.000000
# 4 0.000000 0.000000 0.000000 0.004563 0.000000 0.000000
# 5 0.000000 0.000000 0.000000 0.000000 0.071889 0.000000
# 6 0.000000 0.000000 0.000000 0.000000 0.000000 0.046908
#
#
# Mechanical properties :
#
#
# Convention : Reuss Voigt Hill
#
# Bulk Modulus (GPa) = 64.05658 67.82392 65.94025
# Shear Modulus (GPa) = 24.65523 61.34277 42.99900
#
# Velocity S-wave (km/s) = 3.64191 5.74456 4.80955
# Velocity P-wave (km/s) = 7.22112 8.97143 8.14343
#
# Compressibility (1/GPa) = 0.01561120
#
# Stress axis : x y z
#
# Youngs Moduli (GPa) = 62.15076 59.81804 82.54085
#
# Poissons Ratio (x) = 0.28938 0.48345
# Poissons Ratio (y) = 0.30066 0.32694
# Poissons Ratio (z) = 0.36402 0.23693
#
# Static dielectric constant tensor:
#      x y z
#    x 3.709710 0.000000 0.000000 
#    y 0.000000 3.280520 0.000000 
#    z 0.000000 0.000000 3.399260 
# 
# 
# High freq. dielectric constant tensor:
#      x y z
#    x 1.724830 0.000000 0.000000 
#    y 0.000000 1.733880 0.000000 
#    z 0.000000 0.000000 1.723510 
# 
# From -- ./inp_files/3948.got.cif
#   From: 2010.03.12/outbox.cif.g09.slc.cpg/sg25_2_cif.got.tgz:3948.got - 2010.04.14 03:30:10.
