data_PCOD8166904
_publ_section_title
;
Structure prediction by ZEFSAII (Michael W. Deem and Ramdas Pophale) SiO2 
 PCOD8166904
Probable space group: P M M 2
;
_chemical_formula_sum "Si O2"
_cell_formula_units_Z 32
_cell_length_a 9.015720
_cell_length_b 13.849302
_cell_length_c 14.127687
_cell_angle_alpha 90.000000
_cell_angle_beta 90.000000
_cell_angle_gamma 90.000000
_cell_volume 1764.003188
_symmetry_space_group_name_H-M "P M M 2"
_symmetry_group_IT_number 25
_symmetry_cell_setting 'orthorhombic'
loop_
_space_group_symop_operation_xyz
x,y,z
-x,-y,z
-x,y,z
x,-y,z
loop_
_atom_site_type_symbol
_atom_site_label
_atom_site_fract_x
_atom_site_fract_y
_atom_site_fract_z
Si Si1 0.336504 0.111667 0.856980
Si Si2 0.825852 0.610593 0.056649
Si Si3 0.828955 0.771088 0.201811
Si Si4 0.325341 0.109956 0.358930
Si Si5 0.339386 0.887400 0.064729
Si Si6 0.673301 0.388576 0.860210
Si Si7 0.826653 0.890790 0.557243
Si Si8 0.170984 0.241854 0.729207
O O1 0.500000 0.134067 0.812151
O O2 0.199244 0.155086 0.801153
O O3 0.306884 0.000000 0.861651
O O4 0.331966 0.159095 0.960882
O O5 0.784919 0.500000 0.079667
O O6 0.773999 0.672385 0.149267
O O7 0.000000 0.625614 0.040468
O O8 0.747274 0.644480 0.959443
O O9 0.739029 0.803365 0.294551
O O10 0.800497 0.854284 0.125225
O O11 0.000000 0.764559 0.230068
O O12 0.500000 0.121220 0.360587
O O13 0.265058 0.128411 0.463152
O O14 0.282257 0.000000 0.324715
O O15 0.500000 0.859628 0.111844
O O16 0.329359 0.000000 0.053080
O O17 0.500000 0.367549 0.868910
O O18 0.708891 0.500000 0.841233
O O19 0.734362 0.332716 0.767222
O O20 0.779580 0.804249 0.628557
O O21 0.000000 0.883058 0.533894
O O22 0.791362 0.000000 0.596261
O O23 0.000000 0.272228 0.727846
#
# Coordination Sequence:
#
# PCOD8166904 Si02
#       8
#     4   4   4   4   4   4   4   4
#     4   9  18  31  46  67  99 137 171 204 245 295
#     4   9  19  36  55  76 104 136 171 212 257 306
#     4  11  21  31  49  75  99 128 166 207 253 302
#     4  10  21  36  54  76 102 134 170 208 253 304
#     4   9  18  31  44  62  94 133 167 199 238 287
#     4  10  21  36  54  77 105 138 176 217 260 306
#     4   9  19  36  55  76 104 135 168 209 254 301
#     4  11  21  32  51  77 103 133 169 210 258 309
#
# _framework density 18.140556
#
# number of rings (size 3 to 8) (size 9 to 14) (size 15 to 20)
#    0.000    2.250    0.000    3.750    0.000    8.500 
#    0.000    2.500    0.000    0.750    0.000    1.750 
#    0.000    0.000    0.000    0.000    0.000    0.000 
#
# Total GULP energy -396440.780689 kJ/mol
# GULP energy per Si atom -12388.774397 kJ/mol
# Density = 1.809927 g / cm^3
# Si number density = 18.140556 Si / 1000 Ang^3
#
#
#
# Elastic Constant Matrix: (Units=GPa)
#
#
# Indices 1 2 3 4 5 6 
#
# 1 61.5384 42.6777 48.4657 0.0000 0.0000 0.0000
# 2 42.6777 95.5938 61.7999 0.0000 0.0000 0.0000
# 3 48.4657 61.7999 104.4303 0.0000 0.0000 0.0000
# 4 0.0000 0.0000 0.0000 33.1455 0.0000 0.0000
# 5 0.0000 0.0000 0.0000 0.0000 25.3406 0.0000
# 6 0.0000 0.0000 0.0000 0.0000 0.0000 26.5617
#
#
#
# Elastic Compliance Matrix: (Units=1/GPa)
#
#
# Indices 1 2 3 4 5 6 
#
# 1 0.027990 -0.006638 -0.009062 0.000000 0.000000 0.000000
# 2 -0.006638 0.018517 -0.007877 0.000000 0.000000 0.000000
# 3 -0.009062 -0.007877 0.018443 0.000000 0.000000 0.000000
# 4 0.000000 0.000000 0.000000 0.030170 0.000000 0.000000
# 5 0.000000 0.000000 0.000000 0.000000 0.039462 0.000000
# 6 0.000000 0.000000 0.000000 0.000000 0.000000 0.037648
#
#
# Mechanical properties :
#
#
# Convention : Reuss Voigt Hill
#
# Bulk Modulus (GPa) = 56.19265 63.04990 59.62128
# Shear Modulus (GPa) = 22.19087 24.25085 23.22086
#
# Velocity S-wave (km/s) = 3.50133 3.66024 3.58166
# Velocity P-wave (km/s) = 6.88398 7.25912 7.07404
#
# Compressibility (1/GPa) = 0.01779592
#
# Stress axis : x y z
#
# Youngs Moduli (GPa) = 35.72644 54.00444 54.22052
#
# Poissons Ratio (x) = 0.35847 0.49135
# Poissons Ratio (y) = 0.23714 0.42712
# Poissons Ratio (z) = 0.32376 0.42542
#
# Static dielectric constant tensor:
#      x y z
#    x 3.429690 0.000000 0.000000 
#    y 0.000000 3.419030 0.000000 
#    z 0.000000 0.000000 3.324620 
# 
# 
# High freq. dielectric constant tensor:
#      x y z
#    x 1.705320 0.000000 0.000000 
#    y 0.000000 1.694780 0.000000 
#    z 0.000000 0.000000 1.688140 
# 
# From -- ./inp_files/5731.got.cif
#   From: 2010.03.12/outbox.cif.g09.slc.cpg/sg25_3_cif.got.tgz:5731.got - 2010.04.14 03:30:10.
