data_PCOD8166868
_publ_section_title
;
Structure prediction by ZEFSAII (Michael W. Deem and Ramdas Pophale) SiO2 
 PCOD8166868
Probable space group: P M M 2
;
_chemical_formula_sum "Si O2"
_cell_formula_units_Z 32
_cell_length_a 8.993501
_cell_length_b 18.364584
_cell_length_c 12.982678
_cell_angle_alpha 90.000000
_cell_angle_beta 90.000000
_cell_angle_gamma 90.000000
_cell_volume 2144.243825
_symmetry_space_group_name_H-M "P M M 2"
_symmetry_group_IT_number 25
_symmetry_cell_setting 'orthorhombic'
loop_
_space_group_symop_operation_xyz
x,y,z
-x,-y,z
-x,y,z
x,-y,z
loop_
_atom_site_type_symbol
_atom_site_label
_atom_site_fract_x
_atom_site_fract_y
_atom_site_fract_z
Si Si1 0.826508 0.915524 0.079480
Si Si2 0.329387 0.290520 0.778117
Si Si3 0.328505 0.851319 0.884907
Si Si4 0.828182 0.914151 0.685150
Si Si5 0.675087 0.164326 0.493698
Si Si6 0.328123 0.083889 0.287071
Si Si7 0.829378 0.712953 0.580624
Si Si8 0.171995 0.581530 0.706068
O O1 0.767420 0.889169 0.190072
O O2 0.000000 0.899931 0.073508
O O3 0.788376 0.000000 0.062377
O O4 0.746460 0.869695 0.992194
O O5 0.500000 0.298801 0.743259
O O6 0.314428 0.237002 0.875260
O O7 0.234516 0.251411 0.686841
O O8 0.260871 0.372347 0.794311
O O9 0.500000 0.875272 0.886435
O O10 0.251429 0.892533 0.791122
O O11 0.754816 0.878090 0.585338
O O12 0.000000 0.890486 0.691648
O O13 0.811330 0.000000 0.671534
O O14 0.500000 0.160710 0.511210
O O15 0.722411 0.129956 0.385444
O O16 0.732494 0.248994 0.490792
O O17 0.500000 0.096647 0.260355
O O18 0.295319 0.000000 0.312695
O O19 0.808877 0.624871 0.595828
O O20 0.000000 0.733936 0.564217
O O21 0.236723 0.500000 0.695490
O O22 0.000000 0.579566 0.738372
#
# Coordination Sequence:
#
# PCOD8166868 Si02
#       8
#     4   4   4   4   4   4   4   4
#     4  10  21  35  50  67  86 111 150 198 240 279
#     4   9  17  28  42  64  89 117 150 182 216 260
#     4  11  21  32  47  64  88 119 150 186 228 274
#     4  11  22  31  41  61  87 115 148 184 224 271
#     4  11  20  31  47  66  89 117 150 187 227 274
#     4   9  19  35  51  65  84 114 152 193 237 280
#     4   9  17  28  43  62  89 122 148 179 218 261
#     4   8  15  27  42  62  91 126 156 180 213 261
#
# _framework density 14.923676
#
# number of rings (size 3 to 8) (size 9 to 14) (size 15 to 20)
#    0.750    1.500    1.250    2.625    0.000    6.500 
#    0.000    1.250    0.000    0.000    0.000    0.000 
#    0.000    1.000    0.000    7.500    0.000    3.875 
#
# Total GULP energy -396469.896630 kJ/mol
# GULP energy per Si atom -12389.684270 kJ/mol
# Density = 1.488971 g / cm^3
# Si number density = 14.923676 Si / 1000 Ang^3
#
#
#
# Elastic Constant Matrix: (Units=GPa)
#
#
# Indices 1 2 3 4 5 6 
#
# 1 85.9793 46.2464 54.0053 0.0000 0.0000 0.0000
# 2 46.2464 90.6717 51.2213 0.0000 0.0000 0.0000
# 3 54.0053 51.2213 91.0877 0.0000 0.0000 0.0000
# 4 0.0000 0.0000 0.0000 15.0051 0.0000 0.0000
# 5 0.0000 0.0000 0.0000 0.0000 12.0960 0.0000
# 6 0.0000 0.0000 0.0000 0.0000 0.0000 22.5126
#
#
#
# Elastic Compliance Matrix: (Units=1/GPa)
#
#
# Indices 1 2 3 4 5 6 
#
# 1 0.020046 -0.005145 -0.008992 0.000000 0.000000 0.000000
# 2 -0.005145 0.017484 -0.006781 0.000000 0.000000 0.000000
# 3 -0.008992 -0.006781 0.020123 0.000000 0.000000 0.000000
# 4 0.000000 0.000000 0.000000 0.066644 0.000000 0.000000
# 5 0.000000 0.000000 0.000000 0.000000 0.082672 0.000000
# 6 0.000000 0.000000 0.000000 0.000000 0.000000 0.044420
#
#
# Mechanical properties :
#
#
# Convention : Reuss Voigt Hill
#
# Bulk Modulus (GPa) = 63.22483 63.40940 63.31711
# Shear Modulus (GPa) = 16.75059 17.67379 17.21219
#
# Velocity S-wave (km/s) = 3.35388 3.44507 3.39978
# Velocity P-wave (km/s) = 7.57994 7.64238 7.61123
#
# Compressibility (1/GPa) = 0.01581657
#
# Stress axis : x y z
#
# Youngs Moduli (GPa) = 49.88515 57.19655 49.69380
#
# Poissons Ratio (x) = 0.29425 0.44686
# Poissons Ratio (y) = 0.25663 0.33699
# Poissons Ratio (z) = 0.44858 0.38787
#
# Static dielectric constant tensor:
#      x y z
#    x 3.024760 0.000000 0.000000 
#    y 0.000000 2.954450 0.000000 
#    z 0.000000 0.000000 2.691260 
# 
# 
# High freq. dielectric constant tensor:
#      x y z
#    x 1.589400 0.000000 0.000000 
#    y 0.000000 1.558340 0.000000 
#    z 0.000000 0.000000 1.537310 
# 
# From -- ./inp_files/4502.got.cif
#   From: 2010.03.12/outbox.cif.g09.slc.cpg/sg25_3_cif.got.tgz:4502.got - 2010.04.14 03:30:10.
