data_PCOD8166255
_publ_section_title
;
Structure prediction by ZEFSAII (Michael W. Deem and Ramdas Pophale) SiO2 
 PCOD8166255
Probable space group: I 21 21 21
;
_chemical_formula_sum "Si O2"
_cell_formula_units_Z 32
_cell_length_a 21.081748
_cell_length_b 7.353001
_cell_length_c 9.234409
_cell_angle_alpha 90.000000
_cell_angle_beta 90.000000
_cell_angle_gamma 90.000000
_cell_volume 1431.463731
_symmetry_space_group_name_H-M "I 21 21 21"
_symmetry_group_IT_number 24
_symmetry_cell_setting 'orthorhombic'
loop_
_space_group_symop_operation_xyz
x,y,z
-x,1/2-y,z
x,-y,1/2-z
1/2-x,y,-z
1/2+x,1/2+y,1/2+z
1/2-x,-y,1/2+z
1/2+x,1/2-y,-z
-x,1/2+y,1/2-z
loop_
_atom_site_type_symbol
_atom_site_label
_atom_site_fract_x
_atom_site_fract_y
_atom_site_fract_z
Si Si1 0.500000 0.750000 0.537270
Si Si2 0.236029 0.813021 0.668433
Si Si3 0.438935 0.000000 0.750000
Si Si4 0.643188 0.163846 0.662246
Si Si5 0.117425 0.426644 0.893527
O O1 0.485704 0.928011 0.628928
O O2 0.564961 0.791626 0.455628
O O3 0.250000 0.857004 0.500000
O O4 0.290223 0.704170 0.757011
O O5 0.175224 0.688019 0.668776
O O6 0.221556 0.000000 0.750000
O O7 0.396804 0.847056 0.827209
O O8 0.609650 0.000000 0.750000
O O9 0.645134 0.088418 0.497407
O O10 0.083202 0.500000 0.750000
#
# Coordination Sequence:
#
# PCOD8166255 Si02
#       5
#     4   8   4   8   8
#     4  12  26  50  74 114 154 208 264 308 392 466
#     4  12  27  47  77 115 156 199 257 329 397 471
#     4  12  24  48  88 110 152 202 274 332 374 472
#     4  12  24  51  78 116 149 201 267 316 397 456
#     4  12  30  47  74 113 162 208 254 326 385 468
#
# _framework density 22.354742000000002
#
# number of rings (size 3 to 8) (size 9 to 14) (size 15 to 20)
#    0.000    0.000    6.250    2.250    3.500    3.000 
#    0.000    0.000    0.000    0.000    0.000    0.000 
#    0.000    0.000    0.000    0.000    0.000    0.000 
#
# Total GULP energy -198271.568010 kJ/mol
# GULP energy per Si atom -12391.973001 kJ/mol
# Density = 2.230386 g / cm^3
# Si number density = 22.354742 Si / 1000 Ang^3
#
#
#
# Elastic Constant Matrix: (Units=GPa)
#
#
# Indices 1 2 3 4 5 6 
#
# 1 122.7340 46.5602 43.7426 0.0000 0.0000 0.0000
# 2 46.5602 150.7874 60.8743 0.0000 0.0000 0.0000
# 3 43.7426 60.8743 162.0978 0.0000 0.0000 0.0000
# 4 0.0000 0.0000 0.0000 47.3760 0.0000 0.0000
# 5 0.0000 0.0000 0.0000 0.0000 197.7949 0.0000
# 6 0.0000 0.0000 0.0000 0.0000 0.0000 30.2229
#
#
#
# Elastic Compliance Matrix: (Units=1/GPa)
#
#
# Indices 1 2 3 4 5 6 
#
# 1 0.009631 -0.002269 -0.001747 0.000000 0.000000 0.000000
# 2 -0.002269 0.008351 -0.002524 0.000000 0.000000 0.000000
# 3 -0.001747 -0.002524 0.007588 0.000000 0.000000 0.000000
# 4 0.000000 0.000000 0.000000 0.021108 0.000000 0.000000
# 5 0.000000 0.000000 0.000000 0.000000 0.005056 0.000000
# 6 0.000000 0.000000 0.000000 0.000000 0.000000 0.033087
#
#
# Mechanical properties :
#
#
# Convention : Reuss Voigt Hill
#
# Bulk Modulus (GPa) = 80.05499 81.99706 81.02602
# Shear Modulus (GPa) = 48.98850 74.04157 61.51504
#
# Velocity S-wave (km/s) = 4.68633 5.76134 5.25142
# Velocity P-wave (km/s) = 8.07287 9.00095 8.54951
#
# Compressibility (1/GPa) = 0.01249141
#
# Stress axis : x y z
#
# Youngs Moduli (GPa) = 103.83212 119.74123 131.77923
#
# Poissons Ratio (x) = 0.27164 0.23022
# Poissons Ratio (y) = 0.23555 0.33262
# Poissons Ratio (z) = 0.18139 0.30224
#
# Static dielectric constant tensor:
#      x y z
#    x 4.027510 0.000000 0.000000 
#    y 0.000000 3.319940 0.000000 
#    z 0.000000 0.000000 4.553950 
# 
# 
# High freq. dielectric constant tensor:
#      x y z
#    x 1.888540 0.000000 0.000000 
#    y 0.000000 1.897930 0.000000 
#    z 0.000000 0.000000 1.892440 
# 
# From -- ./inp_files/8966.got.cif
#   From: 2010.03.12/outbox.cif.g09.slc.cpg/sg24_5_cif.got.tgz:8966.got - 2010.04.14 03:06:53.
