data_PCOD8166286
_publ_section_title
;
Structure prediction by ZEFSAII (Michael W. Deem and Ramdas Pophale) SiO2 
 PCOD8166286
Probable space group: I 21 21 21
;
_chemical_formula_sum "Si O2"
_cell_formula_units_Z 24
_cell_length_a 7.646857
_cell_length_b 22.168479
_cell_length_c 5.447407
_cell_angle_alpha 90.000000
_cell_angle_beta 90.000000
_cell_angle_gamma 90.000000
_cell_volume 923.440016
_symmetry_space_group_name_H-M "I 21 21 21"
_symmetry_group_IT_number 24
_symmetry_cell_setting 'orthorhombic'
loop_
_space_group_symop_operation_xyz
x,y,z
-x,1/2-y,z
x,-y,1/2-z
1/2-x,y,-z
1/2+x,1/2+y,1/2+z
1/2-x,-y,1/2+z
1/2+x,1/2-y,-z
-x,1/2+y,1/2-z
loop_
_atom_site_type_symbol
_atom_site_label
_atom_site_fract_x
_atom_site_fract_y
_atom_site_fract_z
Si Si1 0.428143 0.313665 0.151117
Si Si2 0.750000 0.544062 0.000000
Si Si3 0.250000 0.882294 0.500000
Si Si4 0.250000 0.600920 0.000000
Si Si5 0.054116 0.500000 0.250000
O O1 0.500000 0.250000 0.251868
O O2 0.400248 0.356977 0.386452
O O3 0.250000 0.305325 0.000000
O O4 0.576149 0.341890 0.977068
O O5 0.746985 0.581665 0.246335
O O6 0.922979 0.500030 0.011857
O O7 0.174960 0.559293 0.223221
#
# Coordination Sequence:
#
# PCOD8166286 Si02
#       5
#     8   4   4   4   4
#     4  12  28  54  87 124 173 234 306 373 446 529
#     4  12  27  51  84 120 173 228 285 346 450 530
#     4  12  27  54  81 129 170 226 295 362 430 536
#     4  12  30  53  85 129 173 234 300 368 464 524
#     4  12  28  50  82 124 174 230 282 372 432 550
#
# _framework density 25.989777
#
# number of rings (size 3 to 8) (size 9 to 14) (size 15 to 20)
#    0.000    0.000    5.000    3.000    7.000    4.000 
#    0.000    0.000    0.000    0.000    0.000    0.000 
#    0.000    0.000    0.000    0.000    0.000    0.000 
#
# Total GULP energy -148698.193651 kJ/mol
# GULP energy per Si atom -12391.516138 kJ/mol
# Density = 2.593062 g / cm^3
# Si number density = 25.989777 Si / 1000 Ang^3
#
#
#
# Elastic Constant Matrix: (Units=GPa)
#
#
# Indices 1 2 3 4 5 6 
#
# 1 198.0518 94.4776 62.5413 0.0123 0.0171 0.0039
# 2 94.4776 205.4372 105.9881 0.0042 0.0021 0.0028
# 3 62.5413 105.9881 143.5908 0.0362 0.0951 -0.0065
# 4 0.0123 0.0042 0.0362 26.9866 0.0089 0.0000
# 5 0.0171 0.0021 0.0951 0.0089 47.6361 -0.0030
# 6 0.0039 0.0028 -0.0065 0.0000 -0.0030 58.9144
#
#
#
# Elastic Compliance Matrix: (Units=1/GPa)
#
#
# Indices 1 2 3 4 5 6 
#
# 1 0.006559 -0.002491 -0.001018 -0.000001 0.000000 0.000000
# 2 -0.002491 0.008808 -0.005416 0.000007 0.000011 -0.000001
# 3 -0.001018 -0.005416 0.011405 -0.000014 -0.000022 0.000002
# 4 -0.000001 0.000007 -0.000014 0.037055 -0.000007 0.000000
# 5 0.000000 0.000011 -0.000022 -0.000007 0.020993 0.000001
# 6 0.000000 -0.000001 0.000002 0.000000 0.000001 0.016974
#
#
# Mechanical properties :
#
#
# Convention : Reuss Voigt Hill
#
# Bulk Modulus (GPa) = 112.08892 119.23266 115.66079
# Shear Modulus (GPa) = 40.77703 45.64560 43.21131
#
# Velocity S-wave (km/s) = 3.96531 4.19536 4.08196
# Velocity P-wave (km/s) = 8.01166 8.33333 8.17408
#
# Compressibility (1/GPa) = 0.00892149
#
# Stress axis : x y z
#
# Youngs Moduli (GPa) = 152.46136 113.53878 87.67814
#
# Poissons Ratio (x) = 0.28285 0.08925
# Poissons Ratio (y) = 0.37982 0.47487
# Poissons Ratio (z) = 0.15520 0.61493
#
# Static dielectric constant tensor:
#      x y z
#    x 5.707140 -0.000030 -0.000070 
#    y -0.000030 5.141120 -0.000080 
#    z -0.000070 -0.000080 4.861130 
# 
# 
# High freq. dielectric constant tensor:
#      x y z
#    x 2.070310 0.000000 0.000000 
#    y 0.000000 2.051000 0.000000 
#    z 0.000000 0.000000 2.028830 
# 
# From -- ./inp_files/874.got.cif
#   From: 2010.03.12/outbox.cif.g09.slc.cpg/sg24_1_cif.got.tgz:874.got - 2010.04.14 03:06:53.
