data_PCOD8166713
_publ_section_title
;
Structure prediction by ZEFSAII (Michael W. Deem and Ramdas Pophale) SiO2 
 PCOD8166713
Probable space group: P M M 2
;
_chemical_formula_sum "Si O2"
_cell_formula_units_Z 28
_cell_length_a 9.212894
_cell_length_b 9.177185
_cell_length_c 18.072212
_cell_angle_alpha 90.000000
_cell_angle_beta 90.000000
_cell_angle_gamma 90.000000
_cell_volume 1527.977199
_symmetry_space_group_name_H-M "P M M 2"
_symmetry_group_IT_number 25
_symmetry_cell_setting 'orthorhombic'
loop_
_space_group_symop_operation_xyz
x,y,z
-x,-y,z
-x,y,z
x,-y,z
loop_
_atom_site_type_symbol
_atom_site_label
_atom_site_fract_x
_atom_site_fract_y
_atom_site_fract_z
Si Si1 0.332269 0.170127 0.422420
Si Si2 0.333976 0.829445 0.847739
Si Si3 0.829167 0.168217 0.701444
Si Si4 0.170648 0.331660 0.293345
Si Si5 0.327065 0.662013 0.989564
Si Si6 0.332541 0.329396 0.572610
Si Si7 0.661622 0.673318 0.150270
O O1 0.500000 0.200464 0.403699
O O2 0.235745 0.232878 0.357162
O O3 0.286019 0.250492 0.497335
O O4 0.300018 0.000000 0.432253
O O5 0.500000 0.780372 0.834090
O O6 0.240008 0.776835 0.778139
O O7 0.267891 0.759017 0.922142
O O8 0.321755 0.000000 0.859016
O O9 0.767329 0.267924 0.636979
O O10 0.000000 0.190218 0.706283
O O11 0.787344 0.000000 0.686179
O O12 0.214728 0.500000 0.306723
O O13 0.231901 0.273786 0.215055
O O14 0.000000 0.310803 0.292227
O O15 0.500000 0.658351 0.988827
O O16 0.263587 0.500000 0.978575
O O17 0.279560 0.727654 0.069830
O O18 0.500000 0.296358 0.591803
O O19 0.303454 0.500000 0.563001
O O20 0.500000 0.735082 0.166498
O O21 0.655051 0.500000 0.146373
#
# Coordination Sequence:
#
# PCOD8166713 Si02
#       7
#     4   4   4   4   4   4   4
#     4  10  21  37  57  79 102 131 168 208 251 300
#     4   9  17  30  49  72  98 129 166 209 254 297
#     4  10  21  36  53  74 103 139 174 207 248 299
#     4  10  20  33  51  76 105 137 172 209 251 300
#     4   8  14  26  46  71  96 125 165 210 253 297
#     4  10  21  37  58  82 104 128 163 208 255 301
#     4   8  14  27  48  71  96 129 168 210 254 297
#
# _framework density 18.32488
#
# number of rings (size 3 to 8) (size 9 to 14) (size 15 to 20)
#    0.000    2.714    0.000    2.571    0.000    4.571 
#    0.000    2.857    0.000    3.429    0.000    0.000 
#    0.000    0.000    0.000    0.000    0.000    0.000 
#
# Total GULP energy -347168.777628 kJ/mol
# GULP energy per Si atom -12398.884915 kJ/mol
# Density = 1.828317 g / cm^3
# Si number density = 18.324880 Si / 1000 Ang^3
#
#
#
# Elastic Constant Matrix: (Units=GPa)
#
#
# Indices 1 2 3 4 5 6 
#
# 1 68.4540 39.8443 67.9511 0.0000 0.0000 0.0000
# 2 39.8443 69.6080 67.8272 0.0000 0.0000 0.0000
# 3 67.9511 67.8272 180.7348 0.0000 0.0000 0.0000
# 4 0.0000 0.0000 0.0000 -18.9380 0.0000 0.0000
# 5 0.0000 0.0000 0.0000 0.0000 -3.0432 0.0000
# 6 0.0000 0.0000 0.0000 0.0000 0.0000 21.6050
#
#
#
# Elastic Compliance Matrix: (Units=1/GPa)
#
#
# Indices 1 2 3 4 5 6 
#
# 1 0.026146 -0.008493 -0.006643 0.000000 0.000000 0.000000
# 2 -0.008493 0.025407 -0.006342 0.000000 0.000000 0.000000
# 3 -0.006643 -0.006342 0.010410 0.000000 0.000000 0.000000
# 4 0.000000 0.000000 0.000000 -0.052804 0.000000 0.000000
# 5 0.000000 0.000000 0.000000 0.000000 -0.328599 0.000000
# 6 0.000000 0.000000 0.000000 0.000000 0.000000 0.046286
#
#
# Mechanical properties :
#
#
# Convention : Reuss Voigt Hill
#
# Bulk Modulus (GPa) = 52.60945 74.44910 63.52927
# Shear Modulus (GPa) = -22.33523 9.46970 -6.43276
#
# Velocity S-wave (km/s) = -3.49499 2.27572 -1.87564
# Velocity P-wave (km/s) = 3.53342 6.90078 5.48205
#
# Compressibility (1/GPa) = 0.01900799
#
# Stress axis : x y z
#
# Youngs Moduli (GPa) = 38.24704 39.35864 96.05810
#
# Poissons Ratio (x) = 0.33429 0.63808
# Poissons Ratio (y) = 0.32485 0.60918
# Poissons Ratio (z) = 0.25406 0.24960
#
# Static dielectric constant tensor:
#      x y z
#    x 3.203670 0.000000 0.000000 
#    y 0.000000 3.369500 0.000000 
#    z 0.000000 0.000000 3.727740 
# 
# 
# High freq. dielectric constant tensor:
#      x y z
#    x 1.688810 0.000000 0.000000 
#    y 0.000000 1.692070 0.000000 
#    z 0.000000 0.000000 1.728350 
# 
# From -- ./inp_files/6060.got.cif
#   From: 2010.03.12/outbox.cif.g09.slc.cpg/sg25_4_cif.got.tgz:6060.got - 2010.04.14 03:30:10.
