data_PCOD8166173
_publ_section_title
;
Structure prediction by ZEFSAII (Michael W. Deem and Ramdas Pophale) SiO2 
 PCOD8166173
Probable space group: I 21 21 21
;
_chemical_formula_sum "Si O2"
_cell_formula_units_Z 20
_cell_length_a 7.824961
_cell_length_b 22.968206
_cell_length_c 4.893633
_cell_angle_alpha 90.000000
_cell_angle_beta 90.000000
_cell_angle_gamma 90.000000
_cell_volume 879.509738
_symmetry_space_group_name_H-M "I 21 21 21"
_symmetry_group_IT_number 24
_symmetry_cell_setting 'orthorhombic'
loop_
_space_group_symop_operation_xyz
x,y,z
-x,1/2-y,z
x,-y,1/2-z
1/2-x,y,-z
1/2+x,1/2+y,1/2+z
1/2-x,-y,1/2+z
1/2+x,1/2-y,-z
-x,1/2+y,1/2-z
loop_
_atom_site_type_symbol
_atom_site_label
_atom_site_fract_x
_atom_site_fract_y
_atom_site_fract_z
Si Si1 0.750000 0.960905 0.500000
Si Si2 0.250000 0.818790 0.000000
Si Si3 0.250000 0.260862 0.000000
Si Si4 0.090776 0.638871 0.207948
O O1 0.902678 0.919385 0.392428
O O2 0.820535 0.000000 0.750000
O O3 0.311318 0.778619 0.249611
O O4 0.091073 0.860965 0.060990
O O5 0.096138 0.303464 0.100284
O O6 0.250000 0.639362 0.000000
#
# Coordination Sequence:
#
# PCOD8166173 Si02
#       4
#     4   4   4   8
#     4  11  24  47  80  98 134 189 240 307 370 406
#     4  12  28  41  70 106 152 187 232 284 340 434
#     4  11  26  40  66 108 150 194 222 273 348 422
#     4  11  26  44  72 105 142 188 241 285 351 426
#
# _framework density 22.739941999999999
#
# number of rings (size 3 to 8) (size 9 to 14) (size 15 to 20)
#    0.000    0.800    4.000    1.200   16.800    0.000 
#    0.000    0.000    8.800    0.000    0.000    0.000 
#    0.000    0.000    0.000    0.000    0.000    0.000 
#
# Total GULP energy -124009.476578 kJ/mol
# GULP energy per Si atom -12400.947658 kJ/mol
# Density = 2.268819 g / cm^3
# Si number density = 22.739942 Si / 1000 Ang^3
#
#
#
# Elastic Constant Matrix: (Units=GPa)
#
#
# Indices 1 2 3 4 5 6 
#
# 1 171.0330 66.4980 66.9835 -0.0038 0.0318 -0.0078
# 2 66.4980 163.7623 86.1155 -0.0030 0.0097 -0.0068
# 3 66.9835 86.1155 173.3443 -0.0332 0.0455 -0.0226
# 4 -0.0038 -0.0030 -0.0332 56.4353 -0.0031 -0.0164
# 5 0.0318 0.0097 0.0455 -0.0031 38.0350 0.0064
# 6 -0.0078 -0.0068 -0.0226 -0.0164 0.0064 7.9040
#
#
#
# Elastic Compliance Matrix: (Units=1/GPa)
#
#
# Indices 1 2 3 4 5 6 
#
# 1 0.007351 -0.002019 -0.001838 -0.000001 -0.000003 0.000000
# 2 -0.002019 0.008820 -0.003602 -0.000002 0.000004 -0.000005
# 3 -0.001838 -0.003602 0.008268 0.000005 -0.000007 0.000019
# 4 -0.000001 -0.000002 0.000005 0.017719 0.000001 0.000037
# 5 -0.000003 0.000004 -0.000007 0.000001 0.026292 -0.000021
# 6 0.000000 -0.000005 0.000019 0.000037 -0.000021 0.126519
#
#
# Mechanical properties :
#
#
# Convention : Reuss Voigt Hill
#
# Bulk Modulus (GPa) = 105.00441 105.25930 105.13186
# Shear Modulus (GPa) = 23.46751 39.71104 31.58927
#
# Velocity S-wave (km/s) = 3.21595 4.18342 3.73118
# Velocity P-wave (km/s) = 7.75024 8.35006 8.05574
#
# Compressibility (1/GPa) = 0.00952341
#
# Stress axis : x y z
#
# Youngs Moduli (GPa) = 136.02672 113.37745 120.94351
#
# Poissons Ratio (x) = 0.22888 0.22228
# Poissons Ratio (y) = 0.27460 0.43560
# Poissons Ratio (z) = 0.25000 0.40835
#
# Static dielectric constant tensor:
#      x y z
#    x 3.607060 0.000050 -0.000130 
#    y 0.000050 4.291410 -0.000070 
#    z -0.000130 -0.000070 4.795630 
# 
# 
# High freq. dielectric constant tensor:
#      x y z
#    x 1.862770 0.000000 0.000000 
#    y 0.000000 1.891520 0.000000 
#    z 0.000000 0.000000 1.928650 
# 
# From -- ./inp_files/788.got.cif
#   From: 2010.03.12/outbox.cif.g09.slc.cpg/sg24_1_cif.got.tgz:788.got - 2010.04.14 03:06:53.
