data_PCOD8166697
_publ_section_title
;
Structure prediction by ZEFSAII (Michael W. Deem and Ramdas Pophale) SiO2 
 PCOD8166697
Probable space group: P M M 2
;
_chemical_formula_sum "Si O2"
_cell_formula_units_Z 28
_cell_length_a 9.051965
_cell_length_b 9.239792
_cell_length_c 18.066215
_cell_angle_alpha 90.000000
_cell_angle_beta 90.000000
_cell_angle_gamma 90.000000
_cell_volume 1511.027037
_symmetry_space_group_name_H-M "P M M 2"
_symmetry_group_IT_number 25
_symmetry_cell_setting 'orthorhombic'
loop_
_space_group_symop_operation_xyz
x,y,z
-x,-y,z
-x,y,z
x,-y,z
loop_
_atom_site_type_symbol
_atom_site_label
_atom_site_fract_x
_atom_site_fract_y
_atom_site_fract_z
Si Si1 0.833574 0.328042 0.281360
Si Si2 0.175646 0.337977 0.705388
Si Si3 0.832244 0.171191 0.007938
Si Si4 0.824643 0.160531 0.842980
Si Si5 0.673999 0.333077 0.428865
Si Si6 0.171751 0.830213 0.560199
Si Si7 0.671931 0.332298 0.135817
O O1 0.830595 0.500000 0.279491
O O2 0.745993 0.273559 0.353319
O O3 0.756168 0.268144 0.207325
O O4 0.000000 0.267523 0.284702
O O5 0.239677 0.500000 0.697574
O O6 0.240384 0.267799 0.780705
O O7 0.227668 0.243270 0.635788
O O8 0.000000 0.341362 0.709217
O O9 0.721241 0.247430 0.063437
O O10 0.000000 0.222509 0.023727
O O11 0.820329 0.000000 0.017069
O O12 0.782744 0.216766 0.924959
O O13 0.000000 0.151543 0.836640
O O14 0.758887 0.000000 0.829532
O O15 0.500000 0.315380 0.421551
O O16 0.718563 0.500000 0.443647
O O17 0.732673 0.234605 0.494489
O O18 0.000000 0.795905 0.545416
O O19 0.201143 0.000000 0.566693
O O20 0.500000 0.307586 0.149425
O O21 0.710343 0.500000 0.123956
#
# Coordination Sequence:
#
# PCOD8166697 Si02
#       7
#     4   4   4   4   4   4   4
#     4   9  17  31  53  78 102 130 165 206 252 300
#     4   9  16  26  44  72 102 130 164 208 255 300
#     4   9  18  32  50  73 101 134 172 212 254 301
#     4   8  14  26  44  67  97 130 163 204 255 305
#     4  10  20  34  53  76 102 132 166 206 253 303
#     4  10  20  33  50  73 102 136 172 209 250 297
#     4  10  20  33  50  74 104 136 170 208 251 300
#
# _framework density 18.530443000000002
#
# number of rings (size 3 to 8) (size 9 to 14) (size 15 to 20)
#    0.000    2.714    0.000    3.000    0.000    6.857 
#    0.000    2.143    0.000    5.143    0.000    4.000 
#    0.000    0.000    0.000    0.000    0.000    0.000 
#
# Total GULP energy -347185.295245 kJ/mol
# GULP energy per Si atom -12399.474830 kJ/mol
# Density = 1.848827 g / cm^3
# Si number density = 18.530443 Si / 1000 Ang^3
#
#
#
# Elastic Constant Matrix: (Units=GPa)
#
#
# Indices 1 2 3 4 5 6 
#
# 1 64.5020 31.9619 52.6137 0.0000 0.0000 0.0000
# 2 31.9619 76.0532 64.1974 0.0000 0.0000 0.0000
# 3 52.6137 64.1974 171.2588 0.0000 0.0000 0.0000
# 4 0.0000 0.0000 0.0000 9.0655 0.0000 0.0000
# 5 0.0000 0.0000 0.0000 0.0000 4.9767 0.0000
# 6 0.0000 0.0000 0.0000 0.0000 0.0000 20.2067
#
#
#
# Elastic Compliance Matrix: (Units=1/GPa)
#
#
# Indices 1 2 3 4 5 6 
#
# 1 0.021999 -0.005179 -0.004817 0.000000 0.000000 0.000000
# 2 -0.005179 0.020454 -0.006076 0.000000 0.000000 0.000000
# 3 -0.004817 -0.006076 0.009597 0.000000 0.000000 0.000000
# 4 0.000000 0.000000 0.000000 0.110308 0.000000 0.000000
# 5 0.000000 0.000000 0.000000 0.000000 0.200937 0.000000
# 6 0.000000 0.000000 0.000000 0.000000 0.000000 0.049489
#
#
# Mechanical properties :
#
#
# Convention : Reuss Voigt Hill
#
# Bulk Modulus (GPa) = 50.23838 67.70666 58.97252
# Shear Modulus (GPa) = 11.07262 17.71916 14.39589
#
# Velocity S-wave (km/s) = 2.44711 3.09563 2.79028
# Velocity P-wave (km/s) = 5.92913 7.02813 6.50189
#
# Compressibility (1/GPa) = 0.01990510
#
# Stress axis : x y z
#
# Youngs Moduli (GPa) = 45.45666 48.88937 104.20208
#
# Poissons Ratio (x) = 0.25320 0.50195
# Poissons Ratio (y) = 0.23543 0.63316
# Poissons Ratio (z) = 0.21897 0.29707
#
# Static dielectric constant tensor:
#      x y z
#    x 3.117700 0.000000 0.000000 
#    y 0.000000 3.324580 0.000000 
#    z 0.000000 0.000000 3.644510 
# 
# 
# High freq. dielectric constant tensor:
#      x y z
#    x 1.687960 0.000000 0.000000 
#    y 0.000000 1.700930 0.000000 
#    z 0.000000 0.000000 1.736720 
# 
# From -- ./inp_files/6106.got.cif
#   From: 2010.03.12/outbox.cif.g09.slc.cpg/sg25_4_cif.got.tgz:6106.got - 2010.04.14 03:30:10.
