data_PCOD8166646
_publ_section_title
;
Structure prediction by ZEFSAII (Michael W. Deem and Ramdas Pophale) SiO2 
 PCOD8166646
Probable space group: P M M 2
;
_chemical_formula_sum "Si O2"
_cell_formula_units_Z 24
_cell_length_a 15.499038
_cell_length_b 9.243429
_cell_length_c 9.667823
_cell_angle_alpha 90.000000
_cell_angle_beta 90.000000
_cell_angle_gamma 90.000000
_cell_volume 1385.053482
_symmetry_space_group_name_H-M "P M M 2"
_symmetry_group_IT_number 25
_symmetry_cell_setting 'orthorhombic'
loop_
_space_group_symop_operation_xyz
x,y,z
-x,-y,z
-x,y,z
x,-y,z
loop_
_atom_site_type_symbol
_atom_site_label
_atom_site_fract_x
_atom_site_fract_y
_atom_site_fract_z
Si Si1 0.904315 0.829551 0.925230
Si Si2 0.224727 0.662559 0.112366
Si Si3 0.408240 0.663526 0.145595
Si Si4 0.238709 0.332289 0.438729
Si Si5 0.100543 0.832577 0.612909
Si Si6 0.404897 0.168879 0.423111
O O1 0.877033 0.786144 0.770018
O O2 0.000000 0.768763 0.957203
O O3 0.905005 0.000000 0.939280
O O4 0.838909 0.769955 0.037426
O O5 0.193168 0.500000 0.082362
O O6 0.322588 0.688475 0.052689
O O7 0.227169 0.694574 0.275575
O O8 0.500000 0.675999 0.062366
O O9 0.399934 0.500000 0.209669
O O10 0.410057 0.781408 0.265137
O O11 0.244225 0.500000 0.476508
O O12 0.155487 0.265654 0.511204
O O13 0.326690 0.256475 0.495749
O O14 0.000000 0.805020 0.582116
O O15 0.123654 0.000000 0.588216
O O16 0.500000 0.197865 0.491853
O O17 0.382186 0.000000 0.428695
#
# Coordination Sequence:
#
# PCOD8166646 Si02
#       6
#     4   4   4   4   4   4
#     4   9  19  35  52  69  91 123 161 197 237 286
#     4   9  18  30  46  72 100 124 154 193 234 276
#     4   8  14  26  43  64  94 128 157 189 232 280
#     4  10  20  32  48  73 102 129 159 196 238 285
#     4   9  19  36  54  70  91 122 161 203 245 289
#     4   9  16  26  43  68  96 126 160 196 234 278
#
# _framework density 17.327850999999999
#
# number of rings (size 3 to 8) (size 9 to 14) (size 15 to 20)
#    0.000    3.000    0.000    3.000    0.000    6.333 
#    0.000    5.000    0.000    1.000    0.000    4.667 
#    0.000    0.000    0.000    0.000    0.000    0.000 
#
# Total GULP energy -297332.357179 kJ/mol
# GULP energy per Si atom -12388.848216 kJ/mol
# Density = 1.728841 g / cm^3
# Si number density = 17.327851 Si / 1000 Ang^3
#
#
#
# Elastic Constant Matrix: (Units=GPa)
#
#
# Indices 1 2 3 4 5 6 
#
# 1 134.8991 58.8530 46.8668 0.0000 0.0000 0.0000
# 2 58.8530 77.2152 29.3703 0.0000 0.0000 0.0000
# 3 46.8668 29.3703 40.7324 0.0000 0.0000 0.0000
# 4 0.0000 0.0000 0.0000 18.4314 0.0000 0.0000
# 5 0.0000 0.0000 0.0000 0.0000 -2.7688 0.0000
# 6 0.0000 0.0000 0.0000 0.0000 0.0000 31.6716
#
#
#
# Elastic Compliance Matrix: (Units=1/GPa)
#
#
# Indices 1 2 3 4 5 6 
#
# 1 0.014333 -0.006410 -0.011870 0.000000 0.000000 0.000000
# 2 -0.006410 0.020712 -0.007559 0.000000 0.000000 0.000000
# 3 -0.011870 -0.007559 0.043659 0.000000 0.000000 0.000000
# 4 0.000000 0.000000 0.000000 0.054255 0.000000 0.000000
# 5 0.000000 0.000000 0.000000 0.000000 -0.361166 0.000000
# 6 0.000000 0.000000 0.000000 0.000000 0.000000 0.031574
#
#
# Mechanical properties :
#
#
# Convention : Reuss Voigt Hill
#
# Bulk Modulus (GPa) = 37.00190 58.11412 47.55801
# Shear Modulus (GPa) = -36.77900 17.31729 -9.73085
#
# Velocity S-wave (km/s) = -4.61210 3.16474 -2.37232
# Velocity P-wave (km/s) = 2.63848 6.85310 4.47232
#
# Compressibility (1/GPa) = 0.02702564
#
# Stress axis : x y z
#
# Youngs Moduli (GPa) = 69.76777 48.28230 22.90490
#
# Poissons Ratio (x) = 0.30948 0.27188
# Poissons Ratio (y) = 0.44719 0.17314
# Poissons Ratio (z) = 0.82815 0.36497
#
# Static dielectric constant tensor:
#      x y z
#    x 3.703200 0.000000 0.000000 
#    y 0.000000 3.202940 0.000000 
#    z 0.000000 0.000000 2.780680 
# 
# 
# High freq. dielectric constant tensor:
#      x y z
#    x 1.694770 0.000000 0.000000 
#    y 0.000000 1.673730 0.000000 
#    z 0.000000 0.000000 1.611000 
# 
# From -- ./inp_files/3051.got.cif
#   From: 2010.03.12/outbox.cif.g09.slc.cpg/sg25_2_cif.got.tgz:3051.got - 2010.04.14 03:30:10.
