data_PCOD8166890
_publ_section_title
;
Structure prediction by ZEFSAII (Michael W. Deem and Ramdas Pophale) SiO2 
 PCOD8166890
Probable space group: P M M 2
;
_chemical_formula_sum "Si O2"
_cell_formula_units_Z 24
_cell_length_a 8.712124
_cell_length_b 11.681480
_cell_length_c 12.619144
_cell_angle_alpha 90.000000
_cell_angle_beta 90.000000
_cell_angle_gamma 90.000000
_cell_volume 1284.256623
_symmetry_space_group_name_H-M "P M M 2"
_symmetry_group_IT_number 25
_symmetry_cell_setting 'orthorhombic'
loop_
_space_group_symop_operation_xyz
x,y,z
-x,-y,z
-x,y,z
x,-y,z
loop_
_atom_site_type_symbol
_atom_site_label
_atom_site_fract_x
_atom_site_fract_y
_atom_site_fract_z
Si Si1 0.676932 0.133236 0.700170
Si Si2 0.321047 0.728818 0.492894
Si Si3 0.178396 0.868007 0.306928
Si Si4 0.678188 0.869129 0.084925
Si Si5 0.818262 0.500000 0.802957
Si Si6 0.179875 0.258892 0.891644
Si Si7 0.819329 0.500000 0.564777
O O1 0.500000 0.159272 0.729343
O O2 0.727312 0.192491 0.591413
O O3 0.786532 0.178359 0.792036
O O4 0.706164 0.000000 0.684901
O O5 0.500000 0.703298 0.492770
O O6 0.276885 0.791038 0.385026
O O7 0.233321 0.609639 0.499345
O O8 0.223866 0.835648 0.187557
O O9 0.000000 0.842435 0.323854
O O10 0.218818 0.000000 0.329467
O O11 0.500000 0.852550 0.111378
O O12 0.712410 0.000000 0.049919
O O13 0.725713 0.784155 0.991918
O O14 0.762809 0.612493 0.865718
O O15 0.747720 0.500000 0.683930
O O16 0.000000 0.500000 0.793201
O O17 0.000000 0.254521 0.917254
O O18 0.000000 0.500000 0.572478
#
# Coordination Sequence:
#
# PCOD8166890 Si02
#       7
#     4   4   4   4   2   4   2
#     4  10  21  35  52  79 115 149 182 227 284 343
#     4  11  22  37  58  85 116 152 194 237 288 346
#     4  10  21  38  61  88 116 150 193 238 287 345
#     4  10  21  38  59  84 116 151 186 232 291 347
#     4   9  20  37  56  79 112 151 189 233 285 334
#     4  11  21  36  57  82 111 147 192 237 283 339
#     4  11  21  39  60  81 114 155 197 241 289 338
#
# _framework density 18.687853
#
# number of rings (size 3 to 8) (size 9 to 14) (size 15 to 20)
#    0.000    1.667    1.667    3.250    0.000    5.667 
#    0.000    2.500    0.000    1.000    0.000    0.000 
#    0.000    0.000    0.000    0.000    0.000    0.000 
#
# Total GULP energy -297729.915861 kJ/mol
# GULP energy per Si atom -12405.413161 kJ/mol
# Density = 1.864532 g / cm^3
# Si number density = 18.687853 Si / 1000 Ang^3
#
#
#
# Elastic Constant Matrix: (Units=GPa)
#
#
# Indices 1 2 3 4 5 6 
#
# 1 51.5284 28.6666 20.6530 0.0000 0.0000 0.0000
# 2 28.6666 115.0975 54.6644 0.0000 0.0000 0.0000
# 3 20.6530 54.6644 99.9110 0.0000 0.0000 0.0000
# 4 0.0000 0.0000 0.0000 43.0390 0.0000 0.0000
# 5 0.0000 0.0000 0.0000 0.0000 34.4047 0.0000
# 6 0.0000 0.0000 0.0000 0.0000 0.0000 28.5927
#
#
#
# Elastic Compliance Matrix: (Units=1/GPa)
#
#
# Indices 1 2 3 4 5 6 
#
# 1 0.022873 -0.004663 -0.002177 0.000000 0.000000 0.000000
# 2 -0.004663 0.012689 -0.005979 0.000000 0.000000 0.000000
# 3 -0.002177 -0.005979 0.013730 0.000000 0.000000 0.000000
# 4 0.000000 0.000000 0.000000 0.023235 0.000000 0.000000
# 5 0.000000 0.000000 0.000000 0.000000 0.029066 0.000000
# 6 0.000000 0.000000 0.000000 0.000000 0.000000 0.034974
#
#
# Mechanical properties :
#
#
# Convention : Reuss Voigt Hill
#
# Bulk Modulus (GPa) = 42.27385 52.72275 47.49830
# Shear Modulus (GPa) = 29.39622 32.04414 30.72018
#
# Velocity S-wave (km/s) = 3.97042 4.14539 4.05885
# Velocity P-wave (km/s) = 6.60978 7.15443 6.88749
#
# Compressibility (1/GPa) = 0.02365528
#
# Stress axis : x y z
#
# Youngs Moduli (GPa) = 43.71872 78.80700 72.83279
#
# Poissons Ratio (x) = 0.36748 0.15856
# Poissons Ratio (y) = 0.20386 0.43545
# Poissons Ratio (z) = 0.09517 0.47117
#
# Static dielectric constant tensor:
#      x y z
#    x 3.409530 0.000000 0.000000 
#    y 0.000000 3.512450 0.000000 
#    z 0.000000 0.000000 3.436160 
# 
# 
# High freq. dielectric constant tensor:
#      x y z
#    x 1.728380 0.000000 0.000000 
#    y 0.000000 1.727190 0.000000 
#    z 0.000000 0.000000 1.726580 
# 
# From -- ./inp_files/3993.got.cif
#   From: 2010.03.12/outbox.cif.g09.slc.cpg/sg25_2_cif.got.tgz:3993.got - 2010.04.14 03:30:10.
