data_PCOD8166819
_publ_section_title
;
Structure prediction by ZEFSAII (Michael W. Deem and Ramdas Pophale) SiO2 
 PCOD8166819
Probable space group: P M M 2
;
_chemical_formula_sum "Si O2"
_cell_formula_units_Z 32
_cell_length_a 8.767061
_cell_length_b 14.823285
_cell_length_c 12.461724
_cell_angle_alpha 90.000000
_cell_angle_beta 90.000000
_cell_angle_gamma 90.000000
_cell_volume 1619.483827
_symmetry_space_group_name_H-M "P M M 2"
_symmetry_group_IT_number 25
_symmetry_cell_setting 'orthorhombic'
loop_
_space_group_symop_operation_xyz
x,y,z
-x,-y,z
-x,y,z
x,-y,z
loop_
_atom_site_type_symbol
_atom_site_label
_atom_site_fract_x
_atom_site_fract_y
_atom_site_fract_z
Si Si1 0.319706 0.285112 0.764460
Si Si2 0.671626 0.401873 0.964222
Si Si3 0.319490 0.902459 0.847997
Si Si4 0.319169 0.708258 0.373091
Si Si5 0.676846 0.096350 0.314227
Si Si6 0.176087 0.331176 0.155708
Si Si7 0.819780 0.396185 0.572061
Si Si8 0.323520 0.845241 0.081130
O O1 0.500000 0.292562 0.741105
O O2 0.274830 0.328492 0.878046
O O3 0.262362 0.180644 0.773314
O O4 0.230071 0.338190 0.673800
O O5 0.500000 0.379295 0.001550
O O6 0.680284 0.500000 0.908420
O O7 0.778166 0.406978 0.069554
O O8 0.500000 0.900856 0.842640
O O9 0.257835 0.000000 0.805398
O O10 0.270789 0.895059 0.972800
O O11 0.500000 0.708793 0.385512
O O12 0.253484 0.812303 0.367623
O O13 0.274298 0.657853 0.263668
O O14 0.247277 0.653029 0.469028
O O15 0.500000 0.098018 0.342914
O O16 0.700006 0.093149 0.185749
O O17 0.746517 0.000000 0.357441
O O18 0.214678 0.239877 0.093345
O O19 0.000000 0.337851 0.187209
O O20 0.760295 0.500000 0.579399
O O21 0.000000 0.395532 0.563621
O O22 0.500000 0.813759 0.072888
#
# Coordination Sequence:
#
# PCOD8166819 Si02
#       8
#     4   4   4   4   4   4   4   4
#     4  10  20  37  61  87 115 146 189 240 286 334
#     4  10  20  35  56  82 111 146 189 235 284 340
#     4   9  16  28  53  87 118 150 192 239 280 323
#     4  10  21  38  62  87 112 145 189 238 286 335
#     4   8  14  26  50  85 117 145 182 227 273 322
#     4  11  21  33  52  80 119 157 187 226 282 341
#     4  11  25  44  64  84 108 143 189 240 295 352
#     4   9  15  28  50  77 113 155 197 234 269 317
#
# _framework density 19.759383
#
# number of rings (size 3 to 8) (size 9 to 14) (size 15 to 20)
#    0.000    2.250    1.250    3.375    0.000    4.250 
#    0.000    0.625    0.000   17.625    0.000    0.000 
#    0.000    0.000    0.000    0.000    0.000    0.000 
#
# Total GULP energy -396488.008545 kJ/mol
# GULP energy per Si atom -12390.250267 kJ/mol
# Density = 1.971441 g / cm^3
# Si number density = 19.759383 Si / 1000 Ang^3
#
#
#
# Elastic Constant Matrix: (Units=GPa)
#
#
# Indices 1 2 3 4 5 6 
#
# 1 37.4120 39.9382 36.0327 0.0000 0.0000 0.0000
# 2 39.9382 155.2532 67.5454 0.0000 0.0000 0.0000
# 3 36.0327 67.5454 100.9790 0.0000 0.0000 0.0000
# 4 0.0000 0.0000 0.0000 25.2494 0.0000 0.0000
# 5 0.0000 0.0000 0.0000 0.0000 1.2955 0.0000
# 6 0.0000 0.0000 0.0000 0.0000 0.0000 11.8200
#
#
#
# Elastic Compliance Matrix: (Units=1/GPa)
#
#
# Indices 1 2 3 4 5 6 
#
# 1 0.044891 -0.006458 -0.011699 0.000000 0.000000 0.000000
# 2 -0.006458 0.010014 -0.004394 0.000000 0.000000 0.000000
# 3 -0.011699 -0.004394 0.017017 0.000000 0.000000 0.000000
# 4 0.000000 0.000000 0.000000 0.039605 0.000000 0.000000
# 5 0.000000 0.000000 0.000000 0.000000 0.771915 0.000000
# 6 0.000000 0.000000 0.000000 0.000000 0.000000 0.084602
#
#
# Mechanical properties :
#
#
# Convention : Reuss Voigt Hill
#
# Bulk Modulus (GPa) = 37.28549 64.51964 50.90257
# Shear Modulus (GPa) = 4.89196 17.68150 11.28673
#
# Velocity S-wave (km/s) = 1.57516 2.99463 2.39259
# Velocity P-wave (km/s) = 4.71369 6.68436 5.78358
#
# Compressibility (1/GPa) = 0.02682008
#
# Stress axis : x y z
#
# Youngs Moduli (GPa) = 22.27602 99.85885 58.76592
#
# Poissons Ratio (x) = 0.64493 0.68748
# Poissons Ratio (y) = 0.14387 0.25821
# Poissons Ratio (z) = 0.26060 0.43877
#
# Static dielectric constant tensor:
#      x y z
#    x 3.259710 0.000000 0.000000 
#    y 0.000000 3.407400 0.000000 
#    z 0.000000 0.000000 3.602130 
# 
# 
# High freq. dielectric constant tensor:
#      x y z
#    x 1.729560 0.000000 0.000000 
#    y 0.000000 1.787630 0.000000 
#    z 0.000000 0.000000 1.752580 
# 
# From -- ./inp_files/4279.got.cif
#   From: 2010.03.12/outbox.cif.g09.slc.cpg/sg25_3_cif.got.tgz:4279.got - 2010.04.14 03:30:10.
