data_PCOD8166839
_publ_section_title
;
Structure prediction by ZEFSAII (Michael W. Deem and Ramdas Pophale) SiO2 
 PCOD8166839
Probable space group: P M M 2
;
_chemical_formula_sum "Si O2"
_cell_formula_units_Z 32
_cell_length_a 8.921758
_cell_length_b 14.453710
_cell_length_c 12.338763
_cell_angle_alpha 90.000000
_cell_angle_beta 90.000000
_cell_angle_gamma 90.000000
_cell_volume 1591.114371
_symmetry_space_group_name_H-M "P M M 2"
_symmetry_group_IT_number 25
_symmetry_cell_setting 'orthorhombic'
loop_
_space_group_symop_operation_xyz
x,y,z
-x,-y,z
-x,y,z
x,-y,z
loop_
_atom_site_type_symbol
_atom_site_label
_atom_site_fract_x
_atom_site_fract_y
_atom_site_fract_z
Si Si1 0.331217 0.898207 0.119360
Si Si2 0.166931 0.361557 0.243288
Si Si3 0.677558 0.786647 0.535501
Si Si4 0.326913 0.396234 0.022586
Si Si5 0.831549 0.843019 0.317123
Si Si6 0.176161 0.778477 0.942717
Si Si7 0.824973 0.397764 0.482862
Si Si8 0.175408 0.891529 0.730971
O O1 0.500000 0.858974 0.126991
O O2 0.262170 0.910380 0.239624
O O3 0.330234 0.000000 0.065895
O O4 0.232625 0.829760 0.048989
O O5 0.274326 0.392257 0.147016
O O6 0.163979 0.252006 0.251711
O O7 0.227048 0.401754 0.357444
O O8 0.000000 0.399622 0.218901
O O9 0.500000 0.786034 0.525351
O O10 0.749000 0.834324 0.431069
O O11 0.734269 0.680394 0.548760
O O12 0.726208 0.848910 0.635911
O O13 0.500000 0.369316 0.020418
O O14 0.299693 0.500000 0.978080
O O15 0.241585 0.325510 0.942589
O O16 0.000000 0.880641 0.337421
O O17 0.226057 0.836429 0.838103
O O18 0.000000 0.770202 0.950297
O O19 0.796899 0.500000 0.534004
O O20 0.000000 0.369880 0.487392
O O21 0.000000 0.876580 0.706555
O O22 0.212415 0.000000 0.745512
#
# Coordination Sequence:
#
# PCOD8166839 Si02
#       8
#     4   4   4   4   4   4   4   4
#     4  11  23  37  57  88 124 159 194 239 300 365
#     4   9  17  31  53  82 115 156 203 247 289 340
#     4  11  23  38  60  90 124 158 196 247 306 363
#     4  11  23  36  54  84 123 164 201 242 296 355
#     4  10  20  36  58  84 119 163 203 243 293 349
#     4  11  23  41  65  90 117 153 199 251 302 356
#     4   9  18  34  57  85 120 163 208 249 291 347
#     4  10  23  45  70  91 112 147 201 257 304 359
#
# _framework density 20.111688999999998
#
# number of rings (size 3 to 8) (size 9 to 14) (size 15 to 20)
#    0.000    1.750    1.250    4.125    0.000    7.000 
#    0.000    0.625    0.000    0.750    0.000    0.000 
#    0.000    0.000    0.000    0.000    0.000    0.000 
#
# Total GULP energy -396776.035485 kJ/mol
# GULP energy per Si atom -12399.251109 kJ/mol
# Density = 2.006591 g / cm^3
# Si number density = 20.111689 Si / 1000 Ang^3
#
#
#
# Elastic Constant Matrix: (Units=GPa)
#
#
# Indices 1 2 3 4 5 6 
#
# 1 119.1437 52.9376 57.5268 0.0000 0.0000 0.0000
# 2 52.9376 119.9104 52.1354 0.0000 0.0000 0.0000
# 3 57.5268 52.1354 99.4969 0.0000 0.0000 0.0000
# 4 0.0000 0.0000 0.0000 13.7597 0.0000 0.0000
# 5 0.0000 0.0000 0.0000 0.0000 6.5301 0.0000
# 6 0.0000 0.0000 0.0000 0.0000 0.0000 25.5132
#
#
#
# Elastic Compliance Matrix: (Units=1/GPa)
#
#
# Indices 1 2 3 4 5 6 
#
# 1 0.012458 -0.003067 -0.005596 0.000000 0.000000 0.000000
# 2 -0.003067 0.011555 -0.004282 0.000000 0.000000 0.000000
# 3 -0.005596 -0.004282 0.015529 0.000000 0.000000 0.000000
# 4 0.000000 0.000000 0.000000 0.072676 0.000000 0.000000
# 5 0.000000 0.000000 0.000000 0.000000 0.153136 0.000000
# 6 0.000000 0.000000 0.000000 0.000000 0.000000 0.039195
#
#
# Mechanical properties :
#
#
# Convention : Reuss Voigt Hill
#
# Bulk Modulus (GPa) = 73.23946 73.75008 73.49477
# Shear Modulus (GPa) = 14.92585 20.89069 17.90827
#
# Velocity S-wave (km/s) = 2.72720 3.22644 2.98726
# Velocity P-wave (km/s) = 6.81265 7.11546 6.96570
#
# Compressibility (1/GPa) = 0.01365384
#
# Stress axis : x y z
#
# Youngs Moduli (GPa) = 80.27167 86.54216 64.39391
#
# Poissons Ratio (x) = 0.26541 0.36033
# Poissons Ratio (y) = 0.24618 0.27571
# Poissons Ratio (z) = 0.44918 0.37054
#
# Static dielectric constant tensor:
#      x y z
#    x 3.653940 0.000000 0.000000 
#    y 0.000000 3.911260 0.000000 
#    z 0.000000 0.000000 3.503400 
# 
# 
# High freq. dielectric constant tensor:
#      x y z
#    x 1.785610 0.000000 0.000000 
#    y 0.000000 1.797500 0.000000 
#    z 0.000000 0.000000 1.761550 
# 
# From -- ./inp_files/4235.got.cif
#   From: 2010.03.12/outbox.cif.g09.slc.cpg/sg25_3_cif.got.tgz:4235.got - 2010.04.14 03:30:10.
