data_PCOD8166505
_publ_section_title
;
Structure prediction by ZEFSAII (Michael W. Deem and Ramdas Pophale) SiO2 
 PCOD8166505
Probable space group: P M M 2
;
_chemical_formula_sum "Si O2"
_cell_formula_units_Z 24
_cell_length_a 11.704663
_cell_length_b 9.468455
_cell_length_c 12.703248
_cell_angle_alpha 90.000000
_cell_angle_beta 90.000000
_cell_angle_gamma 90.000000
_cell_volume 1407.838411
_symmetry_space_group_name_H-M "P M M 2"
_symmetry_group_IT_number 25
_symmetry_cell_setting 'orthorhombic'
loop_
_space_group_symop_operation_xyz
x,y,z
-x,-y,z
-x,y,z
x,-y,z
loop_
_atom_site_type_symbol
_atom_site_label
_atom_site_fract_x
_atom_site_fract_y
_atom_site_fract_z
Si Si1 0.626338 0.667355 0.497610
Si Si2 0.000000 0.837704 0.999324
Si Si3 0.000000 0.335080 0.785341
Si Si4 0.242326 0.666242 0.699127
Si Si5 0.242608 0.163858 0.087152
Si Si6 0.366121 0.838164 0.875996
Si Si7 0.632124 0.335068 0.262507
O O1 0.500000 0.726469 0.527348
O O2 0.619666 0.500000 0.495327
O O3 0.719401 0.718884 0.583048
O O4 0.661012 0.718404 0.380804
O O5 0.109075 0.803979 0.071128
O O6 0.000000 0.745283 0.894918
O O7 0.000000 0.000000 0.961683
O O8 0.889669 0.292457 0.716507
O O9 0.000000 0.500000 0.812350
O O10 0.262131 0.500000 0.712192
O O11 0.322550 0.741978 0.782361
O O12 0.284871 0.251112 0.186275
O O13 0.266848 0.000000 0.109217
O O14 0.309052 0.215041 0.983490
O O15 0.500000 0.818966 0.888161
O O16 0.331577 0.000000 0.852943
O O17 0.500000 0.302837 0.235859
O O18 0.658096 0.500000 0.249516
#
# Coordination Sequence:
#
# PCOD8166505 Si02
#       7
#     4   2   2   4   4   4   4
#     4   8  15  30  51  73  99 132 167 202 246 299
#     4  10  20  36  55  70  94 138 175 199 244 305
#     4  10  20  32  49  76 104 130 167 211 244 285
#     4  10  19  32  51  74 101 133 167 204 247 295
#     4  10  20  34  52  73  98 131 169 207 249 297
#     4  10  20  32  48  73 102 128 160 206 254 301
#     4   9  18  33  53  76 102 133 167 204 248 298
#
# _framework density 17.047412000000001
#
# number of rings (size 3 to 8) (size 9 to 14) (size 15 to 20)
#    0.000    2.500    1.667    2.000    0.000    3.333 
#    0.000    1.667    0.000    3.000    0.000    0.000 
#    0.000    0.000    0.000    0.000    0.000    0.000 
#
# Total GULP energy -297582.870394 kJ/mol
# GULP energy per Si atom -12399.286266 kJ/mol
# Density = 1.700861 g / cm^3
# Si number density = 17.047412 Si / 1000 Ang^3
#
#
#
# Elastic Constant Matrix: (Units=GPa)
#
#
# Indices 1 2 3 4 5 6 
#
# 1 110.6549 35.8798 73.2054 0.0000 0.0000 0.0000
# 2 35.8798 37.0883 44.2420 0.0000 0.0000 0.0000
# 3 73.2054 44.2420 140.0420 0.0000 0.0000 0.0000
# 4 0.0000 0.0000 0.0000 -5.4688 0.0000 0.0000
# 5 0.0000 0.0000 0.0000 0.0000 12.4805 0.0000
# 6 0.0000 0.0000 0.0000 0.0000 0.0000 23.9044
#
#
#
# Elastic Compliance Matrix: (Units=1/GPa)
#
#
# Indices 1 2 3 4 5 6 
#
# 1 0.015302 -0.008444 -0.005331 0.000000 0.000000 0.000000
# 2 -0.008444 0.047928 -0.010728 0.000000 0.000000 0.000000
# 3 -0.005331 -0.010728 0.013317 0.000000 0.000000 0.000000
# 4 0.000000 0.000000 0.000000 -0.182856 0.000000 0.000000
# 5 0.000000 0.000000 0.000000 0.000000 0.080125 0.000000
# 6 0.000000 0.000000 0.000000 0.000000 0.000000 0.041833
#
#
# Mechanical properties :
#
#
# Convention : Reuss Voigt Hill
#
# Bulk Modulus (GPa) = 36.30896 66.04885 51.17891
# Shear Modulus (GPa) = 67.71854 15.14709 41.43281
#
# Velocity S-wave (km/s) = 6.30951 2.98405 4.93530
# Velocity P-wave (km/s) = 8.62699 7.12047 7.90968
#
# Compressibility (1/GPa) = 0.02754141
#
# Stress axis : x y z
#
# Youngs Moduli (GPa) = 65.35064 20.86464 75.09339
#
# Poissons Ratio (x) = 0.17617 0.40036
# Poissons Ratio (y) = 0.55180 0.80557
# Poissons Ratio (z) = 0.34842 0.22383
#
# Static dielectric constant tensor:
#      x y z
#    x 3.420290 0.000000 0.000000 
#    y 0.000000 3.008240 0.000000 
#    z 0.000000 0.000000 3.323170 
# 
# 
# High freq. dielectric constant tensor:
#      x y z
#    x 1.663430 0.000000 0.000000 
#    y 0.000000 1.637850 0.000000 
#    z 0.000000 0.000000 1.658460 
# 
# From -- ./inp_files/2665.got.cif
#   From: 2010.03.12/outbox.cif.g09.slc.cpg/sg25_2_cif.got.tgz:2665.got - 2010.04.14 03:30:10.
