data_PCOD8166020
_publ_section_title
;
Structure prediction by ZEFSAII (Michael W. Deem and Ramdas Pophale) SiO2 
 PCOD8166020
Probable space group: I 21 21 21
;
_chemical_formula_sum "Si O2"
_cell_formula_units_Z 52
_cell_length_a 15.039271
_cell_length_b 20.322046
_cell_length_c 9.396173
_cell_angle_alpha 90.000000
_cell_angle_beta 90.000000
_cell_angle_gamma 90.000000
_cell_volume 2871.740675
_symmetry_space_group_name_H-M "I 21 21 21"
_symmetry_group_IT_number 24
_symmetry_cell_setting 'orthorhombic'
loop_
_space_group_symop_operation_xyz
x,y,z
-x,1/2-y,z
x,-y,1/2-z
1/2-x,y,-z
1/2+x,1/2+y,1/2+z
1/2-x,-y,1/2+z
1/2+x,1/2-y,-z
-x,1/2+y,1/2-z
loop_
_atom_site_type_symbol
_atom_site_label
_atom_site_fract_x
_atom_site_fract_y
_atom_site_fract_z
Si Si1 0.198181 0.388482 0.865777
Si Si2 0.646293 0.899846 0.971390
Si Si3 0.316994 0.500000 0.750000
Si Si4 0.968986 0.074026 0.739441
Si Si5 0.758237 0.248993 0.830252
Si Si6 0.578378 0.301186 0.324194
Si Si7 0.901541 0.244500 0.372821
O O1 0.252381 0.453532 0.836738
O O2 0.092034 0.405096 0.877596
O O3 0.212765 0.323585 0.767835
O O4 0.250000 0.358176 0.000000
O O5 0.622391 0.955567 0.853704
O O6 0.609046 0.830495 0.921858
O O7 0.750000 0.896707 0.000000
O O8 0.605067 0.923948 0.117555
O O9 0.047422 0.124040 0.704716
O O10 0.008240 0.000000 0.750000
O O11 0.837267 0.295867 0.778195
O O12 0.666643 0.267300 0.749429
O O13 0.750000 0.259576 0.000000
O O14 0.500000 0.250000 0.283520
O O15 0.607206 0.291573 0.488663
O O16 0.000000 0.250000 0.306332
#
# Coordination Sequence:
#
# PCOD8166020 Si02
#       7
#     8   8   4   8   8   8   8
#     4  11  20  32  49  83 121 158 185 227 297 374
#     4  12  20  34  55  84 126 163 190 241 294 378
#     4  12  20  28  48  80 124 158 184 218 308 360
#     4  12  21  36  58  87 121 157 206 249 304 362
#     4  11  23  39  59  87 124 160 196 252 310 355
#     4  11  21  38  64  89 115 159 211 249 289 361
#     4  11  21  39  63  89 117 156 216 252 295 354
#
# _framework density 18.107483999999999
#
# number of rings (size 3 to 8) (size 9 to 14) (size 15 to 20)
#    0.000    0.615    8.462    2.769    0.000    0.615 
#    0.000    0.000    0.000    1.846    2.000    0.000 
#    0.000    0.000    0.000    0.000    0.000    0.000 
#
# Total GULP energy -322143.717808 kJ/mol
# GULP energy per Si atom -12390.142993 kJ/mol
# Density = 1.806627 g / cm^3
# Si number density = 18.107484 Si / 1000 Ang^3
#
#
#
# Elastic Constant Matrix: (Units=GPa)
#
#
# Indices 1 2 3 4 5 6 
#
# 1 108.1590 54.9171 52.6743 0.0000 0.0000 0.0000
# 2 54.9171 127.1896 33.6731 0.0000 0.0000 0.0000
# 3 52.6743 33.6731 82.2495 0.0000 0.0000 0.0000
# 4 0.0000 0.0000 0.0000 17.7136 0.0000 0.0000
# 5 0.0000 0.0000 0.0000 0.0000 50.5256 0.0000
# 6 0.0000 0.0000 0.0000 0.0000 0.0000 34.8108
#
#
#
# Elastic Compliance Matrix: (Units=1/GPa)
#
#
# Indices 1 2 3 4 5 6 
#
# 1 0.015476 -0.004551 -0.008048 0.000000 0.000000 0.000000
# 2 -0.004551 0.010157 -0.001243 0.000000 0.000000 0.000000
# 3 -0.008048 -0.001243 0.017821 0.000000 0.000000 0.000000
# 4 0.000000 0.000000 0.000000 0.056454 0.000000 0.000000
# 5 0.000000 0.000000 0.000000 0.000000 0.019792 0.000000
# 6 0.000000 0.000000 0.000000 0.000000 0.000000 0.028727
#
#
# Mechanical properties :
#
#
# Convention : Reuss Voigt Hill
#
# Bulk Modulus (GPa) = 63.41696 66.68080 65.04888
# Shear Modulus (GPa) = 27.56837 32.36558 29.96697
#
# Velocity S-wave (km/s) = 3.90614 4.23237 4.07252
# Velocity P-wave (km/s) = 7.44597 7.79672 7.62336
#
# Compressibility (1/GPa) = 0.01576865
#
# Stress axis : x y z
#
# Youngs Moduli (GPa) = 64.61646 98.45767 56.11340
#
# Poissons Ratio (x) = 0.44813 0.45158
# Poissons Ratio (y) = 0.29410 0.06977
# Poissons Ratio (z) = 0.52001 0.12241
#
# Static dielectric constant tensor:
#      x y z
#    x 3.274470 0.000000 0.000000 
#    y 0.000000 0.236050 0.000000 
#    z 0.000000 0.000000 3.341740 
# 
# 
# High freq. dielectric constant tensor:
#      x y z
#    x 1.676680 0.000000 0.000000 
#    y 0.000000 1.699780 0.000000 
#    z 0.000000 0.000000 1.701660 
# 
# From -- ./inp_files/13059.got.cif
#   From: 2010.03.12/outbox.cif.g09.slc.cpg/sg24_7_cif.got.tgz:13059.got - 2010.04.14 03:06:53.
