data_PCOD8166980
_publ_section_title
;
Structure prediction by ZEFSAII (Michael W. Deem and Ramdas Pophale) SiO2 
 PCOD8166980
Probable space group: P M M 2
;
_chemical_formula_sum "Si O2"
_cell_formula_units_Z 17
_cell_length_a 7.463412
_cell_length_b 7.888072
_cell_length_c 13.694046
_cell_angle_alpha 90.000000
_cell_angle_beta 90.000000
_cell_angle_gamma 90.000000
_cell_volume 806.194934
_symmetry_space_group_name_H-M "P M M 2"
_symmetry_group_IT_number 25
_symmetry_cell_setting 'orthorhombic'
loop_
_space_group_symop_operation_xyz
x,y,z
-x,-y,z
-x,y,z
x,-y,z
loop_
_atom_site_type_symbol
_atom_site_label
_atom_site_fract_x
_atom_site_fract_y
_atom_site_fract_z
Si Si1 0.500000 0.311028 0.437310
Si Si2 0.500000 0.000000 0.583208
Si Si3 0.787768 0.315211 0.875416
Si Si4 0.205442 0.798981 0.292088
Si Si5 0.787285 0.812180 0.077838
Si Si6 0.213923 0.000000 0.746574
O O1 0.500000 0.500000 0.483815
O O2 0.676575 0.294496 0.371821
O O3 0.500000 0.170556 0.520654
O O4 0.683231 0.000000 0.644604
O O5 0.723880 0.500000 0.836411
O O6 0.000000 0.304407 0.878164
O O7 0.718891 0.165962 0.805404
O O8 0.713907 0.296142 0.986363
O O9 0.267977 0.737112 0.183678
O O10 0.000000 0.748995 0.311881
O O11 0.232819 0.000000 0.300155
O O12 0.000000 0.822601 0.075073
O O13 0.707051 0.000000 0.065920
O O14 0.000000 0.000000 0.728001
#
# Coordination Sequence:
#
# PCOD8166980 Si02
#       6
#     2   1   4   4   4   2
#     4  12  26  44  65  89 120 155 199 258 315 366
#     4  12  28  48  64  86 110 148 202 260 324 362
#     4   9  16  29  55  90 124 157 192 232 284 348
#     4   9  18  36  64  93 125 166 204 239 288 355
#     4   8  13  25  51  88 125 160 195 229 273 338
#     4  10  22  42  65  85 113 151 196 248 301 358
#
# _framework density 21.086711000000001
#
# number of rings (size 3 to 8) (size 9 to 14) (size 15 to 20)
#    0.000    2.588    2.353    1.412    0.000    3.294 
#    0.000    3.529    0.000    0.000    0.000    0.000 
#    0.000    0.000    0.000    0.000    0.000    0.000 
#
# Total GULP energy -210665.770816 kJ/mol
# GULP energy per Si atom -12392.104166 kJ/mol
# Density = 2.103872 g / cm^3
# Si number density = 21.086711 Si / 1000 Ang^3
#
#
#
# Elastic Constant Matrix: (Units=GPa)
#
#
# Indices 1 2 3 4 5 6 
#
# 1 70.9332 28.0268 41.7264 0.0000 0.0000 0.0000
# 2 28.0268 159.9209 81.8204 0.0000 0.0000 0.0000
# 3 41.7264 81.8204 144.0604 0.0000 0.0000 0.0000
# 4 0.0000 0.0000 0.0000 9.6965 0.0000 0.0000
# 5 0.0000 0.0000 0.0000 0.0000 74.1762 0.0000
# 6 0.0000 0.0000 0.0000 0.0000 0.0000 9.6722
#
#
#
# Elastic Compliance Matrix: (Units=1/GPa)
#
#
# Indices 1 2 3 4 5 6 
#
# 1 0.017041 -0.000650 -0.004567 0.000000 0.000000 0.000000
# 2 -0.000650 0.008839 -0.004832 0.000000 0.000000 0.000000
# 3 -0.004567 -0.004832 0.011009 0.000000 0.000000 0.000000
# 4 0.000000 0.000000 0.000000 0.103130 0.000000 0.000000
# 5 0.000000 0.000000 0.000000 0.000000 0.013481 0.000000
# 6 0.000000 0.000000 0.000000 0.000000 0.000000 0.103389
#
#
# Mechanical properties :
#
#
# Convention : Reuss Voigt Hill
#
# Bulk Modulus (GPa) = 59.55444 75.34020 67.44732
# Shear Modulus (GPa) = 17.69388 33.59837 25.64612
#
# Velocity S-wave (km/s) = 2.89987 3.99600 3.49122
# Velocity P-wave (km/s) = 6.28620 7.55626 6.95030
#
# Compressibility (1/GPa) = 0.01679136
#
# Stress axis : x y z
#
# Youngs Moduli (GPa) = 58.68221 113.13199 90.83795
#
# Poissons Ratio (x) = 0.07355 0.41482
# Poissons Ratio (y) = 0.03815 0.43893
# Poissons Ratio (z) = 0.26798 0.54666
#
# Static dielectric constant tensor:
#      x y z
#    x 3.480300 0.000000 0.000000 
#    y 0.000000 3.964010 0.000000 
#    z 0.000000 0.000000 3.812260 
# 
# 
# High freq. dielectric constant tensor:
#      x y z
#    x 1.808250 0.000000 0.000000 
#    y 0.000000 1.820900 0.000000 
#    z 0.000000 0.000000 1.810260 
# 
# From -- ./inp_files/3738.got.cif
#   From: 2010.03.12/outbox.cif.g09.slc.cpg/sg25_2_cif.got.tgz:3738.got - 2010.04.14 03:30:10.
