data_PCOD8166922
_publ_section_title
;
Structure prediction by ZEFSAII (Michael W. Deem and Ramdas Pophale) SiO2 
 PCOD8166922
Probable space group: P M M 2
;
_chemical_formula_sum "Si O2"
_cell_formula_units_Z 32
_cell_length_a 13.978040
_cell_length_b 9.063879
_cell_length_c 12.882305
_cell_angle_alpha 90.000000
_cell_angle_beta 90.000000
_cell_angle_gamma 90.000000
_cell_volume 1632.127023
_symmetry_space_group_name_H-M "P M M 2"
_symmetry_group_IT_number 25
_symmetry_cell_setting 'orthorhombic'
loop_
_space_group_symop_operation_xyz
x,y,z
-x,-y,z
-x,y,z
x,-y,z
loop_
_atom_site_type_symbol
_atom_site_label
_atom_site_fract_x
_atom_site_fract_y
_atom_site_fract_z
Si Si1 0.109273 0.673598 0.089180
Si Si2 0.394220 0.674903 0.409164
Si Si3 0.720102 0.827222 0.001270
Si Si4 0.108782 0.825710 0.523623
Si Si5 0.886593 0.163348 0.292831
Si Si6 0.719079 0.674967 0.607507
Si Si7 0.613811 0.667055 0.180728
Si Si8 0.611503 0.171856 0.792584
O O1 0.119257 0.500000 0.082907
O O2 0.176413 0.747346 0.002044
O O3 0.147415 0.725179 0.202668
O O4 0.000000 0.724290 0.069635
O O5 0.500000 0.743498 0.424036
O O6 0.401999 0.500000 0.414796
O O7 0.328579 0.734950 0.501502
O O8 0.352263 0.718871 0.295959
O O9 0.657330 0.778940 0.098918
O O10 0.737954 0.000000 0.006662
O O11 0.663816 0.781316 0.898201
O O12 0.142983 0.779097 0.407246
O O13 0.174235 0.742711 0.608340
O O14 0.000000 0.775342 0.544089
O O15 0.118868 0.000000 0.537814
O O16 0.000000 0.151749 0.292487
O O17 0.843762 0.000000 0.270821
O O18 0.725099 0.500000 0.613332
O O19 0.656728 0.731414 0.702450
O O20 0.500000 0.673746 0.175696
O O21 0.649026 0.500000 0.156965
O O22 0.500000 0.210936 0.803660
O O23 0.626729 0.000000 0.767836
#
# Coordination Sequence:
#
# PCOD8166922 Si02
#       8
#     4   4   4   4   4   4   4   4
#     4  10  21  36  55  82 117 154 193 238 287 342
#     4   8  16  32  52  78 114 149 179 220 279 343
#     4  11  23  38  59  85 113 148 194 243 290 344
#     4   9  19  36  56  80 116 159 199 238 282 337
#     4   8  15  30  52  78 111 152 194 234 276 327
#     4  11  22  35  58  89 117 148 192 242 291 345
#     4   9  18  34  56  82 115 152 186 226 283 348
#     4  10  23  44  65  84 111 149 194 243 291 344
#
# _framework density 19.606317000000001
#
# number of rings (size 3 to 8) (size 9 to 14) (size 15 to 20)
#    0.000    2.500    0.000    3.375    1.750    4.000 
#    0.000    2.500    0.000    2.250    0.000    0.000 
#    0.000    0.000    0.000    0.000    0.000    0.000 
#
# Total GULP energy -396758.903534 kJ/mol
# GULP energy per Si atom -12398.715735 kJ/mol
# Density = 1.956169 g / cm^3
# Si number density = 19.606317 Si / 1000 Ang^3
#
#
#
# Elastic Constant Matrix: (Units=GPa)
#
#
# Indices 1 2 3 4 5 6 
#
# 1 105.4722 46.1144 68.4339 0.0000 0.0000 0.0000
# 2 46.1144 69.2541 50.1207 0.0000 0.0000 0.0000
# 3 68.4339 50.1207 115.9343 0.0000 0.0000 0.0000
# 4 0.0000 0.0000 0.0000 30.0785 0.0000 0.0000
# 5 0.0000 0.0000 0.0000 0.0000 36.9450 0.0000
# 6 0.0000 0.0000 0.0000 0.0000 0.0000 29.3266
#
#
#
# Elastic Compliance Matrix: (Units=1/GPa)
#
#
# Indices 1 2 3 4 5 6 
#
# 1 0.016853 -0.005854 -0.007417 0.000000 0.000000 0.000000
# 2 -0.005854 0.023048 -0.006509 0.000000 0.000000 0.000000
# 3 -0.007417 -0.006509 0.015818 0.000000 0.000000 0.000000
# 4 0.000000 0.000000 0.000000 0.033246 0.000000 0.000000
# 5 0.000000 0.000000 0.000000 0.000000 0.027067 0.000000
# 6 0.000000 0.000000 0.000000 0.000000 0.000000 0.034099
#
#
# Mechanical properties :
#
#
# Convention : Reuss Voigt Hill
#
# Bulk Modulus (GPa) = 61.88488 68.88873 65.38681
# Shear Modulus (GPa) = 25.63080 27.66946 26.65013
#
# Velocity S-wave (km/s) = 3.61954 3.76074 3.69082
# Velocity P-wave (km/s) = 7.00717 7.35322 7.18228
#
# Compressibility (1/GPa) = 0.01615903
#
# Stress axis : x y z
#
# Youngs Moduli (GPa) = 59.33556 43.38763 63.22022
#
# Poissons Ratio (x) = 0.25399 0.46893
# Poissons Ratio (y) = 0.34735 0.41148
# Poissons Ratio (z) = 0.44011 0.28239
#
# Static dielectric constant tensor:
#      x y z
#    x 3.733700 0.000000 0.000000 
#    y 0.000000 3.379750 0.000000 
#    z 0.000000 0.000000 3.623930 
# 
# 
# High freq. dielectric constant tensor:
#      x y z
#    x 1.774220 0.000000 0.000000 
#    y 0.000000 1.749690 0.000000 
#    z 0.000000 0.000000 1.750440 
# 
# From -- ./inp_files/4303.got.cif
#   From: 2010.03.12/outbox.cif.g09.slc.cpg/sg25_3_cif.got.tgz:4303.got - 2010.04.14 03:30:10.
