data_PCOD8166996
_publ_section_title
;
Structure prediction by ZEFSAII (Michael W. Deem and Ramdas Pophale) SiO2 
 PCOD8166996
Probable space group: P M M 2
;
_chemical_formula_sum "Si O2"
_cell_formula_units_Z 28
_cell_length_a 8.892429
_cell_length_b 9.445804
_cell_length_c 18.277159
_cell_angle_alpha 90.000000
_cell_angle_beta 90.000000
_cell_angle_gamma 90.000000
_cell_volume 1535.210832
_symmetry_space_group_name_H-M "P M M 2"
_symmetry_group_IT_number 25
_symmetry_cell_setting 'orthorhombic'
loop_
_space_group_symop_operation_xyz
x,y,z
-x,-y,z
-x,y,z
x,-y,z
loop_
_atom_site_type_symbol
_atom_site_label
_atom_site_fract_x
_atom_site_fract_y
_atom_site_fract_z
Si Si1 0.320334 0.839689 0.927240
Si Si2 0.664133 0.832489 0.769284
Si Si3 0.321565 0.156667 0.344764
Si Si4 0.674111 0.165535 0.180493
Si Si5 0.176062 0.336716 0.054464
Si Si6 0.320391 0.340967 0.477656
Si Si7 0.319861 0.840691 0.612629
O O1 0.500000 0.832894 0.926043
O O2 0.254795 0.794261 0.846483
O O3 0.268965 0.000000 0.946943
O O4 0.258188 0.730640 0.985421
O O5 0.500000 0.759859 0.770456
O O6 0.745124 0.788542 0.692464
O O7 0.643597 0.000000 0.766758
O O8 0.500000 0.149541 0.350051
O O9 0.276831 0.205495 0.263124
O O10 0.256537 0.264869 0.404826
O O11 0.256212 0.000000 0.360792
O O12 0.500000 0.202799 0.166406
O O13 0.776748 0.258420 0.128254
O O14 0.701943 0.000000 0.165294
O O15 0.223941 0.500000 0.060309
O O16 0.000000 0.318740 0.043113
O O17 0.500000 0.338552 0.477368
O O18 0.257821 0.500000 0.478333
O O19 0.257555 0.261700 0.549477
O O20 0.500000 0.837006 0.615927
O O21 0.265368 0.000000 0.594666
#
# Coordination Sequence:
#
# PCOD8166996 Si02
#       7
#     4   4   4   4   4   4   4
#     4   9  17  31  52  74  93 116 152 196 236 275
#     4   7  11  21  38  60  83 108 142 183 223 263
#     4   8  14  25  40  58  81 109 142 180 221 265
#     4   9  18  33  53  74  92 114 151 196 236 275
#     4  11  24  37  47  65  95 126 154 185 225 277
#     4   9  15  20  28  48  80 115 148 179 211 251
#     4   8  12  19  32  49  74 111 147 175 210 257
#
# _framework density 18.238537999999998
#
# number of rings (size 3 to 8) (size 9 to 14) (size 15 to 20)
#    0.000    3.286    0.000    3.857    0.000    5.714 
#    0.000    2.143    0.000    2.571    0.000    0.000 
#    0.000    1.143    0.000   10.857    0.000   14.857 
#
# Total GULP energy -346891.300188 kJ/mol
# GULP energy per Si atom -12388.975007 kJ/mol
# Density = 1.819703 g / cm^3
# Si number density = 18.238538 Si / 1000 Ang^3
#
#
#
# Elastic Constant Matrix: (Units=GPa)
#
#
# Indices 1 2 3 4 5 6 
#
# 1 15.5359 16.4552 17.5009 0.0000 0.0000 0.0000
# 2 16.4552 103.5178 83.5589 0.0000 0.0000 0.0000
# 3 17.5009 83.5589 181.3944 0.0000 0.0000 0.0000
# 4 0.0000 0.0000 0.0000 5.9682 0.0000 0.0000
# 5 0.0000 0.0000 0.0000 0.0000 -2.3676 0.0000
# 6 0.0000 0.0000 0.0000 0.0000 0.0000 13.5795
#
#
#
# Elastic Compliance Matrix: (Units=1/GPa)
#
#
# Indices 1 2 3 4 5 6 
#
# 1 0.078345 -0.010113 -0.002900 0.000000 0.000000 0.000000
# 2 -0.010113 0.016684 -0.006710 0.000000 0.000000 0.000000
# 3 -0.002900 -0.006710 0.008883 0.000000 0.000000 0.000000
# 4 0.000000 0.000000 0.000000 0.167554 0.000000 0.000000
# 5 0.000000 0.000000 0.000000 0.000000 -0.422376 0.000000
# 6 0.000000 0.000000 0.000000 0.000000 0.000000 0.073641
#
#
# Mechanical properties :
#
#
# Convention : Reuss Voigt Hill
#
# Bulk Modulus (GPa) = 15.51178 59.49757 37.50467
# Shear Modulus (GPa) = -306.07982 15.63157 -145.22412
#
# Velocity S-wave (km/s) = -12.96860 2.93074 -8.93296
# Velocity P-wave (km/s) = 14.68751 6.64417 9.26223
#
# Compressibility (1/GPa) = 0.06446714
#
# Stress axis : x y z
#
# Youngs Moduli (GPa) = 12.76401 59.93897 112.56897
#
# Poissons Ratio (x) = 0.60614 0.32649
# Poissons Ratio (y) = 0.12908 0.75529
# Poissons Ratio (z) = 0.03702 0.40217
#
# Static dielectric constant tensor:
#      x y z
#    x 2.674710 0.000000 0.000000 
#    y 0.000000 3.329240 0.000000 
#    z 0.000000 0.000000 3.908120 
# 
# 
# High freq. dielectric constant tensor:
#      x y z
#    x 1.632130 0.000000 0.000000 
#    y 0.000000 1.687770 0.000000 
#    z 0.000000 0.000000 1.735150 
# 
# From -- ./inp_files/6405.got.cif
#   From: 2010.03.12/outbox.cif.g09.slc.cpg/sg25_4_cif.got.tgz:6405.got - 2010.04.14 03:30:10.
