data_PCOD8166522
_publ_section_title
;
Structure prediction by ZEFSAII (Michael W. Deem and Ramdas Pophale) SiO2 
 PCOD8166522
Probable space group: P M M 2
;
_chemical_formula_sum "Si O2"
_cell_formula_units_Z 32
_cell_length_a 9.141051
_cell_length_b 14.041476
_cell_length_c 13.042464
_cell_angle_alpha 90.000000
_cell_angle_beta 90.000000
_cell_angle_gamma 90.000000
_cell_volume 1674.050445
_symmetry_space_group_name_H-M "P M M 2"
_symmetry_group_IT_number 25
_symmetry_cell_setting 'orthorhombic'
loop_
_space_group_symop_operation_xyz
x,y,z
-x,-y,z
-x,y,z
x,-y,z
loop_
_atom_site_type_symbol
_atom_site_label
_atom_site_fract_x
_atom_site_fract_y
_atom_site_fract_z
Si Si1 0.671407 0.110044 0.969510
Si Si2 0.826000 0.607290 0.253681
Si Si3 0.333574 0.613070 0.655281
Si Si4 0.161484 0.887672 0.770159
Si Si5 0.172893 0.104283 0.546027
Si Si6 0.829369 0.609263 0.855675
Si Si7 0.826938 0.299059 0.463115
Si Si8 0.827597 0.723480 0.058049
O O1 0.500000 0.126983 0.971822
O O2 0.730900 0.146633 0.859565
O O3 0.748342 0.173806 0.056768
O O4 0.711779 0.000000 0.990224
O O5 0.763018 0.500000 0.249826
O O6 0.768827 0.658711 0.356388
O O7 0.000000 0.604328 0.252205
O O8 0.768022 0.665735 0.156084
O O9 0.500000 0.649713 0.652845
O O10 0.325067 0.500000 0.657174
O O11 0.255494 0.653436 0.757893
O O12 0.250394 0.646976 0.554851
O O13 0.228622 0.860976 0.658598
O O14 0.000000 0.841129 0.788162
O O15 0.144547 0.000000 0.773507
O O16 0.215107 0.186180 0.464783
O O17 0.000000 0.093476 0.555527
O O18 0.238817 0.000000 0.514756
O O19 0.784992 0.500000 0.874099
O O20 0.782811 0.664956 0.957400
O O21 0.000000 0.619224 0.832593
O O22 0.000000 0.313764 0.475451
O O23 0.000000 0.740431 0.065760
#
# Coordination Sequence:
#
# PCOD8166522 Si02
#       8
#     4   4   4   4   4   4   4   4
#     4  10  21  35  50  73 107 143 178 218 265 317
#     4   9  18  34  56  82 109 136 173 225 274 314
#     4  10  21  35  50  73 108 142 170 211 269 326
#     4   8  14  27  47  69  97 136 177 215 254 300
#     4   8  15  28  47  74 107 139 173 213 255 301
#     4   9  18  33  53  76 102 134 173 217 267 325
#     4  10  19  32  55  82 107 139 180 218 261 315
#     4  10  20  34  55  79 103 136 181 225 268 315
#
# _framework density 19.115314999999999
#
# number of rings (size 3 to 8) (size 9 to 14) (size 15 to 20)
#    0.000    2.750    0.000    2.250    1.750    4.000 
#    0.000    1.250    0.000    4.500    0.000    0.000 
#    0.000    0.000    0.000    0.000    0.000    0.000 
#
# Total GULP energy -396701.812696 kJ/mol
# GULP energy per Si atom -12396.931647 kJ/mol
# Density = 1.907181 g / cm^3
# Si number density = 19.115315 Si / 1000 Ang^3
#
#
#
# Elastic Constant Matrix: (Units=GPa)
#
#
# Indices 1 2 3 4 5 6 
#
# 1 51.6762 33.4368 46.5710 0.0000 0.0000 0.0000
# 2 33.4368 107.6858 79.1867 0.0000 0.0000 0.0000
# 3 46.5710 79.1867 156.6365 0.0000 0.0000 0.0000
# 4 0.0000 0.0000 0.0000 35.6810 0.0000 0.0000
# 5 0.0000 0.0000 0.0000 0.0000 -2.2961 0.0000
# 6 0.0000 0.0000 0.0000 0.0000 0.0000 18.9618
#
#
#
# Elastic Compliance Matrix: (Units=1/GPa)
#
#
# Indices 1 2 3 4 5 6 
#
# 1 0.027485 -0.004019 -0.006140 0.000000 0.000000 0.000000
# 2 -0.004019 0.015369 -0.006575 0.000000 0.000000 0.000000
# 3 -0.006140 -0.006575 0.011534 0.000000 0.000000 0.000000
# 4 0.000000 0.000000 0.000000 0.028026 0.000000 0.000000
# 5 0.000000 0.000000 0.000000 0.000000 -0.435526 0.000000
# 6 0.000000 0.000000 0.000000 0.000000 0.000000 0.052738
#
#
# Mechanical properties :
#
#
# Convention : Reuss Voigt Hill
#
# Bulk Modulus (GPa) = 47.80130 70.48751 59.14440
# Shear Modulus (GPa) = -19.23574 20.92295 0.84360
#
# Velocity S-wave (km/s) = -3.17566 3.31201 0.66504
# Velocity P-wave (km/s) = 3.40803 7.18198 5.62119
#
# Compressibility (1/GPa) = 0.02091994
#
# Stress axis : x y z
#
# Youngs Moduli (GPa) = 36.38310 65.06628 86.70371
#
# Poissons Ratio (x) = 0.26152 0.53236
# Poissons Ratio (y) = 0.14623 0.57005
# Poissons Ratio (z) = 0.22339 0.42779
#
# Static dielectric constant tensor:
#      x y z
#    x 3.185290 0.000000 0.000000 
#    y 0.000000 3.757080 0.000000 
#    z 0.000000 0.000000 3.560580 
# 
# 
# High freq. dielectric constant tensor:
#      x y z
#    x 1.703960 0.000000 0.000000 
#    y 0.000000 1.757350 0.000000 
#    z 0.000000 0.000000 1.730530 
# 
# From -- ./inp_files/4233.got.cif
#   From: 2010.03.12/outbox.cif.g09.slc.cpg/sg25_3_cif.got.tgz:4233.got - 2010.04.14 03:30:10.
