data_PCOD8166511
_publ_section_title
;
Structure prediction by ZEFSAII (Michael W. Deem and Ramdas Pophale) SiO2 
 PCOD8166511
Probable space group: P M M 2
;
_chemical_formula_sum "Si O2"
_cell_formula_units_Z 32
_cell_length_a 14.050682
_cell_length_b 9.662147
_cell_length_c 12.756537
_cell_angle_alpha 90.000000
_cell_angle_beta 90.000000
_cell_angle_gamma 90.000000
_cell_volume 1731.824337
_symmetry_space_group_name_H-M "P M M 2"
_symmetry_group_IT_number 25
_symmetry_cell_setting 'orthorhombic'
loop_
_space_group_symop_operation_xyz
x,y,z
-x,-y,z
-x,y,z
x,-y,z
loop_
_atom_site_type_symbol
_atom_site_label
_atom_site_fract_x
_atom_site_fract_y
_atom_site_fract_z
Si Si1 0.393429 0.164018 0.904950
Si Si2 0.699101 0.837634 0.688801
Si Si3 0.308578 0.148049 0.330480
Si Si4 0.896039 0.839762 0.597992
Si Si5 0.612164 0.340990 0.505376
Si Si6 0.106801 0.653329 0.160552
Si Si7 0.104859 0.789095 0.369855
Si Si8 0.274294 0.160822 0.100497
O O1 0.500000 0.226842 0.899921
O O2 0.334447 0.210781 0.802932
O O3 0.399666 0.000000 0.910262
O O4 0.340029 0.221193 0.007670
O O5 0.812179 0.805666 0.679810
O O6 0.642060 0.747240 0.605587
O O7 0.677374 0.000000 0.668655
O O8 0.342753 0.273652 0.401768
O O9 0.195317 0.116983 0.341090
O O10 0.330947 0.185283 0.209508
O O11 0.357809 0.000000 0.359964
O O12 0.884286 0.746318 0.492741
O O13 0.000000 0.811080 0.650101
O O14 0.888561 0.000000 0.561893
O O15 0.500000 0.334603 0.493638
O O16 0.647176 0.500000 0.515304
O O17 0.139788 0.500000 0.129658
O O18 0.110685 0.661837 0.288053
O O19 0.174137 0.760322 0.100573
O O20 0.000000 0.683419 0.120927
O O21 0.000000 0.862093 0.356597
O O22 0.251449 0.000000 0.082065
#
# Coordination Sequence:
#
# PCOD8166511 Si02
#       8
#     4   4   4   4   4   4   4   4
#     4   9  18  34  57  82 105 133 175 229 278 316
#     4  10  19  35  59  82 104 135 178 219 261 318
#     4  10  19  32  52  78 105 137 176 216 259 316
#     4   9  16  27  46  76 111 140 168 207 255 306
#     4  11  24  38  51  72 105 140 172 215 272 324
#     4   9  18  32  50  75 108 146 184 217 256 312
#     4   9  16  27  46  74 108 141 172 209 252 302
#     4   9  19  34  53  79 108 137 176 224 271 315
#
# _framework density 18.477623000000001
#
# number of rings (size 3 to 8) (size 9 to 14) (size 15 to 20)
#    0.000    2.500    1.250    1.125    0.000    5.500 
#    0.000    6.250    0.000    3.750    0.000    0.000 
#    0.000    0.000    0.000    0.000    0.000    0.000 
#
# Total GULP energy -396447.430469 kJ/mol
# GULP energy per Si atom -12388.982202 kJ/mol
# Density = 1.843557 g / cm^3
# Si number density = 18.477623 Si / 1000 Ang^3
#
#
#
# Elastic Constant Matrix: (Units=GPa)
#
#
# Indices 1 2 3 4 5 6 
#
# 1 122.8747 38.7841 72.9133 0.0000 0.0000 0.0000
# 2 38.7841 72.6192 41.4777 0.0000 0.0000 0.0000
# 3 72.9133 41.4777 135.7454 0.0000 0.0000 0.0000
# 4 0.0000 0.0000 0.0000 8.3995 0.0000 0.0000
# 5 0.0000 0.0000 0.0000 0.0000 29.1697 0.0000
# 6 0.0000 0.0000 0.0000 0.0000 0.0000 18.3648
#
#
#
# Elastic Compliance Matrix: (Units=1/GPa)
#
#
# Indices 1 2 3 4 5 6 
#
# 1 0.012632 -0.003478 -0.005722 0.000000 0.000000 0.000000
# 2 -0.003478 0.017639 -0.003522 0.000000 0.000000 0.000000
# 3 -0.005722 -0.003522 0.011516 0.000000 0.000000 0.000000
# 4 0.000000 0.000000 0.000000 0.119055 0.000000 0.000000
# 5 0.000000 0.000000 0.000000 0.000000 0.034282 0.000000
# 6 0.000000 0.000000 0.000000 0.000000 0.000000 0.054452
#
#
# Mechanical properties :
#
#
# Convention : Reuss Voigt Hill
#
# Bulk Modulus (GPa) = 61.18519 70.84329 66.01424
# Shear Modulus (GPa) = 17.82733 23.05775 20.44254
#
# Velocity S-wave (km/s) = 3.10950 3.53636 3.32978
# Velocity P-wave (km/s) = 6.78801 7.42278 7.11248
#
# Compressibility (1/GPa) = 0.01634383
#
# Stress axis : x y z
#
# Youngs Moduli (GPa) = 79.16613 56.69117 86.83281
#
# Poissons Ratio (x) = 0.19717 0.49687
# Poissons Ratio (y) = 0.27533 0.30580
# Poissons Ratio (z) = 0.45300 0.19965
#
# Static dielectric constant tensor:
#      x y z
#    x 3.598950 0.000000 0.000000 
#    y 0.000000 3.111320 0.000000 
#    z 0.000000 0.000000 3.361950 
# 
# 
# High freq. dielectric constant tensor:
#      x y z
#    x 1.725580 0.000000 0.000000 
#    y 0.000000 1.680860 0.000000 
#    z 0.000000 0.000000 1.700610 
# 
# From -- ./inp_files/4950.got.cif
#   From: 2010.03.12/outbox.cif.g09.slc.cpg/sg25_3_cif.got.tgz:4950.got - 2010.04.14 03:30:10.
