data_PCOD8166698
_publ_section_title
;
Structure prediction by ZEFSAII (Michael W. Deem and Ramdas Pophale) SiO2 
 PCOD8166698
Probable space group: P M M 2
;
_chemical_formula_sum "Si O2"
_cell_formula_units_Z 24
_cell_length_a 15.046132
_cell_length_b 9.200065
_cell_length_c 9.492694
_cell_angle_alpha 90.000000
_cell_angle_beta 90.000000
_cell_angle_gamma 90.000000
_cell_volume 1314.029892
_symmetry_space_group_name_H-M "P M M 2"
_symmetry_group_IT_number 25
_symmetry_cell_setting 'orthorhombic'
loop_
_space_group_symop_operation_xyz
x,y,z
-x,-y,z
-x,y,z
x,-y,z
loop_
_atom_site_type_symbol
_atom_site_label
_atom_site_fract_x
_atom_site_fract_y
_atom_site_fract_z
Si Si1 0.603769 0.832575 0.310870
Si Si2 0.899341 0.670198 0.284476
Si Si3 0.597935 0.827364 0.994669
Si Si4 0.249511 0.829043 0.787709
Si Si5 0.745070 0.328057 0.493036
Si Si6 0.899150 0.832174 0.005564
O O1 0.500000 0.815246 0.346171
O O2 0.657950 0.732872 0.417448
O O3 0.633096 0.000000 0.329760
O O4 0.623740 0.776531 0.152266
O O5 0.894777 0.500000 0.257826
O O6 0.834093 0.718030 0.409588
O O7 0.865934 0.744874 0.141443
O O8 0.000000 0.719712 0.322740
O O9 0.500000 0.767764 0.953653
O O10 0.668351 0.770274 0.881279
O O11 0.596346 0.000000 0.996538
O O12 0.247129 0.739622 0.646010
O O13 0.258816 0.000000 0.755254
O O14 0.159436 0.792399 0.870694
O O15 0.735880 0.500000 0.505566
O O16 0.000000 0.791090 0.966463
O O17 0.888266 0.000000 0.045259
#
# Coordination Sequence:
#
# PCOD8166698 Si02
#       6
#     4   4   4   4   4   4
#     4   9  18  35  59  81 100 129 170 212 257 311
#     4   9  19  36  55  74  99 135 177 216 257 308
#     4   8  15  30  53  77  96 120 162 209 246 290
#     4  10  20  33  50  73 103 136 167 204 253 307
#     4  11  23  35  49  74 108 141 173 212 255 300
#     4   9  18  33  54  79 102 126 165 218 266 304
#
# _framework density 18.264426
#
# number of rings (size 3 to 8) (size 9 to 14) (size 15 to 20)
#    0.000    2.667    0.000    2.500    0.000    5.000 
#    0.000    2.500    0.000    1.000    0.000    0.000 
#    0.000    0.000    0.000    0.000    0.000    0.000 
#
# Total GULP energy -297600.812605 kJ/mol
# GULP energy per Si atom -12400.033859 kJ/mol
# Density = 1.822286 g / cm^3
# Si number density = 18.264426 Si / 1000 Ang^3
#
#
#
# Elastic Constant Matrix: (Units=GPa)
#
#
# Indices 1 2 3 4 5 6 
#
# 1 113.0179 46.7604 86.0216 0.0000 0.0000 0.0000
# 2 46.7604 51.8897 58.6231 0.0000 0.0000 0.0000
# 3 86.0216 58.6231 159.1813 0.0000 0.0000 0.0000
# 4 0.0000 0.0000 0.0000 19.3162 0.0000 0.0000
# 5 0.0000 0.0000 0.0000 0.0000 20.6868 0.0000
# 6 0.0000 0.0000 0.0000 0.0000 0.0000 21.7736
#
#
#
# Elastic Compliance Matrix: (Units=1/GPa)
#
#
# Indices 1 2 3 4 5 6 
#
# 1 0.016942 -0.008432 -0.006050 0.000000 0.000000 0.000000
# 2 -0.008432 0.037200 -0.009143 0.000000 0.000000 0.000000
# 3 -0.006050 -0.009143 0.012919 0.000000 0.000000 0.000000
# 4 0.000000 0.000000 0.000000 0.051770 0.000000 0.000000
# 5 0.000000 0.000000 0.000000 0.000000 0.048340 0.000000
# 6 0.000000 0.000000 0.000000 0.000000 0.000000 0.045927
#
#
# Mechanical properties :
#
#
# Convention : Reuss Voigt Hill
#
# Bulk Modulus (GPa) = 50.47971 78.54434 64.51203
# Shear Modulus (GPa) = 18.73003 21.20092 19.96547
#
# Velocity S-wave (km/s) = 3.20580 3.41071 3.30985
# Velocity P-wave (km/s) = 6.43438 7.65558 7.07139
#
# Compressibility (1/GPa) = 0.01980994
#
# Stress axis : x y z
#
# Youngs Moduli (GPa) = 59.02624 26.88185 77.40630
#
# Poissons Ratio (x) = 0.22666 0.46831
# Poissons Ratio (y) = 0.49770 0.70775
# Poissons Ratio (z) = 0.35711 0.24579
#
# Static dielectric constant tensor:
#      x y z
#    x 3.762480 0.000000 0.000000 
#    y 0.000000 3.138840 0.000000 
#    z 0.000000 0.000000 3.343580 
# 
# 
# High freq. dielectric constant tensor:
#      x y z
#    x 1.722270 0.000000 0.000000 
#    y 0.000000 1.684310 0.000000 
#    z 0.000000 0.000000 1.705750 
# 
# From -- ./inp_files/1987.got.cif
#   From: 2010.03.12/outbox.cif.g09.slc.cpg/sg25_1_cif.got.tgz:1987.got - 2010.04.14 03:30:10.
