data_PCOD8166706
_publ_section_title
;
Structure prediction by ZEFSAII (Michael W. Deem and Ramdas Pophale) SiO2 
 PCOD8166706
Probable space group: P M M 2
;
_chemical_formula_sum "Si O2"
_cell_formula_units_Z 32
_cell_length_a 9.182262
_cell_length_b 9.430154
_cell_length_c 20.669086
_cell_angle_alpha 90.000000
_cell_angle_beta 90.000000
_cell_angle_gamma 90.000000
_cell_volume 1789.739148
_symmetry_space_group_name_H-M "P M M 2"
_symmetry_group_IT_number 25
_symmetry_cell_setting 'orthorhombic'
loop_
_space_group_symop_operation_xyz
x,y,z
-x,-y,z
-x,y,z
x,-y,z
loop_
_atom_site_type_symbol
_atom_site_label
_atom_site_fract_x
_atom_site_fract_y
_atom_site_fract_z
Si Si1 0.662259 0.831312 0.366290
Si Si2 0.168849 0.336230 0.000793
Si Si3 0.673455 0.842205 0.507509
Si Si4 0.167148 0.832108 0.241880
Si Si5 0.173209 0.160427 0.878053
Si Si6 0.669781 0.664064 0.627500
Si Si7 0.171179 0.663409 0.755903
Si Si8 0.329685 0.336060 0.131561
O O1 0.500000 0.770623 0.352186
O O2 0.720538 0.780727 0.436932
O O3 0.771297 0.777823 0.310754
O O4 0.654528 0.000000 0.367847
O O5 0.192132 0.500000 0.981749
O O6 0.228548 0.241114 0.941971
O O7 0.000000 0.304915 0.015771
O O8 0.261176 0.292862 0.063133
O O9 0.500000 0.846278 0.508815
O O10 0.734195 0.743981 0.564851
O O11 0.736822 0.000000 0.518144
O O12 0.258073 0.759751 0.185817
O O13 0.000000 0.784986 0.236905
O O14 0.185340 0.000000 0.234856
O O15 0.231893 0.242768 0.815057
O O16 0.000000 0.162259 0.877236
O O17 0.233805 0.000000 0.877985
O O18 0.500000 0.695585 0.637056
O O19 0.702114 0.500000 0.615985
O O20 0.751719 0.719527 0.691129
O O21 0.211618 0.500000 0.769970
O O22 0.000000 0.682960 0.746702
O O23 0.500000 0.303720 0.128975
O O24 0.297164 0.500000 0.147208
#
# Coordination Sequence:
#
# PCOD8166706 Si02
#       8
#     4   4   4   4   4   4   4   4
#     4   8  14  27  47  68  91 122 159 196 235 282
#     4   9  17  31  51  71  92 122 157 191 232 284
#     4   8  14  26  45  66  88 119 157 192 229 277
#     4  10  20  33  51  75 101 130 164 201 242 289
#     4   9  17  29  47  71  95 118 150 193 233 271
#     4   9  17  29  45  66  91 118 151 192 233 272
#     4   9  17  30  47  65  88 121 156 186 223 276
#     4  10  21  36  53  74 100 130 164 201 241 286
#
# _framework density 17.8797
#
# number of rings (size 3 to 8) (size 9 to 14) (size 15 to 20)
#    0.000    3.000    0.000    1.875    0.000    4.000 
#    0.000    3.125    0.000    6.750    0.000    0.000 
#    0.000    0.000    0.000    0.000    0.000    0.000 
#
# Total GULP energy -396739.272416 kJ/mol
# GULP energy per Si atom -12398.102263 kJ/mol
# Density = 1.783901 g / cm^3
# Si number density = 17.879700 Si / 1000 Ang^3
#
#
#
# Elastic Constant Matrix: (Units=GPa)
#
#
# Indices 1 2 3 4 5 6 
#
# 1 58.2648 30.4990 60.0415 0.0000 0.0000 0.0000
# 2 30.4990 68.8220 74.7126 0.0000 0.0000 0.0000
# 3 60.0415 74.7126 188.1575 0.0000 0.0000 0.0000
# 4 0.0000 0.0000 0.0000 34.2328 0.0000 0.0000
# 5 0.0000 0.0000 0.0000 0.0000 32.5089 0.0000
# 6 0.0000 0.0000 0.0000 0.0000 0.0000 17.0623
#
#
#
# Elastic Compliance Matrix: (Units=1/GPa)
#
#
# Indices 1 2 3 4 5 6 
#
# 1 0.026334 -0.004478 -0.006625 0.000000 0.000000 0.000000
# 2 -0.004478 0.026301 -0.009014 0.000000 0.000000 0.000000
# 3 -0.006625 -0.009014 0.011008 0.000000 0.000000 0.000000
# 4 0.000000 0.000000 0.000000 0.029212 0.000000 0.000000
# 5 0.000000 0.000000 0.000000 0.000000 0.030761 0.000000
# 6 0.000000 0.000000 0.000000 0.000000 0.000000 0.058609
#
#
# Mechanical properties :
#
#
# Convention : Reuss Voigt Hill
#
# Bulk Modulus (GPa) = 42.72048 71.75006 57.23527
# Shear Modulus (GPa) = 21.71438 26.76022 24.23730
#
# Velocity S-wave (km/s) = 3.48871 3.87289 3.68581
# Velocity P-wave (km/s) = 6.33824 7.75987 7.08480
#
# Compressibility (1/GPa) = 0.02340797
#
# Stress axis : x y z
#
# Youngs Moduli (GPa) = 37.97329 38.02199 90.84125
#
# Poissons Ratio (x) = 0.17026 0.60185
# Poissons Ratio (y) = 0.17004 0.81888
# Poissons Ratio (z) = 0.25158 0.34274
#
# Static dielectric constant tensor:
#      x y z
#    x 2.748040 0.000000 0.000000 
#    y 0.000000 3.250180 0.000000 
#    z 0.000000 0.000000 3.659980 
# 
# 
# High freq. dielectric constant tensor:
#      x y z
#    x 1.662970 0.000000 0.000000 
#    y 0.000000 1.673650 0.000000 
#    z 0.000000 0.000000 1.708470 
# 
# From -- ./inp_files/6570.got.cif
#   From: 2010.03.12/outbox.cif.g09.slc.cpg/sg25_4_cif.got.tgz:6570.got - 2010.04.14 03:30:10.
