data_PCOD8166884
_publ_section_title
;
Structure prediction by ZEFSAII (Michael W. Deem and Ramdas Pophale) SiO2 
 PCOD8166884
Probable space group: P M M 2
;
_chemical_formula_sum "Si O2"
_cell_formula_units_Z 28
_cell_length_a 9.420898
_cell_length_b 9.171960
_cell_length_c 17.916629
_cell_angle_alpha 90.000000
_cell_angle_beta 90.000000
_cell_angle_gamma 90.000000
_cell_volume 1548.141863
_symmetry_space_group_name_H-M "P M M 2"
_symmetry_group_IT_number 25
_symmetry_cell_setting 'orthorhombic'
loop_
_space_group_symop_operation_xyz
x,y,z
-x,-y,z
-x,y,z
x,-y,z
loop_
_atom_site_type_symbol
_atom_site_label
_atom_site_fract_x
_atom_site_fract_y
_atom_site_fract_z
Si Si1 0.837206 0.169353 0.941980
Si Si2 0.834982 0.832146 0.519521
Si Si3 0.836554 0.328103 0.668965
Si Si4 0.343038 0.826767 0.381246
Si Si5 0.666267 0.169571 0.796327
Si Si6 0.163244 0.670613 0.090802
Si Si7 0.667913 0.833766 0.215677
O O1 0.737960 0.217268 0.873765
O O2 0.000000 0.207518 0.921476
O O3 0.819020 0.000000 0.960449
O O4 0.784536 0.257053 0.014014
O O5 0.786470 0.739096 0.590560
O O6 0.758585 0.767078 0.446261
O O7 0.000000 0.814829 0.503936
O O8 0.792837 0.000000 0.534320
O O9 0.816682 0.500000 0.665175
O O10 0.735512 0.264500 0.731849
O O11 0.000000 0.284996 0.685807
O O12 0.500000 0.762789 0.395594
O O13 0.288471 0.780653 0.299023
O O14 0.348588 0.000000 0.383176
O O15 0.500000 0.203853 0.800919
O O16 0.695855 0.000000 0.779675
O O17 0.186787 0.500000 0.083053
O O18 0.255677 0.728022 0.158639
O O19 0.000000 0.711559 0.106048
O O20 0.500000 0.821106 0.205262
O O21 0.717458 0.000000 0.201748
#
# Coordination Sequence:
#
# PCOD8166884 Si02
#       7
#     4   4   4   4   4   4   4
#     4   9  18  34  55  76 100 133 171 209 250 298
#     4   9  17  30  50  75 100 128 166 210 253 298
#     4  10  21  36  53  74 103 139 174 207 248 299
#     4   8  15  29  49  73  99 127 163 208 255 300
#     4  10  21  36  55  80 106 131 164 208 255 301
#     4  10  21  35  51  75 106 137 170 208 251 300
#     4   9  18  33  53  76 102 134 172 212 254 301
#
# _framework density 18.086196999999999
#
# number of rings (size 3 to 8) (size 9 to 14) (size 15 to 20)
#    0.000    2.714    0.000    2.143    0.000    5.143 
#    0.000    6.429    0.000    2.571    0.000    0.000 
#    0.000    0.000    0.000    0.000    0.000    0.000 
#
# Total GULP energy -347215.254035 kJ/mol
# GULP energy per Si atom -12400.544787 kJ/mol
# Density = 1.804503 g / cm^3
# Si number density = 18.086197 Si / 1000 Ang^3
#
#
#
# Elastic Constant Matrix: (Units=GPa)
#
#
# Indices 1 2 3 4 5 6 
#
# 1 76.0636 39.8773 80.5689 0.0000 0.0000 0.0000
# 2 39.8773 59.7886 64.4620 0.0000 0.0000 0.0000
# 3 80.5689 64.4620 176.4366 0.0000 0.0000 0.0000
# 4 0.0000 0.0000 0.0000 -2.9957 0.0000 0.0000
# 5 0.0000 0.0000 0.0000 0.0000 -34.9520 0.0000
# 6 0.0000 0.0000 0.0000 0.0000 0.0000 22.7326
#
#
#
# Elastic Compliance Matrix: (Units=1/GPa)
#
#
# Indices 1 2 3 4 5 6 
#
# 1 0.027576 -0.007945 -0.009689 0.000000 0.000000 0.000000
# 2 -0.007945 0.029885 -0.007291 0.000000 0.000000 0.000000
# 3 -0.009689 -0.007291 0.012756 0.000000 0.000000 0.000000
# 4 0.000000 0.000000 0.000000 -0.333808 0.000000 0.000000
# 5 0.000000 0.000000 0.000000 0.000000 -0.028611 0.000000
# 6 0.000000 0.000000 0.000000 0.000000 0.000000 0.043990
#
#
# Mechanical properties :
#
#
# Convention : Reuss Voigt Hill
#
# Bulk Modulus (GPa) = 49.10062 75.78945 62.44503
# Shear Modulus (GPa) = -26.09973 5.44901 -10.32536
#
# Velocity S-wave (km/s) = -3.80290 1.73763 -2.39194
# Velocity P-wave (km/s) = 2.81501 6.78390 5.19354
#
# Compressibility (1/GPa) = 0.02036634
#
# Stress axis : x y z
#
# Youngs Moduli (GPa) = 36.26380 33.46122 78.39453
#
# Poissons Ratio (x) = 0.26586 0.75960
# Poissons Ratio (y) = 0.28813 0.57154
# Poissons Ratio (z) = 0.35137 0.24395
#
# Static dielectric constant tensor:
#      x y z
#    x 3.647580 0.000000 0.000000 
#    y 0.000000 3.156850 0.000000 
#    z 0.000000 0.000000 3.542360 
# 
# 
# High freq. dielectric constant tensor:
#      x y z
#    x 1.695450 0.000000 0.000000 
#    y 0.000000 1.680920 0.000000 
#    z 0.000000 0.000000 1.713210 
# 
# From -- ./inp_files/6030.got.cif
#   From: 2010.03.12/outbox.cif.g09.slc.cpg/sg25_4_cif.got.tgz:6030.got - 2010.04.14 03:30:10.
