data_PCOD8166583
_publ_section_title
;
Structure prediction by ZEFSAII (Michael W. Deem and Ramdas Pophale) SiO2 
 PCOD8166583
Probable space group: P M M 2
;
_chemical_formula_sum "Si O2"
_cell_formula_units_Z 28
_cell_length_a 9.657650
_cell_length_b 9.519277
_cell_length_c 17.777169
_cell_angle_alpha 90.000000
_cell_angle_beta 90.000000
_cell_angle_gamma 90.000000
_cell_volume 1634.323509
_symmetry_space_group_name_H-M "P M M 2"
_symmetry_group_IT_number 25
_symmetry_cell_setting 'orthorhombic'
loop_
_space_group_symop_operation_xyz
x,y,z
-x,-y,z
-x,y,z
x,-y,z
loop_
_atom_site_type_symbol
_atom_site_label
_atom_site_fract_x
_atom_site_fract_y
_atom_site_fract_z
Si Si1 0.158620 0.162424 0.307260
Si Si2 0.155938 0.162463 0.481685
Si Si3 0.336601 0.660227 0.592892
Si Si4 0.155241 0.666767 0.056567
Si Si5 0.346347 0.332572 0.759539
Si Si6 0.660687 0.333590 0.193665
Si Si7 0.155078 0.332934 0.890128
O O1 0.187324 0.190735 0.394579
O O2 0.265773 0.259836 0.263476
O O3 0.000000 0.202381 0.286947
O O4 0.185882 0.000000 0.287173
O O5 0.263150 0.247648 0.530809
O O6 0.000000 0.210598 0.500957
O O7 0.175321 0.000000 0.500749
O O8 0.500000 0.676697 0.583253
O O9 0.290846 0.500000 0.580510
O O10 0.292271 0.711483 0.676671
O O11 0.151839 0.500000 0.057299
O O12 0.265110 0.722034 0.117607
O O13 0.000000 0.723029 0.075107
O O14 0.202192 0.718386 0.973345
O O15 0.500000 0.272741 0.772913
O O16 0.349347 0.500000 0.763544
O O17 0.250936 0.266867 0.825063
O O18 0.500000 0.290023 0.190374
O O19 0.677815 0.500000 0.203164
O O20 0.162203 0.500000 0.886582
O O21 0.000000 0.280446 0.874441
#
# Coordination Sequence:
#
# PCOD8166583 Si02
#       7
#     4   4   4   4   4   4   4
#     4   9  19  36  54  69  88 118 155 192 231 277
#     4   9  19  35  52  70  91 116 152 195 233 274
#     4   9  18  31  46  68  98 127 155 188 227 274
#     4   8  14  25  40  59  87 122 155 187 225 268
#     4   8  14  24  37  56  86 121 151 181 221 267
#     4  10  20  31  45  70 100 125 152 188 229 273
#     4   8  13  21  35  57  84 115 152 189 222 259
#
# _framework density 17.132470000000001
#
# number of rings (size 3 to 8) (size 9 to 14) (size 15 to 20)
#    0.000    3.286    0.000    3.000    0.000    4.000 
#    0.000    8.571    0.000    0.000    0.000    1.000 
#    0.000    5.714    0.000    0.000    0.000    0.000 
#
# Total GULP energy -347032.606334 kJ/mol
# GULP energy per Si atom -12394.021655 kJ/mol
# Density = 1.709348 g / cm^3
# Si number density = 17.132470 Si / 1000 Ang^3
#
#
#
# Elastic Constant Matrix: (Units=GPa)
#
#
# Indices 1 2 3 4 5 6 
#
# 1 101.0737 32.9355 78.3663 0.0000 0.0000 0.0000
# 2 32.9355 28.5452 39.4454 0.0000 0.0000 0.0000
# 3 78.3663 39.4454 124.9401 0.0000 0.0000 0.0000
# 4 0.0000 0.0000 0.0000 -4.0558 0.0000 0.0000
# 5 0.0000 0.0000 0.0000 0.0000 34.3838 0.0000
# 6 0.0000 0.0000 0.0000 0.0000 0.0000 22.1539
#
#
#
# Elastic Compliance Matrix: (Units=1/GPa)
#
#
# Indices 1 2 3 4 5 6 
#
# 1 0.020944 -0.010665 -0.009769 0.000000 0.000000 0.000000
# 2 -0.010665 0.067575 -0.014645 0.000000 0.000000 0.000000
# 3 -0.009769 -0.014645 0.018755 0.000000 0.000000 0.000000
# 4 0.000000 0.000000 0.000000 -0.246560 0.000000 0.000000
# 5 0.000000 0.000000 0.000000 0.000000 0.029083 0.000000
# 6 0.000000 0.000000 0.000000 0.000000 0.000000 0.045139
#
#
# Mechanical properties :
#
#
# Convention : Reuss Voigt Hill
#
# Bulk Modulus (GPa) = 26.94336 61.78371 44.36354
# Shear Modulus (GPa) = 286.28236 17.41717 151.84976
#
# Velocity S-wave (km/s) = 12.94071 3.19190 9.42471
# Velocity P-wave (km/s) = 15.46103 7.05159 12.01600
#
# Compressibility (1/GPa) = 0.03711490
#
# Stress axis : x y z
#
# Youngs Moduli (GPa) = 47.74735 14.79846 53.31879
#
# Poissons Ratio (x) = 0.15782 0.52089
# Poissons Ratio (y) = 0.50922 0.78085
# Poissons Ratio (z) = 0.46646 0.21672
#
# Static dielectric constant tensor:
#      x y z
#    x 3.305800 0.000000 0.000000 
#    y 0.000000 2.705870 0.000000 
#    z 0.000000 0.000000 3.449920 
# 
# 
# High freq. dielectric constant tensor:
#      x y z
#    x 1.662230 0.000000 0.000000 
#    y 0.000000 1.607580 0.000000 
#    z 0.000000 0.000000 1.674410 
# 
# From -- ./inp_files/6212.got.cif
#   From: 2010.03.12/outbox.cif.g09.slc.cpg/sg25_4_cif.got.tgz:6212.got - 2010.04.14 03:30:10.
