data_PCOD8166836
_publ_section_title
;
Structure prediction by ZEFSAII (Michael W. Deem and Ramdas Pophale) SiO2 
 PCOD8166836
Probable space group: P M M 2
;
_chemical_formula_sum "Si O2"
_cell_formula_units_Z 24
_cell_length_a 12.624918
_cell_length_b 8.911484
_cell_length_c 11.740995
_cell_angle_alpha 90.000000
_cell_angle_beta 90.000000
_cell_angle_gamma 90.000000
_cell_volume 1320.941245
_symmetry_space_group_name_H-M "P M M 2"
_symmetry_group_IT_number 25
_symmetry_cell_setting 'orthorhombic'
loop_
_space_group_symop_operation_xyz
x,y,z
-x,-y,z
-x,y,z
x,-y,z
loop_
_atom_site_type_symbol
_atom_site_label
_atom_site_fract_x
_atom_site_fract_y
_atom_site_fract_z
Si Si1 0.313981 0.175603 0.105500
Si Si2 0.623263 0.673563 0.329403
Si Si3 0.316100 0.674130 0.582074
Si Si4 0.500000 0.176669 0.719672
Si Si5 0.118135 0.674915 0.725988
Si Si6 0.500000 0.322010 0.965690
Si Si7 0.881650 0.175079 0.957444
O O1 0.318993 0.223969 0.236639
O O2 0.339632 0.000000 0.093773
O O3 0.397027 0.268383 0.032259
O O4 0.196684 0.215599 0.060592
O O5 0.500000 0.716008 0.336726
O O6 0.637701 0.500000 0.296291
O O7 0.678352 0.711436 0.448903
O O8 0.345744 0.500000 0.604115
O O9 0.396526 0.777775 0.650095
O O10 0.197460 0.713390 0.623022
O O11 0.500000 0.258341 0.839727
O O12 0.500000 0.000000 0.740468
O O13 0.116172 0.500000 0.750394
O O14 0.160089 0.750104 0.841565
O O15 0.000000 0.733289 0.693892
O O16 0.500000 0.500000 0.960575
O O17 0.000000 0.232728 0.988816
O O18 0.882236 0.000000 0.933622
#
# Coordination Sequence:
#
# PCOD8166836 Si02
#       7
#     4   4   4   2   4   2   4
#     4  11  22  36  56  81 108 138 182 229 269 317
#     4  10  20  36  56  77 107 148 186 219 266 325
#     4  10  20  37  57  77 108 146 182 218 266 326
#     4  12  24  35  52  81 112 137 175 227 271 318
#     4   9  18  33  56  84 109 137 176 222 267 315
#     4  12  24  37  54  77 110 145 175 215 273 332
#     4   9  19  36  56  78 108 144 176 215 270 326
#
# _framework density 18.168862000000001
#
# number of rings (size 3 to 8) (size 9 to 14) (size 15 to 20)
#    0.000    1.833    1.667    3.000    0.000    5.333 
#    0.000    0.833    0.000    1.000    0.000    0.000 
#    0.000    0.000    0.000    0.000    0.000    0.000 
#
# Total GULP energy -297660.850600 kJ/mol
# GULP energy per Si atom -12402.535442 kJ/mol
# Density = 1.812751 g / cm^3
# Si number density = 18.168862 Si / 1000 Ang^3
#
#
#
# Elastic Constant Matrix: (Units=GPa)
#
#
# Indices 1 2 3 4 5 6 
#
# 1 117.6257 48.6736 77.2984 0.0000 0.0000 0.0000
# 2 48.6736 80.8986 56.4857 0.0000 0.0000 0.0000
# 3 77.2984 56.4857 142.2591 0.0000 0.0000 0.0000
# 4 0.0000 0.0000 0.0000 -216.4335 0.0000 0.0000
# 5 0.0000 0.0000 0.0000 0.0000 -692.1460 0.0000
# 6 0.0000 0.0000 0.0000 0.0000 0.0000 13.8244
#
#
#
# Elastic Compliance Matrix: (Units=1/GPa)
#
#
# Indices 1 2 3 4 5 6 
#
# 1 0.014266 -0.004387 -0.006010 0.000000 0.000000 0.000000
# 2 -0.004387 0.018452 -0.004943 0.000000 0.000000 0.000000
# 3 -0.006010 -0.004943 0.012257 0.000000 0.000000 0.000000
# 4 0.000000 0.000000 0.000000 -0.004620 0.000000 0.000000
# 5 0.000000 0.000000 0.000000 0.000000 -0.001445 0.000000
# 6 0.000000 0.000000 0.000000 0.000000 0.000000 0.072336
#
#
# Mechanical properties :
#
#
# Convention : Reuss Voigt Hill
#
# Bulk Modulus (GPa) = 69.94842 78.41097 74.17969
# Shear Modulus (GPa) = 34.08517 -168.39596 -67.15539
#
# Velocity S-wave (km/s) = 4.33600 -9.63769 -6.08622
# Velocity P-wave (km/s) = 7.97813 8.97754 2.91081
#
# Compressibility (1/GPa) = 0.01429625
#
# Stress axis : x y z
#
# Youngs Moduli (GPa) = 70.09481 54.19486 81.58292
#
# Poissons Ratio (x) = 0.23777 0.49030
# Poissons Ratio (y) = 0.30753 0.40324
# Poissons Ratio (z) = 0.42126 0.26787
#
# Static dielectric constant tensor:
#      x y z
#    x 17.745710 0.000000 0.000000 
#    y 0.000000 3.348170 0.000000 
#    z 0.000000 0.000000 3.447140 
# 
# 
# High freq. dielectric constant tensor:
#      x y z
#    x 1.706350 0.000000 0.000000 
#    y 0.000000 1.703210 0.000000 
#    z 0.000000 0.000000 1.703600 
# 
# From -- ./inp_files/4009.got.cif
#   From: 2010.03.12/outbox.cif.g09.slc.cpg/sg25_3_cif.got.tgz:4009.got - 2010.04.14 03:30:10.
