data_PCOD8166101
_publ_section_title
;
Structure prediction by ZEFSAII (Michael W. Deem and Ramdas Pophale) SiO2 
 PCOD8166101
Probable space group: I 21 21 21
;
_chemical_formula_sum "Si O2"
_cell_formula_units_Z 44
_cell_length_a 18.125529
_cell_length_b 8.818027
_cell_length_c 13.036172
_cell_angle_alpha 90.000000
_cell_angle_beta 90.000000
_cell_angle_gamma 90.000000
_cell_volume 2083.589675
_symmetry_space_group_name_H-M "I 21 21 21"
_symmetry_group_IT_number 24
_symmetry_cell_setting 'orthorhombic'
loop_
_space_group_symop_operation_xyz
x,y,z
-x,1/2-y,z
x,-y,1/2-z
1/2-x,y,-z
1/2+x,1/2+y,1/2+z
1/2-x,-y,1/2+z
1/2+x,1/2-y,-z
-x,1/2+y,1/2-z
loop_
_atom_site_type_symbol
_atom_site_label
_atom_site_fract_x
_atom_site_fract_y
_atom_site_fract_z
Si Si1 0.113514 0.709702 0.513272
Si Si2 0.356070 0.666738 0.710851
Si Si3 0.019746 0.998188 0.008024
Si Si4 0.000000 0.750000 0.177340
Si Si5 0.694094 0.824025 0.274387
Si Si6 0.065712 0.152972 0.688902
O O1 0.154659 0.656324 0.411367
O O2 0.083283 0.875956 0.482016
O O3 0.167918 0.717064 0.610174
O O4 0.051032 0.585059 0.537203
O O5 0.368390 0.500000 0.750000
O O6 0.427271 0.760555 0.750276
O O7 0.277404 0.734480 0.748211
O O8 0.046678 0.871191 0.929196
O O9 0.001297 0.906701 0.112292
O O10 0.642589 0.740815 0.192504
O O11 0.688536 0.000000 0.250000
O O12 0.000000 0.250000 0.741971
O O13 0.074114 0.000000 0.750000
#
# Coordination Sequence:
#
# PCOD8166101 Si02
#       6
#     8   8   8   4   8   8
#     4  11  22  44  65  99 130 175 221 271 329 397
#     4  11  25  45  70  93 131 181 225 273 329 395
#     4  11  23  38  71  98 131 173 223 269 326 391
#     4  12  24  46  68 100 128 178 232 274 318 394
#     4  11  25  43  67 100 136 176 216 273 336 399
#     4  12  22  40  66 102 136 173 215 269 337 398
#
# _framework density 21.117401999999998
#
# number of rings (size 3 to 8) (size 9 to 14) (size 15 to 20)
#    0.000    0.727    4.545    4.364    0.000    0.000 
#    3.273    0.909    0.000    0.000    0.000    0.000 
#    0.000    0.000    0.000    0.000    0.000    0.000 
#
# Total GULP energy -272739.203771 kJ/mol
# GULP energy per Si atom -12397.236535 kJ/mol
# Density = 2.106934 g / cm^3
# Si number density = 21.117402 Si / 1000 Ang^3
#
#
#
# Elastic Constant Matrix: (Units=GPa)
#
#
# Indices 1 2 3 4 5 6 
#
# 1 174.3010 54.5636 39.3434 0.0000 0.0000 0.0000
# 2 54.5636 83.2096 22.4239 0.0000 0.0000 0.0000
# 3 39.3434 22.4239 90.7834 0.0000 0.0000 0.0000
# 4 0.0000 0.0000 0.0000 30.5790 0.0000 0.0000
# 5 0.0000 0.0000 0.0000 0.0000 32.1259 0.0000
# 6 0.0000 0.0000 0.0000 0.0000 0.0000 13.0787
#
#
#
# Elastic Compliance Matrix: (Units=1/GPa)
#
#
# Indices 1 2 3 4 5 6 
#
# 1 0.007613 -0.004395 -0.002214 0.000000 0.000000 0.000000
# 2 -0.004395 0.015413 -0.001902 0.000000 0.000000 0.000000
# 3 -0.002214 -0.001902 0.012444 0.000000 0.000000 0.000000
# 4 0.000000 0.000000 0.000000 0.032702 0.000000 0.000000
# 5 0.000000 0.000000 0.000000 0.000000 0.031128 0.000000
# 6 0.000000 0.000000 0.000000 0.000000 0.000000 0.076460
#
#
# Mechanical properties :
#
#
# Convention : Reuss Voigt Hill
#
# Bulk Modulus (GPa) = 54.20738 64.55062 59.37900
# Shear Modulus (GPa) = 25.13434 30.62094 27.87764
#
# Velocity S-wave (km/s) = 3.45370 3.81206 3.63730
# Velocity P-wave (km/s) = 6.45208 7.07175 6.76901
#
# Compressibility (1/GPa) = 0.01844767
#
# Stress axis : x y z
#
# Youngs Moduli (GPa) = 131.35749 64.88144 80.35784
#
# Poissons Ratio (x) = 0.28519 0.17787
# Poissons Ratio (y) = 0.57738 0.15285
# Poissons Ratio (z) = 0.29076 0.12341
#
# Static dielectric constant tensor:
#      x y z
#    x 4.084560 0.000000 0.000000 
#    y 0.000000 3.618220 0.000000 
#    z 0.000000 0.000000 3.946970 
# 
# 
# High freq. dielectric constant tensor:
#      x y z
#    x 1.827900 0.000000 0.000000 
#    y 0.000000 1.831570 0.000000 
#    z 0.000000 0.000000 1.830140 
# 
# From -- ./inp_files/26957.got.cif
#   From: 2010.03.12/outbox.cif.g09.slc.cpg/sg24_14_cif.got.tgz:26957.got - 2010.04.14 03:06:53.
