data_PCOD8166902
_publ_section_title
;
Structure prediction by ZEFSAII (Michael W. Deem and Ramdas Pophale) SiO2 
 PCOD8166902
Probable space group: P M M 2
;
_chemical_formula_sum "Si O2"
_cell_formula_units_Z 32
_cell_length_a 9.627650
_cell_length_b 14.024971
_cell_length_c 12.933547
_cell_angle_alpha 90.000000
_cell_angle_beta 90.000000
_cell_angle_gamma 90.000000
_cell_volume 1746.384673
_symmetry_space_group_name_H-M "P M M 2"
_symmetry_group_IT_number 25
_symmetry_cell_setting 'orthorhombic'
loop_
_space_group_symop_operation_xyz
x,y,z
-x,-y,z
-x,y,z
x,-y,z
loop_
_atom_site_type_symbol
_atom_site_label
_atom_site_fract_x
_atom_site_fract_y
_atom_site_fract_z
Si Si1 0.335248 0.604723 0.657420
Si Si2 0.158939 0.888395 0.352293
Si Si3 0.653741 0.613187 0.429652
Si Si4 0.341840 0.112723 0.540632
Si Si5 0.840390 0.607217 0.242291
Si Si6 0.664249 0.111043 0.958885
Si Si7 0.335305 0.794974 0.749425
Si Si8 0.840444 0.793768 0.136379
O O1 0.500000 0.594718 0.656337
O O2 0.270150 0.500000 0.683145
O O3 0.290909 0.643634 0.543556
O O4 0.288597 0.683450 0.742099
O O5 0.254174 0.846043 0.444276
O O6 0.201010 0.839645 0.245379
O O7 0.000000 0.866527 0.381146
O O8 0.186179 0.000000 0.338378
O O9 0.500000 0.655281 0.407986
O O10 0.647122 0.500000 0.429279
O O11 0.756905 0.648434 0.340420
O O12 0.500000 0.147751 0.526049
O O13 0.278432 0.150500 0.648460
O O14 0.331290 0.000000 0.544019
O O15 0.793237 0.500000 0.209820
O O16 0.817771 0.679148 0.146019
O O17 0.000000 0.607891 0.276902
O O18 0.500000 0.126232 0.970483
O O19 0.723790 0.157000 0.853101
O O20 0.703510 0.000000 0.960398
O O21 0.738670 0.165161 0.051282
O O22 0.500000 0.805111 0.751521
O O23 0.000000 0.817957 0.107551
#
# Coordination Sequence:
#
# PCOD8166902 Si02
#       8
#     4   4   4   4   4   4   4   4
#     4   8  14  25  43  70 102 133 166 201 241 295
#     4   9  18  32  48  68  97 129 159 198 249 301
#     4   8  14  25  43  69 100 133 168 205 242 285
#     4   9  17  29  47  72  99 126 157 194 241 300
#     4   9  18  32  49  71 101 136 172 208 250 301
#     4  10  21  37  56  77 100 128 169 221 266 304
#     4   9  17  30  49  71  98 132 165 200 251 303
#     4  10  21  36  54  74  99 135 175 210 255 310
#
# _framework density 18.32357
#
# number of rings (size 3 to 8) (size 9 to 14) (size 15 to 20)
#    0.000    3.000    0.000    1.500    1.750    3.250 
#    0.000    2.500    0.000    3.000    0.000    0.000 
#    0.000    0.000    0.000    0.000    0.000    0.000 
#
# Total GULP energy -396629.825304 kJ/mol
# GULP energy per Si atom -12394.682041 kJ/mol
# Density = 1.828186 g / cm^3
# Si number density = 18.323570 Si / 1000 Ang^3
#
#
#
# Elastic Constant Matrix: (Units=GPa)
#
#
# Indices 1 2 3 4 5 6 
#
# 1 46.1914 34.4749 50.8098 0.0000 0.0000 0.0000
# 2 34.4749 84.1324 73.1505 0.0000 0.0000 0.0000
# 3 50.8098 73.1505 132.6457 0.0000 0.0000 0.0000
# 4 0.0000 0.0000 0.0000 32.0055 0.0000 0.0000
# 5 0.0000 0.0000 0.0000 0.0000 6.5848 0.0000
# 6 0.0000 0.0000 0.0000 0.0000 0.0000 16.0775
#
#
#
# Elastic Compliance Matrix: (Units=1/GPa)
#
#
# Indices 1 2 3 4 5 6 
#
# 1 0.038794 -0.005718 -0.011707 0.000000 0.000000 0.000000
# 2 -0.005718 0.023678 -0.010868 0.000000 0.000000 0.000000
# 3 -0.011707 -0.010868 0.018016 0.000000 0.000000 0.000000
# 4 0.000000 0.000000 0.000000 0.031245 0.000000 0.000000
# 5 0.000000 0.000000 0.000000 0.000000 0.151865 0.000000
# 6 0.000000 0.000000 0.000000 0.000000 0.000000 0.062199
#
#
# Mechanical properties :
#
#
# Convention : Reuss Voigt Hill
#
# Bulk Modulus (GPa) = 41.83434 64.42668 53.13051
# Shear Modulus (GPa) = 12.80906 17.90250 15.35578
#
# Velocity S-wave (km/s) = 2.64682 3.12912 2.89802
# Velocity P-wave (km/s) = 5.67638 6.94925 6.34482
#
# Compressibility (1/GPa) = 0.02390380
#
# Stress axis : x y z
#
# Youngs Moduli (GPa) = 25.77733 42.23311 55.50548
#
# Poissons Ratio (x) = 0.24149 0.64978
# Poissons Ratio (y) = 0.14740 0.60321
# Poissons Ratio (z) = 0.30176 0.45897
#
# Static dielectric constant tensor:
#      x y z
#    x 3.239430 0.000000 0.000000 
#    y 0.000000 3.647450 0.000000 
#    z 0.000000 0.000000 3.427740 
# 
# 
# High freq. dielectric constant tensor:
#      x y z
#    x 1.673010 0.000000 0.000000 
#    y 0.000000 1.728500 0.000000 
#    z 0.000000 0.000000 1.693170 
# 
# From -- ./inp_files/4292.got.cif
#   From: 2010.03.12/outbox.cif.g09.slc.cpg/sg25_3_cif.got.tgz:4292.got - 2010.04.14 03:30:10.
