data_PCOD8166993
_publ_section_title
;
Structure prediction by ZEFSAII (Michael W. Deem and Ramdas Pophale) SiO2 
 PCOD8166993
Probable space group: P M M 2
;
_chemical_formula_sum "Si O2"
_cell_formula_units_Z 24
_cell_length_a 26.906812
_cell_length_b 8.379017
_cell_length_c 5.108130
_cell_angle_alpha 90.000000
_cell_angle_beta 90.000000
_cell_angle_gamma 90.000000
_cell_volume 1151.641369
_symmetry_space_group_name_H-M "P M M 2"
_symmetry_group_IT_number 25
_symmetry_cell_setting 'orthorhombic'
loop_
_space_group_symop_operation_xyz
x,y,z
-x,-y,z
-x,y,z
x,-y,z
loop_
_atom_site_type_symbol
_atom_site_label
_atom_site_fract_x
_atom_site_fract_y
_atom_site_fract_z
Si Si1 0.773072 0.686348 0.172810
Si Si2 0.943957 0.690518 0.651564
Si Si3 0.114411 0.310030 0.152432
Si Si4 0.608049 0.814984 0.638774
Si Si5 0.557031 0.314947 0.138869
Si Si6 0.278427 0.814361 0.672184
O O1 0.770622 0.500000 0.105674
O O2 0.829199 0.752408 0.154510
O O3 0.753797 0.714579 0.465950
O O4 0.739807 0.781483 0.965844
O O5 0.944976 0.500000 0.651621
O O6 0.915393 0.758177 0.399935
O O7 0.000000 0.757705 0.656092
O O8 0.913890 0.756460 0.899480
O O9 0.114327 0.500000 0.159084
O O10 0.588179 0.786539 0.346822
O O11 0.664828 0.757382 0.651111
O O12 0.603496 0.000000 0.711456
O O13 0.576382 0.715057 0.846431
O O14 0.500000 0.260457 0.153362
O O15 0.562930 0.500000 0.207719
O O16 0.273314 0.000000 0.604919
#
# Coordination Sequence:
#
# PCOD8166993 Si02
#       6
#     4   4   4   4   4   4
#     4  11  22  37  59  85 114 151 192 235 287 343
#     4   9  15  24  40  64 100 143 176 211 273 339
#     4   9  17  28  43  69 104 137 176 226 273 326
#     4  11  24  41  62  87 116 153 194 237 284 335
#     4  11  24  41  62  90 122 153 188 234 284 335
#     4  11  24  41  59  84 118 151 190 240 287 335
#
# _framework density 20.839822000000002
#
# number of rings (size 3 to 8) (size 9 to 14) (size 15 to 20)
#    0.000    1.667    0.000    5.000    0.000   14.667 
#    0.000    0.000    0.000    0.000    0.000    0.000 
#    0.000   46.667    0.000    0.000    0.000    0.000 
#
# Total GULP energy -297743.319412 kJ/mol
# GULP energy per Si atom -12405.971642 kJ/mol
# Density = 2.079239 g / cm^3
# Si number density = 20.839822 Si / 1000 Ang^3
#
#
#
# Elastic Constant Matrix: (Units=GPa)
#
#
# Indices 1 2 3 4 5 6 
#
# 1 150.4561 35.6818 40.9380 0.0000 0.0000 0.0000
# 2 35.6818 30.4918 12.4065 0.0000 0.0000 0.0000
# 3 40.9380 12.4065 124.2879 0.0000 0.0000 0.0000
# 4 0.0000 0.0000 0.0000 27.3156 0.0000 0.0000
# 5 0.0000 0.0000 0.0000 0.0000 49.1649 0.0000
# 6 0.0000 0.0000 0.0000 0.0000 0.0000 -13.6975
#
#
#
# Elastic Compliance Matrix: (Units=1/GPa)
#
#
# Indices 1 2 3 4 5 6 
#
# 1 0.009723 -0.010502 -0.002154 0.000000 0.000000 0.000000
# 2 -0.010502 0.045526 -0.001085 0.000000 0.000000 0.000000
# 3 -0.002154 -0.001085 0.008864 0.000000 0.000000 0.000000
# 4 0.000000 0.000000 0.000000 0.036609 0.000000 0.000000
# 5 0.000000 0.000000 0.000000 0.000000 0.020340 0.000000
# 6 0.000000 0.000000 0.000000 0.000000 0.000000 -0.073006
#
#
# Mechanical properties :
#
#
# Convention : Reuss Voigt Hill
#
# Bulk Modulus (GPa) = 27.29961 53.69869 40.49915
# Shear Modulus (GPa) = 56.98067 26.97056 41.97561
#
# Velocity S-wave (km/s) = 5.23465 3.60138 4.49286
# Velocity P-wave (km/s) = 7.04724 6.56632 6.81102
#
# Compressibility (1/GPa) = 0.03663056
#
# Stress axis : x y z
#
# Youngs Moduli (GPa) = 102.84720 21.96530 112.81864
#
# Poissons Ratio (x) = 0.23067 0.24305
# Poissons Ratio (y) = 1.08006 0.12246
# Poissons Ratio (z) = 0.22157 0.02384
#
# Static dielectric constant tensor:
#      x y z
#    x 3.996850 0.000000 0.000000 
#    y 0.000000 3.301860 0.000000 
#    z 0.000000 0.000000 3.768550 
# 
# 
# High freq. dielectric constant tensor:
#      x y z
#    x 1.834690 0.000000 0.000000 
#    y 0.000000 1.781540 0.000000 
#    z 0.000000 0.000000 1.830690 
# 
# From -- ./inp_files/1271.got.cif
#   From: 2010.03.12/outbox.cif.g09.slc.cpg/sg25_1_cif.got.tgz:1271.got - 2010.04.14 03:30:10.
