data_PCOD8166616
_publ_section_title
;
Structure prediction by ZEFSAII (Michael W. Deem and Ramdas Pophale) SiO2 
 PCOD8166616
Probable space group: P M M 2
;
_chemical_formula_sum "Si O2"
_cell_formula_units_Z 28
_cell_length_a 9.415772
_cell_length_b 8.981103
_cell_length_c 18.326731
_cell_angle_alpha 90.000000
_cell_angle_beta 90.000000
_cell_angle_gamma 90.000000
_cell_volume 1549.782013
_symmetry_space_group_name_H-M "P M M 2"
_symmetry_group_IT_number 25
_symmetry_cell_setting 'orthorhombic'
loop_
_space_group_symop_operation_xyz
x,y,z
-x,-y,z
-x,y,z
x,-y,z
loop_
_atom_site_type_symbol
_atom_site_label
_atom_site_fract_x
_atom_site_fract_y
_atom_site_fract_z
Si Si1 0.835987 0.327417 0.498440
Si Si2 0.168512 0.337047 0.928213
Si Si3 0.336043 0.324408 0.221540
Si Si4 0.840500 0.678013 0.084553
Si Si5 0.339824 0.322646 0.636829
Si Si6 0.159932 0.321524 0.771654
Si Si7 0.837494 0.824727 0.348844
O O1 0.804237 0.500000 0.482435
O O2 0.742915 0.265943 0.565436
O O3 0.790878 0.234834 0.427693
O O4 0.000000 0.302358 0.518971
O O5 0.240427 0.500000 0.928259
O O6 0.211060 0.257108 0.851435
O O7 0.000000 0.355241 0.928290
O O8 0.210719 0.256456 0.005023
O O9 0.500000 0.279421 0.219253
O O10 0.313931 0.500000 0.229324
O O11 0.264334 0.263702 0.147271
O O12 0.264251 0.247076 0.289822
O O13 0.838491 0.500000 0.079625
O O14 0.000000 0.733258 0.103190
O O15 0.500000 0.261360 0.634516
O O16 0.336367 0.500000 0.638892
O O17 0.263634 0.258654 0.709227
O O18 0.163388 0.500000 0.774854
O O19 0.000000 0.267887 0.753710
O O20 0.000000 0.778111 0.332275
O O21 0.817588 0.000000 0.347659
#
# Coordination Sequence:
#
# PCOD8166616 Si02
#       7
#     4   4   4   4   4   4   4
#     4   9  17  30  48  67  87 114 147 181 220 268
#     4   7  10  17  31  52  77 108 146 183 218 257
#     4  10  20  32  47  69  96 125 156 188 225 273
#     4   8  13  23  40  60  83 114 152 190 224 260
#     4   9  16  24  35  55  83 113 146 182 217 256
#     4   8  12  19  32  50  76 111 147 180 216 259
#     4  10  21  36  53  72  92 115 148 191 236 280
#
# _framework density 18.067059
#
# number of rings (size 3 to 8) (size 9 to 14) (size 15 to 20)
#    0.000    3.286    0.000    3.000    0.000    4.000 
#    0.000    2.143    0.000    4.286    0.000    0.000 
#    0.000    1.143    0.000    9.143    0.000   11.286 
#
# Total GULP energy -346932.084149 kJ/mol
# GULP energy per Si atom -12390.431577 kJ/mol
# Density = 1.802594 g / cm^3
# Si number density = 18.067059 Si / 1000 Ang^3
#
#
#
# Elastic Constant Matrix: (Units=GPa)
#
#
# Indices 1 2 3 4 5 6 
#
# 1 113.7292 24.3729 106.0848 0.0000 0.0000 0.0000
# 2 24.3729 13.7140 25.3070 0.0000 0.0000 0.0000
# 3 106.0848 25.3070 201.6881 0.0000 0.0000 0.0000
# 4 0.0000 0.0000 0.0000 -2.5589 0.0000 0.0000
# 5 0.0000 0.0000 0.0000 0.0000 8.0558 0.0000
# 6 0.0000 0.0000 0.0000 0.0000 0.0000 10.2495
#
#
#
# Elastic Compliance Matrix: (Units=1/GPa)
#
#
# Indices 1 2 3 4 5 6 
#
# 1 0.021589 -0.022661 -0.008512 0.000000 0.000000 0.000000
# 2 -0.022661 0.118676 -0.002972 0.000000 0.000000 0.000000
# 3 -0.008512 -0.002972 0.009808 0.000000 0.000000 0.000000
# 4 0.000000 0.000000 0.000000 -0.390798 0.000000 0.000000
# 5 0.000000 0.000000 0.000000 0.000000 0.124135 0.000000
# 6 0.000000 0.000000 0.000000 0.000000 0.000000 0.097566
#
#
# Mechanical properties :
#
#
# Convention : Reuss Voigt Hill
#
# Bulk Modulus (GPa) = 12.22742 71.18452 41.70597
# Shear Modulus (GPa) = 65.33680 14.70706 40.02193
#
# Velocity S-wave (km/s) = 6.02013 2.85621 4.71168
# Velocity P-wave (km/s) = 7.42328 7.09669 7.26182
#
# Compressibility (1/GPa) = 0.08178341
#
# Stress axis : x y z
#
# Youngs Moduli (GPa) = 46.31928 8.42634 101.95460
#
# Poissons Ratio (x) = 0.19095 0.86786
# Poissons Ratio (y) = 1.04965 0.30296
# Poissons Ratio (z) = 0.39428 0.02504
#
# Static dielectric constant tensor:
#      x y z
#    x 3.272240 0.000000 0.000000 
#    y 0.000000 2.674040 0.000000 
#    z 0.000000 0.000000 3.863610 
# 
# 
# High freq. dielectric constant tensor:
#      x y z
#    x 1.680560 0.000000 0.000000 
#    y 0.000000 1.625350 0.000000 
#    z 0.000000 0.000000 1.727150 
# 
# From -- ./inp_files/6402.got.cif
#   From: 2010.03.12/outbox.cif.g09.slc.cpg/sg25_4_cif.got.tgz:6402.got - 2010.04.14 03:30:10.
