data_PCOD8166116
_publ_section_title
;
Structure prediction by ZEFSAII (Michael W. Deem and Ramdas Pophale) SiO2 
 PCOD8166116
Probable space group: I 21 21 21
;
_chemical_formula_sum "Si O2"
_cell_formula_units_Z 40
_cell_length_a 17.693797
_cell_length_b 5.126201
_cell_length_c 19.239883
_cell_angle_alpha 90.000000
_cell_angle_beta 90.000000
_cell_angle_gamma 90.000000
_cell_volume 1745.095096
_symmetry_space_group_name_H-M "I 21 21 21"
_symmetry_group_IT_number 24
_symmetry_cell_setting 'orthorhombic'
loop_
_space_group_symop_operation_xyz
x,y,z
-x,1/2-y,z
x,-y,1/2-z
1/2-x,y,-z
1/2+x,1/2+y,1/2+z
1/2-x,-y,1/2+z
1/2+x,1/2-y,-z
-x,1/2+y,1/2-z
loop_
_atom_site_type_symbol
_atom_site_label
_atom_site_fract_x
_atom_site_fract_y
_atom_site_fract_z
Si Si1 0.817843 0.910130 0.351252
Si Si2 0.303441 0.500000 0.250000
Si Si3 0.050534 0.997268 0.960068
Si Si4 0.313557 0.916235 0.942651
Si Si5 0.415320 0.154009 0.317246
Si Si6 0.049682 0.500000 0.250000
O O1 0.809066 0.704754 0.412425
O O2 0.900164 0.907824 0.315609
O O3 0.755105 0.823123 0.294356
O O4 0.805726 0.198559 0.383394
O O5 0.354589 0.386242 0.313084
O O6 0.095149 0.026790 0.886229
O O7 0.000000 0.750000 0.943711
O O8 0.104149 0.912895 0.022215
O O9 0.000000 0.250000 0.977753
O O10 0.250000 0.870594 0.000000
O O11 0.500000 0.250000 0.306471
O O12 0.389251 0.000000 0.250000
O O13 0.000000 0.750000 0.227552
#
# Coordination Sequence:
#
# PCOD8166116 Si02
#       6
#     8   4   8   8   8   4
#     4  11  27  45  69 103 132 180 229 275 343 404
#     4  11  26  42  68  97 138 178 224 283 328 396
#     4  11  26  44  69 101 135 174 226 275 334 402
#     4  12  26  46  69  98 140 181 226 274 338 402
#     4  11  23  40  67  97 133 173 222 269 329 392
#     4  11  24  46  74 103 134 172 226 295 344 404
#
# _framework density 22.921389000000001
#
# number of rings (size 3 to 8) (size 9 to 14) (size 15 to 20)
#    0.000    0.800    1.000    4.800    8.400    6.400 
#    0.000    0.000    0.000    0.000    0.000    0.000 
#    0.000    0.000    0.000    0.000    0.000    0.000 
#
# Total GULP energy -247867.675208 kJ/mol
# GULP energy per Si atom -12393.383760 kJ/mol
# Density = 2.286922 g / cm^3
# Si number density = 22.921389 Si / 1000 Ang^3
#
#
#
# Elastic Constant Matrix: (Units=GPa)
#
#
# Indices 1 2 3 4 5 6 
#
# 1 121.5790 25.1164 36.2553 0.0000 0.0000 0.0000
# 2 25.1164 92.5567 9.7592 0.0000 0.0000 0.0000
# 3 36.2553 9.7592 92.8979 0.0000 0.0000 0.0000
# 4 0.0000 0.0000 0.0000 50.2556 0.0000 0.0000
# 5 0.0000 0.0000 0.0000 0.0000 44.6868 0.0000
# 6 0.0000 0.0000 0.0000 0.0000 0.0000 25.3291
#
#
#
# Elastic Compliance Matrix: (Units=1/GPa)
#
#
# Indices 1 2 3 4 5 6 
#
# 1 0.009759 -0.002272 -0.003570 0.000000 0.000000 0.000000
# 2 -0.002272 0.011454 -0.000317 0.000000 0.000000 0.000000
# 3 -0.003570 -0.000317 0.012191 0.000000 0.000000 0.000000
# 4 0.000000 0.000000 0.000000 0.019898 0.000000 0.000000
# 5 0.000000 0.000000 0.000000 0.000000 0.022378 0.000000
# 6 0.000000 0.000000 0.000000 0.000000 0.000000 0.039480
#
#
# Mechanical properties :
#
#
# Convention : Reuss Voigt Hill
#
# Bulk Modulus (GPa) = 47.42217 49.92171 48.67194
# Shear Modulus (GPa) = 37.17291 39.78116 38.47703
#
# Velocity S-wave (km/s) = 4.03147 4.17051 4.10158
# Velocity P-wave (km/s) = 6.51186 6.70952 6.61143
#
# Compressibility (1/GPa) = 0.02108718
#
# Stress axis : x y z
#
# Youngs Moduli (GPa) = 102.46940 87.30525 82.02744
#
# Poissons Ratio (x) = 0.19834 0.29284
# Poissons Ratio (y) = 0.23279 0.02598
# Poissons Ratio (z) = 0.36582 0.02765
#
# Static dielectric constant tensor:
#      x y z
#    x 4.214230 0.000000 0.000000 
#    y 0.000000 3.815570 0.000000 
#    z 0.000000 0.000000 4.648740 
# 
# 
# High freq. dielectric constant tensor:
#      x y z
#    x 1.921100 0.000000 0.000000 
#    y 0.000000 1.895430 0.000000 
#    z 0.000000 0.000000 1.918340 
# 
# From -- ./inp_files/31005.got.cif
#   From: 2010.03.12/outbox.cif.g09.slc.cpg/sg24_16_cif.got.tgz:31005.got - 2010.04.14 03:06:53.
