data_PCOD8166634
_publ_section_title
;
Structure prediction by ZEFSAII (Michael W. Deem and Ramdas Pophale) SiO2 
 PCOD8166634
Probable space group: P M M 2
;
_chemical_formula_sum "Si O2"
_cell_formula_units_Z 32
_cell_length_a 9.321174
_cell_length_b 9.260309
_cell_length_c 20.691354
_cell_angle_alpha 90.000000
_cell_angle_beta 90.000000
_cell_angle_gamma 90.000000
_cell_volume 1786.014599
_symmetry_space_group_name_H-M "P M M 2"
_symmetry_group_IT_number 25
_symmetry_cell_setting 'orthorhombic'
loop_
_space_group_symop_operation_xyz
x,y,z
-x,-y,z
-x,y,z
x,-y,z
loop_
_atom_site_type_symbol
_atom_site_label
_atom_site_fract_x
_atom_site_fract_y
_atom_site_fract_z
Si Si1 0.829625 0.161720 0.523340
Si Si2 0.167335 0.333099 0.011723
Si Si3 0.171343 0.662573 0.259663
Si Si4 0.333410 0.334215 0.885208
Si Si5 0.170269 0.665470 0.645943
Si Si6 0.666966 0.831240 0.757219
Si Si7 0.829414 0.162360 0.380695
Si Si8 0.829117 0.163043 0.136469
O O1 0.772941 0.272024 0.577524
O O2 0.775943 0.211789 0.452093
O O3 0.000000 0.159595 0.523611
O O4 0.772475 0.000000 0.538497
O O5 0.200495 0.500000 0.026487
O O6 0.247427 0.279742 0.947590
O O7 0.000000 0.306057 0.000651
O O8 0.226892 0.241360 0.071903
O O9 0.229873 0.500000 0.254528
O O10 0.232931 0.731964 0.325812
O O11 0.231016 0.752885 0.198913
O O12 0.000000 0.664394 0.259780
O O13 0.500000 0.315119 0.900778
O O14 0.295402 0.500000 0.868576
O O15 0.285410 0.236055 0.825377
O O16 0.219875 0.500000 0.650879
O O17 0.240752 0.756926 0.702244
O O18 0.000000 0.680502 0.651929
O O19 0.500000 0.800542 0.743877
O O20 0.701962 0.000000 0.758409
O O21 0.000000 0.165795 0.378523
O O22 0.775627 0.000000 0.366407
O O23 0.000000 0.165135 0.137661
O O24 0.770013 0.000000 0.137778
#
# Coordination Sequence:
#
# PCOD8166634 Si02
#       8
#     4   4   4   4   4   4   4   4
#     4   8  14  25  40  58  84 118 152 187 228 271
#     4   9  17  29  45  65  89 116 146 181 220 263
#     4   9  15  21  31  49  75 109 147 184 221 262
#     4   9  18  33  51  69  91 119 148 181 225 274
#     4  10  20  32  48  71  97 125 157 193 234 280
#     4  10  21  36  53  72  94 122 156 193 233 277
#     4   8  13  21  33  50  75 110 149 184 220 264
#     4   9  16  25  37  54  79 111 145 181 221 264
#
# _framework density 17.916988
#
# number of rings (size 3 to 8) (size 9 to 14) (size 15 to 20)
#    0.000    3.000    0.000    2.250    0.000    6.000 
#    0.000    3.750    0.000    0.000    0.000    0.000 
#    0.000    1.000    0.000    6.500    0.000    9.875 
#
# Total GULP energy -396716.359105 kJ/mol
# GULP energy per Si atom -12397.386222 kJ/mol
# Density = 1.787621 g / cm^3
# Si number density = 17.916988 Si / 1000 Ang^3
#
#
#
# Elastic Constant Matrix: (Units=GPa)
#
#
# Indices 1 2 3 4 5 6 
#
# 1 15.4968 23.0741 31.7683 0.0000 0.0000 0.0000
# 2 23.0741 136.4677 103.1473 0.0000 0.0000 0.0000
# 3 31.7683 103.1473 185.7110 0.0000 0.0000 0.0000
# 4 0.0000 0.0000 0.0000 42.4824 0.0000 0.0000
# 5 0.0000 0.0000 0.0000 0.0000 -2.5647 0.0000
# 6 0.0000 0.0000 0.0000 0.0000 0.0000 13.8301
#
#
#
# Elastic Compliance Matrix: (Units=1/GPa)
#
#
# Indices 1 2 3 4 5 6 
#
# 1 0.103198 -0.007076 -0.013723 0.000000 0.000000 0.000000
# 2 -0.007076 0.013115 -0.006074 0.000000 0.000000 0.000000
# 3 -0.013723 -0.006074 0.011106 0.000000 0.000000 0.000000
# 4 0.000000 0.000000 0.000000 0.023539 0.000000 0.000000
# 5 0.000000 0.000000 0.000000 0.000000 -0.389909 0.000000
# 6 0.000000 0.000000 0.000000 0.000000 0.000000 0.072306
#
#
# Mechanical properties :
#
#
# Convention : Reuss Voigt Hill
#
# Bulk Modulus (GPa) = 13.57362 72.62831 43.10097
# Shear Modulus (GPa) = -56.59900 22.72861 -16.93520
#
# Velocity S-wave (km/s) = -5.62656 3.56554 -3.07775
# Velocity P-wave (km/s) = 5.88376 7.58780 3.38793
#
# Compressibility (1/GPa) = 0.07367230
#
# Stress axis : x y z
#
# Youngs Moduli (GPa) = 9.69010 76.24824 90.04372
#
# Poissons Ratio (x) = 0.53957 1.23567
# Poissons Ratio (y) = 0.06857 0.54691
# Poissons Ratio (z) = 0.13298 0.46312
#
# Static dielectric constant tensor:
#      x y z
#    x 2.724830 0.000000 0.000000 
#    y 0.000000 3.505910 0.000000 
#    z 0.000000 0.000000 3.649280 
# 
# 
# High freq. dielectric constant tensor:
#      x y z
#    x 1.625410 0.000000 0.000000 
#    y 0.000000 1.699380 0.000000 
#    z 0.000000 0.000000 1.711670 
# 
# From -- ./inp_files/6314.got.cif
#   From: 2010.03.12/outbox.cif.g09.slc.cpg/sg25_4_cif.got.tgz:6314.got - 2010.04.14 03:30:10.
