data_PCOD8166586
_publ_section_title
;
Structure prediction by ZEFSAII (Michael W. Deem and Ramdas Pophale) SiO2 
 PCOD8166586
Probable space group: P M M 2
;
_chemical_formula_sum "Si O2"
_cell_formula_units_Z 32
_cell_length_a 9.130556
_cell_length_b 15.384434
_cell_length_c 15.014244
_cell_angle_alpha 90.000000
_cell_angle_beta 90.000000
_cell_angle_gamma 90.000000
_cell_volume 2109.027375
_symmetry_space_group_name_H-M "P M M 2"
_symmetry_group_IT_number 25
_symmetry_cell_setting 'orthorhombic'
loop_
_space_group_symop_operation_xyz
x,y,z
-x,-y,z
-x,y,z
x,-y,z
loop_
_atom_site_type_symbol
_atom_site_label
_atom_site_fract_x
_atom_site_fract_y
_atom_site_fract_z
Si Si1 0.671399 0.898394 0.411410
Si Si2 0.830169 0.765881 0.288552
Si Si3 0.164371 0.777136 0.077899
Si Si4 0.326533 0.903299 0.951719
Si Si5 0.165510 0.592455 0.100853
Si Si6 0.336773 0.896490 0.756261
Si Si7 0.670836 0.404132 0.280685
Si Si8 0.163946 0.896683 0.587812
O O1 0.500000 0.878186 0.412896
O O2 0.747672 0.846903 0.331918
O O3 0.738667 0.865928 0.504773
O O4 0.702985 0.000000 0.395602
O O5 0.804945 0.775420 0.183147
O O6 0.762765 0.674578 0.325322
O O7 0.000000 0.769057 0.314741
O O8 0.190958 0.678326 0.040520
O O9 0.000000 0.808916 0.057512
O O10 0.274410 0.840863 0.029615
O O11 0.500000 0.905864 0.952483
O O12 0.274846 0.869723 0.853970
O O13 0.264262 0.000000 0.970104
O O14 0.177597 0.500000 0.047384
O O15 0.285065 0.590626 0.177828
O O16 0.000000 0.601225 0.142226
O O17 0.500000 0.858732 0.741342
O O18 0.232415 0.858559 0.679111
O O19 0.343815 0.000000 0.751604
O O20 0.500000 0.381344 0.288119
O O21 0.702802 0.500000 0.324243
O O22 0.000000 0.859561 0.577146
O O23 0.161804 0.000000 0.592689
#
# Coordination Sequence:
#
# PCOD8166586 Si02
#       8
#     4   4   4   4   4   4   4   4
#     4  10  20  32  45  61  83 113 146 178 211 247
#     4  10  20  32  44  59  83 115 148 180 212 248
#     4   9  18  29  41  59  81 108 141 175 209 242
#     4   9  18  30  42  57  80 112 145 174 205 242
#     4   8  14  26  42  58  78 104 133 167 211 258
#     4   8  14  26  42  58  77 102 133 168 206 247
#     4   9  16  26  42  63  83 103 132 172 215 256
#     4   9  16  26  42  63  83 103 130 167 211 254
#
# _framework density 15.172871000000001
#
# number of rings (size 3 to 8) (size 9 to 14) (size 15 to 20)
#    0.000    3.000    0.000    3.000    0.000    6.750 
#    0.000    3.750    0.000    0.000    0.000    0.000 
#    0.000    1.000    0.000    6.500    0.000    5.000 
#
# Total GULP energy -396473.586322 kJ/mol
# GULP energy per Si atom -12389.799573 kJ/mol
# Density = 1.513834 g / cm^3
# Si number density = 15.172871 Si / 1000 Ang^3
#
#
#
# Elastic Constant Matrix: (Units=GPa)
#
#
# Indices 1 2 3 4 5 6 
#
# 1 84.4378 42.3759 35.1898 0.0000 0.0000 0.0000
# 2 42.3759 81.0524 39.4658 0.0000 0.0000 0.0000
# 3 35.1898 39.4658 58.7264 0.0000 0.0000 0.0000
# 4 0.0000 0.0000 0.0000 0.4989 0.0000 0.0000
# 5 0.0000 0.0000 0.0000 0.0000 22.1415 0.0000
# 6 0.0000 0.0000 0.0000 0.0000 0.0000 22.1246
#
#
#
# Elastic Compliance Matrix: (Units=1/GPa)
#
#
# Indices 1 2 3 4 5 6 
#
# 1 0.017569 -0.006034 -0.006473 0.000000 0.000000 0.000000
# 2 -0.006034 0.020411 -0.010101 0.000000 0.000000 0.000000
# 3 -0.006473 -0.010101 0.027695 0.000000 0.000000 0.000000
# 4 0.000000 0.000000 0.000000 2.004489 0.000000 0.000000
# 5 0.000000 0.000000 0.000000 0.000000 0.045164 0.000000
# 6 0.000000 0.000000 0.000000 0.000000 0.000000 0.045199
#
#
# Mechanical properties :
#
#
# Convention : Reuss Voigt Hill
#
# Bulk Modulus (GPa) = 48.87728 50.91995 49.89862
# Shear Modulus (GPa) = 2.25983 16.09867 9.17925
#
# Velocity S-wave (km/s) = 1.22173 3.26086 2.46230
# Velocity P-wave (km/s) = 5.85437 6.91450 6.40640
#
# Compressibility (1/GPa) = 0.02045940
#
# Stress axis : x y z
#
# Youngs Moduli (GPa) = 56.91996 48.99431 36.10786
#
# Poissons Ratio (x) = 0.29561 0.23371
# Poissons Ratio (y) = 0.34343 0.36473
# Poissons Ratio (z) = 0.36842 0.49489
#
# Static dielectric constant tensor:
#      x y z
#    x 3.021220 0.000000 0.000000 
#    y 0.000000 2.999150 0.000000 
#    z 0.000000 0.000000 2.749920 
# 
# 
# High freq. dielectric constant tensor:
#      x y z
#    x 1.592730 0.000000 0.000000 
#    y 0.000000 1.561130 0.000000 
#    z 0.000000 0.000000 1.544410 
# 
# From -- ./inp_files/5697.got.cif
#   From: 2010.03.12/outbox.cif.g09.slc.cpg/sg25_3_cif.got.tgz:5697.got - 2010.04.14 03:30:10.
