data_PCOD8166800
_publ_section_title
;
Structure prediction by ZEFSAII (Michael W. Deem and Ramdas Pophale) SiO2 
 PCOD8166800
Probable space group: P M M 2
;
_chemical_formula_sum "Si O2"
_cell_formula_units_Z 32
_cell_length_a 8.909505
_cell_length_b 14.201962
_cell_length_c 13.000139
_cell_angle_alpha 90.000000
_cell_angle_beta 90.000000
_cell_angle_gamma 90.000000
_cell_volume 1644.939457
_symmetry_space_group_name_H-M "P M M 2"
_symmetry_group_IT_number 25
_symmetry_cell_setting 'orthorhombic'
loop_
_space_group_symop_operation_xyz
x,y,z
-x,-y,z
-x,y,z
x,-y,z
loop_
_atom_site_type_symbol
_atom_site_label
_atom_site_fract_x
_atom_site_fract_y
_atom_site_fract_z
Si Si1 0.824606 0.705702 0.316940
Si Si2 0.677899 0.393631 0.508317
Si Si3 0.837232 0.110930 0.004873
Si Si4 0.820914 0.106197 0.782925
Si Si5 0.678144 0.281392 0.707178
Si Si6 0.677829 0.604574 0.901927
Si Si7 0.178601 0.895960 0.225258
Si Si8 0.670287 0.612073 0.129511
O O1 0.732806 0.661386 0.408975
O O2 0.778489 0.816488 0.308510
O O3 0.785396 0.654917 0.210477
O O4 0.000000 0.693231 0.338579
O O5 0.500000 0.395890 0.505860
O O6 0.741843 0.500000 0.507882
O O7 0.736426 0.340999 0.610000
O O8 0.751654 0.134523 0.112795
O O9 0.000000 0.161344 0.005038
O O10 0.862749 0.000000 0.002970
O O11 0.755178 0.136023 0.896742
O O12 0.748582 0.176978 0.700237
O O13 0.000000 0.114144 0.782269
O O14 0.771675 0.000000 0.753749
O O15 0.500000 0.273590 0.706660
O O16 0.741171 0.330574 0.810655
O O17 0.500000 0.597098 0.892794
O O18 0.746755 0.500000 0.888802
O O19 0.719320 0.646420 0.014729
O O20 0.000000 0.899998 0.210943
O O21 0.237557 0.000000 0.259836
O O22 0.500000 0.644454 0.154694
O O23 0.679600 0.500000 0.133745
#
# Coordination Sequence:
#
# PCOD8166800 Si02
#       8
#     4   4   4   4   4   4   4   4
#     4  11  22  33  53  83 108 134 176 227 270 305
#     4  10  22  41  61  77  99 138 183 222 266 325
#     4   7  11  23  44  68  97 136 175 204 235 290
#     4   9  18  32  51  77 110 147 181 211 253 316
#     4  10  20  34  56  82 103 131 179 231 271 307
#     4   8  15  30  52  77 104 134 170 214 266 326
#     4   8  15  29  48  72 104 140 176 211 252 306
#     4   9  18  33  52  74 105 143 173 203 260 335
#
# _framework density 19.453605
#
# number of rings (size 3 to 8) (size 9 to 14) (size 15 to 20)
#    0.000    3.000    0.000    3.375    1.750    4.250 
#    0.000    0.625    0.000    5.625    0.000    0.000 
#    0.000    0.000    0.000    0.000    0.000    0.000 
#
# Total GULP energy -396486.213502 kJ/mol
# GULP energy per Si atom -12390.194172 kJ/mol
# Density = 1.940933 g / cm^3
# Si number density = 19.453605 Si / 1000 Ang^3
#
#
#
# Elastic Constant Matrix: (Units=GPa)
#
#
# Indices 1 2 3 4 5 6 
#
# 1 8.9938 16.9302 13.0596 0.0000 0.0000 0.0000
# 2 16.9302 117.8389 75.4405 0.0000 0.0000 0.0000
# 3 13.0596 75.4405 121.0061 0.0000 0.0000 0.0000
# 4 0.0000 0.0000 0.0000 33.7507 0.0000 0.0000
# 5 0.0000 0.0000 0.0000 0.0000 9.4604 0.0000
# 6 0.0000 0.0000 0.0000 0.0000 0.0000 23.0463
#
#
#
# Elastic Compliance Matrix: (Units=1/GPa)
#
#
# Indices 1 2 3 4 5 6 
#
# 1 0.153999 -0.019114 -0.004704 0.000000 0.000000 0.000000
# 2 -0.019114 0.016495 -0.008221 0.000000 0.000000 0.000000
# 3 -0.004704 -0.008221 0.013897 0.000000 0.000000 0.000000
# 4 0.000000 0.000000 0.000000 0.029629 0.000000 0.000000
# 5 0.000000 0.000000 0.000000 0.000000 0.105703 0.000000
# 6 0.000000 0.000000 0.000000 0.000000 0.000000 0.043391
#
#
# Mechanical properties :
#
#
# Convention : Reuss Voigt Hill
#
# Bulk Modulus (GPa) = 8.31163 50.96660 29.63912
# Shear Modulus (GPa) = 10.69984 22.74538 16.72261
#
# Velocity S-wave (km/s) = 2.34779 3.42308 2.93510
# Velocity P-wave (km/s) = 3.41047 6.47142 5.17255
#
# Compressibility (1/GPa) = 0.12031335
#
# Stress axis : x y z
#
# Youngs Moduli (GPa) = 6.49357 60.62268 71.95729
#
# Poissons Ratio (x) = 1.15873 0.33848
# Poissons Ratio (y) = 0.12412 0.59157
# Poissons Ratio (z) = 0.03054 0.49839
#
# Static dielectric constant tensor:
#      x y z
#    x 3.048710 0.000000 0.000000 
#    y 0.000000 3.714860 0.000000 
#    z 0.000000 0.000000 3.716700 
# 
# 
# High freq. dielectric constant tensor:
#      x y z
#    x 1.707300 0.000000 0.000000 
#    y 0.000000 1.764530 0.000000 
#    z 0.000000 0.000000 1.751540 
# 
# From -- ./inp_files/4194.got.cif
#   From: 2010.03.12/outbox.cif.g09.slc.cpg/sg25_3_cif.got.tgz:4194.got - 2010.04.14 03:30:10.
