data_PCOD8166133
_publ_section_title
;
Structure prediction by ZEFSAII (Michael W. Deem and Ramdas Pophale) SiO2 
 PCOD8166133
Probable space group: I 21 21 21
;
_chemical_formula_sum "Si O2"
_cell_formula_units_Z 36
_cell_length_a 12.167844
_cell_length_b 10.810470
_cell_length_c 12.340047
_cell_angle_alpha 90.000000
_cell_angle_beta 90.000000
_cell_angle_gamma 90.000000
_cell_volume 1623.211171
_symmetry_space_group_name_H-M "I 21 21 21"
_symmetry_group_IT_number 24
_symmetry_cell_setting 'orthorhombic'
loop_
_space_group_symop_operation_xyz
x,y,z
-x,1/2-y,z
x,-y,1/2-z
1/2-x,y,-z
1/2+x,1/2+y,1/2+z
1/2-x,-y,1/2+z
1/2+x,1/2-y,-z
-x,1/2+y,1/2-z
loop_
_atom_site_type_symbol
_atom_site_label
_atom_site_fract_x
_atom_site_fract_y
_atom_site_fract_z
Si Si1 0.123976 0.574764 0.857094
Si Si2 0.500000 0.250000 0.491262
Si Si3 0.796565 0.705305 0.150223
Si Si4 0.250000 0.999243 0.000000
Si Si5 0.250000 0.396299 0.000000
Si Si6 0.378729 0.800091 0.616401
O O1 0.091413 0.500000 0.750000
O O2 0.220473 0.674774 0.833226
O O3 0.015922 0.635946 0.908643
O O4 0.156633 0.478811 0.948716
O O5 0.391401 0.234208 0.563008
O O6 0.856043 0.660736 0.259932
O O7 0.724748 0.590284 0.103232
O O8 0.353663 0.086429 0.966514
O O9 0.201715 0.313684 0.095814
O O10 0.500000 0.750000 0.597563
#
# Coordination Sequence:
#
# PCOD8166133 Si02
#       6
#     8   4   8   4   4   8
#     4  12  25  47  72 103 149 190 239 303 369 439
#     4  12  24  44  74 108 136 196 246 294 362 440
#     4  12  23  46  75 103 140 190 245 301 360 425
#     4  11  25  46  66 106 153 175 234 314 358 419
#     4  11  23  44  70 104 145 181 238 316 358 417
#     4  11  26  44  73 106 139 191 248 298 362 427
#
# _framework density 22.178260999999999
#
# number of rings (size 3 to 8) (size 9 to 14) (size 15 to 20)
#    0.000    0.444    7.778    0.667    3.111    0.000 
#   10.000    0.000    0.000    0.000    0.000    0.000 
#    0.000    0.000    0.000    0.000    0.000    0.000 
#
# Total GULP energy -223112.419812 kJ/mol
# GULP energy per Si atom -12395.134434 kJ/mol
# Density = 2.212778 g / cm^3
# Si number density = 22.178261 Si / 1000 Ang^3
#
#
#
# Elastic Constant Matrix: (Units=GPa)
#
#
# Indices 1 2 3 4 5 6 
#
# 1 79.2784 38.1024 43.4791 0.0000 0.0000 0.0000
# 2 38.1024 137.0802 65.1620 0.0000 0.0000 0.0000
# 3 43.4791 65.1620 144.0881 0.0000 0.0000 0.0000
# 4 0.0000 0.0000 0.0000 109.5289 0.0000 0.0000
# 5 0.0000 0.0000 0.0000 0.0000 29.0509 0.0000
# 6 0.0000 0.0000 0.0000 0.0000 0.0000 45.1709
#
#
#
# Elastic Compliance Matrix: (Units=1/GPa)
#
#
# Indices 1 2 3 4 5 6 
#
# 1 0.015873 -0.002720 -0.003560 0.000000 0.000000 0.000000
# 2 -0.002720 0.009759 -0.003593 0.000000 0.000000 0.000000
# 3 -0.003560 -0.003593 0.009639 0.000000 0.000000 0.000000
# 4 0.000000 0.000000 0.000000 0.009130 0.000000 0.000000
# 5 0.000000 0.000000 0.000000 0.000000 0.034422 0.000000
# 6 0.000000 0.000000 0.000000 0.000000 0.000000 0.022138
#
#
# Mechanical properties :
#
#
# Convention : Reuss Voigt Hill
#
# Bulk Modulus (GPa) = 64.40538 72.65931 68.53235
# Shear Modulus (GPa) = 39.71983 50.99702 45.35843
#
# Velocity S-wave (km/s) = 4.23654 4.80042 4.52727
# Velocity P-wave (km/s) = 7.28244 7.97233 7.63518
#
# Compressibility (1/GPa) = 0.01552665
#
# Stress axis : x y z
#
# Youngs Moduli (GPa) = 62.99875 102.47206 103.74470
#
# Poissons Ratio (x) = 0.27872 0.36931
# Poissons Ratio (y) = 0.17135 0.37270
# Poissons Ratio (z) = 0.22426 0.36813
#
# Static dielectric constant tensor:
#      x y z
#    x 3.615770 0.000000 0.000000 
#    y 0.000000 4.340610 0.000000 
#    z 0.000000 0.000000 2.719550 
# 
# 
# High freq. dielectric constant tensor:
#      x y z
#    x 1.857290 0.000000 0.000000 
#    y 0.000000 1.889780 0.000000 
#    z 0.000000 0.000000 1.883110 
# 
# From -- ./inp_files/19232.got.cif
#   From: 2010.03.12/outbox.cif.g09.slc.cpg/sg24_10_cif.got.tgz:19232.got - 2010.04.14 03:06:53.
