data_PCOD8166773
_publ_section_title
;
Structure prediction by ZEFSAII (Michael W. Deem and Ramdas Pophale) SiO2 
 PCOD8166773
Probable space group: P M M 2
;
_chemical_formula_sum "Si O2"
_cell_formula_units_Z 28
_cell_length_a 9.161100
_cell_length_b 9.237881
_cell_length_c 18.043196
_cell_angle_alpha 90.000000
_cell_angle_beta 90.000000
_cell_angle_gamma 90.000000
_cell_volume 1526.980370
_symmetry_space_group_name_H-M "P M M 2"
_symmetry_group_IT_number 25
_symmetry_cell_setting 'orthorhombic'
loop_
_space_group_symop_operation_xyz
x,y,z
-x,-y,z
-x,y,z
x,-y,z
loop_
_atom_site_type_symbol
_atom_site_label
_atom_site_fract_x
_atom_site_fract_y
_atom_site_fract_z
Si Si1 0.829408 0.166252 0.534260
Si Si2 0.328244 0.167683 0.811782
Si Si3 0.835542 0.172053 0.958479
Si Si4 0.326583 0.660588 0.242171
Si Si5 0.668003 0.170210 0.101602
Si Si6 0.671742 0.333583 0.406957
Si Si7 0.830929 0.329860 0.681955
O O1 0.749764 0.225832 0.462427
O O2 0.779652 0.257534 0.605493
O O3 0.000000 0.183756 0.520466
O O4 0.784778 0.000000 0.547246
O O5 0.500000 0.190202 0.819786
O O6 0.253694 0.224817 0.886975
O O7 0.268443 0.264601 0.745819
O O8 0.288910 0.000000 0.796634
O O9 0.000000 0.232937 0.953922
O O10 0.834777 0.000000 0.961479
O O11 0.758582 0.233478 0.032341
O O12 0.500000 0.660013 0.241612
O O13 0.266745 0.500000 0.225964
O O14 0.266532 0.764925 0.177750
O O15 0.275886 0.710827 0.324013
O O16 0.500000 0.215251 0.089780
O O17 0.685667 0.000000 0.107694
O O18 0.500000 0.313051 0.415875
O O19 0.715432 0.500000 0.423251
O O20 0.803005 0.500000 0.676037
O O21 0.000000 0.294025 0.698744
#
# Coordination Sequence:
#
# PCOD8166773 Si02
#       7
#     4   4   4   4   4   4   4
#     4  10  21  36  54  77 104 134 169 208 251 300
#     4  10  20  34  54  79 104 131 167 210 253 298
#     4   9  17  30  49  72  99 132 167 204 249 298
#     4   8  15  29  48  70  97 129 164 202 247 298
#     4   9  16  27  46  71  96 124 163 208 249 292
#     4   9  18  33  53  76 102 134 172 212 254 301
#     4  10  21  37  56  76 100 133 170 206 249 302
#
# _framework density 18.336843999999999
#
# number of rings (size 3 to 8) (size 9 to 14) (size 15 to 20)
#    0.000    2.714    0.000    2.571    0.000    5.714 
#    0.000    2.857    0.000    5.571    0.000    0.000 
#    0.000    0.000    0.000    0.000    0.000    0.000 
#
# Total GULP energy -347177.045987 kJ/mol
# GULP energy per Si atom -12399.180214 kJ/mol
# Density = 1.829511 g / cm^3
# Si number density = 18.336844 Si / 1000 Ang^3
#
#
#
# Elastic Constant Matrix: (Units=GPa)
#
#
# Indices 1 2 3 4 5 6 
#
# 1 70.2841 41.5301 65.0517 0.0000 0.0000 0.0000
# 2 41.5301 73.5734 65.7118 0.0000 0.0000 0.0000
# 3 65.0517 65.7118 170.4704 0.0000 0.0000 0.0000
# 4 0.0000 0.0000 0.0000 10.6235 0.0000 0.0000
# 5 0.0000 0.0000 0.0000 0.0000 3.2638 0.0000
# 6 0.0000 0.0000 0.0000 0.0000 0.0000 22.4252
#
#
#
# Elastic Compliance Matrix: (Units=1/GPa)
#
#
# Indices 1 2 3 4 5 6 
#
# 1 0.025095 -0.008559 -0.006277 0.000000 0.000000 0.000000
# 2 -0.008559 0.023648 -0.005849 0.000000 0.000000 0.000000
# 3 -0.006277 -0.005849 0.010516 0.000000 0.000000 0.000000
# 4 0.000000 0.000000 0.000000 0.094131 0.000000 0.000000
# 5 0.000000 0.000000 0.000000 0.000000 0.306394 0.000000
# 6 0.000000 0.000000 0.000000 0.000000 0.000000 0.044593
#
#
# Mechanical properties :
#
#
# Convention : Reuss Voigt Hill
#
# Bulk Modulus (GPa) = 55.90372 73.21280 64.55826
# Shear Modulus (GPa) = 9.06273 16.73143 12.89708
#
# Velocity S-wave (km/s) = 2.22555 3.02395 2.65494
# Velocity P-wave (km/s) = 6.09569 7.22535 6.68443
#
# Compressibility (1/GPa) = 0.01788790
#
# Stress axis : x y z
#
# Youngs Moduli (GPa) = 39.84821 42.28756 95.09147
#
# Poissons Ratio (x) = 0.36195 0.59689
# Poissons Ratio (y) = 0.34107 0.55622
# Poissons Ratio (z) = 0.25013 0.24735
#
# Static dielectric constant tensor:
#      x y z
#    x 3.246410 0.000000 0.000000 
#    y 0.000000 3.313360 0.000000 
#    z 0.000000 0.000000 3.660750 
# 
# 
# High freq. dielectric constant tensor:
#      x y z
#    x 1.693220 0.000000 0.000000 
#    y 0.000000 1.692980 0.000000 
#    z 0.000000 0.000000 1.727550 
# 
# From -- ./inp_files/6044.got.cif
#   From: 2010.03.12/outbox.cif.g09.slc.cpg/sg25_4_cif.got.tgz:6044.got - 2010.04.14 03:30:10.
