data_PCOD8166769
_publ_section_title
;
Structure prediction by ZEFSAII (Michael W. Deem and Ramdas Pophale) SiO2 
 PCOD8166769
Probable space group: P M M 2
;
_chemical_formula_sum "Si O2"
_cell_formula_units_Z 20
_cell_length_a 8.775943
_cell_length_b 9.215081
_cell_length_c 12.872471
_cell_angle_alpha 90.000000
_cell_angle_beta 90.000000
_cell_angle_gamma 90.000000
_cell_volume 1041.009932
_symmetry_space_group_name_H-M "P M M 2"
_symmetry_group_IT_number 25
_symmetry_cell_setting 'orthorhombic'
loop_
_space_group_symop_operation_xyz
x,y,z
-x,-y,z
-x,y,z
x,-y,z
loop_
_atom_site_type_symbol
_atom_site_label
_atom_site_fract_x
_atom_site_fract_y
_atom_site_fract_z
Si Si1 0.319166 0.339419 0.871590
Si Si2 0.177890 0.832658 0.453909
Si Si3 0.319243 0.663683 0.264600
Si Si4 0.676512 0.669953 0.638826
Si Si5 0.318147 0.837184 0.065707
O O1 0.500000 0.347060 0.878767
O O2 0.252670 0.500000 0.893468
O O3 0.273567 0.287954 0.756050
O O4 0.253919 0.230293 0.958378
O O5 0.268468 0.747987 0.366146
O O6 0.218521 0.765382 0.564933
O O7 0.000000 0.814882 0.433227
O O8 0.228236 0.000000 0.452029
O O9 0.500000 0.660990 0.262376
O O10 0.254241 0.500000 0.266535
O O11 0.255304 0.744153 0.162378
O O12 0.500000 0.708149 0.619079
O O13 0.704694 0.500000 0.618106
O O14 0.500000 0.837013 0.065206
O O15 0.254338 0.000000 0.075860
#
# Coordination Sequence:
#
# PCOD8166769 Si02
#       5
#     4   4   4   4   4
#     4   8  14  26  45  71 103 133 161 199 246 294
#     4  11  24  38  51  71 101 135 170 210 257 305
#     4  10  20  34  54  78 102 131 169 210 251 298
#     4   9  18  33  54  79 104 132 169 210 250 295
#     4   9  16  26  44  73 106 135 163 199 246 297
#
# _framework density 19.212112000000001
#
# number of rings (size 3 to 8) (size 9 to 14) (size 15 to 20)
#    0.000    2.600    0.000    3.600    0.000    8.800 
#    0.000    2.000    0.000    1.200    0.000    5.600 
#    0.000    0.000    0.000    0.000    0.000    0.000 
#
# Total GULP energy -247982.036827 kJ/mol
# GULP energy per Si atom -12399.101841 kJ/mol
# Density = 1.916838 g / cm^3
# Si number density = 19.212112 Si / 1000 Ang^3
#
#
#
# Elastic Constant Matrix: (Units=GPa)
#
#
# Indices 1 2 3 4 5 6 
#
# 1 9.4964 14.2952 7.0394 0.0000 0.0000 0.0000
# 2 14.2952 144.1728 83.6790 0.0000 0.0000 0.0000
# 3 7.0394 83.6790 152.2006 0.0000 0.0000 0.0000
# 4 0.0000 0.0000 0.0000 25.4176 0.0000 0.0000
# 5 0.0000 0.0000 0.0000 0.0000 -0.5309 0.0000
# 6 0.0000 0.0000 0.0000 0.0000 0.0000 17.5586
#
#
#
# Elastic Compliance Matrix: (Units=1/GPa)
#
#
# Indices 1 2 3 4 5 6 
#
# 1 0.124012 -0.013170 0.001505 0.000000 0.000000 0.000000
# 2 -0.013170 0.011585 -0.005760 0.000000 0.000000 0.000000
# 3 0.001505 -0.005760 0.009668 0.000000 0.000000 0.000000
# 4 0.000000 0.000000 0.000000 0.039343 0.000000 0.000000
# 5 0.000000 0.000000 0.000000 0.000000 -1.883730 0.000000
# 6 0.000000 0.000000 0.000000 0.000000 0.000000 0.056952
#
#
# Mechanical properties :
#
#
# Convention : Reuss Voigt Hill
#
# Bulk Modulus (GPa) = 9.05674 57.32188 33.18931
# Shear Modulus (GPa) = -3.18367 21.87949 9.34791
#
# Velocity S-wave (km/s) = -1.28869 3.37833 2.20821
# Velocity P-wave (km/s) = 1.58431 6.71704 4.87999
#
# Compressibility (1/GPa) = 0.11041500
#
# Stress axis : x y z
#
# Youngs Moduli (GPa) = 8.06371 86.31593 103.43696
#
# Poissons Ratio (x) = 1.13676 -0.15567
# Poissons Ratio (y) = 0.10620 0.59584
# Poissons Ratio (z) = -0.01214 0.49722
#
# Static dielectric constant tensor:
#      x y z
#    x 2.951820 0.000000 0.000000 
#    y 0.000000 3.755530 0.000000 
#    z 0.000000 0.000000 3.748250 
# 
# 
# High freq. dielectric constant tensor:
#      x y z
#    x 1.691430 0.000000 0.000000 
#    y 0.000000 1.755550 0.000000 
#    z 0.000000 0.000000 1.765610 
# 
# From -- ./inp_files/3769.got.cif
#   From: 2010.03.12/outbox.cif.g09.slc.cpg/sg25_2_cif.got.tgz:3769.got - 2010.04.14 03:30:10.
