data_PCOD8166609
_publ_section_title
;
Structure prediction by ZEFSAII (Michael W. Deem and Ramdas Pophale) SiO2 
 PCOD8166609
Probable space group: P M M 2
;
_chemical_formula_sum "Si O2"
_cell_formula_units_Z 32
_cell_length_a 9.368762
_cell_length_b 17.669053
_cell_length_c 11.163848
_cell_angle_alpha 90.000000
_cell_angle_beta 90.000000
_cell_angle_gamma 90.000000
_cell_volume 1848.031607
_symmetry_space_group_name_H-M "P M M 2"
_symmetry_group_IT_number 25
_symmetry_cell_setting 'orthorhombic'
loop_
_space_group_symop_operation_xyz
x,y,z
-x,-y,z
-x,y,z
x,-y,z
loop_
_atom_site_type_symbol
_atom_site_label
_atom_site_fract_x
_atom_site_fract_y
_atom_site_fract_z
Si Si1 0.656770 0.695424 0.369740
Si Si2 0.753465 0.822148 0.203523
Si Si3 0.170282 0.586040 0.221587
Si Si4 0.667929 0.198635 0.582041
Si Si5 0.160478 0.913174 0.425776
Si Si6 0.172235 0.800290 0.828122
Si Si7 0.339011 0.913203 0.982716
Si Si8 0.844167 0.699476 0.034414
O O1 0.500000 0.658561 0.371153
O O2 0.651199 0.765690 0.277306
O O3 0.768416 0.629439 0.337265
O O4 0.696461 0.727736 0.500335
O O5 0.839250 0.874819 0.295191
O O6 0.860373 0.769669 0.126937
O O7 0.663890 0.874009 0.112871
O O8 0.224068 0.500000 0.219982
O O9 0.231650 0.628349 0.101465
O O10 0.000000 0.591647 0.227950
O O11 0.500000 0.186701 0.607808
O O12 0.728391 0.124002 0.517492
O O13 0.756720 0.213713 0.701232
O O14 0.000000 0.905537 0.477696
O O15 0.206111 0.000000 0.411527
O O16 0.230014 0.877595 0.886657
O O17 0.000000 0.803824 0.820150
O O18 0.228157 0.730211 0.912430
O O19 0.500000 0.905806 0.932493
O O20 0.293394 0.000000 0.998283
O O21 0.000000 0.670896 0.998563
#
# Coordination Sequence:
#
# PCOD8166609 Si02
#       8
#     4   4   4   4   4   4   4   4
#     4   9  18  31  49  73  98 126 160 196 234 280
#     4   9  16  29  48  70  96 125 158 197 241 289
#     4   9  17  30  51  79 108 132 151 179 226 283
#     4  10  21  36  52  69  92 126 167 208 249 291
#     4  10  20  32  48  71  97 126 162 206 254 300
#     4  10  20  34  52  70  90 123 166 209 248 285
#     4  10  20  32  47  68  95 127 161 201 250 299
#     4   8  15  28  47  72  98 123 153 188 228 275
#
# _framework density 17.315721
#
# number of rings (size 3 to 8) (size 9 to 14) (size 15 to 20)
#    0.000    2.625    0.000    1.875    0.000    5.750 
#    0.000    0.625    0.000    0.750    0.000    1.750 
#    0.000    0.000    0.000    0.000    0.000    0.000 
#
# Total GULP energy -396530.481581 kJ/mol
# GULP energy per Si atom -12391.577549 kJ/mol
# Density = 1.727631 g / cm^3
# Si number density = 17.315721 Si / 1000 Ang^3
#
#
#
# Elastic Constant Matrix: (Units=GPa)
#
#
# Indices 1 2 3 4 5 6 
#
# 1 78.2404 41.0685 42.2692 0.0000 0.0000 0.0000
# 2 41.0685 125.3776 55.4063 0.0000 0.0000 0.0000
# 3 42.2692 55.4063 119.3428 0.0000 0.0000 0.0000
# 4 0.0000 0.0000 0.0000 15.3810 0.0000 0.0000
# 5 0.0000 0.0000 0.0000 0.0000 24.4883 0.0000
# 6 0.0000 0.0000 0.0000 0.0000 0.0000 21.3642
#
#
#
# Elastic Compliance Matrix: (Units=1/GPa)
#
#
# Indices 1 2 3 4 5 6 
#
# 1 0.017049 -0.003669 -0.004335 0.000000 0.000000 0.000000
# 2 -0.003669 0.010824 -0.003726 0.000000 0.000000 0.000000
# 3 -0.004335 -0.003726 0.011644 0.000000 0.000000 0.000000
# 4 0.000000 0.000000 0.000000 0.065015 0.000000 0.000000
# 5 0.000000 0.000000 0.000000 0.000000 0.040836 0.000000
# 6 0.000000 0.000000 0.000000 0.000000 0.000000 0.046807
#
#
# Mechanical properties :
#
#
# Convention : Reuss Voigt Hill
#
# Bulk Modulus (GPa) = 62.27431 66.71655 64.49543
# Shear Modulus (GPa) = 22.62567 24.52782 23.57674
#
# Velocity S-wave (km/s) = 3.61869 3.76773 3.69396
# Velocity P-wave (km/s) = 7.31451 7.58557 7.45127
#
# Compressibility (1/GPa) = 0.01605799
#
# Stress axis : x y z
#
# Youngs Moduli (GPa) = 58.65474 92.38612 85.87799
#
# Poissons Ratio (x) = 0.33894 0.37230
# Poissons Ratio (y) = 0.21519 0.31997
# Poissons Ratio (z) = 0.25428 0.34421
#
# Static dielectric constant tensor:
#      x y z
#    x 3.131640 0.000000 0.000000 
#    y 0.000000 3.191400 0.000000 
#    z 0.000000 0.000000 3.248630 
# 
# 
# High freq. dielectric constant tensor:
#      x y z
#    x 1.662750 0.000000 0.000000 
#    y 0.000000 1.652360 0.000000 
#    z 0.000000 0.000000 1.662220 
# 
# From -- ./inp_files/4420.got.cif
#   From: 2010.03.12/outbox.cif.g09.slc.cpg/sg25_3_cif.got.tgz:4420.got - 2010.04.14 03:30:10.
