data_PCOD8166378
_publ_section_title
;
Structure prediction by ZEFSAII (Michael W. Deem and Ramdas Pophale) SiO2 
 PCOD8166378
Probable space group: P M M 2
;
_chemical_formula_sum "Si O2"
_cell_formula_units_Z 32
_cell_length_a 8.895517
_cell_length_b 14.676569
_cell_length_c 12.497917
_cell_angle_alpha 90.000000
_cell_angle_beta 90.000000
_cell_angle_gamma 90.000000
_cell_volume 1631.673916
_symmetry_space_group_name_H-M "P M M 2"
_symmetry_group_IT_number 25
_symmetry_cell_setting 'orthorhombic'
loop_
_space_group_symop_operation_xyz
x,y,z
-x,-y,z
-x,y,z
x,-y,z
loop_
_atom_site_type_symbol
_atom_site_label
_atom_site_fract_x
_atom_site_fract_y
_atom_site_fract_z
Si Si1 0.175932 0.662074 0.759090
Si Si2 0.822876 0.279375 0.120524
Si Si3 0.822880 0.289822 0.525802
Si Si4 0.820453 0.395800 0.321329
Si Si5 0.173995 0.901083 0.606216
Si Si6 0.669609 0.600032 0.950103
Si Si7 0.673878 0.101323 0.051357
Si Si8 0.675421 0.153620 0.812286
O O1 0.224868 0.658298 0.634692
O O2 0.267699 0.588939 0.828977
O O3 0.219987 0.758241 0.809999
O O4 0.000000 0.643643 0.771236
O O5 0.760110 0.337519 0.220736
O O6 0.764037 0.175795 0.120594
O O7 0.000000 0.276122 0.124533
O O8 0.771532 0.329302 0.013300
O O9 0.752627 0.344587 0.426006
O O10 0.769352 0.183270 0.531670
O O11 0.000000 0.291445 0.511962
O O12 0.759757 0.500000 0.316356
O O13 0.000000 0.397363 0.323220
O O14 0.272013 0.909299 0.714040
O O15 0.000000 0.882343 0.637378
O O16 0.190392 0.000000 0.547510
O O17 0.500000 0.638116 0.948643
O O18 0.675896 0.500000 0.003418
O O19 0.500000 0.120161 0.073606
O O20 0.720365 0.000000 0.090773
O O21 0.706853 0.104749 0.924685
O O22 0.500000 0.178407 0.798990
#
# Coordination Sequence:
#
# PCOD8166378 Si02
#       8
#     4   4   4   4   4   4   4   4
#     4  10  19  32  53  82 113 144 179 222 274 327
#     4  11  22  36  57  83 110 140 184 238 282 323
#     4   8  16  31  51  77 108 139 176 221 275 331
#     4   9  18  34  56  81 108 140 181 230 281 329
#     4   9  17  29  47  74 108 144 182 225 270 318
#     4  11  23  37  54  78 111 151 186 220 274 338
#     4  10  21  36  54  77 109 150 188 221 269 333
#     4  10  18  30  50  75 107 147 186 219 261 321
#
# _framework density 19.611763
#
# number of rings (size 3 to 8) (size 9 to 14) (size 15 to 20)
#    0.000    2.250    1.250    3.000    0.000    3.500 
#    0.000    1.875    0.000    9.750    0.000    1.750 
#    0.000    0.000    0.000    0.000    0.000    0.000 
#
# Total GULP energy -396584.121006 kJ/mol
# GULP energy per Si atom -12393.253781 kJ/mol
# Density = 1.956713 g / cm^3
# Si number density = 19.611763 Si / 1000 Ang^3
#
#
#
# Elastic Constant Matrix: (Units=GPa)
#
#
# Indices 1 2 3 4 5 6 
#
# 1 41.9651 31.2916 27.1335 0.0000 0.0000 0.0000
# 2 31.2916 145.0460 68.1301 0.0000 0.0000 0.0000
# 3 27.1335 68.1301 112.6510 0.0000 0.0000 0.0000
# 4 0.0000 0.0000 0.0000 26.8839 0.0000 0.0000
# 5 0.0000 0.0000 0.0000 0.0000 10.1292 0.0000
# 6 0.0000 0.0000 0.0000 0.0000 0.0000 21.7072
#
#
#
# Elastic Compliance Matrix: (Units=1/GPa)
#
#
# Indices 1 2 3 4 5 6 
#
# 1 0.030033 -0.004304 -0.004631 0.000000 0.000000 0.000000
# 2 -0.004304 0.010247 -0.005161 0.000000 0.000000 0.000000
# 3 -0.004631 -0.005161 0.013113 0.000000 0.000000 0.000000
# 4 0.000000 0.000000 0.000000 0.037197 0.000000 0.000000
# 5 0.000000 0.000000 0.000000 0.000000 0.098725 0.000000
# 6 0.000000 0.000000 0.000000 0.000000 0.000000 0.046068
#
#
# Mechanical properties :
#
#
# Convention : Reuss Voigt Hill
#
# Bulk Modulus (GPa) = 39.67872 61.41916 50.54894
# Shear Modulus (GPa) = 18.38414 23.28452 20.83433
#
# Velocity S-wave (km/s) = 3.06503 3.44942 3.26289
# Velocity P-wave (km/s) = 5.72729 6.87388 6.32661
#
# Compressibility (1/GPa) = 0.02520242
#
# Stress axis : x y z
#
# Youngs Moduli (GPa) = 33.29697 97.59095 76.25799
#
# Poissons Ratio (x) = 0.42003 0.35313
# Poissons Ratio (y) = 0.14331 0.39353
# Poissons Ratio (z) = 0.15419 0.50362
#
# Static dielectric constant tensor:
#      x y z
#    x 3.354960 0.000000 0.000000 
#    y 0.000000 3.809450 0.000000 
#    z 0.000000 0.000000 3.648650 
# 
# 
# High freq. dielectric constant tensor:
#      x y z
#    x 1.737060 0.000000 0.000000 
#    y 0.000000 1.776660 0.000000 
#    z 0.000000 0.000000 1.742160 
# 
# From -- ./inp_files/4262.got.cif
#   From: 2010.03.12/outbox.cif.g09.slc.cpg/sg25_3_cif.got.tgz:4262.got - 2010.04.14 03:30:10.
