data_PCOD8166144
_publ_section_title
;
Structure prediction by ZEFSAII (Michael W. Deem and Ramdas Pophale) SiO2 
 PCOD8166144
Probable space group: I 21 21 21
;
_chemical_formula_sum "Si O2"
_cell_formula_units_Z 32
_cell_length_a 13.335263
_cell_length_b 8.192386
_cell_length_c 12.722541
_cell_angle_alpha 90.000000
_cell_angle_beta 90.000000
_cell_angle_gamma 90.000000
_cell_volume 1389.907349
_symmetry_space_group_name_H-M "I 21 21 21"
_symmetry_group_IT_number 24
_symmetry_cell_setting 'orthorhombic'
loop_
_space_group_symop_operation_xyz
x,y,z
-x,1/2-y,z
x,-y,1/2-z
1/2-x,y,-z
1/2+x,1/2+y,1/2+z
1/2-x,-y,1/2+z
1/2+x,1/2-y,-z
-x,1/2+y,1/2-z
loop_
_atom_site_type_symbol
_atom_site_label
_atom_site_fract_x
_atom_site_fract_y
_atom_site_fract_z
Si Si1 0.147682 0.000000 0.750000
Si Si2 0.270229 0.586059 0.112229
Si Si3 0.490680 0.575297 0.076732
Si Si4 0.798542 0.759738 0.317079
Si Si5 0.500000 0.750000 0.566253
O O1 0.079213 0.915522 0.837634
O O2 0.218370 0.885244 0.679247
O O3 0.387074 0.583107 0.142144
O O4 0.201274 0.677287 0.196918
O O5 0.235837 0.399260 0.103256
O O6 0.250000 0.671247 0.000000
O O7 0.500000 0.750000 0.013491
O O8 0.488998 0.413995 0.004046
O O9 0.908241 0.708195 0.356060
#
# Coordination Sequence:
#
# PCOD8166144 Si02
#       5
#     4   8   8   8   4
#     4  12  26  44  72 118 150 196 274 330 366 468
#     4  11  23  48  75 106 152 206 246 312 395 460
#     4  12  26  47  80 111 153 207 262 314 392 467
#     4  11  26  47  76 109 156 197 257 323 388 457
#     4  12  28  52  78 112 160 206 256 324 400 458
#
# _framework density 23.023116999999999
#
# number of rings (size 3 to 8) (size 9 to 14) (size 15 to 20)
#    0.000    0.500    5.000    3.000    1.750    4.000 
#    2.250    0.000    0.000    0.000    0.000    0.000 
#    0.000    0.000    0.000    0.000    0.000    0.000 
#
# Total GULP energy -198223.441660 kJ/mol
# GULP energy per Si atom -12388.965104 kJ/mol
# Density = 2.297072 g / cm^3
# Si number density = 23.023117 Si / 1000 Ang^3
#
#
#
# Elastic Constant Matrix: (Units=GPa)
#
#
# Indices 1 2 3 4 5 6 
#
# 1 163.1079 33.2329 55.7777 0.0000 0.0000 0.0000
# 2 33.2329 133.8585 42.5541 0.0000 0.0000 0.0000
# 3 55.7777 42.5541 133.2199 0.0000 0.0000 0.0000
# 4 0.0000 0.0000 0.0000 15.0266 0.0000 0.0000
# 5 0.0000 0.0000 0.0000 0.0000 43.6700 0.0000
# 6 0.0000 0.0000 0.0000 0.0000 0.0000 -35.4712
#
#
#
# Elastic Compliance Matrix: (Units=1/GPa)
#
#
# Indices 1 2 3 4 5 6 
#
# 1 0.007258 -0.000930 -0.002742 0.000000 0.000000 0.000000
# 2 -0.000930 0.008434 -0.002305 0.000000 0.000000 0.000000
# 3 -0.002742 -0.002305 0.009390 0.000000 0.000000 0.000000
# 4 0.000000 0.000000 0.000000 0.066549 0.000000 0.000000
# 5 0.000000 0.000000 0.000000 0.000000 0.022899 0.000000
# 6 0.000000 0.000000 0.000000 0.000000 0.000000 -0.028192
#
#
# Mechanical properties :
#
#
# Convention : Reuss Voigt Hill
#
# Bulk Modulus (GPa) = 76.16471 77.03506 76.59988
# Shear Modulus (GPa) = 48.70066 24.55320 36.62693
#
# Velocity S-wave (km/s) = 4.60422 3.26921 3.99291
# Velocity P-wave (km/s) = 7.83702 6.91251 7.38924
#
# Compressibility (1/GPa) = 0.01312944
#
# Stress axis : x y z
#
# Youngs Moduli (GPa) = 137.77838 118.56504 106.49129
#
# Poissons Ratio (x) = 0.11031 0.29196
# Poissons Ratio (y) = 0.12818 0.24542
# Poissons Ratio (z) = 0.37774 0.27324
#
# Static dielectric constant tensor:
#      x y z
#    x 4.316030 0.000000 0.000000 
#    y 0.000000 4.271650 0.000000 
#    z 0.000000 0.000000 4.676220 
# 
# 
# High freq. dielectric constant tensor:
#      x y z
#    x 1.923310 0.000000 0.000000 
#    y 0.000000 1.920010 0.000000 
#    z 0.000000 0.000000 1.897370 
# 
# From -- ./inp_files/10425.got.cif
#   From: 2010.03.12/outbox.cif.g09.slc.cpg/sg24_6_cif.got.tgz:10425.got - 2010.04.14 03:06:53.
