data_PCOD8166243
_publ_section_title
;
Structure prediction by ZEFSAII (Michael W. Deem and Ramdas Pophale) SiO2 
 PCOD8166243
Probable space group: I 21 21 21
;
_chemical_formula_sum "Si O2"
_cell_formula_units_Z 36
_cell_length_a 11.419225
_cell_length_b 5.173829
_cell_length_c 24.005520
_cell_angle_alpha 90.000000
_cell_angle_beta 90.000000
_cell_angle_gamma 90.000000
_cell_volume 1418.272947
_symmetry_space_group_name_H-M "I 21 21 21"
_symmetry_group_IT_number 24
_symmetry_cell_setting 'orthorhombic'
loop_
_space_group_symop_operation_xyz
x,y,z
-x,1/2-y,z
x,-y,1/2-z
1/2-x,y,-z
1/2+x,1/2+y,1/2+z
1/2-x,-y,1/2+z
1/2+x,1/2-y,-z
-x,1/2+y,1/2-z
loop_
_atom_site_type_symbol
_atom_site_label
_atom_site_fract_x
_atom_site_fract_y
_atom_site_fract_z
Si Si1 0.074049 0.000000 0.750000
Si Si2 0.119895 0.400649 0.016941
Si Si3 0.423202 0.500000 0.750000
Si Si4 0.665125 0.530561 0.366619
Si Si5 0.500000 0.750000 0.059452
Si Si6 0.801770 0.038463 0.368627
O O1 0.153943 0.057512 0.697329
O O2 0.000000 0.250000 0.765881
O O3 0.107530 0.456941 0.082989
O O4 0.000000 0.250000 0.000628
O O5 0.250000 0.279047 0.000000
O O6 0.108666 0.657762 0.979183
O O7 0.500000 0.750000 0.740943
O O8 0.349211 0.530297 0.806097
O O9 0.546977 0.481167 0.401145
O O10 0.695954 0.831514 0.372807
O O11 0.764353 0.327646 0.386339
#
# Coordination Sequence:
#
# PCOD8166243 Si02
#       6
#     4   8   4   8   4   8
#     4  12  24  42  76 110 156 208 264 330 416 484
#     4  12  28  50  81 117 161 219 273 337 405 487
#     4  12  26  48  78 114 154 206 266 336 398 484
#     4  12  26  48  75 116 157 208 264 336 405 485
#     4  12  28  46  80 112 164 204 280 330 406 480
#     4  12  27  49  78 113 160 209 266 332 408 482
#
# _framework density 25.382985999999999
#
# number of rings (size 3 to 8) (size 9 to 14) (size 15 to 20)
#    0.000    0.000    3.333    6.000    4.667    0.889 
#    0.000    0.000    0.000    0.000    0.000    0.000 
#    0.000    0.000    0.000    0.000    0.000    0.000 
#
# Total GULP energy -223081.992171 kJ/mol
# GULP energy per Si atom -12393.444010 kJ/mol
# Density = 2.532521 g / cm^3
# Si number density = 25.382986 Si / 1000 Ang^3
#
#
#
# Elastic Constant Matrix: (Units=GPa)
#
#
# Indices 1 2 3 4 5 6 
#
# 1 109.8166 14.7880 21.6134 0.0000 0.0000 0.0000
# 2 14.7880 77.0228 -15.8401 0.0000 0.0000 0.0000
# 3 21.6134 -15.8401 173.4147 0.0000 0.0000 0.0000
# 4 0.0000 0.0000 0.0000 32.1422 0.0000 0.0000
# 5 0.0000 0.0000 0.0000 0.0000 27.7536 0.0000
# 6 0.0000 0.0000 0.0000 0.0000 0.0000 39.0060
#
#
#
# Elastic Compliance Matrix: (Units=1/GPa)
#
#
# Indices 1 2 3 4 5 6 
#
# 1 0.009671 -0.002145 -0.001401 0.000000 0.000000 0.000000
# 2 -0.002145 0.013707 0.001519 0.000000 0.000000 0.000000
# 3 -0.001401 0.001519 0.006080 0.000000 0.000000 0.000000
# 4 0.000000 0.000000 0.000000 0.031112 0.000000 0.000000
# 5 0.000000 0.000000 0.000000 0.000000 0.036031 0.000000
# 6 0.000000 0.000000 0.000000 0.000000 0.000000 0.025637
#
#
# Mechanical properties :
#
#
# Convention : Reuss Voigt Hill
#
# Bulk Modulus (GPa) = 39.36286 44.59743 41.98015
# Shear Modulus (GPa) = 37.10302 42.42656 39.76479
#
# Velocity S-wave (km/s) = 3.82740 4.09278 3.96231
# Velocity P-wave (km/s) = 5.92227 6.32000 6.12436
#
# Compressibility (1/GPa) = 0.02540465
#
# Stress axis : x y z
#
# Youngs Moduli (GPa) = 103.40510 72.95305 164.47509
#
# Poissons Ratio (x) = 0.15648 0.23047
# Poissons Ratio (y) = 0.22179 -0.24990
# Poissons Ratio (z) = 0.14489 -0.11084
#
# Static dielectric constant tensor:
#      x y z
#    x 4.447770 0.000000 0.000000 
#    y 0.000000 4.468300 0.000000 
#    z 0.000000 0.000000 5.079880 
# 
# 
# High freq. dielectric constant tensor:
#      x y z
#    x 1.998330 0.000000 0.000000 
#    y 0.000000 2.014180 0.000000 
#    z 0.000000 0.000000 2.050050 
# 
# From -- ./inp_files/35417.got.cif
#   From: 2010.03.12/outbox.cif.g09.slc.cpg/sg24_18_cif.got.tgz:35417.got - 2010.04.14 03:06:53.
