data_PCOD8166862
_publ_section_title
;
Structure prediction by ZEFSAII (Michael W. Deem and Ramdas Pophale) SiO2 
 PCOD8166862
Probable space group: P M M 2
;
_chemical_formula_sum "Si O2"
_cell_formula_units_Z 32
_cell_length_a 9.552188
_cell_length_b 9.390063
_cell_length_c 20.911539
_cell_angle_alpha 90.000000
_cell_angle_beta 90.000000
_cell_angle_gamma 90.000000
_cell_volume 1875.674023
_symmetry_space_group_name_H-M "P M M 2"
_symmetry_group_IT_number 25
_symmetry_cell_setting 'orthorhombic'
loop_
_space_group_symop_operation_xyz
x,y,z
-x,-y,z
-x,y,z
x,-y,z
loop_
_atom_site_type_symbol
_atom_site_label
_atom_site_fract_x
_atom_site_fract_y
_atom_site_fract_z
Si Si1 0.667705 0.160572 0.528860
Si Si2 0.332795 0.659743 0.409945
Si Si3 0.655587 0.830920 0.665655
Si Si4 0.665940 0.842648 0.293229
Si Si5 0.336656 0.834647 0.149343
Si Si6 0.837433 0.165356 0.921226
Si Si7 0.341014 0.830781 0.803224
Si Si8 0.163422 0.665907 0.046699
O O1 0.500000 0.163561 0.531482
O O2 0.725942 0.260480 0.472660
O O3 0.727032 0.217621 0.598263
O O4 0.719445 0.000000 0.514885
O O5 0.500000 0.662522 0.409886
O O6 0.274551 0.500000 0.410981
O O7 0.273022 0.734570 0.345968
O O8 0.500000 0.767081 0.668150
O O9 0.724931 0.783256 0.733626
O O10 0.647813 0.000000 0.662376
O O11 0.500000 0.849529 0.298648
O O12 0.706735 0.793867 0.221821
O O13 0.727098 0.000000 0.307135
O O14 0.500000 0.805308 0.137413
O O15 0.247565 0.732155 0.105033
O O16 0.301841 0.000000 0.135576
O O17 0.754486 0.228752 0.860323
O O18 0.000000 0.187411 0.906552
O O19 0.802187 0.000000 0.934365
O O20 0.788524 0.255414 0.982199
O O21 0.500000 0.774356 0.811431
O O22 0.340786 0.000000 0.806395
O O23 0.199735 0.500000 0.040373
O O24 0.000000 0.691512 0.059485
#
# Coordination Sequence:
#
# PCOD8166862 Si02
#       8
#     4   4   4   4   4   4   4   4
#     4   8  12  18  29  44  64  94 130 165 201 241
#     4   9  15  20  28  46  73 105 138 168 200 242
#     4   7  10  17  30  49  71  95 127 166 204 242
#     4   8  14  25  39  55  78 107 137 170 209 253
#     4   9  18  32  50  71  92 115 146 184 225 268
#     4   9  17  29  45  64  85 109 138 175 218 259
#     4   8  13  22  38  60  83 106 135 172 211 252
#     4  10  21  35  49  66  90 120 151 182 218 262
#
# _framework density 17.060533
#
# number of rings (size 3 to 8) (size 9 to 14) (size 15 to 20)
#    0.000    3.500    0.000    3.000    0.000    3.500 
#    0.000    2.500    0.000    0.750    0.000    1.750 
#    0.000    1.000    0.000    7.500    0.000    8.625 
#
# Total GULP energy -396417.567554 kJ/mol
# GULP energy per Si atom -12388.048986 kJ/mol
# Density = 1.702170 g / cm^3
# Si number density = 17.060533 Si / 1000 Ang^3
#
#
#
# Elastic Constant Matrix: (Units=GPa)
#
#
# Indices 1 2 3 4 5 6 
#
# 1 24.4984 23.4793 41.2191 0.0000 0.0000 0.0000
# 2 23.4793 86.9029 82.5999 0.0000 0.0000 0.0000
# 3 41.2191 82.5999 194.1635 0.0000 0.0000 0.0000
# 4 0.0000 0.0000 0.0000 4.9546 0.0000 0.0000
# 5 0.0000 0.0000 0.0000 0.0000 0.0649 0.0000
# 6 0.0000 0.0000 0.0000 0.0000 0.0000 12.6985
#
#
#
# Elastic Compliance Matrix: (Units=1/GPa)
#
#
# Indices 1 2 3 4 5 6 
#
# 1 0.066377 -0.007622 -0.010849 0.000000 0.000000 0.000000
# 2 -0.007622 0.020194 -0.006973 0.000000 0.000000 0.000000
# 3 -0.010849 -0.006973 0.010420 0.000000 0.000000 0.000000
# 4 0.000000 0.000000 0.000000 0.201834 0.000000 0.000000
# 5 0.000000 0.000000 0.000000 0.000000 15.402223 0.000000
# 6 0.000000 0.000000 0.000000 0.000000 0.000000 0.078749
#
#
# Mechanical properties :
#
#
# Convention : Reuss Voigt Hill
#
# Bulk Modulus (GPa) = 21.69025 66.68460 44.18742
# Shear Modulus (GPa) = 0.31554 14.09470 7.20512
#
# Velocity S-wave (km/s) = 0.43053 2.87742 2.05729
# Velocity P-wave (km/s) = 3.60395 7.08599 5.62137
#
# Compressibility (1/GPa) = 0.04610366
#
# Stress axis : x y z
#
# Youngs Moduli (GPa) = 15.06541 49.52008 95.97283
#
# Poissons Ratio (x) = 0.37745 1.04118
# Poissons Ratio (y) = 0.11483 0.66918
# Poissons Ratio (z) = 0.16344 0.34528
#
# Static dielectric constant tensor:
#      x y z
#    x 2.672470 0.000000 0.000000 
#    y 0.000000 3.035770 0.000000 
#    z 0.000000 0.000000 3.708340 
# 
# 
# High freq. dielectric constant tensor:
#      x y z
#    x 1.590830 0.000000 0.000000 
#    y 0.000000 1.629310 0.000000 
#    z 0.000000 0.000000 1.684640 
# 
# From -- ./inp_files/6317.got.cif
#   From: 2010.03.12/outbox.cif.g09.slc.cpg/sg25_4_cif.got.tgz:6317.got - 2010.04.14 03:30:10.
