data_PCOD8166514
_publ_section_title
;
Structure prediction by ZEFSAII (Michael W. Deem and Ramdas Pophale) SiO2 
 PCOD8166514
Probable space group: P M M 2
;
_chemical_formula_sum "Si O2"
_cell_formula_units_Z 20
_cell_length_a 9.069214
_cell_length_b 14.524070
_cell_length_c 7.960368
_cell_angle_alpha 90.000000
_cell_angle_beta 90.000000
_cell_angle_gamma 90.000000
_cell_volume 1048.554790
_symmetry_space_group_name_H-M "P M M 2"
_symmetry_group_IT_number 25
_symmetry_cell_setting 'orthorhombic'
loop_
_space_group_symop_operation_xyz
x,y,z
-x,-y,z
-x,y,z
x,-y,z
loop_
_atom_site_type_symbol
_atom_site_label
_atom_site_fract_x
_atom_site_fract_y
_atom_site_fract_z
Si Si1 0.668854 0.101836 0.306860
Si Si2 0.675157 0.276182 0.831937
Si Si3 0.828340 0.896142 0.960908
Si Si4 0.672242 0.288200 0.464686
Si Si5 0.676009 0.396052 0.145099
O O1 0.500000 0.114280 0.244663
O O2 0.774771 0.116536 0.150452
O O3 0.709313 0.179806 0.442243
O O4 0.692222 0.000000 0.386492
O O5 0.500000 0.266627 0.838581
O O6 0.726706 0.317784 0.650909
O O7 0.741970 0.174321 0.842998
O O8 0.734521 0.341369 0.981259
O O9 0.000000 0.873039 0.954466
O O10 0.795875 0.000000 0.898064
O O11 0.500000 0.305797 0.453180
O O12 0.742695 0.349071 0.314251
O O13 0.500000 0.394280 0.145470
O O14 0.735897 0.500000 0.135944
#
# Coordination Sequence:
#
# PCOD8166514 Si02
#       5
#     4   4   4   4   4
#     4   9  16  29  50  73  99 131 169 212 253 298
#     4  10  19  32  53  78 103 135 172 207 250 302
#     4  10  20  33  50  74 104 137 172 209 252 301
#     4   9  17  29  48  76 104 130 165 207 251 300
#     4   9  17  30  49  76 108 134 162 209 261 301
#
# _framework density 19.073872000000001
#
# number of rings (size 3 to 8) (size 9 to 14) (size 15 to 20)
#    0.000    2.600    2.000    0.600    0.000    2.800 
#    0.000    7.000    0.000    3.000    0.000    0.000 
#    0.000    0.000    0.000    0.000    0.000    0.000 
#
# Total GULP energy -247870.038324 kJ/mol
# GULP energy per Si atom -12393.501916 kJ/mol
# Density = 1.903046 g / cm^3
# Si number density = 19.073872 Si / 1000 Ang^3
#
#
#
# Elastic Constant Matrix: (Units=GPa)
#
#
# Indices 1 2 3 4 5 6 
#
# 1 23.2658 21.6165 20.0861 0.0000 0.0000 0.0000
# 2 21.6165 136.5186 84.7857 0.0000 0.0000 0.0000
# 3 20.0861 84.7857 164.2351 0.0000 0.0000 0.0000
# 4 0.0000 0.0000 0.0000 17.3971 0.0000 0.0000
# 5 0.0000 0.0000 0.0000 0.0000 4.9752 0.0000
# 6 0.0000 0.0000 0.0000 0.0000 0.0000 11.2124
#
#
#
# Elastic Compliance Matrix: (Units=1/GPa)
#
#
# Indices 1 2 3 4 5 6 
#
# 1 0.051426 -0.006236 -0.003070 0.000000 0.000000 0.000000
# 2 -0.006236 0.011538 -0.005194 0.000000 0.000000 0.000000
# 3 -0.003070 -0.005194 0.009146 0.000000 0.000000 0.000000
# 4 0.000000 0.000000 0.000000 0.057481 0.000000 0.000000
# 5 0.000000 0.000000 0.000000 0.000000 0.200995 0.000000
# 6 0.000000 0.000000 0.000000 0.000000 0.000000 0.089187
#
#
# Mechanical properties :
#
#
# Convention : Reuss Voigt Hill
#
# Bulk Modulus (GPa) = 23.19664 64.11068 43.65366
# Shear Modulus (GPa) = 10.79580 19.88569 15.34074
#
# Velocity S-wave (km/s) = 2.38166 3.23238 2.83906
# Velocity P-wave (km/s) = 4.44420 6.90042 5.80373
#
# Compressibility (1/GPa) = 0.04310970
#
# Stress axis : x y z
#
# Youngs Moduli (GPa) = 19.44537 86.66941 109.34237
#
# Poissons Ratio (x) = 0.54049 0.33569
# Poissons Ratio (y) = 0.12127 0.56790
# Poissons Ratio (z) = 0.05970 0.45014
#
# Static dielectric constant tensor:
#      x y z
#    x 3.010540 0.000000 0.000000 
#    y 0.000000 3.741270 0.000000 
#    z 0.000000 0.000000 3.661850 
# 
# 
# High freq. dielectric constant tensor:
#      x y z
#    x 1.685040 0.000000 0.000000 
#    y 0.000000 1.745360 0.000000 
#    z 0.000000 0.000000 1.739630 
# 
# From -- ./inp_files/1768.got.cif
#   From: 2010.03.12/outbox.cif.g09.slc.cpg/sg25_1_cif.got.tgz:1768.got - 2010.04.14 03:30:10.
