data_PCOD8166906
_publ_section_title
;
Structure prediction by ZEFSAII (Michael W. Deem and Ramdas Pophale) SiO2 
 PCOD8166906
Probable space group: P M M 2
;
_chemical_formula_sum "Si O2"
_cell_formula_units_Z 28
_cell_length_a 8.911653
_cell_length_b 9.543019
_cell_length_c 17.886704
_cell_angle_alpha 90.000000
_cell_angle_beta 90.000000
_cell_angle_gamma 90.000000
_cell_volume 1521.158177
_symmetry_space_group_name_H-M "P M M 2"
_symmetry_group_IT_number 25
_symmetry_cell_setting 'orthorhombic'
loop_
_space_group_symop_operation_xyz
x,y,z
-x,-y,z
-x,y,z
x,-y,z
loop_
_atom_site_type_symbol
_atom_site_label
_atom_site_fract_x
_atom_site_fract_y
_atom_site_fract_z
Si Si1 0.674529 0.163719 0.405820
Si Si2 0.321913 0.345535 0.107816
Si Si3 0.823342 0.338189 0.533196
Si Si4 0.322300 0.845815 0.238061
Si Si5 0.826325 0.839718 0.816493
Si Si6 0.323012 0.160217 0.662552
Si Si7 0.328610 0.334261 0.941390
O O1 0.500000 0.191057 0.423257
O O2 0.774664 0.260495 0.457945
O O3 0.715723 0.209137 0.321149
O O4 0.711554 0.000000 0.419031
O O5 0.500000 0.353243 0.115693
O O6 0.252987 0.500000 0.117905
O O7 0.250875 0.250997 0.173520
O O8 0.282229 0.287190 0.025384
O O9 0.772100 0.500000 0.529701
O O10 0.747476 0.264781 0.603431
O O11 0.000000 0.325165 0.542327
O O12 0.500000 0.853284 0.229005
O O13 0.253181 0.000000 0.227172
O O14 0.732380 0.793766 0.744175
O O15 0.781805 0.743142 0.885468
O O16 0.000000 0.817204 0.797818
O O17 0.791011 0.000000 0.837950
O O18 0.500000 0.175627 0.659129
O O19 0.273469 0.000000 0.645095
O O20 0.500000 0.290402 0.924488
O O21 0.309177 0.500000 0.932624
#
# Coordination Sequence:
#
# PCOD8166906 Si02
#       7
#     4   4   4   4   4   4   4
#     4   9  18  33  53  77 104 134 170 211 255 304
#     4   8  14  25  42  67  99 132 166 205 250 299
#     4  11  24  38  52  75 106 137 170 207 248 297
#     4   8  14  25  43  70 101 129 161 205 254 300
#     4  10  21  36  54  77 104 134 169 208 251 300
#     4  10  21  38  60  82 102 128 165 207 252 303
#     4   9  18  32  50  74 104 137 173 212 254 301
#
# _framework density 18.407025999999998
#
# number of rings (size 3 to 8) (size 9 to 14) (size 15 to 20)
#    0.000    2.714    0.000    3.429    0.000    6.857 
#    0.000    2.857    0.000    0.857    0.000    0.000 
#    0.000    0.000    0.000    0.000    0.000    0.000 
#
# Total GULP energy -347148.355997 kJ/mol
# GULP energy per Si atom -12398.155571 kJ/mol
# Density = 1.836513 g / cm^3
# Si number density = 18.407026 Si / 1000 Ang^3
#
#
#
# Elastic Constant Matrix: (Units=GPa)
#
#
# Indices 1 2 3 4 5 6 
#
# 1 47.7714 35.7699 37.3916 0.0000 0.0000 0.0000
# 2 35.7699 87.2588 76.7199 0.0000 0.0000 0.0000
# 3 37.3916 76.7199 145.7005 0.0000 0.0000 0.0000
# 4 0.0000 0.0000 0.0000 -3.0721 0.0000 0.0000
# 5 0.0000 0.0000 0.0000 0.0000 -4.6526 0.0000
# 6 0.0000 0.0000 0.0000 0.0000 0.0000 24.8994
#
#
#
# Elastic Compliance Matrix: (Units=1/GPa)
#
#
# Indices 1 2 3 4 5 6 
#
# 1 0.030621 -0.010508 -0.002325 0.000000 0.000000 0.000000
# 2 -0.010508 0.024946 -0.010439 0.000000 0.000000 0.000000
# 3 -0.002325 -0.010439 0.012957 0.000000 0.000000 0.000000
# 4 0.000000 0.000000 0.000000 -0.325508 0.000000 0.000000
# 5 0.000000 0.000000 0.000000 0.000000 -0.214932 0.000000
# 6 0.000000 0.000000 0.000000 0.000000 0.000000 0.040162
#
#
# Mechanical properties :
#
#
# Convention : Reuss Voigt Hill
#
# Bulk Modulus (GPa) = 45.49680 64.49928 54.99804
# Shear Modulus (GPa) = -13.23154 12.15821 -0.53666
#
# Velocity S-wave (km/s) = -2.68401 2.57285 -0.54054
# Velocity P-wave (km/s) = 3.89429 6.62893 5.43637
#
# Compressibility (1/GPa) = 0.02197957
#
# Stress axis : x y z
#
# Youngs Moduli (GPa) = 32.65706 40.08733 77.18027
#
# Poissons Ratio (x) = 0.42124 0.17947
# Poissons Ratio (y) = 0.34316 0.80565
# Poissons Ratio (z) = 0.07594 0.41846
#
# Static dielectric constant tensor:
#      x y z
#    x 3.088770 0.000000 0.000000 
#    y 0.000000 3.604500 0.000000 
#    z 0.000000 0.000000 3.573690 
# 
# 
# High freq. dielectric constant tensor:
#      x y z
#    x 1.683780 0.000000 0.000000 
#    y 0.000000 1.710360 0.000000 
#    z 0.000000 0.000000 1.728300 
# 
# From -- ./inp_files/6045.got.cif
#   From: 2010.03.12/outbox.cif.g09.slc.cpg/sg25_4_cif.got.tgz:6045.got - 2010.04.14 03:30:10.
