data_PCOD8166792
_publ_section_title
;
Structure prediction by ZEFSAII (Michael W. Deem and Ramdas Pophale) SiO2 
 PCOD8166792
Probable space group: P M M 2
;
_chemical_formula_sum "Si O2"
_cell_formula_units_Z 32
_cell_length_a 9.229780
_cell_length_b 15.386294
_cell_length_c 11.959690
_cell_angle_alpha 90.000000
_cell_angle_beta 90.000000
_cell_angle_gamma 90.000000
_cell_volume 1698.420796
_symmetry_space_group_name_H-M "P M M 2"
_symmetry_group_IT_number 25
_symmetry_cell_setting 'orthorhombic'
loop_
_space_group_symop_operation_xyz
x,y,z
-x,-y,z
-x,y,z
x,-y,z
loop_
_atom_site_type_symbol
_atom_site_label
_atom_site_fract_x
_atom_site_fract_y
_atom_site_fract_z
Si Si1 0.171848 0.249693 0.498270
Si Si2 0.329324 0.147291 0.872616
Si Si3 0.668851 0.348245 0.868243
Si Si4 0.165858 0.096965 0.655702
Si Si5 0.832940 0.402940 0.653522
Si Si6 0.166210 0.097440 0.091359
Si Si7 0.667396 0.599173 0.113532
Si Si8 0.828389 0.745381 0.247443
O O1 0.226174 0.163905 0.563283
O O2 0.230698 0.334871 0.563350
O O3 0.234966 0.248341 0.373034
O O4 0.000000 0.251000 0.491380
O O5 0.500000 0.132222 0.872848
O O6 0.286621 0.247906 0.869527
O O7 0.262242 0.100505 0.765936
O O8 0.265024 0.104149 0.982793
O O9 0.500000 0.361447 0.846005
O O10 0.751991 0.397201 0.770730
O O11 0.716581 0.390444 0.985219
O O12 0.000000 0.120034 0.687386
O O13 0.176651 0.000000 0.605069
O O14 0.812825 0.500000 0.604630
O O15 0.000000 0.381366 0.676897
O O16 0.218963 0.166833 0.183547
O O17 0.000000 0.116034 0.057304
O O18 0.182440 0.000000 0.141278
O O19 0.500000 0.626766 0.125336
O O20 0.692594 0.500000 0.151304
O O21 0.762167 0.660429 0.191237
O O22 0.000000 0.734210 0.247292
#
# Coordination Sequence:
#
# PCOD8166792 Si02
#       8
#     4   4   4   4   4   4   4   4
#     4   9  19  36  55  78 108 141 178 222 267 310
#     4  11  21  34  56  83 110 142 179 220 268 323
#     4  10  20  35  56  80 108 142 176 216 268 322
#     4  10  20  35  57  82 109 143 179 217 267 324
#     4  10  20  34  55  81 108 140 176 216 264 318
#     4  10  21  36  55  81 112 144 179 222 272 323
#     4  10  21  38  58  80 110 145 179 221 274 328
#     4  10  21  37  58  81 107 143 186 230 268 312
#
# _framework density 18.841031000000001
#
# number of rings (size 3 to 8) (size 9 to 14) (size 15 to 20)
#    0.000    2.000    2.500    1.125    0.000    5.000 
#    0.000    5.000    0.000    0.000    0.000    1.750 
#    0.000    0.000    0.000    0.000    0.000    0.000 
#
# Total GULP energy -396871.867917 kJ/mol
# GULP energy per Si atom -12402.245872 kJ/mol
# Density = 1.879815 g / cm^3
# Si number density = 18.841031 Si / 1000 Ang^3
#
#
#
# Elastic Constant Matrix: (Units=GPa)
#
#
# Indices 1 2 3 4 5 6 
#
# 1 39.8529 33.6404 34.9184 0.0000 0.0000 0.0000
# 2 33.6404 139.1194 68.6292 0.0000 0.0000 0.0000
# 3 34.9184 68.6292 146.5887 0.0000 0.0000 0.0000
# 4 0.0000 0.0000 0.0000 11.7113 0.0000 0.0000
# 5 0.0000 0.0000 0.0000 0.0000 6.5640 0.0000
# 6 0.0000 0.0000 0.0000 0.0000 0.0000 22.1042
#
#
#
# Elastic Compliance Matrix: (Units=1/GPa)
#
#
# Indices 1 2 3 4 5 6 
#
# 1 0.034794 -0.005624 -0.005655 0.000000 0.000000 0.000000
# 2 -0.005624 0.010256 -0.003462 0.000000 0.000000 0.000000
# 3 -0.005655 -0.003462 0.009790 0.000000 0.000000 0.000000
# 4 0.000000 0.000000 0.000000 0.085388 0.000000 0.000000
# 5 0.000000 0.000000 0.000000 0.000000 0.152345 0.000000
# 6 0.000000 0.000000 0.000000 0.000000 0.000000 0.045240
#
#
# Mechanical properties :
#
#
# Convention : Reuss Voigt Hill
#
# Bulk Modulus (GPa) = 39.43541 66.65968 53.04755
# Shear Modulus (GPa) = 13.30680 20.63410 16.97045
#
# Velocity S-wave (km/s) = 2.66045 3.31292 3.00445
# Velocity P-wave (km/s) = 5.51483 7.07749 6.34445
#
# Compressibility (1/GPa) = 0.02535792
#
# Stress axis : x y z
#
# Youngs Moduli (GPa) = 28.74019 97.50637 102.14815
#
# Poissons Ratio (x) = 0.54836 0.57768
# Poissons Ratio (y) = 0.16163 0.35362
# Poissons Ratio (z) = 0.16254 0.33755
#
# Static dielectric constant tensor:
#      x y z
#    x 3.244560 0.000000 0.000000 
#    y 0.000000 3.661940 0.000000 
#    z 0.000000 0.000000 3.501860 
# 
# 
# High freq. dielectric constant tensor:
#      x y z
#    x 1.709600 0.000000 0.000000 
#    y 0.000000 1.750450 0.000000 
#    z 0.000000 0.000000 1.724690 
# 
# From -- ./inp_files/4161.got.cif
#   From: 2010.03.12/outbox.cif.g09.slc.cpg/sg25_3_cif.got.tgz:4161.got - 2010.04.14 03:30:10.
