data_PCOD8166891
_publ_section_title
;
Structure prediction by ZEFSAII (Michael W. Deem and Ramdas Pophale) SiO2 
 PCOD8166891
Probable space group: P M M 2
;
_chemical_formula_sum "Si O2"
_cell_formula_units_Z 32
_cell_length_a 9.298933
_cell_length_b 13.788366
_cell_length_c 12.843824
_cell_angle_alpha 90.000000
_cell_angle_beta 90.000000
_cell_angle_gamma 90.000000
_cell_volume 1646.797758
_symmetry_space_group_name_H-M "P M M 2"
_symmetry_group_IT_number 25
_symmetry_cell_setting 'orthorhombic'
loop_
_space_group_symop_operation_xyz
x,y,z
-x,-y,z
-x,y,z
x,-y,z
loop_
_atom_site_type_symbol
_atom_site_label
_atom_site_fract_x
_atom_site_fract_y
_atom_site_fract_z
Si Si1 0.668483 0.389962 0.463450
Si Si2 0.341430 0.114640 0.563193
Si Si3 0.667917 0.729427 0.262185
Si Si4 0.830461 0.284560 0.874539
Si Si5 0.333708 0.612888 0.056408
Si Si6 0.166999 0.886755 0.364305
Si Si7 0.330542 0.111131 0.796102
Si Si8 0.166225 0.387706 0.661239
O O1 0.500000 0.384736 0.481516
O O2 0.722266 0.500000 0.450555
O O3 0.715986 0.335497 0.359611
O O4 0.743638 0.342623 0.565034
O O5 0.500000 0.160210 0.541245
O O6 0.232921 0.150507 0.474101
O O7 0.285757 0.142322 0.678465
O O8 0.356176 0.000000 0.559813
O O9 0.500000 0.754096 0.264478
O O10 0.710665 0.672624 0.158470
O O11 0.756440 0.829931 0.269497
O O12 0.757265 0.178254 0.876482
O O13 0.789140 0.334040 0.766111
O O14 0.000000 0.273983 0.891145
O O15 0.767137 0.351948 0.964015
O O16 0.500000 0.630969 0.027197
O O17 0.305155 0.500000 0.078734
O O18 0.000000 0.861896 0.366037
O O19 0.195839 0.000000 0.346265
O O20 0.500000 0.125990 0.812458
O O21 0.287297 0.000000 0.818681
O O22 0.205684 0.500000 0.677161
O O23 0.000000 0.372808 0.635197
#
# Coordination Sequence:
#
# PCOD8166891 Si02
#       8
#     4   4   4   4   4   4   4   4
#     4   9  18  33  54  81 111 141 176 223 279 337
#     4   8  15  30  52  77 108 148 190 232 277 325
#     4  10  21  37  59  85 111 143 187 237 289 340
#     4  11  23  37  57  85 117 152 191 236 289 346
#     4  10  22  42  66  88 111 144 191 244 292 343
#     4  10  21  35  52  79 116 154 192 233 277 333
#     4   9  19  36  57  82 114 152 196 242 285 336
#     4   9  19  35  52  75 112 151 182 219 273 337
#
# _framework density 19.431650000000001
#
# number of rings (size 3 to 8) (size 9 to 14) (size 15 to 20)
#    0.000    2.500    0.000    2.250    1.750    5.750 
#    0.000    3.125    0.000    3.000    0.000    0.000 
#    0.000    0.000    0.000    0.000    0.000    0.000 
#
# Total GULP energy -396835.968211 kJ/mol
# GULP energy per Si atom -12401.124007 kJ/mol
# Density = 1.938742 g / cm^3
# Si number density = 19.431650 Si / 1000 Ang^3
#
#
#
# Elastic Constant Matrix: (Units=GPa)
#
#
# Indices 1 2 3 4 5 6 
#
# 1 77.1494 44.7349 53.7497 0.0000 0.0000 0.0000
# 2 44.7349 74.1944 41.2874 0.0000 0.0000 0.0000
# 3 53.7497 41.2874 95.7907 0.0000 0.0000 0.0000
# 4 0.0000 0.0000 0.0000 36.5500 0.0000 0.0000
# 5 0.0000 0.0000 0.0000 0.0000 -7.8721 0.0000
# 6 0.0000 0.0000 0.0000 0.0000 0.0000 25.5632
#
#
#
# Elastic Compliance Matrix: (Units=1/GPa)
#
#
# Indices 1 2 3 4 5 6 
#
# 1 0.025812 -0.009871 -0.010229 0.000000 0.000000 0.000000
# 2 -0.009871 0.021506 -0.003731 0.000000 0.000000 0.000000
# 3 -0.010229 -0.003731 0.017787 0.000000 0.000000 0.000000
# 4 0.000000 0.000000 0.000000 0.027360 0.000000 0.000000
# 5 0.000000 0.000000 0.000000 0.000000 -0.127030 0.000000
# 6 0.000000 0.000000 0.000000 0.000000 0.000000 0.039119
#
#
# Mechanical properties :
#
#
# Convention : Reuss Voigt Hill
#
# Bulk Modulus (GPa) = 57.32727 58.51982 57.92355
# Shear Modulus (GPa) = 86.16445 18.00569 52.08507
#
# Velocity S-wave (km/s) = 6.66623 3.04734 5.18290
# Velocity P-wave (km/s) = 9.42430 6.52402 8.10495
#
# Compressibility (1/GPa) = 0.01744371
#
# Stress axis : x y z
#
# Youngs Moduli (GPa) = 38.74169 46.49930 56.22083
#
# Poissons Ratio (x) = 0.45899 0.57508
# Poissons Ratio (y) = 0.38242 0.20974
# Poissons Ratio (z) = 0.39629 0.17347
#
# Static dielectric constant tensor:
#      x y z
#    x 3.430730 0.000000 0.000000 
#    y 0.000000 3.628750 0.000000 
#    z 0.000000 0.000000 3.507470 
# 
# 
# High freq. dielectric constant tensor:
#      x y z
#    x 1.748060 0.000000 0.000000 
#    y 0.000000 1.767500 0.000000 
#    z 0.000000 0.000000 1.741740 
# 
# From -- ./inp_files/4210.got.cif
#   From: 2010.03.12/outbox.cif.g09.slc.cpg/sg25_3_cif.got.tgz:4210.got - 2010.04.14 03:30:10.
