data_PCOD8166037
_publ_section_title
;
Structure prediction by ZEFSAII (Michael W. Deem and Ramdas Pophale) SiO2 
 PCOD8166037
Probable space group: I 21 21 21
;
_chemical_formula_sum "Si O2"
_cell_formula_units_Z 40
_cell_length_a 8.313773
_cell_length_b 15.446149
_cell_length_c 13.615278
_cell_angle_alpha 90.000000
_cell_angle_beta 90.000000
_cell_angle_gamma 90.000000
_cell_volume 1748.416497
_symmetry_space_group_name_H-M "I 21 21 21"
_symmetry_group_IT_number 24
_symmetry_cell_setting 'orthorhombic'
loop_
_space_group_symop_operation_xyz
x,y,z
-x,1/2-y,z
x,-y,1/2-z
1/2-x,y,-z
1/2+x,1/2+y,1/2+z
1/2-x,-y,1/2+z
1/2+x,1/2-y,-z
-x,1/2+y,1/2-z
loop_
_atom_site_type_symbol
_atom_site_label
_atom_site_fract_x
_atom_site_fract_y
_atom_site_fract_z
Si Si1 0.521433 0.014040 0.554807
Si Si2 0.850815 0.684003 0.095593
Si Si3 0.330935 0.723739 0.250542
Si Si4 0.107794 0.669350 0.424430
Si Si5 0.138362 0.551073 0.850007
O O1 0.396045 0.082349 0.598901
O O2 0.515019 0.026046 0.436591
O O3 0.688406 0.030840 0.607727
O O4 0.485894 0.912978 0.580059
O O5 0.743931 0.694783 0.193488
O O6 0.000000 0.750000 0.099493
O O7 0.750000 0.708481 0.000000
O O8 0.500000 0.750000 0.303764
O O9 0.195684 0.685963 0.321877
O O10 0.375024 0.652811 0.168713
O O11 0.250000 0.648668 0.500000
O O12 0.000000 0.750000 0.457631
O O13 0.099257 0.500000 0.750000
#
# Coordination Sequence:
#
# PCOD8166037 Si02
#       5
#     8   8   8   8   8
#     4  11  23  42  68 102 136 185 234 280 349 420
#     4  12  24  41  69 107 145 175 228 293 363 421
#     4  12  25  44  70 106 140 181 232 291 358 422
#     4  12  26  48  73  98 138 190 239 290 344 418
#     4  11  20  40  71  97 130 186 232 276 344 425
#
# _framework density 22.877845000000001
#
# number of rings (size 3 to 8) (size 9 to 14) (size 15 to 20)
#    0.000    0.400    6.000    4.200    0.000    0.800 
#    0.000    2.000    0.000    1.200    0.000    0.000 
#    0.000    0.000    0.000    0.000    0.000    0.000 
#
# Total GULP energy -247956.798279 kJ/mol
# GULP energy per Si atom -12397.839914 kJ/mol
# Density = 2.282577 g / cm^3
# Si number density = 22.877845 Si / 1000 Ang^3
#
#
#
# Elastic Constant Matrix: (Units=GPa)
#
#
# Indices 1 2 3 4 5 6 
#
# 1 66.1344 49.3773 21.6843 0.0000 0.0000 0.0000
# 2 49.3773 174.1668 49.1534 0.0000 0.0000 0.0000
# 3 21.6843 49.1534 124.7982 0.0000 0.0000 0.0000
# 4 0.0000 0.0000 0.0000 46.9145 0.0000 0.0000
# 5 0.0000 0.0000 0.0000 0.0000 18.6154 0.0000
# 6 0.0000 0.0000 0.0000 0.0000 0.0000 31.2642
#
#
#
# Elastic Compliance Matrix: (Units=1/GPa)
#
#
# Indices 1 2 3 4 5 6 
#
# 1 0.019382 -0.005113 -0.001354 0.000000 0.000000 0.000000
# 2 -0.005113 0.007808 -0.002187 0.000000 0.000000 0.000000
# 3 -0.001354 -0.002187 0.009110 0.000000 0.000000 0.000000
# 4 0.000000 0.000000 0.000000 0.021315 0.000000 0.000000
# 5 0.000000 0.000000 0.000000 0.000000 0.053719 0.000000
# 6 0.000000 0.000000 0.000000 0.000000 0.000000 0.031985
#
#
# Mechanical properties :
#
#
# Convention : Reuss Voigt Hill
#
# Bulk Modulus (GPa) = 52.65289 67.28104 59.96697
# Shear Modulus (GPa) = 29.94760 35.68442 32.81601
#
# Velocity S-wave (km/s) = 3.62197 3.95369 3.79146
# Velocity P-wave (km/s) = 6.36838 7.09330 6.74059
#
# Compressibility (1/GPa) = 0.01899231
#
# Stress axis : x y z
#
# Youngs Moduli (GPa) = 51.59430 128.06791 109.77436
#
# Poissons Ratio (x) = 0.65478 0.14863
# Poissons Ratio (y) = 0.26379 0.24008
# Poissons Ratio (z) = 0.06986 0.28009
#
# Static dielectric constant tensor:
#      x y z
#    x 3.977380 0.000000 0.000000 
#    y 0.000000 4.530640 0.000000 
#    z 0.000000 0.000000 4.312780 
# 
# 
# High freq. dielectric constant tensor:
#      x y z
#    x 1.883200 0.000000 0.000000 
#    y 0.000000 1.916150 0.000000 
#    z 0.000000 0.000000 1.906610 
# 
# From -- ./inp_files/24527.got.cif
#   From: 2010.03.12/outbox.cif.g09.slc.cpg/sg24_13_cif.got.tgz:24527.got - 2010.04.14 03:06:53.
