data_PCOD8166456
_publ_section_title
;
Structure prediction by ZEFSAII (Michael W. Deem and Ramdas Pophale) SiO2 
 PCOD8166456
Probable space group: P M M 2
;
_chemical_formula_sum "Si O2"
_cell_formula_units_Z 32
_cell_length_a 14.581135
_cell_length_b 9.053233
_cell_length_c 12.396833
_cell_angle_alpha 90.000000
_cell_angle_beta 90.000000
_cell_angle_gamma 90.000000
_cell_volume 1636.461451
_symmetry_space_group_name_H-M "P M M 2"
_symmetry_group_IT_number 25
_symmetry_cell_setting 'orthorhombic'
loop_
_space_group_symop_operation_xyz
x,y,z
-x,-y,z
-x,y,z
x,-y,z
loop_
_atom_site_type_symbol
_atom_site_label
_atom_site_fract_x
_atom_site_fract_y
_atom_site_fract_z
Si Si1 0.601607 0.169343 0.875000
Si Si2 0.363466 0.333794 0.095428
Si Si3 0.794523 0.825227 0.383978
Si Si4 0.159800 0.333231 0.170595
Si Si5 0.899928 0.164303 0.978180
Si Si6 0.786477 0.173048 0.774836
Si Si7 0.599348 0.169650 0.308420
Si Si8 0.106777 0.324984 0.583626
O O1 0.500000 0.192747 0.824179
O O2 0.677926 0.212530 0.784737
O O3 0.618264 0.000000 0.908223
O O4 0.608400 0.261726 0.983565
O O5 0.400395 0.500000 0.094128
O O6 0.255451 0.327167 0.109245
O O7 0.409803 0.253874 0.196095
O O8 0.842637 0.770473 0.274956
O O9 0.685980 0.777472 0.381406
O O10 0.845984 0.745842 0.480239
O O11 0.806447 0.000000 0.396781
O O12 0.132595 0.500000 0.204074
O O13 0.090884 0.269323 0.082073
O O14 0.828634 0.220874 0.889443
O O15 0.000000 0.162050 0.922919
O O16 0.870928 0.000000 0.016602
O O17 0.835396 0.270626 0.685402
O O18 0.802922 0.000000 0.748986
O O19 0.500000 0.190485 0.368514
O O20 0.617208 0.000000 0.279225
O O21 0.114496 0.500000 0.575417
O O22 0.000000 0.276036 0.591984
#
# Coordination Sequence:
#
# PCOD8166456 Si02
#       8
#     4   4   4   4   4   4   4   4
#     4  10  20  34  55  83 115 153 194 234 278 330
#     4  10  19  30  48  78 116 157 196 232 273 328
#     4  10  21  38  62  87 113 148 192 238 285 337
#     4  10  20  34  53  80 118 157 189 229 284 340
#     4  10  20  34  55  83 112 146 189 234 284 344
#     4  10  21  39  62  85 114 149 191 240 285 335
#     4   9  18  33  54  82 116 153 192 232 276 330
#     4  11  25  44  65  87 111 143 187 240 296 351
#
# _framework density 19.554385
#
# number of rings (size 3 to 8) (size 9 to 14) (size 15 to 20)
#    0.000    2.000    1.250    2.250    0.000    6.750 
#    0.000    0.625    0.000    3.750    0.000    0.000 
#    0.000    0.000    0.000    0.000    0.000    0.000 
#
# Total GULP energy -396650.308011 kJ/mol
# GULP energy per Si atom -12395.322125 kJ/mol
# Density = 1.950988 g / cm^3
# Si number density = 19.554385 Si / 1000 Ang^3
#
#
#
# Elastic Constant Matrix: (Units=GPa)
#
#
# Indices 1 2 3 4 5 6 
#
# 1 135.1453 50.6565 66.5974 0.0000 0.0000 0.0000
# 2 50.6565 81.8592 49.1058 0.0000 0.0000 0.0000
# 3 66.5974 49.1058 103.1462 0.0000 0.0000 0.0000
# 4 0.0000 0.0000 0.0000 2354.3836 0.0000 0.0000
# 5 0.0000 0.0000 0.0000 0.0000 16.6171 0.0000
# 6 0.0000 0.0000 0.0000 0.0000 0.0000 15.4758
#
#
#
# Elastic Compliance Matrix: (Units=1/GPa)
#
#
# Indices 1 2 3 4 5 6 
#
# 1 0.011627 -0.003768 -0.005713 0.000000 0.000000 0.000000
# 2 -0.003768 0.018321 -0.006289 0.000000 0.000000 0.000000
# 3 -0.005713 -0.006289 0.016378 0.000000 0.000000 0.000000
# 4 0.000000 0.000000 0.000000 0.000425 0.000000 0.000000
# 5 0.000000 0.000000 0.000000 0.000000 0.060179 0.000000
# 6 0.000000 0.000000 0.000000 0.000000 0.000000 0.064617
#
#
# Mechanical properties :
#
#
# Convention : Reuss Voigt Hill
#
# Bulk Modulus (GPa) = 67.63725 72.54111 70.08918
# Shear Modulus (GPa) = 24.03661 487.54804 255.79232
#
# Velocity S-wave (km/s) = 3.50982 15.80729 11.44966
# Velocity P-wave (km/s) = 7.14770 19.24418 14.51599
#
# Compressibility (1/GPa) = 0.01478475
#
# Stress axis : x y z
#
# Youngs Moduli (GPa) = 86.00497 54.58353 61.05702
#
# Poissons Ratio (x) = 0.20566 0.34885
# Poissons Ratio (y) = 0.32405 0.38401
# Poissons Ratio (z) = 0.49139 0.34329
#
# Static dielectric constant tensor:
#      x y z
#    x 3.984050 0.000000 0.000000 
#    y 0.000000 -0.917490 0.000000 
#    z 0.000000 0.000000 3.357820 
# 
# 
# High freq. dielectric constant tensor:
#      x y z
#    x 1.780880 0.000000 0.000000 
#    y 0.000000 1.761580 0.000000 
#    z 0.000000 0.000000 1.732500 
# 
# From -- ./inp_files/4181.got.cif
#   From: 2010.03.12/outbox.cif.g09.slc.cpg/sg25_3_cif.got.tgz:4181.got - 2010.04.14 03:30:10.
