data_PCOD8166502
_publ_section_title
;
Structure prediction by ZEFSAII (Michael W. Deem and Ramdas Pophale) SiO2 
 PCOD8166502
Probable space group: P M M 2
;
_chemical_formula_sum "Si O2"
_cell_formula_units_Z 20
_cell_length_a 9.498427
_cell_length_b 8.070527
_cell_length_c 14.462755
_cell_angle_alpha 90.000000
_cell_angle_beta 90.000000
_cell_angle_gamma 90.000000
_cell_volume 1108.675916
_symmetry_space_group_name_H-M "P M M 2"
_symmetry_group_IT_number 25
_symmetry_cell_setting 'orthorhombic'
loop_
_space_group_symop_operation_xyz
x,y,z
-x,-y,z
-x,y,z
x,-y,z
loop_
_atom_site_type_symbol
_atom_site_label
_atom_site_fract_x
_atom_site_fract_y
_atom_site_fract_z
Si Si1 0.156932 0.685033 0.160130
Si Si2 0.341394 0.810599 0.005304
Si Si3 0.168883 0.500000 0.535863
Si Si4 0.165765 0.500000 0.330600
Si Si5 0.167196 0.816432 0.648315
Si Si6 0.842144 0.689403 0.841723
O O1 0.153407 0.500000 0.115489
O O2 0.267990 0.796353 0.105413
O O3 0.204099 0.664063 0.268715
O O4 0.000000 0.763830 0.153177
O O5 0.500000 0.741407 0.012840
O O6 0.341151 0.000000 0.974278
O O7 0.258314 0.707353 0.929152
O O8 0.234774 0.500000 0.431964
O O9 0.227695 0.667640 0.584569
O O10 0.000000 0.500000 0.536230
O O11 0.000000 0.500000 0.344380
O O12 0.216549 0.792708 0.754436
O O13 0.000000 0.805915 0.645303
O O14 0.218307 0.000000 0.614787
O O15 0.845238 0.500000 0.809337
O O16 0.000000 0.748380 0.869254
#
# Coordination Sequence:
#
# PCOD8166502 Si02
#       6
#     4   4   2   2   4   4
#     4   8  16  32  51  71  92 123 162 201 246 296
#     4  11  23  34  45  68 101 133 166 206 250 296
#     4   9  14  26  45  69 102 132 159 203 254 293
#     4   7  14  28  48  69  94 124 155 201 250 293
#     4   9  16  26  43  70 103 136 167 199 242 295
#     4  10  19  32  50  73  99 131 170 207 245 295
#
# _framework density 18.039536999999999
#
# number of rings (size 3 to 8) (size 9 to 14) (size 15 to 20)
#    0.600    2.200    1.000    1.800    0.000    5.600 
#    0.000    1.000    0.000    3.600    0.000    2.800 
#    0.000    3.200    0.000    0.000    0.000    0.000 
#
# Total GULP energy -247769.674761 kJ/mol
# GULP energy per Si atom -12388.483738 kJ/mol
# Density = 1.799848 g / cm^3
# Si number density = 18.039537 Si / 1000 Ang^3
#
#
#
# Elastic Constant Matrix: (Units=GPa)
#
#
# Indices 1 2 3 4 5 6 
#
# 1 66.1414 16.8016 41.8218 0.0000 0.0000 0.0000
# 2 16.8016 87.4283 45.0026 0.0000 0.0000 0.0000
# 3 41.8218 45.0026 131.6698 0.0000 0.0000 0.0000
# 4 0.0000 0.0000 0.0000 18.0639 0.0000 0.0000
# 5 0.0000 0.0000 0.0000 0.0000 1.3143 0.0000
# 6 0.0000 0.0000 0.0000 0.0000 0.0000 15.3574
#
#
#
# Elastic Compliance Matrix: (Units=1/GPa)
#
#
# Indices 1 2 3 4 5 6 
#
# 1 0.018950 -0.000660 -0.005794 0.000000 0.000000 0.000000
# 2 -0.000660 0.013903 -0.004542 0.000000 0.000000 0.000000
# 3 -0.005794 -0.004542 0.010987 0.000000 0.000000 0.000000
# 4 0.000000 0.000000 0.000000 0.055359 0.000000 0.000000
# 5 0.000000 0.000000 0.000000 0.000000 0.760849 0.000000
# 6 0.000000 0.000000 0.000000 0.000000 0.000000 0.065115
#
#
# Mechanical properties :
#
#
# Convention : Reuss Voigt Hill
#
# Bulk Modulus (GPa) = 45.76784 54.72127 50.24455
# Shear Modulus (GPa) = 5.23869 19.05471 12.14670
#
# Velocity S-wave (km/s) = 1.70596 3.25356 2.59769
# Velocity P-wave (km/s) = 5.41353 6.67189 6.07538
#
# Compressibility (1/GPa) = 0.02184940
#
# Stress axis : x y z
#
# Youngs Moduli (GPa) = 52.77040 71.92817 91.01311
#
# Poissons Ratio (x) = 0.04744 0.52729
# Poissons Ratio (y) = 0.03480 0.41340
# Poissons Ratio (z) = 0.30573 0.32672
#
# Static dielectric constant tensor:
#      x y z
#    x 2.910190 0.000000 0.000000 
#    y 0.000000 3.288940 0.000000 
#    z 0.000000 0.000000 3.444890 
# 
# 
# High freq. dielectric constant tensor:
#      x y z
#    x 1.644420 0.000000 0.000000 
#    y 0.000000 1.690460 0.000000 
#    z 0.000000 0.000000 1.694370 
# 
# From -- ./inp_files/5200.got.cif
#   From: 2010.03.12/outbox.cif.g09.slc.cpg/sg25_3_cif.got.tgz:5200.got - 2010.04.14 03:30:10.
