data_PCOD8166106
_publ_section_title
;
Structure prediction by ZEFSAII (Michael W. Deem and Ramdas Pophale) SiO2 
 PCOD8166106
Probable space group: I 21 21 21
;
_chemical_formula_sum "Si O2"
_cell_formula_units_Z 40
_cell_length_a 16.850909
_cell_length_b 12.189947
_cell_length_c 8.374518
_cell_angle_alpha 90.000000
_cell_angle_beta 90.000000
_cell_angle_gamma 90.000000
_cell_volume 1720.223875
_symmetry_space_group_name_H-M "I 21 21 21"
_symmetry_group_IT_number 24
_symmetry_cell_setting 'orthorhombic'
loop_
_space_group_symop_operation_xyz
x,y,z
-x,1/2-y,z
x,-y,1/2-z
1/2-x,y,-z
1/2+x,1/2+y,1/2+z
1/2-x,-y,1/2+z
1/2+x,1/2-y,-z
-x,1/2+y,1/2-z
loop_
_atom_site_type_symbol
_atom_site_label
_atom_site_fract_x
_atom_site_fract_y
_atom_site_fract_z
Si Si1 0.950550 0.967630 0.579598
Si Si2 0.423686 0.687482 0.891086
Si Si3 0.665918 0.195017 0.920854
Si Si4 0.828743 0.648252 0.918464
Si Si5 0.129754 0.909274 0.570025
O O1 0.949126 0.068562 0.455981
O O2 0.914133 0.000000 0.750000
O O3 0.900089 0.866939 0.519563
O O4 0.037573 0.919652 0.609180
O O5 0.500000 0.750000 0.811528
O O6 0.350532 0.668938 0.766177
O O7 0.397580 0.765793 0.037027
O O8 0.750000 0.160054 0.000000
O O9 0.651080 0.325347 0.930546
O O10 0.824742 0.636917 0.727112
O O11 0.841380 0.527198 0.991259
O O12 0.750000 0.696625 0.000000
#
# Coordination Sequence:
#
# PCOD8166106 Si02
#       5
#     8   8   8   8   8
#     4  12  24  45  74  99 136 188 234 284 349 423
#     4  12  24  45  70 105 139 183 237 287 344 420
#     4  12  28  44  66 101 142 182 231 294 354 406
#     4  11  23  41  72 104 139 182 230 286 350 412
#     4  11  22  46  67 101 140 183 232 282 350 416
#
# _framework density 23.252787000000001
#
# number of rings (size 3 to 8) (size 9 to 14) (size 15 to 20)
#    0.000    0.400    4.000    5.400    0.000    4.800 
#    0.000    0.000    0.000    0.000    0.000    0.000 
#    0.000    0.000    0.000    0.000    0.000    0.000 
#
# Total GULP energy -247970.563383 kJ/mol
# GULP energy per Si atom -12398.528169 kJ/mol
# Density = 2.319986 g / cm^3
# Si number density = 23.252787 Si / 1000 Ang^3
#
#
#
# Elastic Constant Matrix: (Units=GPa)
#
#
# Indices 1 2 3 4 5 6 
#
# 1 97.0672 21.5285 26.1623 0.0000 0.0000 0.0000
# 2 21.5285 53.4895 11.6870 0.0000 0.0000 0.0000
# 3 26.1623 11.6870 93.3671 0.0000 0.0000 0.0000
# 4 0.0000 0.0000 0.0000 34.1774 0.0000 0.0000
# 5 0.0000 0.0000 0.0000 0.0000 37.7253 0.0000
# 6 0.0000 0.0000 0.0000 0.0000 0.0000 38.0234
#
#
#
# Elastic Compliance Matrix: (Units=1/GPa)
#
#
# Indices 1 2 3 4 5 6 
#
# 1 0.012000 -0.004210 -0.002836 0.000000 0.000000 0.000000
# 2 -0.004210 0.020698 -0.001411 0.000000 0.000000 0.000000
# 3 -0.002836 -0.001411 0.011682 0.000000 0.000000 0.000000
# 4 0.000000 0.000000 0.000000 0.029259 0.000000 0.000000
# 5 0.000000 0.000000 0.000000 0.000000 0.026507 0.000000
# 6 0.000000 0.000000 0.000000 0.000000 0.000000 0.026300
#
#
# Mechanical properties :
#
#
# Convention : Reuss Voigt Hill
#
# Bulk Modulus (GPa) = 36.40856 40.29770 38.35313
# Shear Modulus (GPa) = 32.78361 34.28828 33.53595
#
# Velocity S-wave (km/s) = 3.75891 3.84420 3.80179
# Velocity P-wave (km/s) = 5.87630 6.08866 5.98342
#
# Compressibility (1/GPa) = 0.02746607
#
# Stress axis : x y z
#
# Youngs Moduli (GPa) = 83.33192 48.31359 85.60481
#
# Poissons Ratio (x) = 0.20341 0.24274
# Poissons Ratio (y) = 0.35085 0.12079
# Poissons Ratio (z) = 0.23629 0.06817
#
# Static dielectric constant tensor:
#      x y z
#    x 4.281130 0.000000 0.000000 
#    y 0.000000 4.273680 0.000000 
#    z 0.000000 0.000000 3.983850 
# 
# 
# High freq. dielectric constant tensor:
#      x y z
#    x 1.923070 0.000000 0.000000 
#    y 0.000000 1.929060 0.000000 
#    z 0.000000 0.000000 1.913860 
# 
# From -- ./inp_files/13813.got.cif
#   From: 2010.03.12/outbox.cif.g09.slc.cpg/sg24_7_cif.got.tgz:13813.got - 2010.04.14 03:06:53.
