data_PCOD8166991
_publ_section_title
;
Structure prediction by ZEFSAII (Michael W. Deem and Ramdas Pophale) SiO2 
 PCOD8166991
Probable space group: P M M 2
;
_chemical_formula_sum "Si O2"
_cell_formula_units_Z 32
_cell_length_a 8.827491
_cell_length_b 14.289982
_cell_length_c 12.859936
_cell_angle_alpha 90.000000
_cell_angle_beta 90.000000
_cell_angle_gamma 90.000000
_cell_volume 1622.212608
_symmetry_space_group_name_H-M "P M M 2"
_symmetry_group_IT_number 25
_symmetry_cell_setting 'orthorhombic'
loop_
_space_group_symop_operation_xyz
x,y,z
-x,-y,z
-x,y,z
x,-y,z
loop_
_atom_site_type_symbol
_atom_site_label
_atom_site_fract_x
_atom_site_fract_y
_atom_site_fract_z
Si Si1 0.680278 0.896851 0.837790
Si Si2 0.323471 0.293980 0.752846
Si Si3 0.319722 0.103149 0.282261
Si Si4 0.173591 0.609956 0.177685
Si Si5 0.178525 0.605176 0.560025
Si Si6 0.173591 0.609956 0.942365
Si Si7 0.323471 0.293980 0.367204
Si Si8 0.663866 0.109999 0.060026
O O1 0.500000 0.901372 0.852158
O O2 0.722439 0.816529 0.754776
O O3 0.740104 0.000000 0.801802
O O4 0.750718 0.866549 0.951253
O O5 0.500000 0.307169 0.729433
O O6 0.230214 0.341893 0.662483
O O7 0.285971 0.338691 0.863998
O O8 0.500000 0.098628 0.267893
O O9 0.277561 0.183472 0.365275
O O10 0.249283 0.133451 0.168799
O O11 0.259896 0.000000 0.318250
O O12 0.201701 0.500000 0.187528
O O13 0.285971 0.661310 0.256052
O O14 0.000000 0.633623 0.206203
O O15 0.210244 0.643435 0.060025
O O16 0.245632 0.500000 0.560027
O O17 0.230214 0.658106 0.457566
O O18 0.000000 0.601448 0.560025
O O19 0.201699 0.500000 0.932522
O O20 0.000000 0.633624 0.913847
O O21 0.500000 0.307169 0.390617
O O22 0.500000 0.161305 0.060026
O O23 0.637222 0.000000 0.060026
#
# Coordination Sequence:
#
# PCOD8166991 Si02
#       8
#     4   4   4   4   4   4   4   4
#     4   8  15  28  47  76 115 152 181 213 263 327
#     4  11  22  34  57  89 114 137 179 239 290 320
#     4   8  15  28  47  76 115 152 181 213 263 327
#     4   9  19  36  55  76 109 153 190 218 265 341
#     4  11  25  45  64  77 100 146 193 227 274 349
#     4   9  19  36  55  76 109 153 190 218 265 341
#     4  11  22  34  57  89 114 137 179 239 290 320
#     4   7  10  20  40  66 102 147 182 204 237 301
#
# _framework density 19.726143
#
# number of rings (size 3 to 8) (size 9 to 14) (size 15 to 20)
#    0.000    2.750    0.000    4.125    1.750    5.000 
#    0.000    1.875    0.000    6.750    0.000    1.750 
#    0.000    0.000    0.000    0.000    0.000    0.000 
#
# Total GULP energy -396480.352726 kJ/mol
# GULP energy per Si atom -12390.011023 kJ/mol
# Density = 1.968125 g / cm^3
# Si number density = 19.726143 Si / 1000 Ang^3
#
#
#
# Elastic Constant Matrix: (Units=GPa)
#
#
# Indices 1 2 3 4 5 6 
#
# 1 36.9626 27.0903 23.7650 0.0000 0.0000 0.0000
# 2 27.0903 119.9202 71.4708 0.0000 0.0000 0.0000
# 3 23.7650 71.4708 106.0027 0.0000 0.0000 0.0000
# 4 0.0000 0.0000 0.0000 27.0406 0.0000 0.0000
# 5 0.0000 0.0000 0.0000 0.0000 5.0060 0.0000
# 6 0.0000 0.0000 0.0000 0.0000 0.0000 -6.8023
#
#
#
# Elastic Compliance Matrix: (Units=1/GPa)
#
#
# Indices 1 2 3 4 5 6 
#
# 1 0.033414 -0.005155 -0.004015 0.000000 0.000000 0.000000
# 2 -0.005155 0.014736 -0.008780 0.000000 0.000000 0.000000
# 3 -0.004015 -0.008780 0.016254 0.000000 0.000000 0.000000
# 4 0.000000 0.000000 0.000000 0.036981 0.000000 0.000000
# 5 0.000000 0.000000 0.000000 0.000000 0.199758 0.000000
# 6 0.000000 0.000000 0.000000 0.000000 0.000000 -0.147010
#
#
# Mechanical properties :
#
#
# Convention : Reuss Voigt Hill
#
# Bulk Modulus (GPa) = 35.08386 56.39307 45.73847
# Shear Modulus (GPa) = 25.05808 14.41951 19.73879
#
# Velocity S-wave (km/s) = 3.56799 2.70661 3.16672
# Velocity P-wave (km/s) = 5.89900 6.19820 6.05045
#
# Compressibility (1/GPa) = 0.02850313
#
# Stress axis : x y z
#
# Youngs Moduli (GPa) = 29.92724 67.86023 61.52468
#
# Poissons Ratio (x) = 0.34984 0.24704
# Poissons Ratio (y) = 0.15428 0.54018
# Poissons Ratio (z) = 0.12017 0.59580
#
# Static dielectric constant tensor:
#      x y z
#    x 3.163690 0.000000 0.000000 
#    y 0.000000 3.845220 0.000000 
#    z 0.000000 0.000000 3.899030 
# 
# 
# High freq. dielectric constant tensor:
#      x y z
#    x 1.725980 0.000000 0.000000 
#    y 0.000000 1.778950 0.000000 
#    z 0.000000 0.000000 1.761110 
# 
# From -- ./inp_files/4304.got.cif
#   From: 2010.03.12/outbox.cif.g09.slc.cpg/sg25_3_cif.got.tgz:4304.got - 2010.04.14 03:30:10.
