data_PCOD8166876
_publ_section_title
;
Structure prediction by ZEFSAII (Michael W. Deem and Ramdas Pophale) SiO2 
 PCOD8166876
Probable space group: P M M 2
;
_chemical_formula_sum "Si O2"
_cell_formula_units_Z 32
_cell_length_a 9.456655
_cell_length_b 9.351930
_cell_length_c 20.535747
_cell_angle_alpha 90.000000
_cell_angle_beta 90.000000
_cell_angle_gamma 90.000000
_cell_volume 1816.139892
_symmetry_space_group_name_H-M "P M M 2"
_symmetry_group_IT_number 25
_symmetry_cell_setting 'orthorhombic'
loop_
_space_group_symop_operation_xyz
x,y,z
-x,-y,z
-x,y,z
x,-y,z
loop_
_atom_site_type_symbol
_atom_site_label
_atom_site_fract_x
_atom_site_fract_y
_atom_site_fract_z
Si Si1 0.163926 0.166202 0.123340
Si Si2 0.168051 0.661471 0.248492
Si Si3 0.663531 0.166184 0.498685
Si Si4 0.156326 0.669807 0.744211
Si Si5 0.164890 0.834296 0.372915
Si Si6 0.336226 0.167407 0.996598
Si Si7 0.836411 0.667659 0.889841
Si Si8 0.663991 0.666416 0.624608
O O1 0.221547 0.256492 0.184389
O O2 0.000000 0.199633 0.108088
O O3 0.185603 0.000000 0.139989
O O4 0.256135 0.215048 0.061971
O O5 0.227353 0.500000 0.248142
O O6 0.224080 0.743090 0.312377
O O7 0.000000 0.663138 0.249191
O O8 0.500000 0.201259 0.485089
O O9 0.751914 0.217935 0.436523
O O10 0.720737 0.251864 0.561108
O O11 0.688385 0.000000 0.512679
O O12 0.154226 0.500000 0.742474
O O13 0.203971 0.716982 0.816504
O O14 0.260427 0.729759 0.688824
O O15 0.000000 0.729788 0.729388
O O16 0.000000 0.806137 0.385221
O O17 0.194913 0.000000 0.357613
O O18 0.500000 0.210215 0.002958
O O19 0.267901 0.248194 0.936396
O O20 0.316580 0.000000 0.984481
O O21 0.810568 0.500000 0.899526
O O22 0.000000 0.705562 0.904684
O O23 0.500000 0.696680 0.635064
O O24 0.697422 0.500000 0.614676
#
# Coordination Sequence:
#
# PCOD8166876 Si02
#       8
#     4   4   4   4   4   4   4   4
#     4   9  17  31  51  70  90 123 162 194 230 281
#     4   9  17  29  47  72  97 118 147 191 236 276
#     4   9  18  32  47  64  90 123 155 187 226 272
#     4   8  15  29  48  70  95 121 152 192 235 279
#     4   9  17  30  48  68  90 118 152 188 226 272
#     4  10  21  35  50  72 102 132 163 201 243 287
#     4   9  18  33  53  75  98 127 164 203 243 290
#     4   9  17  29  46  67  90 119 155 191 227 272
#
# _framework density 17.619788
#
# number of rings (size 3 to 8) (size 9 to 14) (size 15 to 20)
#    0.000    3.000    0.000    1.500    0.000    4.500 
#    0.000    3.750    0.000    6.000    0.000    0.000 
#    0.000    0.000    0.000    0.000    0.000    0.000 
#
# Total GULP energy -396775.622360 kJ/mol
# GULP energy per Si atom -12399.238199 kJ/mol
# Density = 1.757968 g / cm^3
# Si number density = 17.619788 Si / 1000 Ang^3
#
#
#
# Elastic Constant Matrix: (Units=GPa)
#
#
# Indices 1 2 3 4 5 6 
#
# 1 74.7109 38.4104 81.0995 0.0000 0.0000 0.0000
# 2 38.4104 58.9891 69.9434 0.0000 0.0000 0.0000
# 3 81.0995 69.9434 189.4600 0.0000 0.0000 0.0000
# 4 0.0000 0.0000 0.0000 34.1844 0.0000 0.0000
# 5 0.0000 0.0000 0.0000 0.0000 11.1270 0.0000
# 6 0.0000 0.0000 0.0000 0.0000 0.0000 19.2096
#
#
#
# Elastic Compliance Matrix: (Units=1/GPa)
#
#
# Indices 1 2 3 4 5 6 
#
# 1 0.026432 -0.006751 -0.008822 0.000000 0.000000 0.000000
# 2 -0.006751 0.031874 -0.008877 0.000000 0.000000 0.000000
# 3 -0.008822 -0.008877 0.012332 0.000000 0.000000 0.000000
# 4 0.000000 0.000000 0.000000 0.029253 0.000000 0.000000
# 5 0.000000 0.000000 0.000000 0.000000 0.089872 0.000000
# 6 0.000000 0.000000 0.000000 0.000000 0.000000 0.052057
#
#
# Mechanical properties :
#
#
# Convention : Reuss Voigt Hill
#
# Bulk Modulus (GPa) = 46.00355 78.00738 62.00547
# Shear Modulus (GPa) = 16.78042 21.81797 19.29919
#
# Velocity S-wave (km/s) = 3.08938 3.52272 3.31314
# Velocity P-wave (km/s) = 6.23630 7.80479 7.06421
#
# Compressibility (1/GPa) = 0.02173745
#
# Stress axis : x y z
#
# Youngs Moduli (GPa) = 37.83244 31.37387 81.09062
#
# Poissons Ratio (x) = 0.21179 0.71541
# Poissons Ratio (y) = 0.25539 0.71986
# Poissons Ratio (z) = 0.33377 0.27851
#
# Static dielectric constant tensor:
#      x y z
#    x 3.195430 0.000000 0.000000 
#    y 0.000000 3.155580 0.000000 
#    z 0.000000 0.000000 3.493740 
# 
# 
# High freq. dielectric constant tensor:
#      x y z
#    x 1.663130 0.000000 0.000000 
#    y 0.000000 1.663680 0.000000 
#    z 0.000000 0.000000 1.694000 
# 
# From -- ./inp_files/6565.got.cif
#   From: 2010.03.12/outbox.cif.g09.slc.cpg/sg25_4_cif.got.tgz:6565.got - 2010.04.14 03:30:10.
