data_PCOD8166674
_publ_section_title
;
Structure prediction by ZEFSAII (Michael W. Deem and Ramdas Pophale) SiO2 
 PCOD8166674
Probable space group: P M M 2
;
_chemical_formula_sum "Si O2"
_cell_formula_units_Z 28
_cell_length_a 18.913520
_cell_length_b 9.264212
_cell_length_c 9.611057
_cell_angle_alpha 90.000000
_cell_angle_beta 90.000000
_cell_angle_gamma 90.000000
_cell_volume 1684.038441
_symmetry_space_group_name_H-M "P M M 2"
_symmetry_group_IT_number 25
_symmetry_cell_setting 'orthorhombic'
loop_
_space_group_symop_operation_xyz
x,y,z
-x,-y,z
-x,y,z
x,-y,z
loop_
_atom_site_type_symbol
_atom_site_label
_atom_site_fract_x
_atom_site_fract_y
_atom_site_fract_z
Si Si1 0.420687 0.163856 0.262330
Si Si2 0.919477 0.333954 0.417133
Si Si3 0.798496 0.331915 0.630178
Si Si4 0.700237 0.667331 0.164380
Si Si5 0.082643 0.166108 0.142522
Si Si6 0.817095 0.666856 0.945481
Si Si7 0.710072 0.164347 0.424500
O O1 0.500000 0.222736 0.286535
O O2 0.378723 0.263277 0.149712
O O3 0.375998 0.169772 0.407892
O O4 0.422352 0.000000 0.205698
O O5 0.911132 0.500000 0.372312
O O6 0.870656 0.296021 0.548441
O O7 0.894687 0.239244 0.287020
O O8 0.000000 0.298516 0.460819
O O9 0.778942 0.500000 0.622498
O O10 0.733492 0.242078 0.565839
O O11 0.808236 0.280299 0.787810
O O12 0.693716 0.500000 0.203449
O O13 0.742414 0.691747 0.022189
O O14 0.742027 0.748780 0.290603
O O15 0.121568 0.239676 0.013747
O O16 0.000000 0.186951 0.115584
O O17 0.104762 0.000000 0.150474
O O18 0.840093 0.500000 0.952378
O O19 0.737898 0.000000 0.422873
#
# Coordination Sequence:
#
# PCOD8166674 Si02
#       7
#     4   4   4   4   4   4   4
#     4   8  16  31  51  76 102 126 158 201 243 287
#     4   9  18  33  52  71  92 123 164 206 247 290
#     4  10  20  33  49  71  99 130 165 205 243 288
#     4   9  17  30  49  74 100 128 162 200 240 287
#     4  10  21  35  51  72  97 126 164 209 252 295
#     4  10  21  34  49  71 101 134 166 203 246 293
#     4   9  18  31  49  73  98 128 160 199 244 288
#
# _framework density 16.626698000000001
#
# number of rings (size 3 to 8) (size 9 to 14) (size 15 to 20)
#    0.857    1.857    0.000    1.714    0.000    7.429 
#    0.000    1.429    0.000    2.571    0.000    4.000 
#    0.000    0.000    0.000    0.000    0.000    0.000 
#
# Total GULP energy -347039.320344 kJ/mol
# GULP energy per Si atom -12394.261441 kJ/mol
# Density = 1.658886 g / cm^3
# Si number density = 16.626698 Si / 1000 Ang^3
#
#
#
# Elastic Constant Matrix: (Units=GPa)
#
#
# Indices 1 2 3 4 5 6 
#
# 1 90.2693 52.4539 57.3381 0.0000 0.0000 0.0000
# 2 52.4539 94.0129 63.4219 0.0000 0.0000 0.0000
# 3 57.3381 63.4219 133.1551 0.0000 0.0000 0.0000
# 4 0.0000 0.0000 0.0000 8.9118 0.0000 0.0000
# 5 0.0000 0.0000 0.0000 0.0000 10.0702 0.0000
# 6 0.0000 0.0000 0.0000 0.0000 0.0000 25.2326
#
#
#
# Elastic Compliance Matrix: (Units=1/GPa)
#
#
# Indices 1 2 3 4 5 6 
#
# 1 0.017963 -0.007079 -0.004363 0.000000 0.000000 0.000000
# 2 -0.007079 0.018462 -0.005745 0.000000 0.000000 0.000000
# 3 -0.004363 -0.005745 0.012126 0.000000 0.000000 0.000000
# 4 0.000000 0.000000 0.000000 0.112211 0.000000 0.000000
# 5 0.000000 0.000000 0.000000 0.000000 0.099303 0.000000
# 6 0.000000 0.000000 0.000000 0.000000 0.000000 0.039631
#
#
# Mechanical properties :
#
#
# Convention : Reuss Voigt Hill
#
# Bulk Modulus (GPa) = 70.54383 73.76281 72.15332
# Shear Modulus (GPa) = 14.75811 18.45779 16.60795
#
# Velocity S-wave (km/s) = 2.98252 3.33548 3.16392
# Velocity P-wave (km/s) = 7.37433 7.70028 7.53906
#
# Compressibility (1/GPa) = 0.01417558
#
# Stress axis : x y z
#
# Youngs Moduli (GPa) = 55.67051 54.16462 82.47051
#
# Poissons Ratio (x) = 0.38341 0.35986
# Poissons Ratio (y) = 0.39407 0.47383
# Poissons Ratio (z) = 0.24292 0.31120
#
# Static dielectric constant tensor:
#      x y z
#    x 3.087590 0.000000 0.000000 
#    y 0.000000 3.186260 0.000000 
#    z 0.000000 0.000000 2.933680 
# 
# 
# High freq. dielectric constant tensor:
#      x y z
#    x 1.633840 0.000000 0.000000 
#    y 0.000000 1.648210 0.000000 
#    z 0.000000 0.000000 1.614010 
# 
# From -- ./inp_files/3546.got.cif
#   From: 2010.03.12/outbox.cif.g09.slc.cpg/sg25_2_cif.got.tgz:3546.got - 2010.04.14 03:30:10.
