data_PCOD8166796
_publ_section_title
;
Structure prediction by ZEFSAII (Michael W. Deem and Ramdas Pophale) SiO2 
 PCOD8166796
Probable space group: P M M 2
;
_chemical_formula_sum "Si O2"
_cell_formula_units_Z 32
_cell_length_a 15.629113
_cell_length_b 9.131818
_cell_length_c 11.619271
_cell_angle_alpha 90.000000
_cell_angle_beta 90.000000
_cell_angle_gamma 90.000000
_cell_volume 1658.328099
_symmetry_space_group_name_H-M "P M M 2"
_symmetry_group_IT_number 25
_symmetry_cell_setting 'orthorhombic'
loop_
_space_group_symop_operation_xyz
x,y,z
-x,-y,z
-x,y,z
x,-y,z
loop_
_atom_site_type_symbol
_atom_site_label
_atom_site_fract_x
_atom_site_fract_y
_atom_site_fract_z
Si Si1 0.347409 0.164853 0.259040
Si Si2 0.593753 0.837586 0.499247
Si Si3 0.739979 0.669363 0.603587
Si Si4 0.900116 0.172348 0.999244
Si Si5 0.177142 0.831186 0.404283
Si Si6 0.247163 0.671228 0.870861
Si Si7 0.597616 0.326772 0.032795
Si Si8 0.902533 0.659840 0.220920
O O1 0.414543 0.190758 0.362349
O O2 0.255944 0.196489 0.317596
O O3 0.368402 0.273326 0.155863
O O4 0.352335 0.000000 0.210067
O O5 0.500000 0.835910 0.553975
O O6 0.645243 0.711076 0.562613
O O7 0.636987 0.000000 0.516708
O O8 0.757762 0.500000 0.578009
O O9 0.807202 0.766356 0.531338
O O10 0.743685 0.706298 0.737082
O O11 0.838463 0.241696 0.904150
O O12 0.000000 0.209274 0.972754
O O13 0.885851 0.000000 0.004509
O O14 0.865517 0.238077 0.119672
O O15 0.101615 0.740815 0.344064
O O16 0.151801 0.000000 0.416783
O O17 0.232193 0.500000 0.895126
O O18 0.334038 0.725762 0.935607
O O19 0.500000 0.268525 0.007810
O O20 0.595281 0.500000 0.036438
O O21 0.856079 0.500000 0.223066
O O22 0.000000 0.633048 0.191346
#
# Coordination Sequence:
#
# PCOD8166796 Si02
#       8
#     4   4   4   4   4   4   4   4
#     4   9  18  32  50  74 103 134 170 214 265 320
#     4   9  18  33  52  74 103 138 175 221 276 329
#     4  10  21  36  54  76 102 137 183 229 274 326
#     4  10  21  37  59  87 115 143 179 224 274 328
#     4  10  20  35  55  78 106 140 176 219 272 326
#     4  10  22  39  57  77 106 147 189 230 276 324
#     4  10  21  35  51  75 108 143 179 221 268 318
#     4  10  20  34  55  84 115 142 170 210 261 320
#
# _framework density 19.296541999999999
#
# number of rings (size 3 to 8) (size 9 to 14) (size 15 to 20)
#    0.000    2.250    0.000    3.375    0.000    9.000 
#    0.000    1.875    0.000    0.750    0.000    0.000 
#    0.000    0.000    0.000    0.000    0.000    0.000 
#
# Total GULP energy -396623.303999 kJ/mol
# GULP energy per Si atom -12394.478250 kJ/mol
# Density = 1.925262 g / cm^3
# Si number density = 19.296542 Si / 1000 Ang^3
#
#
#
# Elastic Constant Matrix: (Units=GPa)
#
#
# Indices 1 2 3 4 5 6 
#
# 1 58.0855 34.6101 40.9700 0.0000 0.0000 0.0000
# 2 34.6101 92.7689 61.0013 0.0000 0.0000 0.0000
# 3 40.9700 61.0013 125.9155 0.0000 0.0000 0.0000
# 4 0.0000 0.0000 0.0000 22.8576 0.0000 0.0000
# 5 0.0000 0.0000 0.0000 0.0000 13.7298 0.0000
# 6 0.0000 0.0000 0.0000 0.0000 0.0000 28.3600
#
#
#
# Elastic Compliance Matrix: (Units=1/GPa)
#
#
# Indices 1 2 3 4 5 6 
#
# 1 0.024209 -0.005653 -0.005138 0.000000 0.000000 0.000000
# 2 -0.005653 0.017139 -0.006464 0.000000 0.000000 0.000000
# 3 -0.005138 -0.006464 0.012745 0.000000 0.000000 0.000000
# 4 0.000000 0.000000 0.000000 0.043749 0.000000 0.000000
# 5 0.000000 0.000000 0.000000 0.000000 0.072834 0.000000
# 6 0.000000 0.000000 0.000000 0.000000 0.000000 0.035261
#
#
# Mechanical properties :
#
#
# Convention : Reuss Voigt Hill
#
# Bulk Modulus (GPa) = 51.06594 61.10363 56.08478
# Shear Modulus (GPa) = 20.24503 22.33538 21.29021
#
# Velocity S-wave (km/s) = 3.24258 3.40587 3.32523
# Velocity P-wave (km/s) = 6.36713 6.87029 6.62349
#
# Compressibility (1/GPa) = 0.01958252
#
# Stress axis : x y z
#
# Youngs Moduli (GPa) = 41.30779 58.34718 78.46131
#
# Poissons Ratio (x) = 0.32984 0.40315
# Poissons Ratio (y) = 0.23351 0.50715
# Poissons Ratio (z) = 0.21225 0.37714
#
# Static dielectric constant tensor:
#      x y z
#    x 3.579780 0.000000 0.000000 
#    y 0.000000 3.606000 0.000000 
#    z 0.000000 0.000000 3.409430 
# 
# 
# High freq. dielectric constant tensor:
#      x y z
#    x 1.745290 0.000000 0.000000 
#    y 0.000000 1.754810 0.000000 
#    z 0.000000 0.000000 1.739900 
# 
# From -- ./inp_files/4933.got.cif
#   From: 2010.03.12/outbox.cif.g09.slc.cpg/sg25_3_cif.got.tgz:4933.got - 2010.04.14 03:30:10.
