data_PCOD8166121
_publ_section_title
;
Structure prediction by ZEFSAII (Michael W. Deem and Ramdas Pophale) SiO2 
 PCOD8166121
Probable space group: I 21 21 21
;
_chemical_formula_sum "Si O2"
_cell_formula_units_Z 48
_cell_length_a 15.583333
_cell_length_b 8.748299
_cell_length_c 16.023720
_cell_angle_alpha 90.000000
_cell_angle_beta 90.000000
_cell_angle_gamma 90.000000
_cell_volume 2184.476196
_symmetry_space_group_name_H-M "I 21 21 21"
_symmetry_group_IT_number 24
_symmetry_cell_setting 'orthorhombic'
loop_
_space_group_symop_operation_xyz
x,y,z
-x,1/2-y,z
x,-y,1/2-z
1/2-x,y,-z
1/2+x,1/2+y,1/2+z
1/2-x,-y,1/2+z
1/2+x,1/2-y,-z
-x,1/2+y,1/2-z
loop_
_atom_site_type_symbol
_atom_site_label
_atom_site_fract_x
_atom_site_fract_y
_atom_site_fract_z
Si Si1 0.249999 0.434608 0.342071
Si Si2 0.591398 0.436668 0.157350
Si Si3 0.749999 0.386608 0.406958
Si Si4 0.589781 0.894488 0.595804
Si Si5 0.091401 0.936666 0.342650
Si Si6 0.589783 0.105514 0.095802
O O1 0.250001 0.500000 0.250000
O O2 0.250001 0.250885 0.340087
O O3 0.166052 0.487444 0.391337
O O4 0.333944 0.487451 0.391340
O O5 0.599290 0.500000 0.250000
O O6 0.665990 0.510287 0.102657
O O7 0.603004 0.253068 0.154870
O O8 0.498521 0.480315 0.119766
O O9 0.750000 0.317396 0.500000
O O10 0.834005 0.489720 0.397341
O O11 0.501475 0.980314 0.619766
O O12 0.603005 0.746935 0.654872
O O13 0.586303 0.839839 0.500001
O O14 0.099292 0.000000 0.250000
#
# Coordination Sequence:
#
# PCOD8166121 Si02
#       6
#     8   8   8   8   8   8
#     4  12  25  42  63  92 128 166 206 258 315 372
#     4  11  23  41  65  93 124 164 210 260 309 366
#     4  12  24  40  62  94 126 160 206 262 312 362
#     4  11  23  43  66  92 125 169 211 252 310 382
#     4  11  23  41  65  93 124 164 210 260 309 366
#     4  11  23  43  66  92 125 169 211 252 310 382
#
# _framework density 21.973229
#
# number of rings (size 3 to 8) (size 9 to 14) (size 15 to 20)
#    0.000    0.667    0.000   10.000    0.000    4.000 
#    0.000    3.333    0.000    0.000    0.000    0.000 
#    0.000    0.000    0.000    0.000    0.000    0.000 
#
# Total GULP energy -297747.668257 kJ/mol
# GULP energy per Si atom -12406.152844 kJ/mol
# Density = 2.192322 g / cm^3
# Si number density = 21.973229 Si / 1000 Ang^3
#
#
#
# Elastic Constant Matrix: (Units=GPa)
#
#
# Indices 1 2 3 4 5 6 
#
# 1 193.0130 65.1264 22.9721 0.0000 0.0000 0.0000
# 2 65.1264 99.4638 24.9499 0.0000 0.0000 0.0000
# 3 22.9721 24.9499 129.8698 0.0000 0.0000 0.0000
# 4 0.0000 0.0000 0.0000 29.9984 0.0000 0.0000
# 5 0.0000 0.0000 0.0000 0.0000 26.7187 0.0000
# 6 0.0000 0.0000 0.0000 0.0000 0.0000 4.6341
#
#
#
# Elastic Compliance Matrix: (Units=1/GPa)
#
#
# Indices 1 2 3 4 5 6 
#
# 1 0.006666 -0.004275 -0.000358 0.000000 0.000000 0.000000
# 2 -0.004275 0.013305 -0.001800 0.000000 0.000000 0.000000
# 3 -0.000358 -0.001800 0.008109 0.000000 0.000000 0.000000
# 4 0.000000 0.000000 0.000000 0.033335 0.000000 0.000000
# 5 0.000000 0.000000 0.000000 0.000000 0.037427 0.000000
# 6 0.000000 0.000000 0.000000 0.000000 0.000000 0.215790
#
#
# Mechanical properties :
#
#
# Convention : Reuss Voigt Hill
#
# Bulk Modulus (GPa) = 65.72732 72.04927 68.88829
# Shear Modulus (GPa) = 15.03448 32.89013 23.96230
#
# Velocity S-wave (km/s) = 2.61859 3.87308 3.30589
# Velocity P-wave (km/s) = 6.25461 7.27061 6.78166
#
# Compressibility (1/GPa) = 0.01521437
#
# Stress axis : x y z
#
# Youngs Moduli (GPa) = 150.01370 75.16230 123.31847
#
# Poissons Ratio (x) = 0.32132 0.04413
# Poissons Ratio (y) = 0.64131 0.22195
# Poissons Ratio (z) = 0.05368 0.13528
#
# Static dielectric constant tensor:
#      x y z
#    x 4.501510 0.000000 0.000000 
#    y 0.000000 3.783270 0.000000 
#    z 0.000000 0.000000 3.885480 
# 
# 
# High freq. dielectric constant tensor:
#      x y z
#    x 1.890300 0.000000 0.000000 
#    y 0.000000 1.854900 0.000000 
#    z 0.000000 0.000000 1.871560 
# 
# From -- ./inp_files/27049.got.cif
#   From: 2010.03.12/outbox.cif.g09.slc.cpg/sg24_14_cif.got.tgz:27049.got - 2010.04.14 03:06:53.
