data_PCOD8166309
_publ_section_title
;
Structure prediction by ZEFSAII (Michael W. Deem and Ramdas Pophale) SiO2 
 PCOD8166309
Probable space group: P M M 2
;
_chemical_formula_sum "Si O2"
_cell_formula_units_Z 32
_cell_length_a 9.021685
_cell_length_b 14.358246
_cell_length_c 15.916218
_cell_angle_alpha 90.000000
_cell_angle_beta 90.000000
_cell_angle_gamma 90.000000
_cell_volume 2061.716412
_symmetry_space_group_name_H-M "P M M 2"
_symmetry_group_IT_number 25
_symmetry_cell_setting 'orthorhombic'
loop_
_space_group_symop_operation_xyz
x,y,z
-x,-y,z
-x,y,z
x,-y,z
loop_
_atom_site_type_symbol
_atom_site_label
_atom_site_fract_x
_atom_site_fract_y
_atom_site_fract_z
Si Si1 0.674451 0.710549 0.649500
Si Si2 0.322430 0.605215 0.489371
Si Si3 0.662336 0.610511 0.309411
Si Si4 0.173020 0.105607 0.904894
Si Si5 0.328855 0.103717 0.730177
Si Si6 0.676062 0.722752 0.972601
Si Si7 0.677438 0.395389 0.129131
Si Si8 0.676527 0.605022 0.813152
O O1 0.500000 0.693859 0.646572
O O2 0.742740 0.672252 0.562251
O O3 0.713053 0.820287 0.659244
O O4 0.739178 0.653607 0.728869
O O5 0.500000 0.609071 0.484733
O O6 0.271149 0.500000 0.510118
O O7 0.257524 0.638762 0.397767
O O8 0.500000 0.657370 0.309091
O O9 0.644633 0.500000 0.310182
O O10 0.742043 0.638002 0.220903
O O11 0.231332 0.123573 0.811373
O O12 0.254366 0.174376 0.969456
O O13 0.000000 0.126610 0.905606
O O14 0.208020 0.000000 0.933188
O O15 0.500000 0.116148 0.757493
O O16 0.299432 0.000000 0.693823
O O17 0.500000 0.731290 0.972482
O O18 0.733401 0.662340 0.893658
O O19 0.735262 0.673946 0.057376
O O20 0.500000 0.395352 0.133118
O O21 0.732584 0.500000 0.107861
O O22 0.500000 0.604252 0.812660
O O23 0.738651 0.500000 0.818065
#
# Coordination Sequence:
#
# PCOD8166309 Si02
#       8
#     4   4   4   4   4   4   4   4
#     4   9  14  20  31  51  75 102 132 161 193 227
#     4   8  12  17  27  46  75 107 133 157 188 227
#     4   7  10  17  28  45  73 106 133 158 189 222
#     4  10  20  32  44  57  75 101 132 166 203 239
#     4   9  16  27  42  58  76  98 129 169 205 235
#     4  10  17  26  41  61  80 103 133 162 195 231
#     4   8  13  21  35  56  80 105 135 166 192 225
#     4   9  15  21  31  51  78 103 129 159 187 220
#
# _framework density 15.521048
#
# number of rings (size 3 to 8) (size 9 to 14) (size 15 to 20)
#    0.000    3.250    1.250    2.625    0.000    3.750 
#    0.000    0.000    0.000    1.500    0.000    0.875 
#    0.000    6.000    0.000    6.750    0.000    5.500 
#
# Total GULP energy -396420.050324 kJ/mol
# GULP energy per Si atom -12388.126573 kJ/mol
# Density = 1.548572 g / cm^3
# Si number density = 15.521048 Si / 1000 Ang^3
#
#
#
# Elastic Constant Matrix: (Units=GPa)
#
#
# Indices 1 2 3 4 5 6 
#
# 1 13.8379 18.0238 15.9336 0.0000 0.0000 0.0000
# 2 18.0238 111.2542 74.7236 0.0000 0.0000 0.0000
# 3 15.9336 74.7236 155.2742 0.0000 0.0000 0.0000
# 4 0.0000 0.0000 0.0000 15.7272 0.0000 0.0000
# 5 0.0000 0.0000 0.0000 0.0000 1.7685 0.0000
# 6 0.0000 0.0000 0.0000 0.0000 0.0000 7.1760
#
#
#
# Elastic Compliance Matrix: (Units=1/GPa)
#
#
# Indices 1 2 3 4 5 6 
#
# 1 0.092777 -0.012761 -0.003380 0.000000 0.000000 0.000000
# 2 -0.012761 0.015036 -0.005927 0.000000 0.000000 0.000000
# 3 -0.003380 -0.005927 0.009639 0.000000 0.000000 0.000000
# 4 0.000000 0.000000 0.000000 0.063584 0.000000 0.000000
# 5 0.000000 0.000000 0.000000 0.000000 0.565442 0.000000
# 6 0.000000 0.000000 0.000000 0.000000 0.000000 0.139354
#
#
# Mechanical properties :
#
#
# Convention : Reuss Voigt Hill
#
# Bulk Modulus (GPa) = 13.63896 55.30316 34.47106
# Shear Modulus (GPa) = 5.23886 16.38002 10.80944
#
# Velocity S-wave (km/s) = 1.83920 3.25213 2.64187
# Velocity P-wave (km/s) = 3.64920 7.05763 5.61814
#
# Compressibility (1/GPa) = 0.07331935
#
# Stress axis : x y z
#
# Youngs Moduli (GPa) = 10.77848 66.50577 103.74417
#
# Poissons Ratio (x) = 0.84865 0.35061
# Poissons Ratio (y) = 0.13754 0.61485
# Poissons Ratio (z) = 0.03643 0.39415
#
# Static dielectric constant tensor:
#      x y z
#    x 2.407940 0.000000 0.000000 
#    y 0.000000 3.014580 0.000000 
#    z 0.000000 0.000000 3.350480 
# 
# 
# High freq. dielectric constant tensor:
#      x y z
#    x 1.532290 0.000000 0.000000 
#    y 0.000000 1.580970 0.000000 
#    z 0.000000 0.000000 1.593960 
# 
# From -- ./inp_files/5762.got.cif
#   From: 2010.03.12/outbox.cif.g09.slc.cpg/sg25_3_cif.got.tgz:5762.got - 2010.04.14 03:30:10.
