data_PCOD8166479
_publ_section_title
;
Structure prediction by ZEFSAII (Michael W. Deem and Ramdas Pophale) SiO2 
 PCOD8166479
Probable space group: P M M 2
;
_chemical_formula_sum "Si O2"
_cell_formula_units_Z 20
_cell_length_a 9.529154
_cell_length_b 7.878600
_cell_length_c 14.476451
_cell_angle_alpha 90.000000
_cell_angle_beta 90.000000
_cell_angle_gamma 90.000000
_cell_volume 1086.839720
_symmetry_space_group_name_H-M "P M M 2"
_symmetry_group_IT_number 25
_symmetry_cell_setting 'orthorhombic'
loop_
_space_group_symop_operation_xyz
x,y,z
-x,-y,z
-x,y,z
x,-y,z
loop_
_atom_site_type_symbol
_atom_site_label
_atom_site_fract_x
_atom_site_fract_y
_atom_site_fract_z
Si Si1 0.333434 0.812049 0.209130
Si Si2 0.341839 0.802289 0.003284
Si Si3 0.167780 0.500000 0.524026
Si Si4 0.332577 0.500000 0.334522
Si Si5 0.166146 0.812848 0.646685
Si Si6 0.844407 0.693326 0.839002
O O1 0.500000 0.817577 0.204661
O O2 0.279861 0.767996 0.105830
O O3 0.282463 0.667741 0.279445
O O4 0.278047 0.000000 0.239647
O O5 0.500000 0.731757 0.995953
O O6 0.337971 0.000000 0.980256
O O7 0.248707 0.704715 0.929790
O O8 0.248200 0.500000 0.428337
O O9 0.221727 0.667691 0.577904
O O10 0.000000 0.500000 0.508457
O O11 0.500000 0.500000 0.351231
O O12 0.224113 0.790725 0.751294
O O13 0.000000 0.794167 0.652633
O O14 0.211197 0.000000 0.610122
O O15 0.855186 0.500000 0.807215
O O16 0.000000 0.765201 0.861746
#
# Coordination Sequence:
#
# PCOD8166479 Si02
#       6
#     4   4   2   2   4   4
#     4   8  16  32  52  74 100 131 169 205 239 295
#     4   9  18  32  50  74 103 135 172 209 245 292
#     4  10  20  36  53  74 100 124 163 212 251 298
#     4  10  20  34  55  76  96 128 165 204 257 302
#     4   9  17  32  54  74  97 133 169 201 244 298
#     4  10  19  31  49  76 106 135 170 208 245 294
#
# _framework density 18.401978
#
# number of rings (size 3 to 8) (size 9 to 14) (size 15 to 20)
#    0.000    2.800    1.000    1.800    1.400    2.400 
#    0.000    2.000    0.000    2.400    0.000    0.000 
#    0.000    0.000    0.000    0.000    0.000    0.000 
#
# Total GULP energy -247887.183285 kJ/mol
# GULP energy per Si atom -12394.359164 kJ/mol
# Density = 1.836009 g / cm^3
# Si number density = 18.401978 Si / 1000 Ang^3
#
#
#
# Elastic Constant Matrix: (Units=GPa)
#
#
# Indices 1 2 3 4 5 6 
#
# 1 37.5185 24.0143 37.1613 0.0000 0.0000 0.0000
# 2 24.0143 135.9761 79.7848 0.0000 0.0000 0.0000
# 3 37.1613 79.7848 144.2412 0.0000 0.0000 0.0000
# 4 0.0000 0.0000 0.0000 27.1336 0.0000 0.0000
# 5 0.0000 0.0000 0.0000 0.0000 32.5509 0.0000
# 6 0.0000 0.0000 0.0000 0.0000 0.0000 13.6270
#
#
#
# Elastic Compliance Matrix: (Units=1/GPa)
#
#
# Indices 1 2 3 4 5 6 
#
# 1 0.035953 -0.001354 -0.008514 0.000000 0.000000 0.000000
# 2 -0.001354 0.010939 -0.005702 0.000000 0.000000 0.000000
# 3 -0.008514 -0.005702 0.012280 0.000000 0.000000 0.000000
# 4 0.000000 0.000000 0.000000 0.036855 0.000000 0.000000
# 5 0.000000 0.000000 0.000000 0.000000 0.030721 0.000000
# 6 0.000000 0.000000 0.000000 0.000000 0.000000 0.073384
#
#
# Mechanical properties :
#
#
# Convention : Reuss Voigt Hill
#
# Bulk Modulus (GPa) = 35.67262 66.62852 51.15057
# Shear Modulus (GPa) = 20.78011 26.44733 23.61372
#
# Velocity S-wave (km/s) = 3.36405 3.79516 3.58609
# Velocity P-wave (km/s) = 5.87507 7.44917 6.70845
#
# Compressibility (1/GPa) = 0.02803271
#
# Stress axis : x y z
#
# Youngs Moduli (GPa) = 27.81426 91.41614 81.43237
#
# Poissons Ratio (x) = 0.12379 0.69329
# Poissons Ratio (y) = 0.03766 0.46432
# Poissons Ratio (z) = 0.23680 0.52124
#
# Static dielectric constant tensor:
#      x y z
#    x 2.935840 0.000000 0.000000 
#    y 0.000000 3.695920 0.000000 
#    z 0.000000 0.000000 3.353230 
# 
# 
# High freq. dielectric constant tensor:
#      x y z
#    x 1.658960 0.000000 0.000000 
#    y 0.000000 1.728770 0.000000 
#    z 0.000000 0.000000 1.713330 
# 
# From -- ./inp_files/5199.got.cif
#   From: 2010.03.12/outbox.cif.g09.slc.cpg/sg25_3_cif.got.tgz:5199.got - 2010.04.14 03:30:10.
