data_PCOD8166032
_publ_section_title
;
Structure prediction by ZEFSAII (Michael W. Deem and Ramdas Pophale) SiO2 
 PCOD8166032
Probable space group: I 21 21 21
;
_chemical_formula_sum "Si O2"
_cell_formula_units_Z 48
_cell_length_a 13.816645
_cell_length_b 12.894302
_cell_length_c 13.071640
_cell_angle_alpha 90.000000
_cell_angle_beta 90.000000
_cell_angle_gamma 90.000000
_cell_volume 2328.791008
_symmetry_space_group_name_H-M "I 21 21 21"
_symmetry_group_IT_number 24
_symmetry_cell_setting 'orthorhombic'
loop_
_space_group_symop_operation_xyz
x,y,z
-x,1/2-y,z
x,-y,1/2-z
1/2-x,y,-z
1/2+x,1/2+y,1/2+z
1/2-x,-y,1/2+z
1/2+x,1/2-y,-z
-x,1/2+y,1/2-z
loop_
_atom_site_type_symbol
_atom_site_label
_atom_site_fract_x
_atom_site_fract_y
_atom_site_fract_z
Si Si1 0.257846 0.754308 0.752958
Si Si2 0.664277 0.359579 0.432858
Si Si3 0.591867 0.311128 0.909107
Si Si4 0.001828 0.502318 0.509870
Si Si5 0.907034 0.190101 0.885944
Si Si6 0.594921 0.810081 0.915275
O O1 0.201216 0.840283 0.818367
O O2 0.321352 0.816184 0.670696
O O3 0.179715 0.682746 0.695107
O O4 0.325401 0.684214 0.825529
O O5 0.750000 0.411922 0.500000
O O6 0.572563 0.434486 0.423531
O O7 0.635569 0.250627 0.486050
O O8 0.500000 0.250000 0.862036
O O9 0.559942 0.428619 0.931164
O O10 0.625716 0.253141 0.012881
O O11 0.065695 0.572300 0.585632
O O12 0.072321 0.428085 0.445297
O O13 0.000000 0.250000 0.838074
O O14 0.500000 0.750000 0.873983
#
# Coordination Sequence:
#
# PCOD8166032 Si02
#       6
#     8   8   8   8   8   8
#     4  11  20  38  65  89 117 153 195 245 294 342
#     4   9  20  37  59  87 118 154 195 242 292 344
#     4   9  20  40  62  86 119 154 192 242 294 347
#     4   9  19  41  63  82 119 160 192 239 295 345
#     4   9  21  39  59  85 120 159 195 240 292 343
#     4   9  19  39  62  87 121 154 192 242 292 347
#
# _framework density 20.611554000000002
#
# number of rings (size 3 to 8) (size 9 to 14) (size 15 to 20)
#    0.000    3.000    0.000    1.000    0.000    4.667 
#    0.000   51.667    0.000    2.000    0.000    0.000 
#    0.000    0.000    0.000    0.000    0.000    0.000 
#
# Total GULP energy -297574.134562 kJ/mol
# GULP energy per Si atom -12398.922273 kJ/mol
# Density = 2.056464 g / cm^3
# Si number density = 20.611554 Si / 1000 Ang^3
#
#
#
# Elastic Constant Matrix: (Units=GPa)
#
#
# Indices 1 2 3 4 5 6 
#
# 1 141.1085 63.4654 86.0717 0.0000 0.0000 0.0000
# 2 63.4654 126.1378 48.5475 0.0000 0.0000 0.0000
# 3 86.0717 48.5475 107.6877 0.0000 0.0000 0.0000
# 4 0.0000 0.0000 0.0000 5.6698 0.0000 0.0000
# 5 0.0000 0.0000 0.0000 0.0000 56.8362 0.0000
# 6 0.0000 0.0000 0.0000 0.0000 0.0000 23.1160
#
#
#
# Elastic Compliance Matrix: (Units=1/GPa)
#
#
# Indices 1 2 3 4 5 6 
#
# 1 0.015042 -0.003559 -0.010419 0.000000 0.000000 0.000000
# 2 -0.003559 0.010434 -0.001860 0.000000 0.000000 0.000000
# 3 -0.010419 -0.001860 0.018452 0.000000 0.000000 0.000000
# 4 0.000000 0.000000 0.000000 0.176373 0.000000 0.000000
# 5 0.000000 0.000000 0.000000 0.000000 0.017594 0.000000
# 6 0.000000 0.000000 0.000000 0.000000 0.000000 0.043260
#
#
# Mechanical properties :
#
#
# Convention : Reuss Voigt Hill
#
# Bulk Modulus (GPa) = 81.60240 85.67815 83.64028
# Shear Modulus (GPa) = 15.77715 28.91436 22.34575
#
# Velocity S-wave (km/s) = 2.76968 3.74949 3.29620
# Velocity P-wave (km/s) = 7.06433 7.77195 7.42657
#
# Compressibility (1/GPa) = 0.01225454
#
# Stress axis : x y z
#
# Youngs Moduli (GPa) = 66.47942 95.84048 54.19547
#
# Poissons Ratio (x) = 0.34105 0.56464
# Poissons Ratio (y) = 0.23657 0.10078
# Poissons Ratio (z) = 0.69262 0.17822
#
# Static dielectric constant tensor:
#      x y z
#    x 3.989060 0.000000 0.000000 
#    y 0.000000 3.468420 0.000000 
#    z 0.000000 0.000000 3.548630 
# 
# 
# High freq. dielectric constant tensor:
#      x y z
#    x 1.821950 0.000000 0.000000 
#    y 0.000000 1.784480 0.000000 
#    z 0.000000 0.000000 1.793790 
# 
# From -- ./inp_files/26459.got.cif
#   From: 2010.03.12/outbox.cif.g09.slc.cpg/sg24_14_cif.got.tgz:26459.got - 2010.04.14 03:06:53.
