data_PCOD8166289
_publ_section_title
;
Structure prediction by ZEFSAII (Michael W. Deem and Ramdas Pophale) SiO2 
 PCOD8166289
Probable space group: I 21 21 21
;
_chemical_formula_sum "Si O2"
_cell_formula_units_Z 24
_cell_length_a 8.671497
_cell_length_b 20.949981
_cell_length_c 5.067985
_cell_angle_alpha 90.000000
_cell_angle_beta 90.000000
_cell_angle_gamma 90.000000
_cell_volume 920.689165
_symmetry_space_group_name_H-M "I 21 21 21"
_symmetry_group_IT_number 24
_symmetry_cell_setting 'orthorhombic'
loop_
_space_group_symop_operation_xyz
x,y,z
-x,1/2-y,z
x,-y,1/2-z
1/2-x,y,-z
1/2+x,1/2+y,1/2+z
1/2-x,-y,1/2+z
1/2+x,1/2-y,-z
-x,1/2+y,1/2-z
loop_
_atom_site_type_symbol
_atom_site_label
_atom_site_fract_x
_atom_site_fract_y
_atom_site_fract_z
Si Si1 0.577828 0.189332 0.590440
Si Si2 0.852915 0.622788 0.750871
Si Si3 0.577890 0.941335 0.582431
O O1 0.500000 0.250000 0.741702
O O2 0.750000 0.205687 0.500000
O O3 0.466666 0.180107 0.335764
O O4 0.574896 0.125938 0.765440
O O5 0.750000 0.644392 0.500000
O O6 0.535107 0.564096 0.331148
O O7 0.750000 0.600727 0.000000
O O8 0.750000 0.958697 0.500000
O O9 0.512143 0.000000 0.750000
#
# Coordination Sequence:
#
# PCOD8166289 Si02
#       3
#     8   8   8
#     4  12  27  53  84 127 171 231 290 359 427 516
#     4  12  27  54  82 126 170 219 282 356 430 507
#     4  12  28  54  91 125 172 231 295 353 431 518
#
# _framework density 26.067428
#
# number of rings (size 3 to 8) (size 9 to 14) (size 15 to 20)
#    0.000    0.000    6.667    2.000    0.000    1.333 
#   12.000    0.000    0.000    0.000    0.000    0.000 
#    0.000    0.000    0.000    0.000    0.000    0.000 
#
# Total GULP energy -148755.310797 kJ/mol
# GULP energy per Si atom -12396.275900 kJ/mol
# Density = 2.600810 g / cm^3
# Si number density = 26.067428 Si / 1000 Ang^3
#
#
#
# Elastic Constant Matrix: (Units=GPa)
#
#
# Indices 1 2 3 4 5 6 
#
# 1 210.9982 34.6985 68.2616 0.0004 0.0000 0.0016
# 2 34.6985 155.6215 43.1624 -0.0020 0.0022 0.0052
# 3 68.2616 43.1624 144.0954 -0.0152 0.0277 -0.0113
# 4 0.0004 -0.0020 -0.0152 43.4727 0.0040 0.0008
# 5 0.0000 0.0022 0.0277 0.0040 44.1537 0.0073
# 6 0.0016 0.0052 -0.0113 0.0008 0.0073 -17.7706
#
#
#
# Elastic Compliance Matrix: (Units=1/GPa)
#
#
# Indices 1 2 3 4 5 6 
#
# 1 0.005642 -0.000564 -0.002504 -0.000001 0.000002 0.000002
# 2 -0.000564 0.007064 -0.001849 0.000000 0.000001 0.000003
# 3 -0.002504 -0.001849 0.008680 0.000003 -0.000005 -0.000006
# 4 -0.000001 0.000000 0.000003 0.023003 -0.000002 0.000001
# 5 0.000002 0.000001 -0.000005 -0.000002 0.022648 0.000009
# 6 0.000002 0.000003 -0.000006 0.000001 0.000009 -0.056273
#
#
# Mechanical properties :
#
#
# Convention : Reuss Voigt Hill
#
# Bulk Modulus (GPa) = 86.55650 89.21779 87.88715
# Shear Modulus (GPa) = 204.50554 38.27734 121.39144
#
# Velocity S-wave (km/s) = 8.86695 3.83612 6.83150
# Velocity P-wave (km/s) = 11.75191 7.34311 9.79869
#
# Compressibility (1/GPa) = 0.01155315
#
# Stress axis : x y z
#
# Youngs Moduli (GPa) = 177.23760 141.55584 115.20801
#
# Poissons Ratio (x) = 0.07977 0.28848
# Poissons Ratio (y) = 0.09987 0.21303
# Poissons Ratio (z) = 0.44381 0.26175
#
# Static dielectric constant tensor:
#      x y z
#    x 5.594580 0.000020 0.000070 
#    y 0.000020 4.481650 0.000000 
#    z 0.000070 0.000000 4.971500 
# 
# 
# High freq. dielectric constant tensor:
#      x y z
#    x 2.076310 0.000000 0.000000 
#    y 0.000000 2.039330 0.000000 
#    z 0.000000 0.000000 2.039270 
# 
# From -- ./inp_files/933.got.cif
#   From: 2010.03.12/outbox.cif.g09.slc.cpg/sg24_1_cif.got.tgz:933.got - 2010.04.14 03:06:53.
