data_PCOD8166350
_publ_section_title
;
Structure prediction by ZEFSAII (Michael W. Deem and Ramdas Pophale) SiO2 
 PCOD8166350
Probable space group: P M M 2
;
_chemical_formula_sum "Si O2"
_cell_formula_units_Z 32
_cell_length_a 9.077633
_cell_length_b 14.203627
_cell_length_c 15.359155
_cell_angle_alpha 90.000000
_cell_angle_beta 90.000000
_cell_angle_gamma 90.000000
_cell_volume 1980.337460
_symmetry_space_group_name_H-M "P M M 2"
_symmetry_group_IT_number 25
_symmetry_cell_setting 'orthorhombic'
loop_
_space_group_symop_operation_xyz
x,y,z
-x,-y,z
-x,y,z
x,-y,z
loop_
_atom_site_type_symbol
_atom_site_label
_atom_site_fract_x
_atom_site_fract_y
_atom_site_fract_z
Si Si1 0.325665 0.606126 0.220130
Si Si2 0.825058 0.897606 0.982335
Si Si3 0.663220 0.388251 0.412821
Si Si4 0.325477 0.285174 0.734815
Si Si5 0.828307 0.106417 0.784532
Si Si6 0.829260 0.391011 0.888633
Si Si7 0.167382 0.611818 0.580293
Si Si8 0.172245 0.709010 0.066281
O O1 0.500000 0.607669 0.209742
O O2 0.266314 0.500000 0.204249
O O3 0.281083 0.642323 0.316820
O O4 0.254942 0.676672 0.151978
O O5 0.766323 0.813336 0.042871
O O6 0.000000 0.895483 0.980518
O O7 0.769760 0.000000 0.017042
O O8 0.771339 0.882712 0.883575
O O9 0.500000 0.346777 0.431543
O O10 0.653329 0.500000 0.413965
O O11 0.775455 0.351852 0.486411
O O12 0.500000 0.284523 0.733902
O O13 0.264901 0.178687 0.725957
O O14 0.269749 0.330607 0.824275
O O15 0.269111 0.345610 0.654338
O O16 0.000000 0.132210 0.777186
O O17 0.799920 0.000000 0.751331
O O18 0.790019 0.500000 0.876972
O O19 0.000000 0.370762 0.866779
O O20 0.793067 0.361650 0.987219
O O21 0.178657 0.500000 0.587316
O O22 0.000000 0.646189 0.592240
O O23 0.000000 0.711335 0.086787
#
# Coordination Sequence:
#
# PCOD8166350 Si02
#       8
#     4   4   4   4   4   4   4   4
#     4   9  18  31  46  66  96 130 158 187 230 286
#     4   8  14  27  48  69  88 115 153 197 241 280
#     4   8  15  30  49  67  90 121 155 193 238 284
#     4  12  23  32  46  69  98 129 159 194 236 287
#     4   9  17  33  55  71  88 120 160 201 243 284
#     4  10  20  33  46  62  91 129 167 203 234 271
#     4  10  20  33  50  71  95 124 160 201 238 279
#     4  10  18  29  47  69  92 120 159 201 235 272
#
# _framework density 16.158861999999999
#
# number of rings (size 3 to 8) (size 9 to 14) (size 15 to 20)
#    0.000    2.500    1.250    3.750    0.000    4.500 
#    0.000    1.250    0.000    0.375    0.000    0.875 
#    0.000    3.000    0.000    0.000    0.000    0.000 
#
# Total GULP energy -396710.605601 kJ/mol
# GULP energy per Si atom -12397.206425 kJ/mol
# Density = 1.612208 g / cm^3
# Si number density = 16.158862 Si / 1000 Ang^3
#
#
#
# Elastic Constant Matrix: (Units=GPa)
#
#
# Indices 1 2 3 4 5 6 
#
# 1 75.2885 34.2735 40.2692 0.0000 0.0000 0.0000
# 2 34.2735 71.9681 25.3572 0.0000 0.0000 0.0000
# 3 40.2692 25.3572 79.1497 0.0000 0.0000 0.0000
# 4 0.0000 0.0000 0.0000 10.5685 0.0000 0.0000
# 5 0.0000 0.0000 0.0000 0.0000 22.8154 0.0000
# 6 0.0000 0.0000 0.0000 0.0000 0.0000 18.0111
#
#
#
# Elastic Compliance Matrix: (Units=1/GPa)
#
#
# Indices 1 2 3 4 5 6 
#
# 1 0.020988 -0.007026 -0.008427 0.000000 0.000000 0.000000
# 2 -0.007026 0.018015 -0.002197 0.000000 0.000000 0.000000
# 3 -0.008427 -0.002197 0.017626 0.000000 0.000000 0.000000
# 4 0.000000 0.000000 0.000000 0.094621 0.000000 0.000000
# 5 0.000000 0.000000 0.000000 0.000000 0.043830 0.000000
# 6 0.000000 0.000000 0.000000 0.000000 0.000000 0.055521
#
#
# Mechanical properties :
#
#
# Convention : Reuss Voigt Hill
#
# Bulk Modulus (GPa) = 46.88529 47.35623 47.12076
# Shear Modulus (GPa) = 17.06423 18.71277 17.88850
#
# Velocity S-wave (km/s) = 3.25319 3.40670 3.33083
# Velocity P-wave (km/s) = 6.57185 6.69660 6.63452
#
# Compressibility (1/GPa) = 0.02132865
#
# Stress axis : x y z
#
# Youngs Moduli (GPa) = 47.64604 55.50909 56.73551
#
# Poissons Ratio (x) = 0.39000 0.47812
# Poissons Ratio (y) = 0.33476 0.12464
# Poissons Ratio (z) = 0.40153 0.12195
#
# Static dielectric constant tensor:
#      x y z
#    x 3.173330 0.000000 0.000000 
#    y 0.000000 3.212060 0.000000 
#    z 0.000000 0.000000 3.092110 
# 
# 
# High freq. dielectric constant tensor:
#      x y z
#    x 1.608670 0.000000 0.000000 
#    y 0.000000 1.606750 0.000000 
#    z 0.000000 0.000000 1.609480 
# 
# From -- ./inp_files/5717.got.cif
#   From: 2010.03.12/outbox.cif.g09.slc.cpg/sg25_3_cif.got.tgz:5717.got - 2010.04.14 03:30:10.
