data_PCOD8166531
_publ_section_title
;
Structure prediction by ZEFSAII (Michael W. Deem and Ramdas Pophale) SiO2 
 PCOD8166531
Probable space group: P M M 2
;
_chemical_formula_sum "Si O2"
_cell_formula_units_Z 20
_cell_length_a 14.389252
_cell_length_b 7.761024
_cell_length_c 9.753023
_cell_angle_alpha 90.000000
_cell_angle_beta 90.000000
_cell_angle_gamma 90.000000
_cell_volume 1089.172063
_symmetry_space_group_name_H-M "P M M 2"
_symmetry_group_IT_number 25
_symmetry_cell_setting 'orthorhombic'
loop_
_space_group_symop_operation_xyz
x,y,z
-x,-y,z
-x,y,z
x,-y,z
loop_
_atom_site_type_symbol
_atom_site_label
_atom_site_fract_x
_atom_site_fract_y
_atom_site_fract_z
Si Si1 0.603867 0.201043 0.764580
Si Si2 0.763915 0.801491 0.969888
Si Si3 0.103060 0.500000 0.968724
Si Si4 0.767666 0.191144 0.286438
Si Si5 0.896267 0.500000 0.293716
Si Si6 0.394871 0.304188 0.466820
O O1 0.500000 0.259677 0.807065
O O2 0.671482 0.251622 0.888340
O O3 0.635914 0.295107 0.625630
O O4 0.607491 0.000000 0.733460
O O5 0.845637 0.674377 0.919403
O O6 0.793342 0.000000 0.941422
O O7 0.741826 0.769170 0.129161
O O8 0.000000 0.500000 0.903838
O O9 0.096066 0.500000 0.131475
O O10 0.841636 0.329450 0.344171
O O11 0.673048 0.192981 0.372760
O O12 0.811823 0.000000 0.299328
O O13 0.000000 0.500000 0.358217
O O14 0.500000 0.232034 0.451251
O O15 0.388827 0.500000 0.416341
#
# Coordination Sequence:
#
# PCOD8166531 Si02
#       6
#     4   4   2   4   2   4
#     4   9  18  33  51  73 102 136 172 207 246 296
#     4   9  19  33  52  78 104 131 167 209 251 299
#     4   9  18  32  52  75 102 134 165 205 256 303
#     4  10  19  33  54  78 104 135 169 208 256 301
#     4   9  18  34  52  75 106 132 165 213 256 303
#     4  10  20  33  50  75 105 138 175 209 247 300
#
# _framework density 18.362569000000001
#
# number of rings (size 3 to 8) (size 9 to 14) (size 15 to 20)
#    0.000    2.600    1.000    0.600    1.400    2.800 
#    0.000    6.000    0.000    2.400    0.000    2.800 
#    0.000    0.000    0.000    0.000    0.000    0.000 
#
# Total GULP energy -247973.336930 kJ/mol
# GULP energy per Si atom -12398.666846 kJ/mol
# Density = 1.832078 g / cm^3
# Si number density = 18.362569 Si / 1000 Ang^3
#
#
#
# Elastic Constant Matrix: (Units=GPa)
#
#
# Indices 1 2 3 4 5 6 
#
# 1 138.6416 63.3718 55.8863 0.0000 0.0000 0.0000
# 2 63.3718 104.0782 33.4873 0.0000 0.0000 0.0000
# 3 55.8863 33.4873 55.7926 0.0000 0.0000 0.0000
# 4 0.0000 0.0000 0.0000 21.3564 0.0000 0.0000
# 5 0.0000 0.0000 0.0000 0.0000 7.2654 0.0000
# 6 0.0000 0.0000 0.0000 0.0000 0.0000 25.6323
#
#
#
# Elastic Compliance Matrix: (Units=1/GPa)
#
#
# Indices 1 2 3 4 5 6 
#
# 1 0.013876 -0.004929 -0.010941 0.000000 0.000000 0.000000
# 2 -0.004929 0.013658 -0.003261 0.000000 0.000000 0.000000
# 3 -0.010941 -0.003261 0.030840 0.000000 0.000000 0.000000
# 4 0.000000 0.000000 0.000000 0.046824 0.000000 0.000000
# 5 0.000000 0.000000 0.000000 0.000000 0.137639 0.000000
# 6 0.000000 0.000000 0.000000 0.000000 0.000000 0.039013
#
#
# Mechanical properties :
#
#
# Convention : Reuss Voigt Hill
#
# Bulk Modulus (GPa) = 49.71855 67.11145 58.41500
# Shear Modulus (GPa) = 15.29908 20.56862 17.93385
#
# Velocity S-wave (km/s) = 2.88959 3.35048 3.12853
# Velocity P-wave (km/s) = 6.18610 7.18296 6.70309
#
# Compressibility (1/GPa) = 0.02011322
#
# Stress axis : x y z
#
# Youngs Moduli (GPa) = 72.06685 73.21529 32.42514
#
# Poissons Ratio (x) = 0.36085 0.35477
# Poissons Ratio (y) = 0.35519 0.10574
# Poissons Ratio (z) = 0.78849 0.23876
#
# Static dielectric constant tensor:
#      x y z
#    x 3.490250 0.000000 0.000000 
#    y 0.000000 3.486700 0.000000 
#    z 0.000000 0.000000 3.104900 
# 
# 
# High freq. dielectric constant tensor:
#      x y z
#    x 1.700200 0.000000 0.000000 
#    y 0.000000 1.725150 0.000000 
#    z 0.000000 0.000000 1.682890 
# 
# From -- ./inp_files/1888.got.cif
#   From: 2010.03.12/outbox.cif.g09.slc.cpg/sg25_1_cif.got.tgz:1888.got - 2010.04.14 03:30:10.
