data_PCOD8166081
_publ_section_title
;
Structure prediction by ZEFSAII (Michael W. Deem and Ramdas Pophale) SiO2 
 PCOD8166081
Probable space group: I 21 21 21
;
_chemical_formula_sum "Si O2"
_cell_formula_units_Z 36
_cell_length_a 7.799599
_cell_length_b 9.684771
_cell_length_c 21.179030
_cell_angle_alpha 90.000000
_cell_angle_beta 90.000000
_cell_angle_gamma 90.000000
_cell_volume 1599.807383
_symmetry_space_group_name_H-M "I 21 21 21"
_symmetry_group_IT_number 24
_symmetry_cell_setting 'orthorhombic'
loop_
_space_group_symop_operation_xyz
x,y,z
-x,1/2-y,z
x,-y,1/2-z
1/2-x,y,-z
1/2+x,1/2+y,1/2+z
1/2-x,-y,1/2+z
1/2+x,1/2-y,-z
-x,1/2+y,1/2-z
loop_
_atom_site_type_symbol
_atom_site_label
_atom_site_fract_x
_atom_site_fract_y
_atom_site_fract_z
Si Si1 0.380712 0.533066 0.135540
Si Si2 0.500000 0.250000 0.268189
Si Si3 0.192194 0.275664 0.176146
Si Si4 0.703051 0.429516 0.073791
Si Si5 0.805129 0.719635 0.070344
O O1 0.480177 0.608675 0.192438
O O2 0.228563 0.437830 0.163151
O O3 0.499250 0.435695 0.090377
O O4 0.306950 0.655304 0.094037
O O5 0.332074 0.220937 0.225895
O O6 0.206580 0.194849 0.110111
O O7 0.000000 0.250000 0.203105
O O8 0.769780 0.573894 0.104120
O O9 0.750000 0.409745 0.000000
O O10 0.000000 0.750000 0.079906
O O11 0.750000 0.691297 0.000000
#
# Coordination Sequence:
#
# PCOD8166081 Si02
#       5
#     8   4   8   8   8
#     4  12  24  48  75 106 151 206 249 321 387 452
#     4  12  26  52  74 102 158 200 260 322 376 462
#     4  12  28  48  74 113 146 199 256 313 392 460
#     4  11  23  45  74 109 149 193 248 313 389 462
#     4  11  22  39  67 106 146 196 251 310 380 461
#
# _framework density 22.502708999999999
#
# number of rings (size 3 to 8) (size 9 to 14) (size 15 to 20)
#    0.000    0.444    4.444    4.667    0.000    3.556 
#    8.000    0.000    0.000    0.000    0.000    0.000 
#    0.000    0.000    0.000    0.000    0.000    0.000 
#
# Total GULP energy -223137.882534 kJ/mol
# GULP energy per Si atom -12396.549030 kJ/mol
# Density = 2.245149 g / cm^3
# Si number density = 22.502709 Si / 1000 Ang^3
#
#
#
# Elastic Constant Matrix: (Units=GPa)
#
#
# Indices 1 2 3 4 5 6 
#
# 1 153.2916 26.4686 49.7575 0.0000 0.0000 0.0000
# 2 26.4686 117.6690 32.6154 0.0000 0.0000 0.0000
# 3 49.7575 32.6154 103.7927 0.0000 0.0000 0.0000
# 4 0.0000 0.0000 0.0000 36.0082 0.0000 0.0000
# 5 0.0000 0.0000 0.0000 0.0000 34.4164 0.0000
# 6 0.0000 0.0000 0.0000 0.0000 0.0000 40.5406
#
#
#
# Elastic Compliance Matrix: (Units=1/GPa)
#
#
# Indices 1 2 3 4 5 6 
#
# 1 0.007791 -0.000786 -0.003488 0.000000 0.000000 0.000000
# 2 -0.000786 0.009388 -0.002574 0.000000 0.000000 0.000000
# 3 -0.003488 -0.002574 0.012116 0.000000 0.000000 0.000000
# 4 0.000000 0.000000 0.000000 0.027771 0.000000 0.000000
# 5 0.000000 0.000000 0.000000 0.000000 0.029056 0.000000
# 6 0.000000 0.000000 0.000000 0.000000 0.000000 0.024667
#
#
# Mechanical properties :
#
#
# Convention : Reuss Voigt Hill
#
# Bulk Modulus (GPa) = 64.10083 65.82625 64.96354
# Shear Modulus (GPa) = 38.55507 39.92050 39.23779
#
# Velocity S-wave (km/s) = 4.14376 4.21649 4.18028
# Velocity P-wave (km/s) = 7.17231 7.28157 7.22714
#
# Compressibility (1/GPa) = 0.01560042
#
# Stress axis : x y z
#
# Youngs Moduli (GPa) = 128.34575 106.51345 82.53878
#
# Poissons Ratio (x) = 0.08369 0.28792
# Poissons Ratio (y) = 0.10085 0.21241
# Poissons Ratio (z) = 0.44770 0.27411
#
# Static dielectric constant tensor:
#      x y z
#    x 3.994750 0.000000 0.000000 
#    y 0.000000 4.211890 0.000000 
#    z 0.000000 0.000000 4.083820 
# 
# 
# High freq. dielectric constant tensor:
#      x y z
#    x 1.887970 0.000000 0.000000 
#    y 0.000000 1.906660 0.000000 
#    z 0.000000 0.000000 1.882040 
# 
# From -- ./inp_files/9095.got.cif
#   From: 2010.03.12/outbox.cif.g09.slc.cpg/sg24_5_cif.got.tgz:9095.got - 2010.04.14 03:06:53.
