data_PCOD8166708
_publ_section_title
;
Structure prediction by ZEFSAII (Michael W. Deem and Ramdas Pophale) SiO2 
 PCOD8166708
Probable space group: P M M 2
;
_chemical_formula_sum "Si O2"
_cell_formula_units_Z 24
_cell_length_a 9.100096
_cell_length_b 9.632659
_cell_length_c 15.510473
_cell_angle_alpha 90.000000
_cell_angle_beta 90.000000
_cell_angle_gamma 90.000000
_cell_volume 1359.618929
_symmetry_space_group_name_H-M "P M M 2"
_symmetry_group_IT_number 25
_symmetry_cell_setting 'orthorhombic'
loop_
_space_group_symop_operation_xyz
x,y,z
-x,-y,z
-x,y,z
x,-y,z
loop_
_atom_site_type_symbol
_atom_site_label
_atom_site_fract_x
_atom_site_fract_y
_atom_site_fract_z
Si Si1 0.324935 0.654614 0.988810
Si Si2 0.671628 0.337599 0.512186
Si Si3 0.828036 0.161147 0.657655
Si Si4 0.336143 0.334610 0.177465
Si Si5 0.164358 0.334997 0.341151
Si Si6 0.669912 0.160613 0.832464
O O1 0.500000 0.651867 0.990407
O O2 0.263882 0.500000 0.970292
O O3 0.266672 0.755755 0.914250
O O4 0.272177 0.708277 0.083272
O O5 0.500000 0.303990 0.511764
O O6 0.702417 0.500000 0.527149
O O7 0.748752 0.253337 0.587206
O O8 0.738131 0.285966 0.421674
O O9 0.764427 0.204881 0.750143
O O10 0.000000 0.193309 0.656356
O O11 0.794577 0.000000 0.638755
O O12 0.500000 0.274088 0.191238
O O13 0.343096 0.500000 0.182080
O O14 0.232859 0.273995 0.252868
O O15 0.161948 0.500000 0.336496
O O16 0.000000 0.275502 0.351868
O O17 0.500000 0.197293 0.813833
O O18 0.690066 0.000000 0.854585
#
# Coordination Sequence:
#
# PCOD8166708 Si02
#       6
#     4   4   4   4   4   4
#     4   8  14  25  43  67  92 118 151 192 234 273
#     4  10  20  33  51  75  99 124 158 200 242 283
#     4  10  21  36  52  70  95 128 162 196 239 291
#     4   8  13  23  40  61  86 118 155 191 227 272
#     4   9  16  26  42  66  96 126 154 188 232 281
#     4   9  17  30  48  68  90 119 156 195 234 280
#
# _framework density 17.652004999999999
#
# number of rings (size 3 to 8) (size 9 to 14) (size 15 to 20)
#    0.000    3.000    0.000    2.500    0.000    4.667 
#    0.000    2.500    0.000    2.000    0.000    2.333 
#    0.000    0.000    0.000    0.000    0.000    0.000 
#
# Total GULP energy -297526.394331 kJ/mol
# GULP energy per Si atom -12396.933097 kJ/mol
# Density = 1.761183 g / cm^3
# Si number density = 17.652005 Si / 1000 Ang^3
#
#
#
# Elastic Constant Matrix: (Units=GPa)
#
#
# Indices 1 2 3 4 5 6 
#
# 1 102.8396 36.7899 83.9127 0.0000 0.0000 0.0000
# 2 36.7899 43.5481 64.6980 0.0000 0.0000 0.0000
# 3 83.9127 64.6980 193.6591 0.0000 0.0000 0.0000
# 4 0.0000 0.0000 0.0000 -3.0080 0.0000 0.0000
# 5 0.0000 0.0000 0.0000 0.0000 3.5148 0.0000
# 6 0.0000 0.0000 0.0000 0.0000 0.0000 16.6308
#
#
#
# Elastic Compliance Matrix: (Units=1/GPa)
#
#
# Indices 1 2 3 4 5 6 
#
# 1 0.015877 -0.006338 -0.004762 0.000000 0.000000 0.000000
# 2 -0.006338 0.048122 -0.013330 0.000000 0.000000 0.000000
# 3 -0.004762 -0.013330 0.011681 0.000000 0.000000 0.000000
# 4 0.000000 0.000000 0.000000 -0.332445 0.000000 0.000000
# 5 0.000000 0.000000 0.000000 0.000000 0.284510 0.000000
# 6 0.000000 0.000000 0.000000 0.000000 0.000000 0.060129
#
#
# Mechanical properties :
#
#
# Convention : Reuss Voigt Hill
#
# Bulk Modulus (GPa) = 37.28780 78.98311 58.13545
# Shear Modulus (GPa) = 34.32316 13.73728 24.03022
#
# Velocity S-wave (km/s) = 4.41436 2.79270 3.69362
# Velocity P-wave (km/s) = 6.86671 7.43240 7.15515
#
# Compressibility (1/GPa) = 0.02681842
#
# Stress axis : x y z
#
# Youngs Moduli (GPa) = 62.98466 20.78041 85.61252
#
# Poissons Ratio (x) = 0.13171 0.40769
# Poissons Ratio (y) = 0.39921 1.14125
# Poissons Ratio (z) = 0.29993 0.27701
#
# Static dielectric constant tensor:
#      x y z
#    x 3.285360 0.000000 0.000000 
#    y 0.000000 2.979730 0.000000 
#    z 0.000000 0.000000 3.621380 
# 
# 
# High freq. dielectric constant tensor:
#      x y z
#    x 1.671120 0.000000 0.000000 
#    y 0.000000 1.637780 0.000000 
#    z 0.000000 0.000000 1.700310 
# 
# From -- ./inp_files/3912.got.cif
#   From: 2010.03.12/outbox.cif.g09.slc.cpg/sg25_2_cif.got.tgz:3912.got - 2010.04.14 03:30:10.
