data_PCOD8166536
_publ_section_title
;
Structure prediction by ZEFSAII (Michael W. Deem and Ramdas Pophale) SiO2 
 PCOD8166536
Probable space group: P M M 2
;
_chemical_formula_sum "Si O2"
_cell_formula_units_Z 24
_cell_length_a 11.730414
_cell_length_b 9.051339
_cell_length_c 12.726009
_cell_angle_alpha 90.000000
_cell_angle_beta 90.000000
_cell_angle_gamma 90.000000
_cell_volume 1351.196143
_symmetry_space_group_name_H-M "P M M 2"
_symmetry_group_IT_number 25
_symmetry_cell_setting 'orthorhombic'
loop_
_space_group_symop_operation_xyz
x,y,z
-x,-y,z
-x,y,z
x,-y,z
loop_
_atom_site_type_symbol
_atom_site_label
_atom_site_fract_x
_atom_site_fract_y
_atom_site_fract_z
Si Si1 0.631653 0.827358 0.530020
Si Si2 0.000000 0.675199 0.794948
Si Si3 0.776455 0.826570 0.103133
Si Si4 0.000000 0.675366 0.033281
Si Si5 0.625654 0.174823 0.293390
Si Si6 0.758394 0.674951 0.713929
Si Si7 0.368042 0.830528 0.898560
O O1 0.500000 0.786727 0.553945
O O2 0.664262 0.782278 0.411042
O O3 0.716460 0.736908 0.603327
O O4 0.651222 0.000000 0.549867
O O5 0.112876 0.732890 0.735315
O O6 0.000000 0.500000 0.799594
O O7 0.000000 0.737139 0.913952
O O8 0.891392 0.735271 0.094591
O O9 0.715113 0.765687 0.208184
O O10 0.804138 0.000000 0.110221
O O11 0.696128 0.790031 0.005133
O O12 0.000000 0.500000 0.035520
O O13 0.500000 0.241726 0.270562
O O14 0.616911 0.000000 0.283443
O O15 0.754841 0.500000 0.710025
O O16 0.675394 0.727491 0.805765
O O17 0.500000 0.798327 0.918349
O O18 0.347029 0.000000 0.865748
#
# Coordination Sequence:
#
# PCOD8166536 Si02
#       7
#     4   2   4   2   4   4   4
#     4   9  18  34  55  79 107 137 169 210 262 312
#     4   9  20  37  52  67  96 140 179 212 252 303
#     4  10  19  33  55  81 104 132 176 217 251 302
#     4  11  21  37  54  71 104 146 179 210 260 309
#     4   8  15  31  56  81 106 137 169 207 260 314
#     4  11  21  35  53  73 100 138 180 216 255 306
#     4  10  20  32  49  77 109 133 160 209 266 314
#
# _framework density 17.762039999999999
#
# number of rings (size 3 to 8) (size 9 to 14) (size 15 to 20)
#    0.000    2.333    1.667    2.750    0.000    4.667 
#    0.000    3.333    0.000    5.500    0.000    0.000 
#    0.000    0.000    0.000    0.000    0.000    0.000 
#
# Total GULP energy -297606.968342 kJ/mol
# GULP energy per Si atom -12400.290348 kJ/mol
# Density = 1.772161 g / cm^3
# Si number density = 17.762040 Si / 1000 Ang^3
#
#
#
# Elastic Constant Matrix: (Units=GPa)
#
#
# Indices 1 2 3 4 5 6 
#
# 1 143.9614 43.6382 84.8269 0.0000 0.0000 0.0000
# 2 43.6382 46.7526 42.4624 0.0000 0.0000 0.0000
# 3 84.8269 42.4624 145.0387 0.0000 0.0000 0.0000
# 4 0.0000 0.0000 0.0000 14.5025 0.0000 0.0000
# 5 0.0000 0.0000 0.0000 0.0000 51.2903 0.0000
# 6 0.0000 0.0000 0.0000 0.0000 0.0000 23.5429
#
#
#
# Elastic Compliance Matrix: (Units=1/GPa)
#
#
# Indices 1 2 3 4 5 6 
#
# 1 0.011898 -0.006519 -0.005050 0.000000 0.000000 0.000000
# 2 -0.006519 0.032708 -0.005763 0.000000 0.000000 0.000000
# 3 -0.005050 -0.005763 0.011536 0.000000 0.000000 0.000000
# 4 0.000000 0.000000 0.000000 0.068954 0.000000 0.000000
# 5 0.000000 0.000000 0.000000 0.000000 0.019497 0.000000
# 6 0.000000 0.000000 0.000000 0.000000 0.000000 0.042476
#
#
# Mechanical properties :
#
#
# Convention : Reuss Voigt Hill
#
# Bulk Modulus (GPa) = 46.56061 75.28975 60.92518
# Shear Modulus (GPa) = 21.84441 28.85549 25.34995
#
# Velocity S-wave (km/s) = 3.51071 4.03495 3.78193
# Velocity P-wave (km/s) = 6.53482 8.01173 7.31067
#
# Compressibility (1/GPa) = 0.02147738
#
# Stress axis : x y z
#
# Youngs Moduli (GPa) = 84.04765 30.57347 86.68773
#
# Poissons Ratio (x) = 0.19930 0.43779
# Poissons Ratio (y) = 0.54788 0.49961
# Poissons Ratio (z) = 0.42446 0.17620
#
# Static dielectric constant tensor:
#      x y z
#    x 2.429440 0.000000 0.000000 
#    y 0.000000 3.017020 0.000000 
#    z 0.000000 0.000000 3.457000 
# 
# 
# High freq. dielectric constant tensor:
#      x y z
#    x 1.691340 0.000000 0.000000 
#    y 0.000000 1.660540 0.000000 
#    z 0.000000 0.000000 1.692430 
# 
# From -- ./inp_files/3973.got.cif
#   From: 2010.03.12/outbox.cif.g09.slc.cpg/sg25_2_cif.got.tgz:3973.got - 2010.04.14 03:30:10.
