data_PCOD8166348
_publ_section_title
;
Structure prediction by ZEFSAII (Michael W. Deem and Ramdas Pophale) SiO2 
 PCOD8166348
Probable space group: P M M 2
;
_chemical_formula_sum "Si O2"
_cell_formula_units_Z 24
_cell_length_a 8.470331
_cell_length_b 16.699215
_cell_length_c 9.278127
_cell_angle_alpha 90.000000
_cell_angle_beta 90.000000
_cell_angle_gamma 90.000000
_cell_volume 1312.371381
_symmetry_space_group_name_H-M "P M M 2"
_symmetry_group_IT_number 25
_symmetry_cell_setting 'orthorhombic'
loop_
_space_group_symop_operation_xyz
x,y,z
-x,-y,z
-x,y,z
x,-y,z
loop_
_atom_site_type_symbol
_atom_site_label
_atom_site_fract_x
_atom_site_fract_y
_atom_site_fract_z
Si Si1 0.814505 0.089279 0.583430
Si Si2 0.185400 0.258956 0.087317
Si Si3 0.181605 0.333243 0.502031
Si Si4 0.683341 0.815292 0.347678
Si Si5 0.317472 0.590094 0.244390
Si Si6 0.812456 0.761163 0.766083
O O1 0.727135 0.102206 0.428511
O O2 0.751313 0.154003 0.700525
O O3 0.000000 0.098688 0.558189
O O4 0.772128 0.000000 0.638174
O O5 0.272687 0.188494 0.178088
O O6 0.218041 0.347850 0.148887
O O7 0.000000 0.242710 0.088114
O O8 0.255393 0.252460 0.925636
O O9 0.201394 0.250207 0.417590
O O10 0.281492 0.400144 0.416178
O O11 0.241212 0.314427 0.665337
O O12 0.000000 0.360128 0.500654
O O13 0.500000 0.794026 0.368626
O O14 0.500000 0.607930 0.217432
O O15 0.272500 0.500000 0.197925
O O16 0.000000 0.763294 0.768425
#
# Coordination Sequence:
#
# PCOD8166348 Si02
#       6
#     4   4   4   4   4   4
#     4   9  17  32  53  73  94 123 161 203 244 285
#     4  10  18  31  51  72  97 128 163 197 234 287
#     4   9  16  30  51  71  91 118 157 196 232 280
#     4  10  18  29  46  69  97 125 156 192 231 278
#     4  10  20  33  48  69  97 126 160 202 244 285
#     4   8  16  30  49  74  98 121 155 200 241 281
#
# _framework density 18.287507000000002
#
# number of rings (size 3 to 8) (size 9 to 14) (size 15 to 20)
#    0.000    2.667    0.000    6.000    0.000    1.667 
#    0.000   10.000    0.000    8.000    0.000    0.000 
#    0.000    0.000    0.000    0.000    0.000    0.000 
#
# Total GULP energy -297361.035548 kJ/mol
# GULP energy per Si atom -12390.043148 kJ/mol
# Density = 1.824588 g / cm^3
# Si number density = 18.287507 Si / 1000 Ang^3
#
#
#
# Elastic Constant Matrix: (Units=GPa)
#
#
# Indices 1 2 3 4 5 6 
#
# 1 39.3225 18.1674 19.0856 0.0000 0.0000 0.0000
# 2 18.1674 79.6688 42.0248 0.0000 0.0000 0.0000
# 3 19.0856 42.0248 143.1357 0.0000 0.0000 0.0000
# 4 0.0000 0.0000 0.0000 20.3466 0.0000 0.0000
# 5 0.0000 0.0000 0.0000 0.0000 7.8588 0.0000
# 6 0.0000 0.0000 0.0000 0.0000 0.0000 16.6487
#
#
#
# Elastic Compliance Matrix: (Units=1/GPa)
#
#
# Indices 1 2 3 4 5 6 
#
# 1 0.029042 -0.005419 -0.002281 0.000000 0.000000 0.000000
# 2 -0.005419 0.015863 -0.003935 0.000000 0.000000 0.000000
# 3 -0.002281 -0.003935 0.008446 0.000000 0.000000 0.000000
# 4 0.000000 0.000000 0.000000 0.049148 0.000000 0.000000
# 5 0.000000 0.000000 0.000000 0.000000 0.127246 0.000000
# 6 0.000000 0.000000 0.000000 0.000000 0.000000 0.060065
#
#
# Mechanical properties :
#
#
# Convention : Reuss Voigt Hill
#
# Bulk Modulus (GPa) = 33.24456 46.74251 39.99354
# Shear Modulus (GPa) = 15.47472 21.16077 18.31775
#
# Velocity S-wave (km/s) = 2.91209 3.40533 3.16832
# Velocity P-wave (km/s) = 5.43372 6.40913 5.94148
#
# Compressibility (1/GPa) = 0.03008011
#
# Stress axis : x y z
#
# Youngs Moduli (GPa) = 34.43328 63.03828 118.40111
#
# Poissons Ratio (x) = 0.34161 0.27011
# Poissons Ratio (y) = 0.18660 0.46590
# Poissons Ratio (z) = 0.07855 0.24805
#
# Static dielectric constant tensor:
#      x y z
#    x 3.163000 0.000000 0.000000 
#    y 0.000000 3.331560 0.000000 
#    z 0.000000 0.000000 3.878610 
# 
# 
# High freq. dielectric constant tensor:
#      x y z
#    x 1.698500 0.000000 0.000000 
#    y 0.000000 1.682690 0.000000 
#    z 0.000000 0.000000 1.703430 
# 
# From -- ./inp_files/2108.got.cif
#   From: 2010.03.12/outbox.cif.g09.slc.cpg/sg25_2_cif.got.tgz:2108.got - 2010.04.14 03:30:10.
