data_PCOD8166337
_publ_section_title
;
Structure prediction by ZEFSAII (Michael W. Deem and Ramdas Pophale) SiO2 
 PCOD8166337
Probable space group: P M M 2
;
_chemical_formula_sum "Si O2"
_cell_formula_units_Z 32
_cell_length_a 14.204822
_cell_length_b 9.552235
_cell_length_c 15.532809
_cell_angle_alpha 90.000000
_cell_angle_beta 90.000000
_cell_angle_gamma 90.000000
_cell_volume 2107.612648
_symmetry_space_group_name_H-M "P M M 2"
_symmetry_group_IT_number 25
_symmetry_cell_setting 'orthorhombic'
loop_
_space_group_symop_operation_xyz
x,y,z
-x,-y,z
-x,y,z
x,-y,z
loop_
_atom_site_type_symbol
_atom_site_label
_atom_site_fract_x
_atom_site_fract_y
_atom_site_fract_z
Si Si1 0.609351 0.660911 0.668550
Si Si2 0.898327 0.834285 0.753930
Si Si3 0.892925 0.161258 0.558883
Si Si4 0.609287 0.837812 0.995819
Si Si5 0.298751 0.834029 0.818439
Si Si6 0.604598 0.666508 0.341716
Si Si7 0.612148 0.655837 0.153148
Si Si8 0.272990 0.664940 0.500177
O O1 0.500000 0.683861 0.647755
O O2 0.629969 0.500000 0.693298
O O3 0.638316 0.758445 0.747493
O O4 0.666768 0.705377 0.584037
O O5 0.882491 0.782848 0.656486
O O6 0.810432 0.784251 0.811688
O O7 0.000000 0.776146 0.788376
O O8 0.903733 0.000000 0.752861
O O9 0.826606 0.256370 0.499901
O O10 0.000000 0.179184 0.526853
O O11 0.861127 0.000000 0.552004
O O12 0.500000 0.803377 0.979890
O O13 0.665906 0.787835 0.912038
O O14 0.625494 0.000000 0.014466
O O15 0.650728 0.756176 0.078110
O O16 0.309767 0.000000 0.804184
O O17 0.500000 0.729216 0.356676
O O18 0.597951 0.500000 0.345116
O O19 0.644537 0.711280 0.247442
O O20 0.672632 0.722297 0.416290
O O21 0.500000 0.653568 0.152708
O O22 0.651596 0.500000 0.135793
O O23 0.254854 0.500000 0.494799
#
# Coordination Sequence:
#
# PCOD8166337 Si02
#       8
#     4   4   4   4   4   4   4   4
#     4  10  20  30  39  57  88 120 144 168 204 247
#     4   8  14  26  44  62  79 104 140 179 213 245
#     4   9  17  30  46  62  83 112 144 179 218 254
#     4   9  17  27  39  59  86 111 136 172 216 251
#     4  10  18  29  45  62  82 112 148 178 206 249
#     4   8  14  26  44  64  86 113 145 177 209 250
#     4   8  14  26  44  62  79 106 143 176 206 246
#     4  10  18  28  44  65  87 112 143 178 213 248
#
# _framework density 15.183056000000001
#
# number of rings (size 3 to 8) (size 9 to 14) (size 15 to 20)
#    0.000    3.000    1.250    2.250    0.000    3.000 
#    0.000    1.875    0.000    2.250    0.000    0.875 
#    0.000    3.000    0.000    0.000    0.000    0.000 
#
# Total GULP energy -396640.397399 kJ/mol
# GULP energy per Si atom -12395.012419 kJ/mol
# Density = 1.514850 g / cm^3
# Si number density = 15.183056 Si / 1000 Ang^3
#
#
#
# Elastic Constant Matrix: (Units=GPa)
#
#
# Indices 1 2 3 4 5 6 
#
# 1 85.0825 30.4120 53.3012 0.0000 0.0000 0.0000
# 2 30.4120 38.3711 42.7715 0.0000 0.0000 0.0000
# 3 53.3012 42.7715 123.5630 0.0000 0.0000 0.0000
# 4 0.0000 0.0000 0.0000 20.0533 0.0000 0.0000
# 5 0.0000 0.0000 0.0000 0.0000 9.8651 0.0000
# 6 0.0000 0.0000 0.0000 0.0000 0.0000 19.8620
#
#
#
# Elastic Compliance Matrix: (Units=1/GPa)
#
#
# Indices 1 2 3 4 5 6 
#
# 1 0.017851 -0.009061 -0.004564 0.000000 0.000000 0.000000
# 2 -0.009061 0.047034 -0.012372 0.000000 0.000000 0.000000
# 3 -0.004564 -0.012372 0.014344 0.000000 0.000000 0.000000
# 4 0.000000 0.000000 0.000000 0.049867 0.000000 0.000000
# 5 0.000000 0.000000 0.000000 0.000000 0.101367 0.000000
# 6 0.000000 0.000000 0.000000 0.000000 0.000000 0.050347
#
#
# Mechanical properties :
#
#
# Convention : Reuss Voigt Hill
#
# Bulk Modulus (GPa) = 36.71730 55.55400 46.13565
# Shear Modulus (GPa) = 14.62483 17.99154 16.30818
#
# Velocity S-wave (km/s) = 3.10697 3.44608 3.28091
# Velocity P-wave (km/s) = 6.09152 7.24589 6.69363
#
# Compressibility (1/GPa) = 0.02723512
#
# Stress axis : x y z
#
# Youngs Moduli (GPa) = 56.01835 21.26123 69.71345
#
# Poissons Ratio (x) = 0.19265 0.31817
# Poissons Ratio (y) = 0.50759 0.86251
# Poissons Ratio (z) = 0.25567 0.26305
#
# Static dielectric constant tensor:
#      x y z
#    x 3.035590 0.000000 0.000000 
#    y 0.000000 2.736220 0.000000 
#    z 0.000000 0.000000 3.043530 
# 
# 
# High freq. dielectric constant tensor:
#      x y z
#    x 1.566390 0.000000 0.000000 
#    y 0.000000 1.559610 0.000000 
#    z 0.000000 0.000000 1.572130 
# 
# From -- ./inp_files/5665.got.cif
#   From: 2010.03.12/outbox.cif.g09.slc.cpg/sg25_3_cif.got.tgz:5665.got - 2010.04.14 03:30:10.
