data_PCOD8166932
_publ_section_title
;
Structure prediction by ZEFSAII (Michael W. Deem and Ramdas Pophale) SiO2 
 PCOD8166932
Probable space group: P M M 2
;
_chemical_formula_sum "Si O2"
_cell_formula_units_Z 28
_cell_length_a 8.741008
_cell_length_b 9.287239
_cell_length_c 18.244968
_cell_angle_alpha 90.000000
_cell_angle_beta 90.000000
_cell_angle_gamma 90.000000
_cell_volume 1481.123408
_symmetry_space_group_name_H-M "P M M 2"
_symmetry_group_IT_number 25
_symmetry_cell_setting 'orthorhombic'
loop_
_space_group_symop_operation_xyz
x,y,z
-x,-y,z
-x,y,z
x,-y,z
loop_
_atom_site_type_symbol
_atom_site_label
_atom_site_fract_x
_atom_site_fract_y
_atom_site_fract_z
Si Si1 0.683060 0.338400 0.092120
Si Si2 0.678502 0.332755 0.513329
Si Si3 0.667382 0.329337 0.935810
Si Si4 0.820389 0.835302 0.646678
Si Si5 0.822268 0.832403 0.382177
Si Si6 0.674652 0.832092 0.231009
Si Si7 0.682594 0.337531 0.777616
O O1 0.500000 0.331681 0.087869
O O2 0.739738 0.500000 0.107622
O O3 0.744860 0.241902 0.158665
O O4 0.749170 0.281837 0.012628
O O5 0.500000 0.311301 0.528913
O O6 0.723312 0.500000 0.511609
O O7 0.772520 0.256282 0.576819
O O8 0.721085 0.262450 0.436213
O O9 0.500000 0.256639 0.933575
O O10 0.648210 0.500000 0.939839
O O11 0.750176 0.291655 0.858319
O O12 0.742496 0.775315 0.719326
O O13 0.000000 0.823306 0.656716
O O14 0.768295 0.000000 0.635048
O O15 0.777051 0.786618 0.300117
O O16 0.000000 0.799985 0.395391
O O17 0.784473 0.000000 0.395892
O O18 0.500000 0.782686 0.245632
O O19 0.683742 0.000000 0.216499
O O20 0.500000 0.333390 0.779875
O O21 0.736480 0.500000 0.757187
#
# Coordination Sequence:
#
# PCOD8166932 Si02
#       7
#     4   4   4   4   4   4   4
#     4   8  13  23  42  68  97 129 165 206 252 299
#     4  11  24  40  59  83 106 128 161 206 253 301
#     4   7  11  22  42  69  99 128 160 204 256 302
#     4  11  24  39  54  75 105 139 172 205 246 299
#     4  10  21  37  56  77 103 137 174 208 247 299
#     4   9  17  29  46  70 100 132 167 209 254 297
#     4   9  17  31  53  79 104 132 171 216 258 302
#
# _framework density 18.90457
#
# number of rings (size 3 to 8) (size 9 to 14) (size 15 to 20)
#    0.000    2.714    0.000    3.857    0.000    7.429 
#    0.000    2.143    0.000    3.429    0.000    4.000 
#    0.000    0.000    0.000    0.000    0.000    0.000 
#
# Total GULP energy -346994.036682 kJ/mol
# GULP energy per Si atom -12392.644167 kJ/mol
# Density = 1.886154 g / cm^3
# Si number density = 18.904570 Si / 1000 Ang^3
#
#
#
# Elastic Constant Matrix: (Units=GPa)
#
#
# Indices 1 2 3 4 5 6 
#
# 1 25.2028 19.5142 12.9443 0.0000 0.0000 0.0000
# 2 19.5142 71.8314 54.4219 0.0000 0.0000 0.0000
# 3 12.9443 54.4219 145.5850 0.0000 0.0000 0.0000
# 4 0.0000 0.0000 0.0000 -26.2159 0.0000 0.0000
# 5 0.0000 0.0000 0.0000 0.0000 -3.9959 0.0000
# 6 0.0000 0.0000 0.0000 0.0000 0.0000 18.2221
#
#
#
# Elastic Compliance Matrix: (Units=1/GPa)
#
#
# Indices 1 2 3 4 5 6 
#
# 1 0.050330 -0.014345 0.000888 0.000000 0.000000 0.000000
# 2 -0.014345 0.023511 -0.007513 0.000000 0.000000 0.000000
# 3 0.000888 -0.007513 0.009598 0.000000 0.000000 0.000000
# 4 0.000000 0.000000 0.000000 -0.038145 0.000000 0.000000
# 5 0.000000 0.000000 0.000000 0.000000 -0.250259 0.000000
# 6 0.000000 0.000000 0.000000 0.000000 0.000000 0.054878
#
#
# Mechanical properties :
#
#
# Convention : Reuss Voigt Hill
#
# Bulk Modulus (GPa) = 24.09808 46.26443 35.18126
# Shear Modulus (GPa) = -53.01532 7.98467 -22.51533
#
# Velocity S-wave (km/s) = -5.30137 2.05739 -3.45483
# Velocity P-wave (km/s) = 4.96969 5.49268 1.65404
#
# Compressibility (1/GPa) = 0.04149707
#
# Stress axis : x y z
#
# Youngs Moduli (GPa) = 19.86899 42.53341 104.18295
#
# Poissons Ratio (x) = 0.61016 -0.09247
# Poissons Ratio (y) = 0.28503 0.78276
# Poissons Ratio (z) = -0.01764 0.31957
#
# Static dielectric constant tensor:
#      x y z
#    x 3.129420 0.000000 0.000000 
#    y 0.000000 3.387990 0.000000 
#    z 0.000000 0.000000 3.944210 
# 
# 
# High freq. dielectric constant tensor:
#      x y z
#    x 1.696940 0.000000 0.000000 
#    y 0.000000 1.714870 0.000000 
#    z 0.000000 0.000000 1.761310 
# 
# From -- ./inp_files/6415.got.cif
#   From: 2010.03.12/outbox.cif.g09.slc.cpg/sg25_4_cif.got.tgz:6415.got - 2010.04.14 03:30:10.
