data_PCOD8166241
_publ_section_title
;
Structure prediction by ZEFSAII (Michael W. Deem and Ramdas Pophale) SiO2 
 PCOD8166241
Probable space group: I 21 21 21
;
_chemical_formula_sum "Si O2"
_cell_formula_units_Z 24
_cell_length_a 5.029834
_cell_length_b 4.932163
_cell_length_c 41.169157
_cell_angle_alpha 90.000000
_cell_angle_beta 90.000000
_cell_angle_gamma 90.000000
_cell_volume 1021.322847
_symmetry_space_group_name_H-M "I 21 21 21"
_symmetry_group_IT_number 24
_symmetry_cell_setting 'orthorhombic'
loop_
_space_group_symop_operation_xyz
x,y,z
-x,1/2-y,z
x,-y,1/2-z
1/2-x,y,-z
1/2+x,1/2+y,1/2+z
1/2-x,-y,1/2+z
1/2+x,1/2-y,-z
-x,1/2+y,1/2-z
loop_
_atom_site_type_symbol
_atom_site_label
_atom_site_fract_x
_atom_site_fract_y
_atom_site_fract_z
Si Si1 0.000000 0.750000 0.315174
Si Si2 0.500000 0.750000 0.098088
Si Si3 0.500000 0.250000 0.640813
Si Si4 0.750000 0.942055 0.000000
Si Si5 0.000000 0.750000 0.554553
Si Si6 0.000000 0.750000 0.727940
O O1 0.907531 0.499795 0.337169
O O2 0.249944 0.659071 0.293614
O O3 0.749431 0.845283 0.119470
O O4 0.603395 0.498118 0.076527
O O5 0.500000 0.750000 0.996150
O O6 0.765009 0.136646 0.968497
O O7 0.908844 0.500000 0.750000
#
# Coordination Sequence:
#
# PCOD8166241 Si02
#       6
#     4   4   4   4   4   4
#     4  12  24  45  71  96 148 182 230 286 342 416
#     4  12  28  45  73 100 140 179 247 296 346 424
#     4  12  26  47  69 102 134 194 236 282 354 408
#     4  12  28  50  76 108 146 190 238 294 402 454
#     4  12  28  49  73 106 142 183 235 308 364 446
#     4  12  24  42  70 108 140 180 230 282 346 408
#
# _framework density 23.498933999999998
#
# number of rings (size 3 to 8) (size 9 to 14) (size 15 to 20)
#    0.000    0.000    1.667    8.000    2.333    2.667 
#    0.000    0.000    0.000    0.000    0.000    0.000 
#    0.000    0.000    0.000    0.000    0.000    0.000 
#
# Total GULP energy -148904.794289 kJ/mol
# GULP energy per Si atom -12408.732857 kJ/mol
# Density = 2.344545 g / cm^3
# Si number density = 23.498934 Si / 1000 Ang^3
#
#
#
# Elastic Constant Matrix: (Units=GPa)
#
#
# Indices 1 2 3 4 5 6 
#
# 1 144.3772 21.9933 46.3917 0.0000 0.0000 0.0000
# 2 21.9933 157.9482 55.3738 0.0000 0.0000 0.0000
# 3 46.3917 55.3738 124.5924 0.0000 0.0000 0.0000
# 4 0.0000 0.0000 0.0000 38.1495 0.0000 0.0000
# 5 0.0000 0.0000 0.0000 0.0000 18.9403 0.0000
# 6 0.0000 0.0000 0.0000 0.0000 0.0000 32.6324
#
#
#
# Elastic Compliance Matrix: (Units=1/GPa)
#
#
# Indices 1 2 3 4 5 6 
#
# 1 0.007868 -0.000081 -0.002894 0.000000 0.000000 0.000000
# 2 -0.000081 0.007501 -0.003303 0.000000 0.000000 0.000000
# 3 -0.002894 -0.003303 0.010572 0.000000 0.000000 0.000000
# 4 0.000000 0.000000 0.000000 0.026213 0.000000 0.000000
# 5 0.000000 0.000000 0.000000 0.000000 0.052798 0.000000
# 6 0.000000 0.000000 0.000000 0.000000 0.000000 0.030644
#
#
# Mechanical properties :
#
#
# Convention : Reuss Voigt Hill
#
# Bulk Modulus (GPa) = 74.71390 74.93727 74.82559
# Shear Modulus (GPa) = 32.76252 38.15503 35.45877
#
# Velocity S-wave (km/s) = 3.73797 4.03388 3.88874
# Velocity P-wave (km/s) = 7.10588 7.32496 7.21625
#
# Compressibility (1/GPa) = 0.01338439
#
# Stress axis : x y z
#
# Youngs Moduli (GPa) = 127.08915 133.32298 94.59132
#
# Poissons Ratio (x) = 0.01082 0.27372
# Poissons Ratio (y) = 0.01031 0.31247
# Poissons Ratio (z) = 0.36776 0.44041
#
# Static dielectric constant tensor:
#      x y z
#    x 4.192470 0.000000 0.000000 
#    y 0.000000 4.424820 0.000000 
#    z 0.000000 0.000000 4.546470 
# 
# 
# High freq. dielectric constant tensor:
#      x y z
#    x 1.924710 0.000000 0.000000 
#    y 0.000000 1.947780 0.000000 
#    z 0.000000 0.000000 1.947440 
# 
# From -- ./inp_files/37684.got.cif
#   From: 2010.03.12/outbox.cif.g09.slc.cpg/sg24_19_cif.got.tgz:37684.got - 2010.04.14 03:06:53.
