data_PCOD8166555
_publ_section_title
;
Structure prediction by ZEFSAII (Michael W. Deem and Ramdas Pophale) SiO2 
 PCOD8166555
Probable space group: P M M 2
;
_chemical_formula_sum "Si O2"
_cell_formula_units_Z 28
_cell_length_a 19.523094
_cell_length_b 8.928685
_cell_length_c 7.965061
_cell_angle_alpha 90.000000
_cell_angle_beta 90.000000
_cell_angle_gamma 90.000000
_cell_volume 1388.434041
_symmetry_space_group_name_H-M "P M M 2"
_symmetry_group_IT_number 25
_symmetry_cell_setting 'orthorhombic'
loop_
_space_group_symop_operation_xyz
x,y,z
-x,-y,z
-x,y,z
x,-y,z
loop_
_atom_site_type_symbol
_atom_site_label
_atom_site_fract_x
_atom_site_fract_y
_atom_site_fract_z
Si Si1 0.787645 0.170800 0.332590
Si Si2 0.344918 0.825350 0.826312
Si Si3 0.579453 0.326903 0.516761
Si Si4 0.352984 0.177779 0.202542
Si Si5 0.924115 0.671388 0.846851
Si Si6 0.199725 0.831287 0.710615
Si Si7 0.074037 0.177189 0.195402
O O1 0.724037 0.242310 0.231962
O O2 0.768570 0.184650 0.526343
O O3 0.861521 0.248430 0.295844
O O4 0.795153 0.000000 0.273389
O O5 0.381118 0.734674 0.679001
O O6 0.263069 0.791122 0.832646
O O7 0.356953 0.000000 0.788698
O O8 0.374748 0.781408 0.010827
O O9 0.500000 0.300345 0.552264
O O10 0.598371 0.500000 0.497961
O O11 0.596775 0.248846 0.339562
O O12 0.354084 0.000000 0.230255
O O13 0.913736 0.500000 0.902424
O O14 0.864258 0.718592 0.719971
O O15 0.000000 0.692834 0.765562
O O16 0.915577 0.780418 0.003185
O O17 0.173066 0.000000 0.743475
O O18 0.000000 0.241271 0.259632
O O19 0.072477 0.000000 0.214180
#
# Coordination Sequence:
#
# PCOD8166555 Si02
#       7
#     4   4   4   4   4   4   4
#     4   9  17  32  56  84 112 142 184 239 290 339
#     4  10  21  39  66  95 121 154 198 249 301 351
#     4  11  25  43  62  88 125 163 197 238 289 352
#     4  10  20  38  64  91 120 155 198 247 296 347
#     4  10  21  35  49  71 108 151 193 238 288 343
#     4  10  19  34  58  84 111 145 188 240 293 346
#     4   9  17  31  52  77 105 141 188 239 289 342
#
# _framework density 20.166604
#
# number of rings (size 3 to 8) (size 9 to 14) (size 15 to 20)
#    0.000    2.143    1.429    1.714    0.000    6.571 
#    0.000    7.143    0.000    1.714    0.000    0.000 
#    0.000    0.000    0.000    0.000    0.000    0.000 
#
# Total GULP energy -347007.711034 kJ/mol
# GULP energy per Si atom -12393.132537 kJ/mol
# Density = 2.012070 g / cm^3
# Si number density = 20.166604 Si / 1000 Ang^3
#
#
#
# Elastic Constant Matrix: (Units=GPa)
#
#
# Indices 1 2 3 4 5 6 
#
# 1 93.7340 38.7620 41.7633 0.0000 0.0000 0.0000
# 2 38.7620 50.1284 33.0842 0.0000 0.0000 0.0000
# 3 41.7633 33.0842 100.8234 0.0000 0.0000 0.0000
# 4 0.0000 0.0000 0.0000 12.8597 0.0000 0.0000
# 5 0.0000 0.0000 0.0000 0.0000 30.2202 0.0000
# 6 0.0000 0.0000 0.0000 0.0000 0.0000 26.2985
#
#
#
# Elastic Compliance Matrix: (Units=1/GPa)
#
#
# Indices 1 2 3 4 5 6 
#
# 1 0.016544 -0.010556 -0.003389 0.000000 0.000000 0.000000
# 2 -0.010556 0.032199 -0.006193 0.000000 0.000000 0.000000
# 3 -0.003389 -0.006193 0.013354 0.000000 0.000000 0.000000
# 4 0.000000 0.000000 0.000000 0.077763 0.000000 0.000000
# 5 0.000000 0.000000 0.000000 0.000000 0.033090 0.000000
# 6 0.000000 0.000000 0.000000 0.000000 0.000000 0.038025
#
#
# Mechanical properties :
#
#
# Convention : Reuss Voigt Hill
#
# Bulk Modulus (GPa) = 45.82815 52.43389 49.13102
# Shear Modulus (GPa) = 19.34057 22.61407 20.97732
#
# Velocity S-wave (km/s) = 3.10020 3.35231 3.22871
# Velocity P-wave (km/s) = 5.96566 6.40631 6.18990
#
# Compressibility (1/GPa) = 0.02182065
#
# Stress axis : x y z
#
# Youngs Moduli (GPa) = 60.44642 31.05734 74.88192
#
# Poissons Ratio (x) = 0.32783 0.25377
# Poissons Ratio (y) = 0.63806 0.46376
# Poissons Ratio (z) = 0.20485 0.19234
#
# Static dielectric constant tensor:
#      x y z
#    x 3.928030 0.000000 0.000000 
#    y 0.000000 3.383150 0.000000 
#    z 0.000000 0.000000 3.571110 
# 
# 
# High freq. dielectric constant tensor:
#      x y z
#    x 1.798890 0.000000 0.000000 
#    y 0.000000 1.753900 0.000000 
#    z 0.000000 0.000000 1.783670 
# 
# From -- ./inp_files/3555.got.cif
#   From: 2010.03.12/outbox.cif.g09.slc.cpg/sg25_2_cif.got.tgz:3555.got - 2010.04.14 03:30:10.
