data_PCOD8166406
_publ_section_title
;
Structure prediction by ZEFSAII (Michael W. Deem and Ramdas Pophale) SiO2 
 PCOD8166406
Probable space group: P M M 2
;
_chemical_formula_sum "Si O2"
_cell_formula_units_Z 32
_cell_length_a 9.056522
_cell_length_b 18.462373
_cell_length_c 10.369160
_cell_angle_alpha 90.000000
_cell_angle_beta 90.000000
_cell_angle_gamma 90.000000
_cell_volume 1733.774229
_symmetry_space_group_name_H-M "P M M 2"
_symmetry_group_IT_number 25
_symmetry_cell_setting 'orthorhombic'
loop_
_space_group_symop_operation_xyz
x,y,z
-x,-y,z
-x,y,z
x,-y,z
loop_
_atom_site_type_symbol
_atom_site_label
_atom_site_fract_x
_atom_site_fract_y
_atom_site_fract_z
Si Si1 0.172183 0.669448 0.784920
Si Si2 0.174152 0.163702 0.771574
Si Si3 0.675501 0.666176 0.253999
Si Si4 0.176041 0.180372 0.259453
Si Si5 0.662741 0.661725 0.536823
Si Si6 0.334061 0.833541 0.517520
Si Si7 0.175202 0.918857 0.023567
Si Si8 0.829354 0.584404 0.033112
O O1 0.217157 0.753123 0.799665
O O2 0.235266 0.634520 0.653275
O O3 0.000000 0.658405 0.775141
O O4 0.233229 0.626667 0.908541
O O5 0.254858 0.133600 0.643827
O O6 0.000000 0.155566 0.750133
O O7 0.233424 0.117355 0.891869
O O8 0.500000 0.679151 0.244763
O O9 0.757830 0.741382 0.226272
O O10 0.718160 0.635261 0.396200
O O11 0.729736 0.606308 0.154032
O O12 0.240271 0.146146 0.390875
O O13 0.228256 0.127293 0.145680
O O14 0.000000 0.186839 0.270474
O O15 0.500000 0.631328 0.565084
O O16 0.661816 0.747924 0.530780
O O17 0.500000 0.865018 0.505853
O O18 0.000000 0.920241 0.019887
O O19 0.239707 0.000000 0.034351
O O20 0.810199 0.500000 0.006684
O O21 0.000000 0.604880 0.060257
#
# Coordination Sequence:
#
# PCOD8166406 Si02
#       8
#     4   4   4   4   4   4   4   4
#     4   9  17  30  50  75  99 125 161 205 250 294
#     4   9  16  29  51  75  97 126 165 206 250 300
#     4  10  20  34  53  77 104 133 167 207 252 302
#     4  10  18  31  54  79 101 129 168 211 255 302
#     4   8  16  30  48  72  98 124 158 202 248 293
#     4   9  17  30  48  73 103 129 160 206 254 299
#     4   9  18  32  50  74 103 133 169 214 257 298
#     4  10  21  36  52  73 103 136 170 208 248 293
#
# _framework density 18.456842999999999
#
# number of rings (size 3 to 8) (size 9 to 14) (size 15 to 20)
#    0.000    2.750    0.000    2.625    0.000    6.250 
#    0.000    5.000    0.000    9.375    0.000    0.000 
#    0.000    0.000    0.000    0.000    0.000    0.000 
#
# Total GULP energy -396737.326542 kJ/mol
# GULP energy per Si atom -12398.041454 kJ/mol
# Density = 1.841483 g / cm^3
# Si number density = 18.456843 Si / 1000 Ang^3
#
#
#
# Elastic Constant Matrix: (Units=GPa)
#
#
# Indices 1 2 3 4 5 6 
#
# 1 62.8786 25.2958 48.8727 0.0000 0.0000 0.0000
# 2 25.2958 56.0106 44.9123 0.0000 0.0000 0.0000
# 3 48.8727 44.9123 160.5517 0.0000 0.0000 0.0000
# 4 0.0000 0.0000 0.0000 6.7468 0.0000 0.0000
# 5 0.0000 0.0000 0.0000 0.0000 20.7514 0.0000
# 6 0.0000 0.0000 0.0000 0.0000 0.0000 10.7065
#
#
#
# Elastic Compliance Matrix: (Units=1/GPa)
#
#
# Indices 1 2 3 4 5 6 
#
# 1 0.022276 -0.005960 -0.005114 0.000000 0.000000 0.000000
# 2 -0.005960 0.024611 -0.005070 0.000000 0.000000 0.000000
# 3 -0.005114 -0.005070 0.009204 0.000000 0.000000 0.000000
# 4 0.000000 0.000000 0.000000 0.148217 0.000000 0.000000
# 5 0.000000 0.000000 0.000000 0.000000 0.048189 0.000000
# 6 0.000000 0.000000 0.000000 0.000000 0.000000 0.093401
#
#
# Mechanical properties :
#
#
# Convention : Reuss Voigt Hill
#
# Bulk Modulus (GPa) = 42.01233 57.51140 49.76186
# Shear Modulus (GPa) = 12.94931 18.33162 15.64047
#
# Velocity S-wave (km/s) = 2.65165 3.15495 2.91418
# Velocity P-wave (km/s) = 5.67335 6.67077 6.19217
#
# Compressibility (1/GPa) = 0.02380254
#
# Stress axis : x y z
#
# Youngs Moduli (GPa) = 44.89145 40.63197 108.65378
#
# Poissons Ratio (x) = 0.24216 0.55562
# Poissons Ratio (y) = 0.26755 0.55092
# Poissons Ratio (z) = 0.22956 0.20602
#
# Static dielectric constant tensor:
#      x y z
#    x 3.357400 0.000000 0.000000 
#    y 0.000000 3.132770 0.000000 
#    z 0.000000 0.000000 3.786560 
# 
# 
# High freq. dielectric constant tensor:
#      x y z
#    x 1.703110 0.000000 0.000000 
#    y 0.000000 1.679130 0.000000 
#    z 0.000000 0.000000 1.735450 
# 
# From -- ./inp_files/4468.got.cif
#   From: 2010.03.12/outbox.cif.g09.slc.cpg/sg25_3_cif.got.tgz:4468.got - 2010.04.14 03:30:10.
