data_PCOD8166466
_publ_section_title
;
Structure prediction by ZEFSAII (Michael W. Deem and Ramdas Pophale) SiO2 
 PCOD8166466
Probable space group: P M M 2
;
_chemical_formula_sum "Si O2"
_cell_formula_units_Z 32
_cell_length_a 9.072436
_cell_length_b 14.094441
_cell_length_c 15.536879
_cell_angle_alpha 90.000000
_cell_angle_beta 90.000000
_cell_angle_gamma 90.000000
_cell_volume 1986.714917
_symmetry_space_group_name_H-M "P M M 2"
_symmetry_group_IT_number 25
_symmetry_cell_setting 'orthorhombic'
loop_
_space_group_symop_operation_xyz
x,y,z
-x,-y,z
-x,y,z
x,-y,z
loop_
_atom_site_type_symbol
_atom_site_label
_atom_site_fract_x
_atom_site_fract_y
_atom_site_fract_z
Si Si1 0.174632 0.717222 0.703520
Si Si2 0.671553 0.892288 0.644403
Si Si3 0.827786 0.390844 0.874124
Si Si4 0.666413 0.387154 0.042689
Si Si5 0.171954 0.390852 0.211579
Si Si6 0.671432 0.611051 0.547499
Si Si7 0.832225 0.105326 0.468486
Si Si8 0.170754 0.298925 0.388234
O O1 0.237512 0.824034 0.707808
O O2 0.225257 0.665995 0.790591
O O3 0.241417 0.663730 0.622238
O O4 0.000000 0.718384 0.693536
O O5 0.500000 0.867524 0.649682
O O6 0.723159 0.874433 0.546969
O O7 0.703757 0.000000 0.672956
O O8 0.784524 0.500000 0.858579
O O9 0.000000 0.379099 0.890729
O O10 0.746032 0.347804 0.957326
O O11 0.500000 0.350050 0.042264
O O12 0.676913 0.500000 0.042272
O O13 0.744736 0.348686 0.128606
O O14 0.215477 0.500000 0.229395
O O15 0.221940 0.328950 0.293249
O O16 0.000000 0.381001 0.192727
O O17 0.500000 0.637383 0.553927
O O18 0.698871 0.500000 0.558144
O O19 0.731927 0.643628 0.455670
O O20 0.803811 0.185398 0.396491
O O21 0.000000 0.112658 0.503201
O O22 0.803064 0.000000 0.429344
O O23 0.000000 0.326227 0.403178
#
# Coordination Sequence:
#
# PCOD8166466 Si02
#       8
#     4   4   4   4   4   4   4   4
#     4  11  21  33  50  71  94 125 162 198 236 282
#     4  10  20  33  49  69  94 124 158 198 243 286
#     4   9  18  32  49  69  94 124 157 193 234 280
#     4   9  17  29  46  68  92 119 152 192 238 282
#     4   9  17  29  45  65  91 123 158 194 233 281
#     4  11  23  34  44  63  95 132 164 195 233 278
#     4   9  17  30  48  69  92 120 157 200 242 281
#     4  10  19  31  48  69  92 125 163 198 236 280
#
# _framework density 16.10699
#
# number of rings (size 3 to 8) (size 9 to 14) (size 15 to 20)
#    0.000    2.250    1.250    2.250    0.000    5.750 
#    0.000    2.500    0.000    0.000    0.000    0.875 
#    0.000    5.000    0.000    0.000    0.000    0.000 
#
# Total GULP energy -396819.342352 kJ/mol
# GULP energy per Si atom -12400.604448 kJ/mol
# Density = 1.607033 g / cm^3
# Si number density = 16.106990 Si / 1000 Ang^3
#
#
#
# Elastic Constant Matrix: (Units=GPa)
#
#
# Indices 1 2 3 4 5 6 
#
# 1 75.7274 40.4385 56.2440 0.0000 0.0000 0.0000
# 2 40.4385 82.6317 53.5816 0.0000 0.0000 0.0000
# 3 56.2440 53.5816 128.5353 0.0000 0.0000 0.0000
# 4 0.0000 0.0000 0.0000 11.0243 0.0000 0.0000
# 5 0.0000 0.0000 0.0000 0.0000 7.1971 0.0000
# 6 0.0000 0.0000 0.0000 0.0000 0.0000 21.5447
#
#
#
# Elastic Compliance Matrix: (Units=1/GPa)
#
#
# Indices 1 2 3 4 5 6 
#
# 1 0.021585 -0.006083 -0.006909 0.000000 0.000000 0.000000
# 2 -0.006083 0.018299 -0.004966 0.000000 0.000000 0.000000
# 3 -0.006909 -0.004966 0.012874 0.000000 0.000000 0.000000
# 4 0.000000 0.000000 0.000000 0.090709 0.000000 0.000000
# 5 0.000000 0.000000 0.000000 0.000000 0.138945 0.000000
# 6 0.000000 0.000000 0.000000 0.000000 0.000000 0.046415
#
#
# Mechanical properties :
#
#
# Convention : Reuss Voigt Hill
#
# Bulk Modulus (GPa) = 59.38124 65.26917 62.32520
# Shear Modulus (GPa) = 13.50042 17.06192 15.28117
#
# Velocity S-wave (km/s) = 2.89826 3.25820 3.08349
# Velocity P-wave (km/s) = 6.93878 7.40032 7.17326
#
# Compressibility (1/GPa) = 0.01684034
#
# Stress axis : x y z
#
# Youngs Moduli (GPa) = 46.32755 54.64678 77.67780
#
# Poissons Ratio (x) = 0.33243 0.53671
# Poissons Ratio (y) = 0.28182 0.38578
# Poissons Ratio (z) = 0.32010 0.27140
#
# Static dielectric constant tensor:
#      x y z
#    x 3.129310 0.000000 0.000000 
#    y 0.000000 3.126720 0.000000 
#    z 0.000000 0.000000 3.031880 
# 
# 
# High freq. dielectric constant tensor:
#      x y z
#    x 1.627700 0.000000 0.000000 
#    y 0.000000 1.602370 0.000000 
#    z 0.000000 0.000000 1.604970 
# 
# From -- ./inp_files/5677.got.cif
#   From: 2010.03.12/outbox.cif.g09.slc.cpg/sg25_3_cif.got.tgz:5677.got - 2010.04.14 03:30:10.
