data_PCOD8166413
_publ_section_title
;
Structure prediction by ZEFSAII (Michael W. Deem and Ramdas Pophale) SiO2 
 PCOD8166413
Probable space group: P M M 2
;
_chemical_formula_sum "Si O2"
_cell_formula_units_Z 28
_cell_length_a 8.966091
_cell_length_b 17.881612
_cell_length_c 9.590245
_cell_angle_alpha 90.000000
_cell_angle_beta 90.000000
_cell_angle_gamma 90.000000
_cell_volume 1537.586339
_symmetry_space_group_name_H-M "P M M 2"
_symmetry_group_IT_number 25
_symmetry_cell_setting 'orthorhombic'
loop_
_space_group_symop_operation_xyz
x,y,z
-x,-y,z
-x,y,z
x,-y,z
loop_
_atom_site_type_symbol
_atom_site_label
_atom_site_fract_x
_atom_site_fract_y
_atom_site_fract_z
Si Si1 0.676721 0.695641 0.203060
Si Si2 0.337412 0.085145 0.844752
Si Si3 0.834229 0.305819 0.763961
Si Si4 0.826765 0.083729 0.556554
Si Si5 0.166709 0.807673 0.010382
Si Si6 0.177228 0.586488 0.994307
Si Si7 0.823194 0.754296 0.472714
O O1 0.500000 0.687588 0.204565
O O2 0.726370 0.769218 0.121204
O O3 0.746996 0.622266 0.130756
O O4 0.737639 0.705341 0.358789
O O5 0.500000 0.125399 0.843228
O O6 0.262716 0.097280 0.696436
O O7 0.361074 0.000000 0.878462
O O8 0.235823 0.112731 0.972910
O O9 0.758973 0.280050 0.618906
O O10 0.000000 0.331794 0.725447
O O11 0.835179 0.235067 0.864398
O O12 0.759695 0.374633 0.851542
O O13 0.787753 0.155694 0.458714
O O14 0.000000 0.086903 0.596085
O O15 0.788872 0.000000 0.492652
O O16 0.000000 0.815117 0.073248
O O17 0.219212 0.500000 0.989014
O O18 0.000000 0.601056 0.006527
O O19 0.000000 0.742171 0.458119
#
# Coordination Sequence:
#
# PCOD8166413 Si02
#       7
#     4   4   4   4   4   4   4
#     4  11  23  36  52  78 110 145 179 218 274 331
#     4  10  19  29  45  74 109 140 173 220 278 329
#     4   8  15  29  53  81 103 127 169 220 264 303
#     4   9  17  30  50  75 103 141 188 231 269 312
#     4  10  18  34  55  75  98 134 182 227 265 313
#     4   9  18  36  61  85 108 138 177 220 266 322
#     4  10  18  33  53  77 109 145 184 227 267 315
#
# _framework density 18.210357999999999
#
# number of rings (size 3 to 8) (size 9 to 14) (size 15 to 20)
#    0.000    2.429    1.429    3.000    0.000    1.714 
#    0.000    2.143    0.000    5.143    0.000    0.000 
#    0.000    0.000    0.000    0.000    0.000    0.000 
#
# Total GULP energy -346889.870838 kJ/mol
# GULP energy per Si atom -12388.923959 kJ/mol
# Density = 1.816891 g / cm^3
# Si number density = 18.210358 Si / 1000 Ang^3
#
#
#
# Elastic Constant Matrix: (Units=GPa)
#
#
# Indices 1 2 3 4 5 6 
#
# 1 67.8722 35.0268 30.5315 0.0000 0.0000 0.0000
# 2 35.0268 95.4707 48.2875 0.0000 0.0000 0.0000
# 3 30.5315 48.2875 100.1420 0.0000 0.0000 0.0000
# 4 0.0000 0.0000 0.0000 21.9450 0.0000 0.0000
# 5 0.0000 0.0000 0.0000 0.0000 16.2690 0.0000
# 6 0.0000 0.0000 0.0000 0.0000 0.0000 18.6377
#
#
#
# Elastic Compliance Matrix: (Units=1/GPa)
#
#
# Indices 1 2 3 4 5 6 
#
# 1 0.018921 -0.005322 -0.003202 0.000000 0.000000 0.000000
# 2 -0.005322 0.015350 -0.005779 0.000000 0.000000 0.000000
# 3 -0.003202 -0.005779 0.013749 0.000000 0.000000 0.000000
# 4 0.000000 0.000000 0.000000 0.045568 0.000000 0.000000
# 5 0.000000 0.000000 0.000000 0.000000 0.061467 0.000000
# 6 0.000000 0.000000 0.000000 0.000000 0.000000 0.053655
#
#
# Mechanical properties :
#
#
# Convention : Reuss Voigt Hill
#
# Bulk Modulus (GPa) = 51.51298 54.57518 53.04408
# Shear Modulus (GPa) = 20.50974 21.34628 20.92801
#
# Velocity S-wave (km/s) = 3.35963 3.42746 3.39372
# Velocity P-wave (km/s) = 6.58777 6.76001 6.67444
#
# Compressibility (1/GPa) = 0.01941258
#
# Stress axis : x y z
#
# Youngs Moduli (GPa) = 52.85233 65.14703 72.73400
#
# Poissons Ratio (x) = 0.34671 0.23292
# Poissons Ratio (y) = 0.28128 0.42033
# Poissons Ratio (z) = 0.16925 0.37648
#
# Static dielectric constant tensor:
#      x y z
#    x 3.329270 0.000000 0.000000 
#    y 0.000000 3.468390 0.000000 
#    z 0.000000 0.000000 3.282380 
# 
# 
# High freq. dielectric constant tensor:
#      x y z
#    x 1.691790 0.000000 0.000000 
#    y 0.000000 1.700080 0.000000 
#    z 0.000000 0.000000 1.687490 
# 
# From -- ./inp_files/2294.got.cif
#   From: 2010.03.12/outbox.cif.g09.slc.cpg/sg25_2_cif.got.tgz:2294.got - 2010.04.14 03:30:10.
