data_PCOD8166310
_publ_section_title
;
Structure prediction by ZEFSAII (Michael W. Deem and Ramdas Pophale) SiO2 
 PCOD8166310
Probable space group: P M M 2
;
_chemical_formula_sum "Si O2"
_cell_formula_units_Z 32
_cell_length_a 9.134205
_cell_length_b 14.542883
_cell_length_c 15.630314
_cell_angle_alpha 90.000000
_cell_angle_beta 90.000000
_cell_angle_gamma 90.000000
_cell_volume 2076.294565
_symmetry_space_group_name_H-M "P M M 2"
_symmetry_group_IT_number 25
_symmetry_cell_setting 'orthorhombic'
loop_
_space_group_symop_operation_xyz
x,y,z
-x,-y,z
-x,y,z
x,-y,z
loop_
_atom_site_type_symbol
_atom_site_label
_atom_site_fract_x
_atom_site_fract_y
_atom_site_fract_z
Si Si1 0.328467 0.393290 0.030920
Si Si2 0.174449 0.602931 0.384378
Si Si3 0.173598 0.100515 0.808520
Si Si4 0.174703 0.287777 0.545745
Si Si5 0.173999 0.396734 0.710418
Si Si6 0.826361 0.709900 0.878791
Si Si7 0.837428 0.609092 0.197420
Si Si8 0.174070 0.899690 0.616174
O O1 0.500000 0.377036 0.026432
O O2 0.287059 0.500000 0.016108
O O3 0.272589 0.358515 0.123405
O O4 0.250987 0.332033 0.960486
O O5 0.236604 0.500000 0.399980
O O6 0.238223 0.669943 0.457816
O O7 0.221232 0.641963 0.290780
O O8 0.000000 0.599361 0.388416
O O9 0.225703 0.183624 0.869618
O O10 0.234352 0.115608 0.712413
O O11 0.000000 0.103178 0.803581
O O12 0.225949 0.000000 0.843443
O O13 0.234755 0.346319 0.625992
O O14 0.231706 0.182474 0.555302
O O15 0.000000 0.291275 0.544820
O O16 0.237080 0.500000 0.712538
O O17 0.228099 0.344104 0.794857
O O18 0.000000 0.397580 0.708110
O O19 0.000000 0.701008 0.890731
O O20 0.846974 0.500000 0.201367
O O21 0.000000 0.649105 0.178618
O O22 0.000000 0.896413 0.619136
O O23 0.226499 0.000000 0.581621
#
# Coordination Sequence:
#
# PCOD8166310 Si02
#       8
#     4   4   4   4   4   4   4   4
#     4  10  20  31  42  58  81 108 136 168 208 250
#     4   8  13  20  32  51  74  98 124 158 200 240
#     4   8  13  22  36  55  80 108 138 171 204 237
#     4   9  13  18  28  47  76 106 130 156 193 233
#     4   9  15  20  28  48  79 109 134 159 188 225
#     4  10  17  26  41  61  82 108 140 171 201 236
#     4   8  14  26  42  58  76 100 132 169 205 239
#     4   8  12  18  28  44  72 109 140 162 189 230
#
# _framework density 15.412072
#
# number of rings (size 3 to 8) (size 9 to 14) (size 15 to 20)
#    0.000    3.250    1.250    2.625    0.000    2.750 
#    0.000    0.000    0.000    0.375    0.000    1.750 
#    0.000    9.000    0.000    0.000    0.000    0.000 
#
# Total GULP energy -396485.954299 kJ/mol
# GULP energy per Si atom -12390.186072 kJ/mol
# Density = 1.537699 g / cm^3
# Si number density = 15.412072 Si / 1000 Ang^3
#
#
#
# Elastic Constant Matrix: (Units=GPa)
#
#
# Indices 1 2 3 4 5 6 
#
# 1 19.1486 21.6354 25.0020 0.0000 0.0000 0.0000
# 2 21.6354 127.8502 75.0534 0.0000 0.0000 0.0000
# 3 25.0020 75.0534 136.3345 0.0000 0.0000 0.0000
# 4 0.0000 0.0000 0.0000 13.4534 0.0000 0.0000
# 5 0.0000 0.0000 0.0000 0.0000 -1.0123 0.0000
# 6 0.0000 0.0000 0.0000 0.0000 0.0000 5.8572
#
#
#
# Elastic Compliance Matrix: (Units=1/GPa)
#
#
# Indices 1 2 3 4 5 6 
#
# 1 0.072215 -0.006569 -0.009627 0.000000 0.000000 0.000000
# 2 -0.006569 0.012154 -0.005486 0.000000 0.000000 0.000000
# 3 -0.009627 -0.005486 0.012121 0.000000 0.000000 0.000000
# 4 0.000000 0.000000 0.000000 0.074331 0.000000 0.000000
# 5 0.000000 0.000000 0.000000 0.000000 -0.987840 0.000000
# 6 0.000000 0.000000 0.000000 0.000000 0.000000 0.170731
#
#
# Mechanical properties :
#
#
# Convention : Reuss Voigt Hill
#
# Bulk Modulus (GPa) = 18.82346 58.52387 38.67366
# Shear Modulus (GPa) = -8.54385 14.43583 2.94599
#
# Velocity S-wave (km/s) = -2.35704 3.06381 1.38406
# Velocity P-wave (km/s) = 2.19828 7.11133 5.26324
#
# Compressibility (1/GPa) = 0.05312520
#
# Stress axis : x y z
#
# Youngs Moduli (GPa) = 13.84748 82.27807 82.50471
#
# Poissons Ratio (x) = 0.54050 0.79427
# Poissons Ratio (y) = 0.09097 0.45263
# Poissons Ratio (z) = 0.13331 0.45139
#
# Static dielectric constant tensor:
#      x y z
#    x 2.399820 0.000000 0.000000 
#    y 0.000000 3.215040 0.000000 
#    z 0.000000 0.000000 3.137440 
# 
# 
# High freq. dielectric constant tensor:
#      x y z
#    x 1.528660 0.000000 0.000000 
#    y 0.000000 1.580840 0.000000 
#    z 0.000000 0.000000 1.584650 
# 
# From -- ./inp_files/5745.got.cif
#   From: 2010.03.12/outbox.cif.g09.slc.cpg/sg25_3_cif.got.tgz:5745.got - 2010.04.14 03:30:10.
