data_PCOD8166372
_publ_section_title
;
Structure prediction by ZEFSAII (Michael W. Deem and Ramdas Pophale) SiO2 
 PCOD8166372
Probable space group: P M M 2
;
_chemical_formula_sum "Si O2"
_cell_formula_units_Z 20
_cell_length_a 12.835626
_cell_length_b 8.510074
_cell_length_c 9.978890
_cell_angle_alpha 90.000000
_cell_angle_beta 90.000000
_cell_angle_gamma 90.000000
_cell_volume 1090.015381
_symmetry_space_group_name_H-M "P M M 2"
_symmetry_group_IT_number 25
_symmetry_cell_setting 'orthorhombic'
loop_
_space_group_symop_operation_xyz
x,y,z
-x,-y,z
-x,y,z
x,-y,z
loop_
_atom_site_type_symbol
_atom_site_label
_atom_site_fract_x
_atom_site_fract_y
_atom_site_fract_z
Si Si1 0.277566 0.812653 0.535350
Si Si2 0.288766 0.183964 0.838874
Si Si3 0.500000 0.818172 0.532347
Si Si4 0.500000 0.683109 0.820215
Si Si5 0.119764 0.317101 0.031848
Si Si6 0.119086 0.816123 0.316069
O O1 0.261778 0.754858 0.688266
O O2 0.390077 0.748094 0.478301
O O3 0.187302 0.747787 0.438960
O O4 0.276149 0.000000 0.534090
O O5 0.392416 0.272141 0.897168
O O6 0.311090 0.000000 0.840531
O O7 0.190019 0.220109 0.930221
O O8 0.500000 0.794824 0.691365
O O9 0.500000 0.000000 0.498463
O O10 0.500000 0.500000 0.784010
O O11 0.137003 0.500000 0.006525
O O12 0.152529 0.275701 0.183058
O O13 0.000000 0.267166 0.007519
O O14 0.000000 0.781982 0.354472
O O15 0.139065 0.000000 0.291685
#
# Coordination Sequence:
#
# PCOD8166372 Si02
#       6
#     4   4   2   2   4   4
#     4   8  15  28  49  74  96 121 159 206 247 289
#     4  10  19  33  54  78 102 131 169 209 250 297
#     4   8  14  28  47  68  97 130 162 198 244 294
#     4  10  18  30  49  74 105 136 164 200 250 300
#     4  10  21  36  51  70 100 136 171 209 255 303
#     4   9  17  31  50  70  94 127 165 204 249 299
#
# _framework density 18.348365000000001
#
# number of rings (size 3 to 8) (size 9 to 14) (size 15 to 20)
#    0.000    2.800    0.000    3.300    0.000    2.000 
#    0.000    8.000    0.000    4.800    0.000    0.000 
#    0.000    0.000    0.000    0.000    0.000    0.000 
#
# Total GULP energy -247837.853685 kJ/mol
# GULP energy per Si atom -12391.892684 kJ/mol
# Density = 1.830660 g / cm^3
# Si number density = 18.348365 Si / 1000 Ang^3
#
#
#
# Elastic Constant Matrix: (Units=GPa)
#
#
# Indices 1 2 3 4 5 6 
#
# 1 138.0186 25.6174 76.9819 0.0000 0.0000 0.0000
# 2 25.6174 38.1296 20.2781 0.0000 0.0000 0.0000
# 3 76.9819 20.2781 86.2708 0.0000 0.0000 0.0000
# 4 0.0000 0.0000 0.0000 9.3103 0.0000 0.0000
# 5 0.0000 0.0000 0.0000 0.0000 11.2647 0.0000
# 6 0.0000 0.0000 0.0000 0.0000 0.0000 22.0585
#
#
#
# Elastic Compliance Matrix: (Units=1/GPa)
#
#
# Indices 1 2 3 4 5 6 
#
# 1 0.014787 -0.003334 -0.012411 0.000000 0.000000 0.000000
# 2 -0.003334 0.030725 -0.004247 0.000000 0.000000 0.000000
# 3 -0.012411 -0.004247 0.023664 0.000000 0.000000 0.000000
# 4 0.000000 0.000000 0.000000 0.107408 0.000000 0.000000
# 5 0.000000 0.000000 0.000000 0.000000 0.088773 0.000000
# 6 0.000000 0.000000 0.000000 0.000000 0.000000 0.045334
#
#
# Mechanical properties :
#
#
# Convention : Reuss Voigt Hill
#
# Bulk Modulus (GPa) = 34.25579 56.46377 45.35978
# Shear Modulus (GPa) = 13.87329 17.82946 15.85137
#
# Velocity S-wave (km/s) = 2.75272 3.12062 2.94243
# Velocity P-wave (km/s) = 5.36782 6.62000 6.02652
#
# Compressibility (1/GPa) = 0.02919214
#
# Stress axis : x y z
#
# Youngs Moduli (GPa) = 67.62918 32.54691 42.25803
#
# Poissons Ratio (x) = 0.10851 0.52445
# Poissons Ratio (y) = 0.22548 0.17947
# Poissons Ratio (z) = 0.83933 0.13822
#
# Static dielectric constant tensor:
#      x y z
#    x 3.872290 0.000000 0.000000 
#    y 0.000000 3.109140 0.000000 
#    z 0.000000 0.000000 3.247710 
# 
# 
# High freq. dielectric constant tensor:
#      x y z
#    x 1.729670 0.000000 0.000000 
#    y 0.000000 1.692050 0.000000 
#    z 0.000000 0.000000 1.680200 
# 
# From -- ./inp_files/3014.got.cif
#   From: 2010.03.12/outbox.cif.g09.slc.cpg/sg25_2_cif.got.tgz:3014.got - 2010.04.14 03:30:10.
