data_PCOD8166117
_publ_section_title
;
Structure prediction by ZEFSAII (Michael W. Deem and Ramdas Pophale) SiO2 
 PCOD8166117
Probable space group: I 21 21 21
;
_chemical_formula_sum "Si O2"
_cell_formula_units_Z 28
_cell_length_a 13.967292
_cell_length_b 5.255886
_cell_length_c 16.478119
_cell_angle_alpha 90.000000
_cell_angle_beta 90.000000
_cell_angle_gamma 90.000000
_cell_volume 1209.666864
_symmetry_space_group_name_H-M "I 21 21 21"
_symmetry_group_IT_number 24
_symmetry_cell_setting 'orthorhombic'
loop_
_space_group_symop_operation_xyz
x,y,z
-x,1/2-y,z
x,-y,1/2-z
1/2-x,y,-z
1/2+x,1/2+y,1/2+z
1/2-x,-y,1/2+z
1/2+x,1/2-y,-z
-x,1/2+y,1/2-z
loop_
_atom_site_type_symbol
_atom_site_label
_atom_site_fract_x
_atom_site_fract_y
_atom_site_fract_z
Si Si1 0.665663 0.548792 0.936968
Si Si2 0.500000 0.750000 0.033181
Si Si3 0.201649 0.432744 0.160475
Si Si4 0.081593 0.430662 0.839092
O O1 0.560793 0.558494 0.977654
O O2 0.649214 0.314245 0.875174
O O3 0.689741 0.817864 0.894687
O O4 0.750000 0.477776 0.000000
O O5 0.416541 0.649263 0.093273
O O6 0.162181 0.500000 0.250000
O O7 0.310922 0.329713 0.167682
O O8 0.043224 0.500000 0.750000
O O9 0.000000 0.250000 0.876143
#
# Coordination Sequence:
#
# PCOD8166117 Si02
#       4
#     8   4   8   8
#     4  12  25  46  70 108 143 183 236 295 354 418
#     4  12  26  42  70 104 142 184 236 298 356 414
#     4  11  26  47  72  99 143 191 236 287 356 423
#     4  11  23  40  68 104 144 184 230 291 367 436
#
# _framework density 23.146865999999999
#
# number of rings (size 3 to 8) (size 9 to 14) (size 15 to 20)
#    0.000    0.571    4.286    3.429    4.000    0.000 
#    0.000    2.857    0.000    0.000    0.000    0.000 
#    0.000    0.000    0.000    0.000    0.000    0.000 
#
# Total GULP energy -173488.217784 kJ/mol
# GULP energy per Si atom -12392.015556 kJ/mol
# Density = 2.309418 g / cm^3
# Si number density = 23.146866 Si / 1000 Ang^3
#
#
#
# Elastic Constant Matrix: (Units=GPa)
#
#
# Indices 1 2 3 4 5 6 
#
# 1 78.3130 26.2452 54.9590 0.0000 0.0000 0.0000
# 2 26.2452 135.4668 62.3630 0.0000 0.0000 0.0000
# 3 54.9590 62.3630 152.5987 0.0000 0.0000 0.0000
# 4 0.0000 0.0000 0.0000 43.5628 0.0000 0.0000
# 5 0.0000 0.0000 0.0000 0.0000-2299.1724 0.0000
# 6 0.0000 0.0000 0.0000 0.0000 0.0000 32.1390
#
#
#
# Elastic Compliance Matrix: (Units=1/GPa)
#
#
# Indices 1 2 3 4 5 6 
#
# 1 0.017126 -0.000589 -0.005927 0.000000 0.000000 0.000000
# 2 -0.000589 0.009113 -0.003512 0.000000 0.000000 0.000000
# 3 -0.005927 -0.003512 0.010123 0.000000 0.000000 0.000000
# 4 0.000000 0.000000 0.000000 0.022955 0.000000 0.000000
# 5 0.000000 0.000000 0.000000 0.000000 -0.000435 0.000000
# 6 0.000000 0.000000 0.000000 0.000000 0.000000 0.031115
#
#
# Mechanical properties :
#
#
# Convention : Reuss Voigt Hill
#
# Bulk Modulus (GPa) = 61.33008 72.61255 66.97131
# Shear Modulus (GPa) = 43.29387 -429.84003 -193.27308
#
# Velocity S-wave (km/s) = 4.32950 -13.64201 -9.14767
# Velocity P-wave (km/s) = 7.17958 14.72076 9.08720
#
# Compressibility (1/GPa) = 0.01630521
#
# Stress axis : x y z
#
# Youngs Moduli (GPa) = 58.38912 109.73591 98.78417
#
# Poissons Ratio (x) = 0.06468 0.58552
# Poissons Ratio (y) = 0.03441 0.34692
# Poissons Ratio (z) = 0.34609 0.38538
#
# Static dielectric constant tensor:
#      x y z
#    x 3.917470 0.000000 0.000000 
#    y 0.000000 19.695270 0.000000 
#    z 0.000000 0.000000 4.449200 
# 
# 
# High freq. dielectric constant tensor:
#      x y z
#    x 1.903050 0.000000 0.000000 
#    y 0.000000 1.906950 0.000000 
#    z 0.000000 0.000000 1.934510 
# 
# From -- ./inp_files/23441.got.cif
#   From: 2010.03.12/outbox.cif.g09.slc.cpg/sg24_12_cif.got.tgz:23441.got - 2010.04.14 03:06:53.
