data_PCOD8166668
_publ_section_title
;
Structure prediction by ZEFSAII (Michael W. Deem and Ramdas Pophale) SiO2 
 PCOD8166668
Probable space group: P M M 2
;
_chemical_formula_sum "Si O2"
_cell_formula_units_Z 24
_cell_length_a 9.156599
_cell_length_b 9.219842
_cell_length_c 15.614760
_cell_angle_alpha 90.000000
_cell_angle_beta 90.000000
_cell_angle_gamma 90.000000
_cell_volume 1318.235453
_symmetry_space_group_name_H-M "P M M 2"
_symmetry_group_IT_number 25
_symmetry_cell_setting 'orthorhombic'
loop_
_space_group_symop_operation_xyz
x,y,z
-x,-y,z
-x,y,z
x,-y,z
loop_
_atom_site_type_symbol
_atom_site_label
_atom_site_fract_x
_atom_site_fract_y
_atom_site_fract_z
Si Si1 0.828940 0.831283 0.934990
Si Si2 0.335388 0.827509 0.104289
Si Si3 0.164254 0.826830 0.269101
Si Si4 0.330487 0.670134 0.784022
Si Si5 0.337118 0.827290 0.431760
Si Si6 0.326538 0.161182 0.618711
O O1 0.766803 0.741516 0.856488
O O2 0.000000 0.802557 0.944542
O O3 0.794464 0.000000 0.919270
O O4 0.751587 0.773741 0.020933
O O5 0.500000 0.766062 0.100907
O O6 0.256018 0.766052 0.188773
O O7 0.336497 0.000000 0.107386
O O8 0.233818 0.765710 0.356921
O O9 0.000000 0.767450 0.261860
O O10 0.165813 0.000000 0.268859
O O11 0.500000 0.710453 0.799273
O O12 0.304610 0.500000 0.784792
O O13 0.274204 0.730157 0.692706
O O14 0.500000 0.764011 0.417662
O O15 0.272992 0.781940 0.525252
O O16 0.343945 0.000000 0.427793
O O17 0.500000 0.153201 0.614546
O O18 0.263892 0.000000 0.638142
#
# Coordination Sequence:
#
# PCOD8166668 Si02
#       6
#     4   4   4   4   4   4
#     4  10  20  33  49  70  96 126 160 198 241 288
#     4   9  16  26  42  64  90 121 155 190 230 278
#     4   9  15  22  34  57  91 123 147 180 229 279
#     4  10  20  33  50  72  96 124 160 200 242 289
#     4   8  13  22  37  57  82 115 153 188 225 272
#     4   8  14  26  45  67  91 121 157 196 235 275
#
# _framework density 18.206154999999999
#
# number of rings (size 3 to 8) (size 9 to 14) (size 15 to 20)
#    0.000    3.000    0.000    3.000    0.000    6.000 
#    0.000    0.833    0.000    3.000    0.000    1.167 
#    0.000    6.667    0.000    0.000    0.000    0.000 
#
# Total GULP energy -297510.925156 kJ/mol
# GULP energy per Si atom -12396.288548 kJ/mol
# Density = 1.816472 g / cm^3
# Si number density = 18.206155 Si / 1000 Ang^3
#
#
#
# Elastic Constant Matrix: (Units=GPa)
#
#
# Indices 1 2 3 4 5 6 
#
# 1 113.4761 29.5387 83.0606 0.0000 0.0000 0.0000
# 2 29.5387 34.6547 40.4033 0.0000 0.0000 0.0000
# 3 83.0606 40.4033 192.3424 0.0000 0.0000 0.0000
# 4 0.0000 0.0000 0.0000 -1.3354 0.0000 0.0000
# 5 0.0000 0.0000 0.0000 0.0000 13.0435 0.0000
# 6 0.0000 0.0000 0.0000 0.0000 0.0000 12.1906
#
#
#
# Elastic Compliance Matrix: (Units=1/GPa)
#
#
# Indices 1 2 3 4 5 6 
#
# 1 0.013885 -0.006416 -0.004648 0.000000 0.000000 0.000000
# 2 -0.006416 0.041180 -0.005880 0.000000 0.000000 0.000000
# 3 -0.004648 -0.005880 0.008441 0.000000 0.000000 0.000000
# 4 0.000000 0.000000 0.000000 -0.748844 0.000000 0.000000
# 5 0.000000 0.000000 0.000000 0.000000 0.076667 0.000000
# 6 0.000000 0.000000 0.000000 0.000000 0.000000 0.082030
#
#
# Mechanical properties :
#
#
# Convention : Reuss Voigt Hill
#
# Bulk Modulus (GPa) = 33.76251 71.83093 52.79672
# Shear Modulus (GPa) = -10.35451 17.27779 3.46164
#
# Velocity S-wave (km/s) = -2.38741 3.08394 1.38039
# Velocity P-wave (km/s) = 3.31439 7.22639 5.62165
#
# Compressibility (1/GPa) = 0.02961865
#
# Stress axis : x y z
#
# Youngs Moduli (GPa) = 72.02063 24.28389 118.46284
#
# Poissons Ratio (x) = 0.15580 0.55066
# Poissons Ratio (y) = 0.46206 0.69652
# Poissons Ratio (z) = 0.33478 0.14278
#
# Static dielectric constant tensor:
#      x y z
#    x 3.334620 0.000000 0.000000 
#    y 0.000000 2.796360 0.000000 
#    z 0.000000 0.000000 3.767330 
# 
# 
# High freq. dielectric constant tensor:
#      x y z
#    x 1.692630 0.000000 0.000000 
#    y 0.000000 1.638490 0.000000 
#    z 0.000000 0.000000 1.727940 
# 
# From -- ./inp_files/5960.got.cif
#   From: 2010.03.12/outbox.cif.g09.slc.cpg/sg25_3_cif.got.tgz:5960.got - 2010.04.14 03:30:10.
