data_PCOD8166195
_publ_section_title
;
Structure prediction by ZEFSAII (Michael W. Deem and Ramdas Pophale) SiO2 
 PCOD8166195
Probable space group: I 21 21 21
;
_chemical_formula_sum "Si O2"
_cell_formula_units_Z 28
_cell_length_a 6.511693
_cell_length_b 10.033940
_cell_length_c 18.470184
_cell_angle_alpha 90.000000
_cell_angle_beta 90.000000
_cell_angle_gamma 90.000000
_cell_volume 1206.803716
_symmetry_space_group_name_H-M "I 21 21 21"
_symmetry_group_IT_number 24
_symmetry_cell_setting 'orthorhombic'
loop_
_space_group_symop_operation_xyz
x,y,z
-x,1/2-y,z
x,-y,1/2-z
1/2-x,y,-z
1/2+x,1/2+y,1/2+z
1/2-x,-y,1/2+z
1/2+x,1/2-y,-z
-x,1/2+y,1/2-z
loop_
_atom_site_type_symbol
_atom_site_label
_atom_site_fract_x
_atom_site_fract_y
_atom_site_fract_z
Si Si1 0.592021 0.109746 0.439592
Si Si2 0.660392 0.135856 0.278566
Si Si3 0.827276 0.352776 0.922291
Si Si4 0.500000 0.750000 0.683001
O O1 0.500000 0.250000 0.466795
O O2 0.750000 0.055709 0.500000
O O3 0.710812 0.130194 0.363936
O O4 0.410658 0.003274 0.427877
O O5 0.500000 0.250000 0.260399
O O6 0.869421 0.154106 0.234411
O O7 0.556302 0.000000 0.250000
O O8 0.639060 0.347232 0.866217
O O9 0.000000 0.250000 0.894416
O O10 0.750000 0.302778 0.000000
#
# Coordination Sequence:
#
# PCOD8166195 Si02
#       4
#     8   8   8   4
#     4  11  26  46  73 106 149 190 239 291 356 435
#     4  11  26  47  71 105 145 186 239 296 352 427
#     4  12  25  46  75 109 140 184 244 299 353 423
#     4  12  26  44  78 106 142 188 236 300 366 410
#
# _framework density 23.201785999999998
#
# number of rings (size 3 to 8) (size 9 to 14) (size 15 to 20)
#    0.000    0.571    1.429    6.000    6.000    5.714 
#    0.000    0.000    0.000    0.000    0.000    0.000 
#    0.000    0.000    0.000    0.000    0.000    0.000 
#
# Total GULP energy -173707.402382 kJ/mol
# GULP energy per Si atom -12407.671599 kJ/mol
# Density = 2.314898 g / cm^3
# Si number density = 23.201786 Si / 1000 Ang^3
#
#
#
# Elastic Constant Matrix: (Units=GPa)
#
#
# Indices 1 2 3 4 5 6 
#
# 1 139.7037 65.6446 83.0177 0.0000 0.0000 0.0000
# 2 65.6446 169.7806 33.7239 0.0000 0.0000 0.0000
# 3 83.0177 33.7239 158.6166 0.0000 0.0000 0.0000
# 4 0.0000 0.0000 0.0000 31.4721 0.0000 0.0000
# 5 0.0000 0.0000 0.0000 0.0000 2068.2544 0.0000
# 6 0.0000 0.0000 0.0000 0.0000 0.0000 22.8436
#
#
#
# Elastic Compliance Matrix: (Units=1/GPa)
#
#
# Indices 1 2 3 4 5 6 
#
# 1 0.012182 -0.003595 -0.005611 0.000000 0.000000 0.000000
# 2 -0.003595 0.007211 0.000349 0.000000 0.000000 0.000000
# 3 -0.005611 0.000349 0.009167 0.000000 0.000000 0.000000
# 4 0.000000 0.000000 0.000000 0.031774 0.000000 0.000000
# 5 0.000000 0.000000 0.000000 0.000000 0.000483 0.000000
# 6 0.000000 0.000000 0.000000 0.000000 0.000000 0.043776
#
#
# Mechanical properties :
#
#
# Convention : Reuss Voigt Hill
#
# Bulk Modulus (GPa) = 92.21907 92.54148 92.38028
# Shear Modulus (GPa) = 39.70624 443.56168 241.63396
#
# Velocity S-wave (km/s) = 4.14133 13.84163 10.21620
# Velocity P-wave (km/s) = 7.91835 17.18797 13.38145
#
# Compressibility (1/GPa) = 0.01084374
#
# Stress axis : x y z
#
# Youngs Moduli (GPa) = 82.08820 138.67972 109.08308
#
# Poissons Ratio (x) = 0.49862 0.61211
# Poissons Ratio (y) = 0.29515 -0.03804
# Poissons Ratio (z) = 0.46063 -0.04836
#
# Static dielectric constant tensor:
#      x y z
#    x 4.081630 0.000000 0.000000 
#    y 0.000000 -0.247610 0.000000 
#    z 0.000000 0.000000 4.479780 
# 
# 
# High freq. dielectric constant tensor:
#      x y z
#    x 1.906770 0.000000 0.000000 
#    y 0.000000 1.922970 0.000000 
#    z 0.000000 0.000000 1.942820 
# 
# From -- ./inp_files/5219.got.cif
#   From: 2010.03.12/outbox.cif.g09.slc.cpg/sg24_3_cif.got.tgz:5219.got - 2010.04.14 03:06:53.
