data_PCOD8166066
_publ_section_title
;
Structure prediction by ZEFSAII (Michael W. Deem and Ramdas Pophale) SiO2 
 PCOD8166066
Probable space group: I 21 21 21
;
_chemical_formula_sum "Si O2"
_cell_formula_units_Z 40
_cell_length_a 15.708054
_cell_length_b 15.078830
_cell_length_c 7.609643
_cell_angle_alpha 90.000000
_cell_angle_beta 90.000000
_cell_angle_gamma 90.000000
_cell_volume 1802.413009
_symmetry_space_group_name_H-M "I 21 21 21"
_symmetry_group_IT_number 24
_symmetry_cell_setting 'orthorhombic'
loop_
_space_group_symop_operation_xyz
x,y,z
-x,1/2-y,z
x,-y,1/2-z
1/2-x,y,-z
1/2+x,1/2+y,1/2+z
1/2-x,-y,1/2+z
1/2+x,1/2-y,-z
-x,1/2+y,1/2-z
loop_
_atom_site_type_symbol
_atom_site_label
_atom_site_fract_x
_atom_site_fract_y
_atom_site_fract_z
Si Si1 0.621663 0.594313 0.802670
Si Si2 0.246317 0.760391 0.707616
Si Si3 0.179533 0.581007 0.367710
Si Si4 0.568438 0.323837 0.348473
Si Si5 0.005069 0.645911 0.492381
O O1 0.664454 0.500000 0.750000
O O2 0.692838 0.668918 0.797888
O O3 0.545740 0.601373 0.664589
O O4 0.583217 0.603291 0.999078
O O5 0.250000 0.777529 0.500000
O O6 0.281862 0.661841 0.748420
O O7 0.153003 0.771146 0.788687
O O8 0.147739 0.500000 0.250000
O O9 0.250000 0.543651 0.500000
O O10 0.102336 0.615975 0.486007
O O11 0.500000 0.250000 0.412023
O O12 0.533352 0.379456 0.182236
O O13 0.000000 0.750000 0.465220
#
# Coordination Sequence:
#
# PCOD8166066 Si02
#       5
#     8   8   8   8   8
#     4  12  26  44  70 106 145 189 241 294 353 423
#     4  11  22  47  74  99 146 187 234 303 354 422
#     4  11  24  45  72 105 144 187 233 298 362 425
#     4  11  24  44  77 106 136 193 240 285 360 428
#     4  11  21  48  72  97 148 190 229 297 354 415
#
# _framework density 22.192473
#
# number of rings (size 3 to 8) (size 9 to 14) (size 15 to 20)
#    0.000    0.800    4.000    5.400    0.000    4.000 
#   10.800    0.000    0.000    0.000    0.000    0.000 
#    0.000    0.000    0.000    0.000    0.000    0.000 
#
# Total GULP energy -248022.907214 kJ/mol
# GULP energy per Si atom -12401.145361 kJ/mol
# Density = 2.214196 g / cm^3
# Si number density = 22.192473 Si / 1000 Ang^3
#
#
#
# Elastic Constant Matrix: (Units=GPa)
#
#
# Indices 1 2 3 4 5 6 
#
# 1 136.6136 40.0992 43.5669 0.0000 0.0000 0.0000
# 2 40.0992 113.0567 66.2681 0.0000 0.0000 0.0000
# 3 43.5669 66.2681 131.4013 0.0000 0.0000 0.0000
# 4 0.0000 0.0000 0.0000 19.3193 0.0000 0.0000
# 5 0.0000 0.0000 0.0000 0.0000 27.2094 0.0000
# 6 0.0000 0.0000 0.0000 0.0000 0.0000 22.6927
#
#
#
# Elastic Compliance Matrix: (Units=1/GPa)
#
#
# Indices 1 2 3 4 5 6 
#
# 1 0.008472 -0.001928 -0.001836 0.000000 0.000000 0.000000
# 2 -0.001928 0.012996 -0.005915 0.000000 0.000000 0.000000
# 3 -0.001836 -0.005915 0.011202 0.000000 0.000000 0.000000
# 4 0.000000 0.000000 0.000000 0.051762 0.000000 0.000000
# 5 0.000000 0.000000 0.000000 0.000000 0.036752 0.000000
# 6 0.000000 0.000000 0.000000 0.000000 0.000000 0.044067
#
#
# Mechanical properties :
#
#
# Convention : Reuss Voigt Hill
#
# Bulk Modulus (GPa) = 75.12723 75.65999 75.39361
# Shear Modulus (GPa) = 26.44858 29.25344 27.85101
#
# Velocity S-wave (km/s) = 3.45596 3.63460 3.54641
# Velocity P-wave (km/s) = 7.06052 7.19586 7.12851
#
# Compressibility (1/GPa) = 0.01331075
#
# Stress axis : x y z
#
# Youngs Moduli (GPa) = 118.04235 76.94671 89.26959
#
# Poissons Ratio (x) = 0.14838 0.16392
# Poissons Ratio (y) = 0.22763 0.52801
# Poissons Ratio (z) = 0.21676 0.45512
#
# Static dielectric constant tensor:
#      x y z
#    x 4.186700 0.000000 0.000000 
#    y 0.000000 4.017020 0.000000 
#    z 0.000000 0.000000 4.166050 
# 
# 
# High freq. dielectric constant tensor:
#      x y z
#    x 1.889680 0.000000 0.000000 
#    y 0.000000 1.864410 0.000000 
#    z 0.000000 0.000000 1.876260 
# 
# From -- ./inp_files/12331.got.cif
#   From: 2010.03.12/outbox.cif.g09.slc.cpg/sg24_7_cif.got.tgz:12331.got - 2010.04.14 03:06:53.
