data_PCOD8166881
_publ_section_title
;
Structure prediction by ZEFSAII (Michael W. Deem and Ramdas Pophale) SiO2 
 PCOD8166881
Probable space group: P M M 2
;
_chemical_formula_sum "Si O2"
_cell_formula_units_Z 32
_cell_length_a 15.518559
_cell_length_b 9.822979
_cell_length_c 11.628790
_cell_angle_alpha 90.000000
_cell_angle_beta 90.000000
_cell_angle_gamma 90.000000
_cell_volume 1772.675062
_symmetry_space_group_name_H-M "P M M 2"
_symmetry_group_IT_number 25
_symmetry_cell_setting 'orthorhombic'
loop_
_space_group_symop_operation_xyz
x,y,z
-x,-y,z
-x,y,z
x,-y,z
loop_
_atom_site_type_symbol
_atom_site_label
_atom_site_fract_x
_atom_site_fract_y
_atom_site_fract_z
Si Si1 0.765006 0.159438 0.807610
Si Si2 0.145700 0.654451 0.211303
Si Si3 0.313699 0.346192 0.361323
Si Si4 0.598030 0.647613 0.145754
Si Si5 0.401113 0.843732 0.951680
Si Si6 0.907288 0.849986 0.391768
Si Si7 0.102164 0.340729 0.950879
Si Si8 0.751480 0.841182 0.544437
O O1 0.668177 0.187882 0.852710
O O2 0.840641 0.248916 0.864841
O O3 0.757066 0.204592 0.675428
O O4 0.789819 0.000000 0.820555
O O5 0.114517 0.500000 0.229424
O O6 0.239758 0.680614 0.265110
O O7 0.083242 0.752479 0.282190
O O8 0.139046 0.692571 0.077413
O O9 0.309738 0.500000 0.409627
O O10 0.396718 0.316090 0.281748
O O11 0.317482 0.245670 0.470582
O O12 0.500000 0.632809 0.111466
O O13 0.644643 0.500000 0.124706
O O14 0.635547 0.761701 0.061433
O O15 0.500000 0.805218 0.913634
O O16 0.398506 0.000000 0.988546
O O17 0.842300 0.798483 0.488758
O O18 0.000000 0.855149 0.452955
O O19 0.879104 0.000000 0.348250
O O20 0.115501 0.500000 0.920982
O O21 0.000000 0.303541 0.942112
O O22 0.728393 0.000000 0.533160
#
# Coordination Sequence:
#
# PCOD8166881 Si02
#       8
#     4   4   4   4   4   4   4   4
#     4  10  21  36  53  72  97 134 175 213 253 295
#     4   9  17  30  48  69  94 123 154 191 239 293
#     4   9  17  30  49  72  96 124 157 195 241 289
#     4   9  17  30  50  76 103 128 156 194 244 303
#     4   9  18  33  53  77 103 130 165 210 256 302
#     4   9  17  29  46  67  90 118 154 197 240 280
#     4  10  21  35  51  74 104 135 166 204 251 302
#     4   9  19  34  49  67  93 126 164 201 238 285
#
# _framework density 18.051814
#
# number of rings (size 3 to 8) (size 9 to 14) (size 15 to 20)
#    0.000    2.750    0.000    1.125    0.000    4.500 
#    0.000    4.375    0.000    0.750    0.000    0.000 
#    0.000    0.000    0.000    0.000    0.000    0.000 
#
# Total GULP energy -396449.047981 kJ/mol
# GULP energy per Si atom -12389.032749 kJ/mol
# Density = 1.801073 g / cm^3
# Si number density = 18.051814 Si / 1000 Ang^3
#
#
#
# Elastic Constant Matrix: (Units=GPa)
#
#
# Indices 1 2 3 4 5 6 
#
# 1 56.0768 38.2545 39.4685 0.0000 0.0000 0.0000
# 2 38.2545 81.2916 75.5205 0.0000 0.0000 0.0000
# 3 39.4685 75.5205 147.1304 0.0000 0.0000 0.0000
# 4 0.0000 0.0000 0.0000 29.4013 0.0000 0.0000
# 5 0.0000 0.0000 0.0000 0.0000 18.6508 0.0000
# 6 0.0000 0.0000 0.0000 0.0000 0.0000 20.9880
#
#
#
# Elastic Compliance Matrix: (Units=1/GPa)
#
#
# Indices 1 2 3 4 5 6 
#
# 1 0.026403 -0.011173 -0.001348 0.000000 0.000000 0.000000
# 2 -0.011173 0.028242 -0.011499 0.000000 0.000000 0.000000
# 3 -0.001348 -0.011499 0.013061 0.000000 0.000000 0.000000
# 4 0.000000 0.000000 0.000000 0.034012 0.000000 0.000000
# 5 0.000000 0.000000 0.000000 0.000000 0.053617 0.000000
# 6 0.000000 0.000000 0.000000 0.000000 0.000000 0.047646
#
#
# Mechanical properties :
#
#
# Convention : Reuss Voigt Hill
#
# Bulk Modulus (GPa) = 50.84865 65.66509 58.25687
# Shear Modulus (GPa) = 19.41175 22.55837 20.98506
#
# Velocity S-wave (km/s) = 3.28279 3.53887 3.41323
# Velocity P-wave (km/s) = 6.52673 7.29061 6.91922
#
# Compressibility (1/GPa) = 0.01966621
#
# Stress axis : x y z
#
# Youngs Moduli (GPa) = 37.87420 35.40852 76.56578
#
# Poissons Ratio (x) = 0.39561 0.10321
# Poissons Ratio (y) = 0.42315 0.88044
# Poissons Ratio (z) = 0.05105 0.40717
#
# Static dielectric constant tensor:
#      x y z
#    x 3.404100 0.000000 0.000000 
#    y 0.000000 3.542700 0.000000 
#    z 0.000000 0.000000 3.256190 
# 
# 
# High freq. dielectric constant tensor:
#      x y z
#    x 1.695630 0.000000 0.000000 
#    y 0.000000 1.700400 0.000000 
#    z 0.000000 0.000000 1.684170 
# 
# From -- ./inp_files/5033.got.cif
#   From: 2010.03.12/outbox.cif.g09.slc.cpg/sg25_3_cif.got.tgz:5033.got - 2010.04.14 03:30:10.
