data_PCOD8166554
_publ_section_title
;
Structure prediction by ZEFSAII (Michael W. Deem and Ramdas Pophale) SiO2 
 PCOD8166554
Probable space group: P M M 2
;
_chemical_formula_sum "Si O2"
_cell_formula_units_Z 24
_cell_length_a 9.251219
_cell_length_b 14.083844
_cell_length_c 10.116008
_cell_angle_alpha 90.000000
_cell_angle_beta 90.000000
_cell_angle_gamma 90.000000
_cell_volume 1318.042251
_symmetry_space_group_name_H-M "P M M 2"
_symmetry_group_IT_number 25
_symmetry_cell_setting 'orthorhombic'
loop_
_space_group_symop_operation_xyz
x,y,z
-x,-y,z
-x,y,z
x,-y,z
loop_
_atom_site_type_symbol
_atom_site_label
_atom_site_fract_x
_atom_site_fract_y
_atom_site_fract_z
Si Si1 0.671624 0.103468 0.372660
Si Si2 0.333914 0.609859 0.227682
Si Si3 0.331671 0.892578 0.072092
Si Si4 0.169915 0.391769 0.737390
Si Si5 0.170185 0.283484 0.001664
Si Si6 0.331500 0.293842 0.501099
O O1 0.500000 0.104559 0.369742
O O2 0.723743 0.119877 0.222620
O O3 0.727586 0.187987 0.466386
O O4 0.726901 0.000000 0.423909
O O5 0.500000 0.633983 0.192918
O O6 0.298626 0.500000 0.208067
O O7 0.301269 0.636648 0.378729
O O8 0.231064 0.669546 0.133853
O O9 0.500000 0.867044 0.059814
O O10 0.303111 0.000000 0.023114
O O11 0.240504 0.820495 0.981337
O O12 0.225755 0.500000 0.732212
O O13 0.213303 0.349142 0.878665
O O14 0.245260 0.330049 0.626042
O O15 0.000000 0.386637 0.713660
O O16 0.000000 0.272167 0.015680
O O17 0.500000 0.291591 0.537244
#
# Coordination Sequence:
#
# PCOD8166554 Si02
#       6
#     4   4   4   4   4   4
#     4   8  14  28  53  82 110 138 167 209 266 322
#     4  10  20  34  54  81 110 137 176 233 285 328
#     4   9  17  33  58  84 111 143 178 220 273 327
#     4  10  23  41  55  71 105 151 190 223 268 326
#     4  11  22  36  55  79 110 147 185 225 272 326
#     4  10  19  34  57  83 108 136 178 228 274 322
#
# _framework density 18.208825999999998
#
# number of rings (size 3 to 8) (size 9 to 14) (size 15 to 20)
#    0.000    2.333    1.667    2.500    0.000    4.333 
#    0.000    0.833    0.000    3.500    0.000    0.000 
#    0.000    0.000    0.000    0.000    0.000    0.000 
#
# Total GULP energy -297582.476619 kJ/mol
# GULP energy per Si atom -12399.269859 kJ/mol
# Density = 1.816738 g / cm^3
# Si number density = 18.208826 Si / 1000 Ang^3
#
#
#
# Elastic Constant Matrix: (Units=GPa)
#
#
# Indices 1 2 3 4 5 6 
#
# 1 45.5196 42.1627 32.0447 0.0000 0.0000 0.0000
# 2 42.1627 136.4533 34.9315 0.0000 0.0000 0.0000
# 3 32.0447 34.9315 54.7978 0.0000 0.0000 0.0000
# 4 0.0000 0.0000 0.0000 32.9208 0.0000 0.0000
# 5 0.0000 0.0000 0.0000 0.0000 20.9665 0.0000
# 6 0.0000 0.0000 0.0000 0.0000 0.0000 21.0793
#
#
#
# Elastic Compliance Matrix: (Units=1/GPa)
#
#
# Indices 1 2 3 4 5 6 
#
# 1 0.044164 -0.008407 -0.020467 0.000000 0.000000 0.000000
# 2 -0.008407 0.010358 -0.001687 0.000000 0.000000 0.000000
# 3 -0.020467 -0.001687 0.031293 0.000000 0.000000 0.000000
# 4 0.000000 0.000000 0.000000 0.030376 0.000000 0.000000
# 5 0.000000 0.000000 0.000000 0.000000 0.047695 0.000000
# 6 0.000000 0.000000 0.000000 0.000000 0.000000 0.047440
#
#
# Mechanical properties :
#
#
# Convention : Reuss Voigt Hill
#
# Bulk Modulus (GPa) = 40.49655 50.56095 45.52875
# Shear Modulus (GPa) = 17.81403 23.50210 20.65807
#
# Velocity S-wave (km/s) = 3.13120 3.59653 3.37190
# Velocity P-wave (km/s) = 5.94650 6.71373 6.34173
#
# Compressibility (1/GPa) = 0.02469346
#
# Stress axis : x y z
#
# Youngs Moduli (GPa) = 22.64305 96.54495 31.95605
#
# Poissons Ratio (x) = 0.81162 0.65405
# Poissons Ratio (y) = 0.19035 0.05390
# Poissons Ratio (z) = 0.46344 0.16284
#
# Static dielectric constant tensor:
#      x y z
#    x 3.122280 0.000000 0.000000 
#    y 0.000000 3.911450 0.000000 
#    z 0.000000 0.000000 3.163740 
# 
# 
# High freq. dielectric constant tensor:
#      x y z
#    x 1.681030 0.000000 0.000000 
#    y 0.000000 1.729620 0.000000 
#    z 0.000000 0.000000 1.686320 
# 
# From -- ./inp_files/1994.got.cif
#   From: 2010.03.12/outbox.cif.g09.slc.cpg/sg25_1_cif.got.tgz:1994.got - 2010.04.14 03:30:10.
