data_PCOD8166433
_publ_section_title
;
Structure prediction by ZEFSAII (Michael W. Deem and Ramdas Pophale) SiO2 
 PCOD8166433
Probable space group: P M M 2
;
_chemical_formula_sum "Si O2"
_cell_formula_units_Z 28
_cell_length_a 14.240457
_cell_length_b 9.529987
_cell_length_c 12.921336
_cell_angle_alpha 90.000000
_cell_angle_beta 90.000000
_cell_angle_gamma 90.000000
_cell_volume 1753.572212
_symmetry_space_group_name_H-M "P M M 2"
_symmetry_group_IT_number 25
_symmetry_cell_setting 'orthorhombic'
loop_
_space_group_symop_operation_xyz
x,y,z
-x,-y,z
-x,y,z
x,-y,z
loop_
_atom_site_type_symbol
_atom_site_label
_atom_site_fract_x
_atom_site_fract_y
_atom_site_fract_z
Si Si1 0.389711 0.162658 0.485480
Si Si2 0.104166 0.339270 0.398137
Si Si3 0.896027 0.837690 0.599998
Si Si4 0.296269 0.337243 0.304901
Si Si5 0.608490 0.662356 0.094446
Si Si6 0.293282 0.164037 0.692891
Si Si7 0.390469 0.837363 0.896705
O O1 0.500000 0.184120 0.493908
O O2 0.351523 0.248316 0.388927
O O3 0.344064 0.224529 0.590673
O O4 0.362503 0.000000 0.469710
O O5 0.107538 0.500000 0.434801
O O6 0.128246 0.247035 0.497369
O O7 0.183823 0.310519 0.312051
O O8 0.000000 0.302279 0.353793
O O9 0.818369 0.802598 0.687179
O O10 0.000000 0.799694 0.642872
O O11 0.889568 0.000000 0.568478
O O12 0.321512 0.500000 0.323115
O O13 0.329173 0.289245 0.191630
O O14 0.500000 0.693222 0.120945
O O15 0.624489 0.500000 0.067486
O O16 0.642796 0.752686 0.997129
O O17 0.334892 0.228211 0.798505
O O18 0.315296 0.000000 0.696633
O O19 0.500000 0.815128 0.874647
O O20 0.366154 0.000000 0.915543
#
# Coordination Sequence:
#
# PCOD8166433 Si02
#       7
#     4   4   4   4   4   4   4
#     4  10  19  29  43  66  95 123 148 179 222 271
#     4   9  17  29  45  66  91 118 150 186 222 264
#     4   9  16  27  45  67  90 118 150 181 218 268
#     4  10  19  31  47  66  91 122 151 183 228 274
#     4   9  18  32  47  63  86 116 150 188 226 263
#     4   9  16  28  45  66  92 118 145 181 224 266
#     4   9  17  30  48  66  84 113 153 189 220 260
#
# _framework density 15.967407
#
# number of rings (size 3 to 8) (size 9 to 14) (size 15 to 20)
#    0.000    2.714    1.429    0.857    0.000    3.143 
#    0.000    2.857    0.000    2.571    0.000    0.000 
#    0.000    0.000    0.000    0.000    0.000    0.000 
#
# Total GULP energy -347117.026351 kJ/mol
# GULP energy per Si atom -12397.036655 kJ/mol
# Density = 1.593106 g / cm^3
# Si number density = 15.967407 Si / 1000 Ang^3
#
#
#
# Elastic Constant Matrix: (Units=GPa)
#
#
# Indices 1 2 3 4 5 6 
#
# 1 102.2073 34.3783 75.0942 0.0000 0.0000 0.0000
# 2 34.3783 41.5567 49.0016 0.0000 0.0000 0.0000
# 3 75.0942 49.0016 143.0520 0.0000 0.0000 0.0000
# 4 0.0000 0.0000 0.0000 -15.7955 0.0000 0.0000
# 5 0.0000 0.0000 0.0000 0.0000 22.8841 0.0000
# 6 0.0000 0.0000 0.0000 0.0000 0.0000 18.0195
#
#
#
# Elastic Compliance Matrix: (Units=1/GPa)
#
#
# Indices 1 2 3 4 5 6 
#
# 1 0.016733 -0.005846 -0.006781 0.000000 0.000000 0.000000
# 2 -0.005846 0.042412 -0.011459 0.000000 0.000000 0.000000
# 3 -0.006781 -0.011459 0.014475 0.000000 0.000000 0.000000
# 4 0.000000 0.000000 0.000000 -0.063309 0.000000 0.000000
# 5 0.000000 0.000000 0.000000 0.000000 0.043698 0.000000
# 6 0.000000 0.000000 0.000000 0.000000 0.000000 0.055495
#
#
# Mechanical properties :
#
#
# Convention : Reuss Voigt Hill
#
# Bulk Modulus (GPa) = 39.29729 67.08490 53.19110
# Shear Modulus (GPa) = 30.09160 13.57777 21.83468
#
# Velocity S-wave (km/s) = 4.34587 2.91923 3.70192
# Velocity P-wave (km/s) = 7.06020 7.31214 7.18727
#
# Compressibility (1/GPa) = 0.02544705
#
# Stress axis : x y z
#
# Youngs Moduli (GPa) = 59.76295 23.57841 69.08330
#
# Poissons Ratio (x) = 0.13785 0.46846
# Poissons Ratio (y) = 0.34940 0.79161
# Poissons Ratio (z) = 0.40526 0.27018
#
# Static dielectric constant tensor:
#      x y z
#    x 3.269210 0.000000 0.000000 
#    y 0.000000 3.054330 0.000000 
#    z 0.000000 0.000000 2.986820 
# 
# 
# High freq. dielectric constant tensor:
#      x y z
#    x 1.620130 0.000000 0.000000 
#    y 0.000000 1.600050 0.000000 
#    z 0.000000 0.000000 1.594270 
# 
# From -- ./inp_files/5889.got.cif
#   From: 2010.03.12/outbox.cif.g09.slc.cpg/sg25_3_cif.got.tgz:5889.got - 2010.04.14 03:30:10.
