data_PCOD8166541
_publ_section_title
;
Structure prediction by ZEFSAII (Michael W. Deem and Ramdas Pophale) SiO2 
 PCOD8166541
Probable space group: P M M 2
;
_chemical_formula_sum "Si O2"
_cell_formula_units_Z 24
_cell_length_a 12.629679
_cell_length_b 8.974657
_cell_length_c 11.782867
_cell_angle_alpha 90.000000
_cell_angle_beta 90.000000
_cell_angle_gamma 90.000000
_cell_volume 1335.553062
_symmetry_space_group_name_H-M "P M M 2"
_symmetry_group_IT_number 25
_symmetry_cell_setting 'orthorhombic'
loop_
_space_group_symop_operation_xyz
x,y,z
-x,-y,z
-x,y,z
x,-y,z
loop_
_atom_site_type_symbol
_atom_site_label
_atom_site_fract_x
_atom_site_fract_y
_atom_site_fract_z
Si Si1 0.500000 0.323495 0.549320
Si Si2 0.122869 0.672756 0.551653
Si Si3 0.500000 0.173132 0.311031
Si Si4 0.700281 0.825600 0.157612
Si Si5 0.306251 0.824477 0.676889
Si Si6 0.618358 0.176130 0.920458
Si Si7 0.119205 0.324883 0.294133
O O1 0.500000 0.500000 0.561181
O O2 0.500000 0.279606 0.418408
O O3 0.604558 0.259031 0.606249
O O4 0.150352 0.500000 0.571923
O O5 0.190818 0.774541 0.635732
O O6 0.150868 0.718878 0.422655
O O7 0.000000 0.703392 0.577366
O O8 0.397739 0.213616 0.237702
O O9 0.500000 0.000000 0.347917
O O10 0.806003 0.751941 0.203660
O O11 0.720410 0.000000 0.152629
O O12 0.677162 0.760505 0.031886
O O13 0.315764 0.779552 0.808891
O O14 0.321472 0.000000 0.658909
O O15 0.500000 0.244093 0.911533
O O16 0.608458 0.000000 0.932703
O O17 0.128089 0.500000 0.279189
O O18 0.000000 0.270831 0.269346
#
# Coordination Sequence:
#
# PCOD8166541 Si02
#       7
#     2   4   2   4   4   4   4
#     4  12  24  35  50  76 112 145 173 214 271 330
#     4   9  19  37  58  79 109 147 180 216 269 325
#     4  10  20  33  52  80 108 133 169 218 269 318
#     4  10  19  33  56  81 104 135 176 219 263 314
#     4  11  21  35  57  81 106 139 182 226 267 313
#     4   9  17  34  56  76 104 143 177 214 267 316
#     4   9  19  36  55  75 105 144 178 213 264 318
#
# _framework density 17.970082000000001
#
# number of rings (size 3 to 8) (size 9 to 14) (size 15 to 20)
#    0.000    2.167    1.667    3.250    0.000    4.667 
#    0.000    4.167    0.000    5.000    0.000    0.000 
#    0.000    0.000    0.000    0.000    0.000    0.000 
#
# Total GULP energy -297623.172712 kJ/mol
# GULP energy per Si atom -12400.965530 kJ/mol
# Density = 1.792918 g / cm^3
# Si number density = 17.970082 Si / 1000 Ang^3
#
#
#
# Elastic Constant Matrix: (Units=GPa)
#
#
# Indices 1 2 3 4 5 6 
#
# 1 119.9534 44.9084 82.5198 0.0000 0.0000 0.0000
# 2 44.9084 61.1171 54.2347 0.0000 0.0000 0.0000
# 3 82.5198 54.2347 156.1253 0.0000 0.0000 0.0000
# 4 0.0000 0.0000 0.0000 11.3647 0.0000 0.0000
# 5 0.0000 0.0000 0.0000 0.0000 -0.5082 0.0000
# 6 0.0000 0.0000 0.0000 0.0000 0.0000 31.9196
#
#
#
# Elastic Compliance Matrix: (Units=1/GPa)
#
#
# Indices 1 2 3 4 5 6 
#
# 1 0.014266 -0.005481 -0.005636 0.000000 0.000000 0.000000
# 2 -0.005481 0.025759 -0.006051 0.000000 0.000000 0.000000
# 3 -0.005636 -0.006051 0.011486 0.000000 0.000000 0.000000
# 4 0.000000 0.000000 0.000000 0.087991 0.000000 0.000000
# 5 0.000000 0.000000 0.000000 0.000000 -1.967546 0.000000
# 6 0.000000 0.000000 0.000000 0.000000 0.000000 0.031329
#
#
# Mechanical properties :
#
#
# Convention : Reuss Voigt Hill
#
# Bulk Modulus (GPa) = 58.22609 77.83571 68.03090
# Shear Modulus (GPa) = -2.84632 18.92409 8.03888
#
# Velocity S-wave (km/s) = -1.25991 3.24865 2.11736
# Velocity P-wave (km/s) = 5.50959 7.58154 6.62704
#
# Compressibility (1/GPa) = 0.01717443
#
# Stress axis : x y z
#
# Youngs Moduli (GPa) = 70.09732 38.82104 87.06067
#
# Poissons Ratio (x) = 0.21277 0.49070
# Poissons Ratio (y) = 0.38420 0.52683
# Poissons Ratio (z) = 0.39509 0.23492
#
# Static dielectric constant tensor:
#      x y z
#    x 3.479170 0.000000 0.000000 
#    y 0.000000 3.094610 0.000000 
#    z 0.000000 0.000000 3.517160 
# 
# 
# High freq. dielectric constant tensor:
#      x y z
#    x 1.699720 0.000000 0.000000 
#    y 0.000000 1.676930 0.000000 
#    z 0.000000 0.000000 1.700720 
# 
# From -- ./inp_files/3947.got.cif
#   From: 2010.03.12/outbox.cif.g09.slc.cpg/sg25_2_cif.got.tgz:3947.got - 2010.04.14 03:30:10.
