data_PCOD8166238
_publ_section_title
;
Structure prediction by ZEFSAII (Michael W. Deem and Ramdas Pophale) SiO2 
 PCOD8166238
Probable space group: I 21 21 21
;
_chemical_formula_sum "Si O2"
_cell_formula_units_Z 48
_cell_length_a 9.875735
_cell_length_b 16.761070
_cell_length_c 13.762920
_cell_angle_alpha 90.000000
_cell_angle_beta 90.000000
_cell_angle_gamma 90.000000
_cell_volume 2278.147048
_symmetry_space_group_name_H-M "I 21 21 21"
_symmetry_group_IT_number 24
_symmetry_cell_setting 'orthorhombic'
loop_
_space_group_symop_operation_xyz
x,y,z
-x,1/2-y,z
x,-y,1/2-z
1/2-x,y,-z
1/2+x,1/2+y,1/2+z
1/2-x,-y,1/2+z
1/2+x,1/2-y,-z
-x,1/2+y,1/2-z
loop_
_atom_site_type_symbol
_atom_site_label
_atom_site_fract_x
_atom_site_fract_y
_atom_site_fract_z
Si Si1 0.250000 0.944954 0.500000
Si Si2 0.589616 0.436982 0.384510
Si Si3 0.680559 0.141219 0.739864
Si Si4 0.517069 0.659429 0.927179
Si Si5 0.123024 0.500000 0.750000
Si Si6 0.446762 0.834415 0.604368
Si Si7 0.753120 0.683545 0.224396
O O1 0.389782 0.894500 0.521677
O O2 0.286687 0.002547 0.408737
O O3 0.536308 0.395918 0.481305
O O4 0.466419 0.489164 0.345529
O O5 0.623082 0.371031 0.300334
O O6 0.608316 0.126475 0.636296
O O7 0.569913 0.139868 0.826197
O O8 0.768825 0.221493 0.724326
O O9 0.784273 0.075088 0.770547
O O10 0.500000 0.750000 0.963516
O O11 0.647832 0.656286 0.860636
O O12 0.500000 0.750000 0.558810
O O13 0.311474 0.831381 0.669078
#
# Coordination Sequence:
#
# PCOD8166238 Si02
#       7
#     4   8   8   8   4   8   8
#     4  12  24  42  66 102 128 166 228 284 320 396
#     4  12  24  39  60 103 130 166 216 283 333 385
#     4   9  22  42  64  90 129 177 214 266 335 409
#     4   9  19  38  68  95 121 165 219 270 334 388
#     4  12  28  38  54  96 138 178 206 254 342 404
#     4   9  21  44  69  89 121 177 221 262 323 389
#     4   9  18  42  69  90 119 165 224 269 328 393
#
# _framework density 21.069756000000002
#
# number of rings (size 3 to 8) (size 9 to 14) (size 15 to 20)
#    0.000    2.000    1.667    3.000    4.667    0.667 
#    6.000    0.000    0.000    0.000    0.000    0.000 
#    0.000    0.000    0.000    0.000    0.000    0.000 
#
# Total GULP energy -297325.963428 kJ/mol
# GULP energy per Si atom -12388.581809 kJ/mol
# Density = 2.102180 g / cm^3
# Si number density = 21.069756 Si / 1000 Ang^3
#
#
#
# Elastic Constant Matrix: (Units=GPa)
#
#
# Indices 1 2 3 4 5 6 
#
# 1 84.0558 64.5660 17.5259 0.0000 0.0000 0.0000
# 2 64.5660 133.0810 43.9574 0.0000 0.0000 0.0000
# 3 17.5259 43.9574 53.6480 0.0001 0.0000 0.0000
# 4 0.0000 0.0000 0.0001 42.5820 0.0000 0.0000
# 5 0.0000 0.0000 0.0000 0.0000 30.6474 0.0000
# 6 0.0000 0.0000 0.0000 0.0000 0.0000 30.6612
#
#
#
# Elastic Compliance Matrix: (Units=1/GPa)
#
#
# Indices 1 2 3 4 5 6 
#
# 1 0.019098 -0.009878 0.001855 0.000000 0.000000 0.000000
# 2 -0.009878 0.015412 -0.009401 0.000000 0.000000 0.000000
# 3 0.001855 -0.009401 0.025737 0.000000 0.000000 0.000000
# 4 0.000000 0.000000 0.000000 0.023484 0.000000 0.000000
# 5 0.000000 0.000000 0.000000 0.000000 0.032629 0.000000
# 6 0.000000 0.000000 0.000000 0.000000 0.000000 0.032614
#
#
# Mechanical properties :
#
#
# Convention : Reuss Voigt Hill
#
# Bulk Modulus (GPa) = 39.37291 58.09816 48.73554
# Shear Modulus (GPa) = 26.00247 30.42716 28.21481
#
# Velocity S-wave (km/s) = 3.51681 3.80427 3.66336
# Velocity P-wave (km/s) = 5.93448 6.85060 6.40893
#
# Compressibility (1/GPa) = 0.02539817
#
# Stress axis : x y z
#
# Youngs Moduli (GPa) = 52.36158 64.88438 38.85475
#
# Poissons Ratio (x) = 0.64095 -0.07208
# Poissons Ratio (y) = 0.51725 0.36527
# Poissons Ratio (z) = -0.09713 0.60998
#
# Static dielectric constant tensor:
#      x y z
#    x 3.737570 0.000000 0.000000 
#    y 0.000000 3.865230 0.000000 
#    z 0.000000 0.000000 3.744790 
# 
# 
# High freq. dielectric constant tensor:
#      x y z
#    x 1.813390 0.000000 0.000000 
#    y 0.000000 1.835930 0.000000 
#    z 0.000000 0.000000 1.813030 
# 
# From -- ./inp_files/24826.got.cif
#   From: 2010.03.12/outbox.cif.g09.slc.cpg/sg24_13_cif.got.tgz:24826.got - 2010.04.14 03:06:53.
