data_PCOD8166499
_publ_section_title
;
Structure prediction by ZEFSAII (Michael W. Deem and Ramdas Pophale) SiO2 
 PCOD8166499
Probable space group: P M M 2
;
_chemical_formula_sum "Si O2"
_cell_formula_units_Z 32
_cell_length_a 14.398999
_cell_length_b 13.465853
_cell_length_c 9.535614
_cell_angle_alpha 90.000000
_cell_angle_beta 90.000000
_cell_angle_gamma 90.000000
_cell_volume 1848.906006
_symmetry_space_group_name_H-M "P M M 2"
_symmetry_group_IT_number 25
_symmetry_cell_setting 'orthorhombic'
loop_
_space_group_symop_operation_xyz
x,y,z
-x,-y,z
-x,y,z
x,-y,z
loop_
_atom_site_type_symbol
_atom_site_label
_atom_site_fract_x
_atom_site_fract_y
_atom_site_fract_z
Si Si1 0.232069 0.794939 0.888690
Si Si2 0.110028 0.803846 0.388049
Si Si3 0.397829 0.117525 0.373402
Si Si4 0.103344 0.887226 0.098374
Si Si5 0.608639 0.884243 0.055803
Si Si6 0.107029 0.386150 0.846953
Si Si7 0.107415 0.606350 0.519230
Si Si8 0.753836 0.113522 0.589534
O O1 0.182963 0.687597 0.917841
O O2 0.238417 0.816997 0.724527
O O3 0.166996 0.876222 0.962671
O O4 0.334242 0.808254 0.956437
O O5 0.142225 0.824283 0.229500
O O6 0.150508 0.694954 0.427536
O O7 0.152312 0.882389 0.497956
O O8 0.000000 0.812802 0.403860
O O9 0.500000 0.162322 0.403846
O O10 0.366063 0.144882 0.215724
O O11 0.327696 0.158457 0.490749
O O12 0.401841 0.000000 0.384130
O O13 0.000000 0.852352 0.057723
O O14 0.103907 0.000000 0.149219
O O15 0.500000 0.867298 0.025687
O O16 0.634310 0.000000 0.025999
O O17 0.128846 0.500000 0.891166
O O18 0.119479 0.371144 0.682273
O O19 0.000000 0.359932 0.890013
O O20 0.154843 0.500000 0.481317
O O21 0.000000 0.598914 0.481492
O O22 0.734765 0.000000 0.635043
#
# Coordination Sequence:
#
# PCOD8166499 Si02
#       8
#     4   4   4   4   4   4   4   4
#     4  12  21  32  50  75 104 133 172 211 260 311
#     4  10  19  32  47  66  94 131 172 207 248 300
#     4   8  16  33  53  70  93 129 170 209 249 294
#     4  10  21  34  46  64  99 144 176 203 247 306
#     4   9  18  33  52  73 102 142 179 209 251 311
#     4   9  18  34  54  74 100 135 173 218 271 318
#     4   8  14  28  50  71  90 118 162 215 263 297
#     4  11  21  29  44  72 100 127 164 210 253 297
#
# _framework density 17.307531999999998
#
# number of rings (size 3 to 8) (size 9 to 14) (size 15 to 20)
#    0.000    2.375    1.250    4.125    0.000    2.750 
#    0.000    1.875    0.000    2.625    0.000    0.000 
#    0.000    2.500    0.000    0.000    0.000    0.000 
#
# Total GULP energy -396569.503291 kJ/mol
# GULP energy per Si atom -12392.796978 kJ/mol
# Density = 1.726814 g / cm^3
# Si number density = 17.307532 Si / 1000 Ang^3
#
#
#
# Elastic Constant Matrix: (Units=GPa)
#
#
# Indices 1 2 3 4 5 6 
#
# 1 86.9679 38.0300 49.2488 0.0000 0.0000 0.0000
# 2 38.0300 76.8671 24.9645 0.0000 0.0000 0.0000
# 3 49.2488 24.9645 88.3665 0.0000 0.0000 0.0000
# 4 0.0000 0.0000 0.0000 15.5193 0.0000 0.0000
# 5 0.0000 0.0000 0.0000 0.0000 28.2104 0.0000
# 6 0.0000 0.0000 0.0000 0.0000 0.0000 19.5133
#
#
#
# Elastic Compliance Matrix: (Units=1/GPa)
#
#
# Indices 1 2 3 4 5 6 
#
# 1 0.019535 -0.006748 -0.008981 0.000000 0.000000 0.000000
# 2 -0.006748 0.016655 -0.000944 0.000000 0.000000 0.000000
# 3 -0.008981 -0.000944 0.016589 0.000000 0.000000 0.000000
# 4 0.000000 0.000000 0.000000 0.064436 0.000000 0.000000
# 5 0.000000 0.000000 0.000000 0.000000 0.035448 0.000000
# 6 0.000000 0.000000 0.000000 0.000000 0.000000 0.051247
#
#
# Mechanical properties :
#
#
# Convention : Reuss Voigt Hill
#
# Bulk Modulus (GPa) = 51.46225 52.96534 52.21380
# Shear Modulus (GPa) = 20.51417 21.97914 21.24665
#
# Velocity S-wave (km/s) = 3.44652 3.56746 3.50751
# Velocity P-wave (km/s) = 6.75548 6.90202 6.82914
#
# Compressibility (1/GPa) = 0.01943172
#
# Stress axis : x y z
#
# Youngs Moduli (GPa) = 51.18943 60.04271 60.28232
#
# Poissons Ratio (x) = 0.40518 0.54140
# Poissons Ratio (y) = 0.34544 0.05692
# Poissons Ratio (z) = 0.45973 0.05669
#
# Static dielectric constant tensor:
#      x y z
#    x 3.325360 0.000000 0.000000 
#    y 0.000000 3.306830 0.000000 
#    z 0.000000 0.000000 3.168130 
# 
# 
# High freq. dielectric constant tensor:
#      x y z
#    x 1.654050 0.000000 0.000000 
#    y 0.000000 1.641250 0.000000 
#    z 0.000000 0.000000 1.665210 
# 
# From -- ./inp_files/3291.got.cif
#   From: 2010.03.12/outbox.cif.g09.slc.cpg/sg25_2_cif.got.tgz:3291.got - 2010.04.14 03:30:10.
