data_PCOD8166547
_publ_section_title
;
Structure prediction by ZEFSAII (Michael W. Deem and Ramdas Pophale) SiO2 
 PCOD8166547
Probable space group: P M M 2
;
_chemical_formula_sum "Si O2"
_cell_formula_units_Z 24
_cell_length_a 9.045608
_cell_length_b 12.692695
_cell_length_c 11.743176
_cell_angle_alpha 90.000000
_cell_angle_beta 90.000000
_cell_angle_gamma 90.000000
_cell_volume 1348.270950
_symmetry_space_group_name_H-M "P M M 2"
_symmetry_group_IT_number 25
_symmetry_cell_setting 'orthorhombic'
loop_
_space_group_symop_operation_xyz
x,y,z
-x,-y,z
-x,y,z
x,-y,z
loop_
_atom_site_type_symbol
_atom_site_label
_atom_site_fract_x
_atom_site_fract_y
_atom_site_fract_z
Si Si1 0.325008 0.384905 0.897670
Si Si2 0.824740 0.000000 0.903295
Si Si3 0.824746 0.200370 0.506042
Si Si4 0.824550 0.000000 0.646237
Si Si5 0.670912 0.622530 0.642672
Si Si6 0.328141 0.878157 0.287555
Si Si7 0.672646 0.814616 0.034488
O O1 0.500000 0.393120 0.892461
O O2 0.260132 0.500000 0.931687
O O3 0.271121 0.353242 0.770819
O O4 0.274776 0.300194 0.991396
O O5 0.763668 0.000000 0.774463
O O6 0.766912 0.102573 0.965282
O O7 0.000000 0.000000 0.906181
O O8 0.764162 0.103687 0.582478
O O9 0.766488 0.310104 0.554946
O O10 0.766565 0.185627 0.378535
O O11 0.000000 0.203224 0.503483
O O12 0.000000 0.000000 0.644650
O O13 0.500000 0.654362 0.629320
O O14 0.694219 0.500000 0.613459
O O15 0.500000 0.868796 0.318502
O O16 0.292746 0.823639 0.167410
O O17 0.278670 0.000000 0.282716
O O18 0.500000 0.835460 0.010033
#
# Coordination Sequence:
#
# PCOD8166547 Si02
#       7
#     4   2   4   2   4   4   4
#     4   8  15  30  55  83 107 134 170 214 261 311
#     4  11  21  32  49  74 106 135 166 211 266 321
#     4  11  21  35  54  75 104 139 181 219 259 313
#     4   9  20  34  47  72 106 135 164 213 270 317
#     4   9  18  34  55  80 109 138 172 215 264 314
#     4  10  20  35  52  73 105 141 177 218 261 307
#     4  10  19  34  54  77 106 136 174 217 257 308
#
# _framework density 17.800578000000002
#
# number of rings (size 3 to 8) (size 9 to 14) (size 15 to 20)
#    0.000    2.333    1.667    2.750    0.000    1.000 
#    0.000    3.333    0.000    4.500    0.000    0.000 
#    0.000    0.000    0.000    0.000    0.000    0.000 
#
# Total GULP energy -297608.839297 kJ/mol
# GULP energy per Si atom -12400.368304 kJ/mol
# Density = 1.776006 g / cm^3
# Si number density = 17.800578 Si / 1000 Ang^3
#
#
#
# Elastic Constant Matrix: (Units=GPa)
#
#
# Indices 1 2 3 4 5 6 
#
# 1 49.1473 40.3365 52.9856 0.0000 0.0000 0.0000
# 2 40.3365 126.3391 84.3667 0.0000 0.0000 0.0000
# 3 52.9856 84.3667 143.1326 0.0000 0.0000 0.0000
# 4 0.0000 0.0000 0.0000 37.2278 0.0000 0.0000
# 5 0.0000 0.0000 0.0000 0.0000 14.0194 0.0000
# 6 0.0000 0.0000 0.0000 0.0000 0.0000 17.9239
#
#
#
# Elastic Compliance Matrix: (Units=1/GPa)
#
#
# Indices 1 2 3 4 5 6 
#
# 1 0.035149 -0.004177 -0.010549 0.000000 0.000000 0.000000
# 2 -0.004177 0.013549 -0.006440 0.000000 0.000000 0.000000
# 3 -0.010549 -0.006440 0.014688 0.000000 0.000000 0.000000
# 4 0.000000 0.000000 0.000000 0.026862 0.000000 0.000000
# 5 0.000000 0.000000 0.000000 0.000000 0.071330 0.000000
# 6 0.000000 0.000000 0.000000 0.000000 0.000000 0.055792
#
#
# Mechanical properties :
#
#
# Convention : Reuss Voigt Hill
#
# Bulk Modulus (GPa) = 47.50058 74.88851 61.19455
# Shear Modulus (GPa) = 18.74629 23.22956 20.98793
#
# Velocity S-wave (km/s) = 3.24871 3.61638 3.43747
# Velocity P-wave (km/s) = 6.38866 7.72009 7.08572
#
# Compressibility (1/GPa) = 0.02105237
#
# Stress axis : x y z
#
# Youngs Moduli (GPa) = 28.45068 73.80353 68.08448
#
# Poissons Ratio (x) = 0.30831 0.71823
# Poissons Ratio (y) = 0.11885 0.43847
# Poissons Ratio (z) = 0.30013 0.47530
#
# Static dielectric constant tensor:
#      x y z
#    x 3.015160 0.000000 0.000000 
#    y 0.000000 3.423170 0.000000 
#    z 0.000000 0.000000 3.356850 
# 
# 
# High freq. dielectric constant tensor:
#      x y z
#    x 1.663870 0.000000 0.000000 
#    y 0.000000 1.692710 0.000000 
#    z 0.000000 0.000000 1.691610 
# 
# From -- ./inp_files/3971.got.cif
#   From: 2010.03.12/outbox.cif.g09.slc.cpg/sg25_2_cif.got.tgz:3971.got - 2010.04.14 03:30:10.
