data_PCOD8166141
_publ_section_title
;
Structure prediction by ZEFSAII (Michael W. Deem and Ramdas Pophale) SiO2 
 PCOD8166141
Probable space group: I 21 21 21
;
_chemical_formula_sum "Si O2"
_cell_formula_units_Z 40
_cell_length_a 9.240664
_cell_length_b 13.461337
_cell_length_c 14.185177
_cell_angle_alpha 90.000000
_cell_angle_beta 90.000000
_cell_angle_gamma 90.000000
_cell_volume 1764.518171
_symmetry_space_group_name_H-M "I 21 21 21"
_symmetry_group_IT_number 24
_symmetry_cell_setting 'orthorhombic'
loop_
_space_group_symop_operation_xyz
x,y,z
-x,1/2-y,z
x,-y,1/2-z
1/2-x,y,-z
1/2+x,1/2+y,1/2+z
1/2-x,-y,1/2+z
1/2+x,1/2-y,-z
-x,1/2+y,1/2-z
loop_
_atom_site_type_symbol
_atom_site_label
_atom_site_fract_x
_atom_site_fract_y
_atom_site_fract_z
Si Si1 0.453025 0.858546 0.258132
Si Si2 0.368877 0.884669 0.764448
Si Si3 0.548888 0.992625 0.105118
Si Si4 0.750000 0.871629 0.500000
Si Si5 0.500000 0.250000 0.895132
Si Si6 0.915273 0.655134 0.029833
O O1 0.500000 0.750000 0.289657
O O2 0.296603 0.857590 0.210919
O O3 0.569814 0.905460 0.183893
O O4 0.438455 0.926387 0.351237
O O5 0.422031 0.829935 0.670877
O O6 0.449466 0.849477 0.858884
O O7 0.394573 0.000000 0.750000
O O8 0.479943 0.946892 0.011533
O O9 0.694894 0.053922 0.082523
O O10 0.620155 0.803416 0.539578
O O11 0.000000 0.750000 0.987419
O O12 0.750000 0.665904 0.000000
#
# Coordination Sequence:
#
# PCOD8166141 Si02
#       6
#     8   8   8   4   4   8
#     4  11  23  45  78 107 149 192 244 309 379 454
#     4  12  24  48  73 106 146 196 244 309 380 448
#     4  11  25  46  70 112 144 196 251 306 381 451
#     4  12  30  50  78 110 148 202 254 328 380 478
#     4  12  30  52  76 112 154 200 256 324 392 456
#     4  12  25  45  74 107 151 197 251 308 373 460
#
# _framework density 22.669077000000001
#
# number of rings (size 3 to 8) (size 9 to 14) (size 15 to 20)
#    0.000    0.400    5.000    3.000    5.600    0.000 
#   16.200    0.000    0.000    0.000    0.000    0.000 
#    0.000    0.000    0.000    0.000    0.000    0.000 
#
# Total GULP energy -247966.164029 kJ/mol
# GULP energy per Si atom -12398.308201 kJ/mol
# Density = 2.261748 g / cm^3
# Si number density = 22.669077 Si / 1000 Ang^3
#
#
#
# Elastic Constant Matrix: (Units=GPa)
#
#
# Indices 1 2 3 4 5 6 
#
# 1 104.9764 59.9901 42.6237 0.0000 0.0000 0.0000
# 2 59.9901 169.3158 58.6965 0.0000 0.0000 0.0000
# 3 42.6237 58.6965 121.0742 0.0000 0.0000 0.0000
# 4 0.0000 0.0000 0.0000 -0.2169 0.0000 0.0000
# 5 0.0000 0.0000 0.0000 0.0000 34.0700 0.0000
# 6 0.0000 0.0000 0.0000 0.0000 0.0000 45.8800
#
#
#
# Elastic Compliance Matrix: (Units=1/GPa)
#
#
# Indices 1 2 3 4 5 6 
#
# 1 0.012660 -0.003534 -0.002743 0.000000 0.000000 0.000000
# 2 -0.003534 0.008086 -0.002676 0.000000 0.000000 0.000000
# 3 -0.002743 -0.002676 0.010522 0.000000 0.000000 0.000000
# 4 0.000000 0.000000 0.000000 -4.609988 0.000000 0.000000
# 5 0.000000 0.000000 0.000000 0.000000 0.029351 0.000000
# 6 0.000000 0.000000 0.000000 0.000000 0.000000 0.021796
#
#
# Mechanical properties :
#
#
# Convention : Reuss Voigt Hill
#
# Bulk Modulus (GPa) = 74.84471 79.77632 77.31051
# Shear Modulus (GPa) = -1.10983 31.55035 15.22026
#
# Velocity S-wave (km/s) = -0.70046 3.73470 2.59397
# Velocity P-wave (km/s) = 5.69506 7.33931 6.56883
#
# Compressibility (1/GPa) = 0.01336100
#
# Stress axis : x y z
#
# Youngs Moduli (GPa) = 78.99152 123.67043 95.03542
#
# Poissons Ratio (x) = 0.43710 0.26071
# Poissons Ratio (y) = 0.27919 0.25430
# Poissons Ratio (z) = 0.21670 0.33092
#
# Static dielectric constant tensor:
#      x y z
#    x 3.952370 0.000000 0.000000 
#    y 0.000000 4.274520 0.000000 
#    z 0.000000 0.000000 4.241110 
# 
# 
# High freq. dielectric constant tensor:
#      x y z
#    x 1.873260 0.000000 0.000000 
#    y 0.000000 1.916520 0.000000 
#    z 0.000000 0.000000 1.907990 
# 
# From -- ./inp_files/12351.got.cif
#   From: 2010.03.12/outbox.cif.g09.slc.cpg/sg24_7_cif.got.tgz:12351.got - 2010.04.14 03:06:53.
