data_PCOD8166767
_publ_section_title
;
Structure prediction by ZEFSAII (Michael W. Deem and Ramdas Pophale) SiO2 
 PCOD8166767
Probable space group: P M M 2
;
_chemical_formula_sum "Si O2"
_cell_formula_units_Z 32
_cell_length_a 9.542087
_cell_length_b 9.025227
_cell_length_c 20.651042
_cell_angle_alpha 90.000000
_cell_angle_beta 90.000000
_cell_angle_gamma 90.000000
_cell_volume 1778.457437
_symmetry_space_group_name_H-M "P M M 2"
_symmetry_group_IT_number 25
_symmetry_cell_setting 'orthorhombic'
loop_
_space_group_symop_operation_xyz
x,y,z
-x,-y,z
-x,y,z
x,-y,z
loop_
_atom_site_type_symbol
_atom_site_label
_atom_site_fract_x
_atom_site_fract_y
_atom_site_fract_z
Si Si1 0.341919 0.676421 0.292620
Si Si2 0.333346 0.167210 0.799022
Si Si3 0.842350 0.323593 0.409495
Si Si4 0.162571 0.172047 0.038378
Si Si5 0.336608 0.673227 0.927798
Si Si6 0.842969 0.323972 0.552752
Si Si7 0.161350 0.328685 0.171103
Si Si8 0.337782 0.673766 0.670984
O O1 0.500000 0.739128 0.290324
O O2 0.342616 0.500000 0.295455
O O3 0.264520 0.741590 0.356270
O O4 0.258186 0.729559 0.229331
O O5 0.500000 0.172484 0.798060
O O6 0.277989 0.252469 0.862262
O O7 0.275787 0.246450 0.734531
O O8 0.276254 0.000000 0.801188
O O9 0.841242 0.500000 0.406794
O O10 0.795059 0.269435 0.481239
O O11 0.000000 0.267154 0.394610
O O12 0.200472 0.230525 0.109421
O O13 0.000000 0.200545 0.022848
O O14 0.201525 0.000000 0.034347
O O15 0.254202 0.261798 0.987956
O O16 0.500000 0.708604 0.937764
O O17 0.307809 0.500000 0.922606
O O18 0.838361 0.500000 0.554131
O O19 0.740836 0.260743 0.608039
O O20 0.000000 0.267575 0.567085
O O21 0.191965 0.500000 0.154472
O O22 0.000000 0.307107 0.191870
O O23 0.500000 0.710837 0.660990
O O24 0.311863 0.500000 0.680122
#
# Coordination Sequence:
#
# PCOD8166767 Si02
#       8
#     4   4   4   4   4   4   4   4
#     4   9  16  24  37  61  91 119 150 192 236 275
#     4   9  17  30  48  69  94 125 159 193 232 281
#     4   8  13  22  36  55  83 119 153 184 226 281
#     4  10  21  36  53  74 100 129 162 200 241 287
#     4  10  20  34  54  78 101 127 161 200 241 287
#     4   8  14  24  38  58  86 119 152 186 228 279
#     4   9  17  30  47  65  89 124 160 191 230 283
#     4   9  16  26  42  64  88 115 151 194 234 273
#
# _framework density 17.993123000000001
#
# number of rings (size 3 to 8) (size 9 to 14) (size 15 to 20)
#    0.000    3.000    0.000    2.250    0.000    5.500 
#    0.000    4.375    0.000    2.625    0.000    0.875 
#    0.000    1.000    0.000    0.000    0.000    0.000 
#
# Total GULP energy -396720.769315 kJ/mol
# GULP energy per Si atom -12397.524041 kJ/mol
# Density = 1.795217 g / cm^3
# Si number density = 17.993123 Si / 1000 Ang^3
#
#
#
# Elastic Constant Matrix: (Units=GPa)
#
#
# Indices 1 2 3 4 5 6 
#
# 1 85.2586 30.8523 82.2924 0.0000 0.0000 0.0000
# 2 30.8523 50.4027 44.3702 0.0000 0.0000 0.0000
# 3 82.2924 44.3702 166.1305 0.0000 0.0000 0.0000
# 4 0.0000 0.0000 0.0000 1.7623 0.0000 0.0000
# 5 0.0000 0.0000 0.0000 0.0000 33.6914 0.0000
# 6 0.0000 0.0000 0.0000 0.0000 0.0000 12.9906
#
#
#
# Elastic Compliance Matrix: (Units=1/GPa)
#
#
# Indices 1 2 3 4 5 6 
#
# 1 0.023556 -0.005422 -0.010220 0.000000 0.000000 0.000000
# 2 -0.005422 0.027187 -0.004575 0.000000 0.000000 0.000000
# 3 -0.010220 -0.004575 0.012304 0.000000 0.000000 0.000000
# 4 0.000000 0.000000 0.000000 0.567425 0.000000 0.000000
# 5 0.000000 0.000000 0.000000 0.000000 0.029681 0.000000
# 6 0.000000 0.000000 0.000000 0.000000 0.000000 0.076979
#
#
# Mechanical properties :
#
#
# Convention : Reuss Voigt Hill
#
# Bulk Modulus (GPa) = 44.22513 68.53573 56.38043
# Shear Modulus (GPa) = 6.36859 19.30733 12.83796
#
# Velocity S-wave (km/s) = 1.88339 3.27928 2.67403
# Velocity P-wave (km/s) = 5.41865 7.24644 6.39815
#
# Compressibility (1/GPa) = 0.02261158
#
# Stress axis : x y z
#
# Youngs Moduli (GPa) = 42.45283 36.78263 81.27513
#
# Poissons Ratio (x) = 0.19943 0.83064
# Poissons Ratio (y) = 0.23017 0.37187
# Poissons Ratio (z) = 0.43387 0.16829
#
# Static dielectric constant tensor:
#      x y z
#    x 3.307530 0.000000 0.000000 
#    y 0.000000 2.982420 0.000000 
#    z 0.000000 0.000000 3.635970 
# 
# 
# High freq. dielectric constant tensor:
#      x y z
#    x 1.679380 0.000000 0.000000 
#    y 0.000000 1.656330 0.000000 
#    z 0.000000 0.000000 1.713610 
# 
# From -- ./inp_files/6536.got.cif
#   From: 2010.03.12/outbox.cif.g09.slc.cpg/sg25_4_cif.got.tgz:6536.got - 2010.04.14 03:30:10.
