data_PCOD8166534
_publ_section_title
;
Structure prediction by ZEFSAII (Michael W. Deem and Ramdas Pophale) SiO2 
 PCOD8166534
Probable space group: P M M 2
;
_chemical_formula_sum "Si O2"
_cell_formula_units_Z 24
_cell_length_a 8.868209
_cell_length_b 11.804938
_cell_length_c 12.591627
_cell_angle_alpha 90.000000
_cell_angle_beta 90.000000
_cell_angle_gamma 90.000000
_cell_volume 1318.200525
_symmetry_space_group_name_H-M "P M M 2"
_symmetry_group_IT_number 25
_symmetry_cell_setting 'orthorhombic'
loop_
_space_group_symop_operation_xyz
x,y,z
-x,-y,z
-x,y,z
x,-y,z
loop_
_atom_site_type_symbol
_atom_site_label
_atom_site_fract_x
_atom_site_fract_y
_atom_site_fract_z
Si Si1 0.823612 0.126612 0.621670
Si Si2 0.679381 0.873784 0.239145
Si Si3 0.678060 0.725768 0.042052
Si Si4 0.677579 0.500000 0.347449
Si Si5 0.178797 0.500000 0.115653
Si Si6 0.322337 0.737453 0.440414
Si Si7 0.825420 0.869802 0.865936
O O1 0.745145 0.222204 0.551373
O O2 0.786968 0.154263 0.743511
O O3 0.000000 0.131554 0.600667
O O4 0.763765 0.000000 0.593307
O O5 0.500000 0.876355 0.240305
O O6 0.736849 0.803741 0.138354
O O7 0.741687 0.815652 0.345789
O O8 0.746710 0.000000 0.232326
O O9 0.500000 0.704864 0.047823
O O10 0.763025 0.607259 0.049839
O O11 0.719403 0.787192 0.932727
O O12 0.500000 0.500000 0.321970
O O13 0.759869 0.500000 0.235102
O O14 0.725801 0.391484 0.416613
O O15 0.000000 0.500000 0.118976
O O16 0.500000 0.748501 0.448066
O O17 0.000000 0.843713 0.889905
O O18 0.788219 0.000000 0.894390
#
# Coordination Sequence:
#
# PCOD8166534 Si02
#       7
#     4   4   4   2   2   4   4
#     4   9  19  36  56  79 112 150 184 224 275 328
#     4   9  17  29  49  79 110 137 169 218 278 330
#     4  11  21  36  57  81 112 146 185 230 279 333
#     4  10  20  38  57  78 109 148 185 227 281 327
#     4  12  24  38  57  80 109 148 191 229 273 333
#     4  10  19  33  55  79 108 143 184 230 276 327
#     4   9  19  37  58  81 113 150 186 229 282 334
#
# _framework density 18.206638999999999
#
# number of rings (size 3 to 8) (size 9 to 14) (size 15 to 20)
#    0.000    2.167    1.667    3.250    0.000    3.333 
#    0.000    2.500    0.000    7.000    0.000    0.000 
#    0.000    0.000    0.000    0.000    0.000    0.000 
#
# Total GULP energy -297637.741790 kJ/mol
# GULP energy per Si atom -12401.572575 kJ/mol
# Density = 1.816520 g / cm^3
# Si number density = 18.206639 Si / 1000 Ang^3
#
#
#
# Elastic Constant Matrix: (Units=GPa)
#
#
# Indices 1 2 3 4 5 6 
#
# 1 51.1404 42.2756 34.9331 0.0000 0.0000 0.0000
# 2 42.2756 153.7938 70.2338 0.0000 0.0000 0.0000
# 3 34.9331 70.2338 107.4748 0.0000 0.0000 0.0000
# 4 0.0000 0.0000 0.0000 29.7099 0.0000 0.0000
# 5 0.0000 0.0000 0.0000 0.0000 31.4777 0.0000
# 6 0.0000 0.0000 0.0000 0.0000 0.0000 24.1365
#
#
#
# Elastic Compliance Matrix: (Units=1/GPa)
#
#
# Indices 1 2 3 4 5 6 
#
# 1 0.027563 -0.004968 -0.005712 0.000000 0.000000 0.000000
# 2 -0.004968 0.010164 -0.005027 0.000000 0.000000 0.000000
# 3 -0.005712 -0.005027 0.014446 0.000000 0.000000 0.000000
# 4 0.000000 0.000000 0.000000 0.033659 0.000000 0.000000
# 5 0.000000 0.000000 0.000000 0.000000 0.031769 0.000000
# 6 0.000000 0.000000 0.000000 0.000000 0.000000 0.041431
#
#
# Mechanical properties :
#
#
# Convention : Reuss Voigt Hill
#
# Bulk Modulus (GPa) = 48.17413 67.47712 57.82563
# Shear Modulus (GPa) = 25.33373 28.06256 26.69815
#
# Velocity S-wave (km/s) = 3.73427 3.93025 3.83351
# Velocity P-wave (km/s) = 6.71641 7.59856 7.17106
#
# Compressibility (1/GPa) = 0.02075803
#
# Stress axis : x y z
#
# Youngs Moduli (GPa) = 36.28072 98.39093 69.22151
#
# Poissons Ratio (x) = 0.48880 0.39542
# Poissons Ratio (y) = 0.18024 0.34798
# Poissons Ratio (z) = 0.20725 0.49461
#
# Static dielectric constant tensor:
#      x y z
#    x 3.091250 0.000000 0.000000 
#    y 0.000000 3.573660 0.000000 
#    z 0.000000 0.000000 3.359360 
# 
# 
# High freq. dielectric constant tensor:
#      x y z
#    x 1.685780 0.000000 0.000000 
#    y 0.000000 1.712780 0.000000 
#    z 0.000000 0.000000 1.705790 
# 
# From -- ./inp_files/3938.got.cif
#   From: 2010.03.12/outbox.cif.g09.slc.cpg/sg25_2_cif.got.tgz:3938.got - 2010.04.14 03:30:10.
