data_PCOD8166775
_publ_section_title
;
Structure prediction by ZEFSAII (Michael W. Deem and Ramdas Pophale) SiO2 
 PCOD8166775
Probable space group: P M M 2
;
_chemical_formula_sum "Si O2"
_cell_formula_units_Z 32
_cell_length_a 9.180031
_cell_length_b 9.102814
_cell_length_c 20.585295
_cell_angle_alpha 90.000000
_cell_angle_beta 90.000000
_cell_angle_gamma 90.000000
_cell_volume 1720.191953
_symmetry_space_group_name_H-M "P M M 2"
_symmetry_group_IT_number 25
_symmetry_cell_setting 'orthorhombic'
loop_
_space_group_symop_operation_xyz
x,y,z
-x,-y,z
-x,y,z
x,-y,z
loop_
_atom_site_type_symbol
_atom_site_label
_atom_site_fract_x
_atom_site_fract_y
_atom_site_fract_z
Si Si1 0.330863 0.331711 0.914430
Si Si2 0.329532 0.828406 0.278591
Si Si3 0.171709 0.329298 0.161356
Si Si4 0.673059 0.836891 0.530122
Si Si5 0.663990 0.825676 0.673943
Si Si6 0.669557 0.171561 0.045425
Si Si7 0.673137 0.335944 0.407384
Si Si8 0.169800 0.669474 0.786243
O O1 0.500000 0.316683 0.897975
O O2 0.288962 0.500000 0.930942
O O3 0.244510 0.272617 0.851985
O O4 0.286486 0.229831 0.974571
O O5 0.500000 0.798736 0.266941
O O6 0.240295 0.749101 0.223012
O O7 0.276224 0.763548 0.347202
O O8 0.293789 0.000000 0.277581
O O9 0.214046 0.500000 0.162922
O O10 0.234397 0.258371 0.096540
O O11 0.000000 0.305001 0.162525
O O12 0.500000 0.845789 0.524973
O O13 0.714883 0.776313 0.601626
O O14 0.737166 0.731259 0.474224
O O15 0.738034 0.000000 0.519457
O O16 0.500000 0.769067 0.688121
O O17 0.774676 0.758679 0.724843
O O18 0.668448 0.000000 0.678545
O O19 0.500000 0.202337 0.059912
O O20 0.705748 0.000000 0.049747
O O21 0.500000 0.339545 0.410888
O O22 0.736046 0.500000 0.398716
O O23 0.209439 0.500000 0.775157
O O24 0.000000 0.696705 0.793697
#
# Coordination Sequence:
#
# PCOD8166775 Si02
#       8
#     4   4   4   4   4   4   4   4
#     4   9  18  34  55  77 103 137 174 211 253 302
#     4  10  20  34  54  79 106 138 175 214 257 306
#     4  11  24  39  55  77 106 140 176 214 256 302
#     4   8  14  26  44  68  99 131 164 208 261 311
#     4   9  18  32  51  75 102 134 173 216 261 309
#     4  10  21  37  58  84 110 135 167 209 256 306
#     4   9  16  26  44  73 105 134 167 210 259 308
#     4  10  21  35  51  74 105 139 174 213 257 306
#
# _framework density 18.602575000000002
#
# number of rings (size 3 to 8) (size 9 to 14) (size 15 to 20)
#    0.000    2.500    0.000    3.000    0.000    8.000 
#    0.000    3.750    0.000    0.750    0.000    3.500 
#    0.000    0.000    0.000    0.000    0.000    0.000 
#
# Total GULP energy -396820.013483 kJ/mol
# GULP energy per Si atom -12400.625421 kJ/mol
# Density = 1.856023 g / cm^3
# Si number density = 18.602575 Si / 1000 Ang^3
#
#
#
# Elastic Constant Matrix: (Units=GPa)
#
#
# Indices 1 2 3 4 5 6 
#
# 1 51.4935 44.9402 59.2285 0.0000 0.0000 0.0000
# 2 44.9402 113.7584 81.7973 0.0000 0.0000 0.0000
# 3 59.2285 81.7973 170.6049 0.0000 0.0000 0.0000
# 4 0.0000 0.0000 0.0000 39.3100 0.0000 0.0000
# 5 0.0000 0.0000 0.0000 0.0000 -5.2626 0.0000
# 6 0.0000 0.0000 0.0000 0.0000 0.0000 22.4681
#
#
#
# Elastic Compliance Matrix: (Units=1/GPa)
#
#
# Indices 1 2 3 4 5 6 
#
# 1 0.036684 -0.008141 -0.008832 0.000000 0.000000 0.000000
# 2 -0.008141 0.015222 -0.004472 0.000000 0.000000 0.000000
# 3 -0.008832 -0.004472 0.011072 0.000000 0.000000 0.000000
# 4 0.000000 0.000000 0.000000 0.025439 0.000000 0.000000
# 5 0.000000 0.000000 0.000000 0.000000 -0.190022 0.000000
# 6 0.000000 0.000000 0.000000 0.000000 0.000000 0.044508
#
#
# Mechanical properties :
#
#
# Convention : Reuss Voigt Hill
#
# Bulk Modulus (GPa) = 49.78274 78.64320 64.21297
# Shear Modulus (GPa) = -665.73981 21.29583 -322.22199
#
# Velocity S-wave (km/s) = -18.93811 3.38713 -13.17534
# Velocity P-wave (km/s) = 21.24578 7.59369 14.03067
#
# Compressibility (1/GPa) = 0.02008728
#
# Stress axis : x y z
#
# Youngs Moduli (GPa) = 27.25993 65.69284 90.31914
#
# Poissons Ratio (x) = 0.53482 0.79771
# Poissons Ratio (y) = 0.22193 0.40391
# Poissons Ratio (z) = 0.24076 0.29378
#
# Static dielectric constant tensor:
#      x y z
#    x 3.113490 0.000000 0.000000 
#    y 0.000000 3.539170 0.000000 
#    z 0.000000 0.000000 3.653640 
# 
# 
# High freq. dielectric constant tensor:
#      x y z
#    x 1.686860 0.000000 0.000000 
#    y 0.000000 1.725600 0.000000 
#    z 0.000000 0.000000 1.739420 
# 
# From -- ./inp_files/6583.got.cif
#   From: 2010.03.12/outbox.cif.g09.slc.cpg/sg25_4_cif.got.tgz:6583.got - 2010.04.14 03:30:10.
