data_PCOD8166787
_publ_section_title
;
Structure prediction by ZEFSAII (Michael W. Deem and Ramdas Pophale) SiO2 
 PCOD8166787
Probable space group: P M M 2
;
_chemical_formula_sum "Si O2"
_cell_formula_units_Z 28
_cell_length_a 8.857956
_cell_length_b 9.050021
_cell_length_c 18.012555
_cell_angle_alpha 90.000000
_cell_angle_beta 90.000000
_cell_angle_gamma 90.000000
_cell_volume 1443.970848
_symmetry_space_group_name_H-M "P M M 2"
_symmetry_group_IT_number 25
_symmetry_cell_setting 'orthorhombic'
loop_
_space_group_symop_operation_xyz
x,y,z
-x,-y,z
-x,y,z
x,-y,z
loop_
_atom_site_type_symbol
_atom_site_label
_atom_site_fract_x
_atom_site_fract_y
_atom_site_fract_z
Si Si1 0.677687 0.169007 0.139730
Si Si2 0.824900 0.673218 0.276649
Si Si3 0.820118 0.333595 0.568471
Si Si4 0.821874 0.669387 0.002465
Si Si5 0.323537 0.170644 0.867734
Si Si6 0.820284 0.833670 0.424615
Si Si7 0.826881 0.828568 0.714813
O O1 0.500000 0.181879 0.131025
O O2 0.729853 0.265841 0.208662
O O3 0.728956 0.000000 0.151649
O O4 0.750188 0.228987 0.064977
O O5 0.797989 0.500000 0.283842
O O6 0.763796 0.747922 0.351750
O O7 0.000000 0.710745 0.262762
O O8 0.758855 0.500000 0.564630
O O9 0.754239 0.245637 0.497749
O O10 0.762221 0.260056 0.644397
O O11 0.000000 0.328961 0.566376
O O12 0.771121 0.500000 0.013955
O O13 0.767171 0.724797 0.922832
O O14 0.000000 0.684790 0.007123
O O15 0.500000 0.199502 0.877523
O O16 0.274782 0.214753 0.784883
O O17 0.282063 0.000000 0.883849
O O18 0.000000 0.832259 0.427319
O O19 0.757272 0.000000 0.421787
O O20 0.000000 0.785704 0.732337
O O21 0.813127 0.000000 0.694868
#
# Coordination Sequence:
#
# PCOD8166787 Si02
#       7
#     4   4   4   4   4   4   4
#     4  11  24  40  58  81 109 142 180 219 262 316
#     4  10  20  34  54  81 111 142 179 223 270 319
#     4   9  16  26  43  70 103 136 173 221 272 318
#     4  11  24  40  59  84 111 139 175 219 266 316
#     4  10  21  37  57  81 109 142 180 220 265 319
#     4   9  16  27  46  73 105 140 177 219 269 321
#     4   9  17  30  49  73 102 137 176 218 266 319
#
# _framework density 19.390972000000001
#
# number of rings (size 3 to 8) (size 9 to 14) (size 15 to 20)
#    0.000    2.143    0.000    3.429    0.000   11.429 
#    0.000    1.429    0.000    0.857    0.000    2.000 
#    0.000    0.000    0.000    0.000    0.000    0.000 
#
# Total GULP energy -347294.354327 kJ/mol
# GULP energy per Si atom -12403.369797 kJ/mol
# Density = 1.934684 g / cm^3
# Si number density = 19.390972 Si / 1000 Ang^3
#
#
#
# Elastic Constant Matrix: (Units=GPa)
#
#
# Indices 1 2 3 4 5 6 
#
# 1 34.6230 35.9094 23.4781 0.0000 0.0000 0.0000
# 2 35.9094 111.3233 63.5563 0.0000 0.0000 0.0000
# 3 23.4781 63.5563 133.0908 0.0000 0.0000 0.0000
# 4 0.0000 0.0000 0.0000 30.4581 0.0000 0.0000
# 5 0.0000 0.0000 0.0000 0.0000 -14.0871 0.0000
# 6 0.0000 0.0000 0.0000 0.0000 0.0000 18.4277
#
#
#
# Elastic Compliance Matrix: (Units=1/GPa)
#
#
# Indices 1 2 3 4 5 6 
#
# 1 0.043576 -0.013291 -0.001340 0.000000 0.000000 0.000000
# 2 -0.013291 0.016404 -0.005489 0.000000 0.000000 0.000000
# 3 -0.001340 -0.005489 0.010371 0.000000 0.000000 0.000000
# 4 0.000000 0.000000 0.000000 0.032832 0.000000 0.000000
# 5 0.000000 0.000000 0.000000 0.000000 -0.070987 0.000000
# 6 0.000000 0.000000 0.000000 0.000000 0.000000 0.054266
#
#
# Mechanical properties :
#
#
# Convention : Reuss Voigt Hill
#
# Bulk Modulus (GPa) = 33.21037 58.32496 45.76767
# Shear Modulus (GPa) = 36.56571 17.36595 26.96583
#
# Velocity S-wave (km/s) = 4.34718 2.99585 3.73317
# Velocity P-wave (km/s) = 6.50855 6.48926 6.49892
#
# Compressibility (1/GPa) = 0.03011107
#
# Stress axis : x y z
#
# Youngs Moduli (GPa) = 22.94824 60.96118 96.42082
#
# Poissons Ratio (x) = 0.81025 0.12920
# Poissons Ratio (y) = 0.30501 0.52924
# Poissons Ratio (z) = 0.03075 0.33461
#
# Static dielectric constant tensor:
#      x y z
#    x 3.204300 0.000000 0.000000 
#    y 0.000000 3.727120 0.000000 
#    z 0.000000 0.000000 3.711250 
# 
# 
# High freq. dielectric constant tensor:
#      x y z
#    x 1.719860 0.000000 0.000000 
#    y 0.000000 1.765360 0.000000 
#    z 0.000000 0.000000 1.772590 
# 
# From -- ./inp_files/6035.got.cif
#   From: 2010.03.12/outbox.cif.g09.slc.cpg/sg25_4_cif.got.tgz:6035.got - 2010.04.14 03:30:10.
