data_PCOD8166443
_publ_section_title
;
Structure prediction by ZEFSAII (Michael W. Deem and Ramdas Pophale) SiO2 
 PCOD8166443
Probable space group: P M M 2
;
_chemical_formula_sum "Si O2"
_cell_formula_units_Z 32
_cell_length_a 9.276420
_cell_length_b 14.191952
_cell_length_c 15.422564
_cell_angle_alpha 90.000000
_cell_angle_beta 90.000000
_cell_angle_gamma 90.000000
_cell_volume 2030.388376
_symmetry_space_group_name_H-M "P M M 2"
_symmetry_group_IT_number 25
_symmetry_cell_setting 'orthorhombic'
loop_
_space_group_symop_operation_xyz
x,y,z
-x,-y,z
-x,y,z
x,-y,z
loop_
_atom_site_type_symbol
_atom_site_label
_atom_site_fract_x
_atom_site_fract_y
_atom_site_fract_z
Si Si1 0.837120 0.611926 0.548990
Si Si2 0.668540 0.389906 0.380260
Si Si3 0.165215 0.895427 0.144903
Si Si4 0.166001 0.609112 0.047572
Si Si5 0.166377 0.706412 0.226817
Si Si6 0.667758 0.609793 0.716857
Si Si7 0.332190 0.895729 0.971696
Si Si8 0.331297 0.295280 0.892570
O O1 0.836841 0.500000 0.549383
O O2 0.749739 0.648242 0.465531
O O3 0.758037 0.648447 0.635356
O O4 0.000000 0.651647 0.545980
O O5 0.500000 0.369560 0.391483
O O6 0.699221 0.500000 0.365202
O O7 0.728504 0.333232 0.299056
O O8 0.192757 0.819162 0.220536
O O9 0.000000 0.890834 0.114990
O O10 0.205758 0.000000 0.179787
O O11 0.255459 0.868394 0.060649
O O12 0.198996 0.500000 0.061972
O O13 0.210981 0.661571 0.135332
O O14 0.000000 0.628340 0.025572
O O15 0.257634 0.645855 0.967790
O O16 0.000000 0.682476 0.249845
O O17 0.500000 0.627402 0.697085
O O18 0.697961 0.500000 0.734857
O O19 0.723206 0.668597 0.799533
O O20 0.500000 0.894883 0.992789
O O21 0.294100 0.816269 0.900345
O O22 0.283853 0.000000 0.938498
O O23 0.500000 0.314702 0.901410
#
# Coordination Sequence:
#
# PCOD8166443 Si02
#       8
#     4   4   4   4   4   4   4   4
#     4   9  17  30  48  68  89 115 147 185 229 272
#     4  10  20  32  47  68  93 121 153 188 225 268
#     4   9  17  30  48  67  87 115 152 192 232 271
#     4  10  20  31  42  60  90 125 157 188 222 261
#     4  10  19  31  46  65  91 122 154 188 227 270
#     4   9  17  29  44  63  89 119 150 185 224 267
#     4   9  17  29  45  65  89 117 151 193 235 270
#     4  10  19  30  45  65  90 122 157 189 225 270
#
# _framework density 15.760531
#
# number of rings (size 3 to 8) (size 9 to 14) (size 15 to 20)
#    0.000    2.500    1.250    1.500    0.000    5.000 
#    0.000    1.250    0.000    0.000    0.000    0.875 
#    0.000    3.000    0.000    0.000    0.000    0.000 
#
# Total GULP energy -396759.720861 kJ/mol
# GULP energy per Si atom -12398.741277 kJ/mol
# Density = 1.572466 g / cm^3
# Si number density = 15.760531 Si / 1000 Ang^3
#
#
#
# Elastic Constant Matrix: (Units=GPa)
#
#
# Indices 1 2 3 4 5 6 
#
# 1 66.1091 35.7675 56.7761 0.0000 0.0000 0.0000
# 2 35.7675 76.2510 50.7405 0.0000 0.0000 0.0000
# 3 56.7761 50.7405 118.2594 0.0000 0.0000 0.0000
# 4 0.0000 0.0000 0.0000 8.2314 0.0000 0.0000
# 5 0.0000 0.0000 0.0000 0.0000 18.7561 0.0000
# 6 0.0000 0.0000 0.0000 0.0000 0.0000 17.7734
#
#
#
# Elastic Compliance Matrix: (Units=1/GPa)
#
#
# Indices 1 2 3 4 5 6 
#
# 1 0.027425 -0.005742 -0.010703 0.000000 0.000000 0.000000
# 2 -0.005742 0.019558 -0.005635 0.000000 0.000000 0.000000
# 3 -0.010703 -0.005635 0.016012 0.000000 0.000000 0.000000
# 4 0.000000 0.000000 0.000000 0.121485 0.000000 0.000000
# 5 0.000000 0.000000 0.000000 0.000000 0.053316 0.000000
# 6 0.000000 0.000000 0.000000 0.000000 0.000000 0.056264
#
#
# Mechanical properties :
#
#
# Convention : Reuss Voigt Hill
#
# Bulk Modulus (GPa) = 53.09204 60.79862 56.94533
# Shear Modulus (GPa) = 14.51385 16.77454 15.64419
#
# Velocity S-wave (km/s) = 3.03792 3.26596 3.15400
# Velocity P-wave (km/s) = 6.78713 7.27202 7.03375
#
# Compressibility (1/GPa) = 0.01883522
#
# Stress axis : x y z
#
# Youngs Moduli (GPa) = 36.46255 51.13094 62.45298
#
# Poissons Ratio (x) = 0.29361 0.66844
# Poissons Ratio (y) = 0.20938 0.35189
# Poissons Ratio (z) = 0.39026 0.28810
#
# Static dielectric constant tensor:
#      x y z
#    x 3.076220 0.000000 0.000000 
#    y 0.000000 3.139920 0.000000 
#    z 0.000000 0.000000 2.957470 
# 
# 
# High freq. dielectric constant tensor:
#      x y z
#    x 1.610110 0.000000 0.000000 
#    y 0.000000 1.590080 0.000000 
#    z 0.000000 0.000000 1.590200 
# 
# From -- ./inp_files/5667.got.cif
#   From: 2010.03.12/outbox.cif.g09.slc.cpg/sg25_3_cif.got.tgz:5667.got - 2010.04.14 03:30:10.
