data_PCOD8166799
_publ_section_title
;
Structure prediction by ZEFSAII (Michael W. Deem and Ramdas Pophale) SiO2 
 PCOD8166799
Probable space group: P M M 2
;
_chemical_formula_sum "Si O2"
_cell_formula_units_Z 20
_cell_length_a 14.318737
_cell_length_b 9.028445
_cell_length_c 7.756269
_cell_angle_alpha 90.000000
_cell_angle_beta 90.000000
_cell_angle_gamma 90.000000
_cell_volume 1002.698884
_symmetry_space_group_name_H-M "P M M 2"
_symmetry_group_IT_number 25
_symmetry_cell_setting 'orthorhombic'
loop_
_space_group_symop_operation_xyz
x,y,z
-x,-y,z
-x,y,z
x,-y,z
loop_
_atom_site_type_symbol
_atom_site_label
_atom_site_fract_x
_atom_site_fract_y
_atom_site_fract_z
Si Si1 0.105389 0.327288 0.692320
Si Si2 0.391852 0.326677 0.500566
Si Si3 0.102983 0.831699 0.339654
Si Si4 0.296145 0.168888 0.190067
Si Si5 0.719134 0.827290 0.805861
O O1 0.127245 0.500000 0.706484
O O2 0.121791 0.279427 0.495772
O O3 0.176616 0.238637 0.812448
O O4 0.000000 0.290223 0.751842
O O5 0.500000 0.284796 0.507178
O O6 0.374263 0.500000 0.518440
O O7 0.351715 0.275252 0.317402
O O8 0.342414 0.248086 0.659815
O O9 0.184171 0.804082 0.200551
O O10 0.000000 0.800988 0.257865
O O11 0.107844 0.000000 0.410513
O O12 0.320295 0.000000 0.240239
O O13 0.326697 0.201957 0.993426
O O14 0.725472 0.000000 0.764325
#
# Coordination Sequence:
#
# PCOD8166799 Si02
#       5
#     4   4   4   4   4
#     4  10  20  34  55  86 123 163 204 244 291 348
#     4  11  25  44  65  88 117 155 198 249 308 364
#     4   9  17  32  56  85 118 157 198 240 290 349
#     4  10  22  39  62  92 122 156 199 246 297 354
#     4  11  23  39  62  92 124 159 200 246 297 356
#
# _framework density 19.946166999999999
#
# number of rings (size 3 to 8) (size 9 to 14) (size 15 to 20)
#    0.000    1.800    2.000    1.800    0.000    6.000 
#    0.000    6.000    0.000    2.400    0.000    0.000 
#    0.000    0.000    0.000    0.000    0.000    0.000 
#
# Total GULP energy -247994.560158 kJ/mol
# GULP energy per Si atom -12399.728008 kJ/mol
# Density = 1.990077 g / cm^3
# Si number density = 19.946167 Si / 1000 Ang^3
#
#
#
# Elastic Constant Matrix: (Units=GPa)
#
#
# Indices 1 2 3 4 5 6 
#
# 1 116.9165 72.1268 59.3616 0.0000 0.0000 0.0000
# 2 72.1268 103.3932 57.8164 0.0000 0.0000 0.0000
# 3 59.3616 57.8164 111.0692 0.0000 0.0000 0.0000
# 4 0.0000 0.0000 0.0000 5.0922 0.0000 0.0000
# 5 0.0000 0.0000 0.0000 0.0000 9.4410 0.0000
# 6 0.0000 0.0000 0.0000 0.0000 0.0000 29.4198
#
#
#
# Elastic Compliance Matrix: (Units=1/GPa)
#
#
# Indices 1 2 3 4 5 6 
#
# 1 0.016128 -0.009072 -0.003898 0.000000 0.000000 0.000000
# 2 -0.009072 0.018745 -0.004909 0.000000 0.000000 0.000000
# 3 -0.003898 -0.004909 0.013642 0.000000 0.000000 0.000000
# 4 0.000000 0.000000 0.000000 0.196377 0.000000 0.000000
# 5 0.000000 0.000000 0.000000 0.000000 0.105921 0.000000
# 6 0.000000 0.000000 0.000000 0.000000 0.000000 0.033991
#
#
# Mechanical properties :
#
#
# Convention : Reuss Voigt Hill
#
# Bulk Modulus (GPa) = 78.37963 78.88760 78.63362
# Shear Modulus (GPa) = 11.76982 18.26221 15.01602
#
# Velocity S-wave (km/s) = 2.43179 3.02913 2.74675
# Velocity P-wave (km/s) = 6.87501 7.20210 7.04045
#
# Compressibility (1/GPa) = 0.01275842
#
# Stress axis : x y z
#
# Youngs Moduli (GPa) = 62.00227 53.34637 73.30192
#
# Poissons Ratio (x) = 0.48393 0.28572
# Poissons Ratio (y) = 0.56246 0.35987
# Poissons Ratio (z) = 0.24167 0.26190
#
# Static dielectric constant tensor:
#      x y z
#    x 3.819390 0.000000 0.000000 
#    y 0.000000 3.670000 0.000000 
#    z 0.000000 0.000000 3.410910 
# 
# 
# High freq. dielectric constant tensor:
#      x y z
#    x 1.783530 0.000000 0.000000 
#    y 0.000000 1.783270 0.000000 
#    z 0.000000 0.000000 1.765430 
# 
# From -- ./inp_files/1842.got.cif
#   From: 2010.03.12/outbox.cif.g09.slc.cpg/sg25_1_cif.got.tgz:1842.got - 2010.04.14 03:30:10.
