data_PCOD8166026
_publ_section_title
;
Structure prediction by ZEFSAII (Michael W. Deem and Ramdas Pophale) SiO2 
 PCOD8166026
Probable space group: I 21 21 21
;
_chemical_formula_sum "Si O2"
_cell_formula_units_Z 64
_cell_length_a 9.405532
_cell_length_b 20.410680
_cell_length_c 17.461927
_cell_angle_alpha 90.000000
_cell_angle_beta 90.000000
_cell_angle_gamma 90.000000
_cell_volume 3352.223818
_symmetry_space_group_name_H-M "I 21 21 21"
_symmetry_group_IT_number 24
_symmetry_cell_setting 'orthorhombic'
loop_
_space_group_symop_operation_xyz
x,y,z
-x,1/2-y,z
x,-y,1/2-z
1/2-x,y,-z
1/2+x,1/2+y,1/2+z
1/2-x,-y,1/2+z
1/2+x,1/2-y,-z
-x,1/2+y,1/2-z
loop_
_atom_site_type_symbol
_atom_site_label
_atom_site_fract_x
_atom_site_fract_y
_atom_site_fract_z
Si Si1 0.922000 0.814787 0.254043
Si Si2 0.893777 0.187689 0.788476
Si Si3 0.753628 0.990630 0.409354
Si Si4 0.482589 0.449443 0.679840
Si Si5 0.793760 0.474089 0.084939
Si Si6 0.461054 0.377071 0.908158
Si Si7 0.482458 0.950869 0.318719
Si Si8 0.629382 0.206438 0.045096
O O1 0.750268 0.809819 0.237176
O O2 0.995101 0.875824 0.210904
O O3 0.000000 0.750000 0.222511
O O4 0.964346 0.820674 0.344069
O O5 0.819684 0.182783 0.872559
O O6 0.000000 0.250000 0.773515
O O7 0.982611 0.120316 0.781467
O O8 0.750000 0.001297 0.500000
O O9 0.597779 0.980210 0.376746
O O10 0.848676 0.930390 0.380406
O O11 0.835575 0.051135 0.369311
O O12 0.475134 0.500000 0.750000
O O13 0.619130 0.467339 0.626746
O O14 0.886082 0.408475 0.078394
O O15 0.661545 0.448998 0.133926
O O16 0.750000 0.498704 0.000000
O O17 0.409437 0.354142 0.991579
O O18 0.461857 0.000000 0.250000
O O19 0.500000 0.250000 0.065654
O O20 0.750000 0.247977 0.000000
#
# Coordination Sequence:
#
# PCOD8166026 Si02
#       8
#     8   8   8   8   8   8   8   8
#     4  12  24  39  62  85 121 173 215 248 303 378
#     4  11  24  37  53  83 123 159 204 256 301 358
#     4  11  20  36  64  88 119 158 200 255 311 370
#     4  11  21  42  64  89 123 166 213 259 303 379
#     4  11  24  38  61  91 120 156 204 261 314 366
#     4  11  21  36  57  80 123 158 207 233 296 376
#     4  12  23  37  58  87 120 152 195 253 318 352
#     4  11  21  33  49  74 112 158 196 233 276 343
#
# _framework density 19.091804
#
# number of rings (size 3 to 8) (size 9 to 14) (size 15 to 20)
#    0.000    0.750    5.000    5.250    1.750    1.500 
#    0.000    0.000    0.000    0.750    0.000    1.750 
#    0.000    0.000    0.000    0.000    0.000    0.000 
#
# Total GULP energy -396577.688221 kJ/mol
# GULP energy per Si atom -12393.052757 kJ/mol
# Density = 1.904835 g / cm^3
# Si number density = 19.091804 Si / 1000 Ang^3
#
#
#
# Elastic Constant Matrix: (Units=GPa)
#
#
# Indices 1 2 3 4 5 6 
#
# 1 127.3154 34.8962 32.2860 0.0000 0.0000 0.0000
# 2 34.8962 101.5833 27.9197 0.0000 0.0000 0.0000
# 3 32.2860 27.9197 73.0215 0.0000 0.0000 0.0000
# 4 0.0000 0.0000 0.0000 24.5339 0.0000 0.0000
# 5 0.0000 0.0000 0.0000 0.0000 33.8533 0.0000
# 6 0.0000 0.0000 0.0000 0.0000 0.0000 19.0988
#
#
#
# Elastic Compliance Matrix: (Units=1/GPa)
#
#
# Indices 1 2 3 4 5 6 
#
# 1 0.009307 -0.002309 -0.003232 0.000000 0.000000 0.000000
# 2 -0.002309 0.011573 -0.003404 0.000000 0.000000 0.000000
# 3 -0.003232 -0.003404 0.016425 0.000000 0.000000 0.000000
# 4 0.000000 0.000000 0.000000 0.040760 0.000000 0.000000
# 5 0.000000 0.000000 0.000000 0.000000 0.029539 0.000000
# 6 0.000000 0.000000 0.000000 0.000000 0.000000 0.052359
#
#
# Mechanical properties :
#
#
# Convention : Reuss Voigt Hill
#
# Bulk Modulus (GPa) = 51.50685 54.68042 53.09363
# Shear Modulus (GPa) = 27.12595 29.28510 28.20553
#
# Velocity S-wave (km/s) = 3.77346 3.92076 3.84782
# Velocity P-wave (km/s) = 6.78398 7.01423 6.90007
#
# Compressibility (1/GPa) = 0.01941489
#
# Stress axis : x y z
#
# Youngs Moduli (GPa) = 107.44599 86.40910 60.88185
#
# Poissons Ratio (x) = 0.19950 0.19679
# Poissons Ratio (y) = 0.24807 0.20725
# Poissons Ratio (z) = 0.34729 0.29414
#
# Static dielectric constant tensor:
#      x y z
#    x 3.787230 0.000000 0.000000 
#    y 0.000000 3.223240 0.000000 
#    z 0.000000 0.000000 5.082320 
# 
# 
# High freq. dielectric constant tensor:
#      x y z
#    x 1.765890 0.000000 0.000000 
#    y 0.000000 1.721430 0.000000 
#    z 0.000000 0.000000 1.725370 
# 
# From -- ./inp_files/29816.got.cif
#   From: 2010.03.12/outbox.cif.g09.slc.cpg/sg24_15_cif.got.tgz:29816.got - 2010.04.14 03:06:53.
