data_PCOD8166013
_publ_section_title
;
Structure prediction by ZEFSAII (Michael W. Deem and Ramdas Pophale) SiO2 
 PCOD8166013
Probable space group: I 21 21 21
;
_chemical_formula_sum "Si O2"
_cell_formula_units_Z 48
_cell_length_a 9.394113
_cell_length_b 11.398521
_cell_length_c 21.974178
_cell_angle_alpha 90.000000
_cell_angle_beta 90.000000
_cell_angle_gamma 90.000000
_cell_volume 2352.972881
_symmetry_space_group_name_H-M "I 21 21 21"
_symmetry_group_IT_number 24
_symmetry_cell_setting 'orthorhombic'
loop_
_space_group_symop_operation_xyz
x,y,z
-x,1/2-y,z
x,-y,1/2-z
1/2-x,y,-z
1/2+x,1/2+y,1/2+z
1/2-x,-y,1/2+z
1/2+x,1/2-y,-z
-x,1/2+y,1/2-z
loop_
_atom_site_type_symbol
_atom_site_label
_atom_site_fract_x
_atom_site_fract_y
_atom_site_fract_z
Si Si1 0.744381 0.498757 0.823016
Si Si2 0.835328 0.750429 0.852085
Si Si3 0.763692 0.966805 0.929628
Si Si4 0.044456 0.622226 0.357636
Si Si5 0.708219 0.870333 0.271441
Si Si6 0.005382 0.626483 0.619435
O O1 0.769470 0.500000 0.750000
O O2 0.765840 0.622895 0.856799
O O3 0.588139 0.457328 0.840062
O O4 0.852542 0.410924 0.855807
O O5 0.751054 0.844293 0.893319
O O6 0.818015 0.780458 0.781854
O O7 0.000000 0.750000 0.871738
O O8 0.640178 0.055076 0.907607
O O9 0.919442 0.023876 0.919114
O O10 0.750000 0.937559 0.000000
O O11 0.130122 0.640333 0.294765
O O12 0.000000 0.750000 0.383743
O O13 0.603133 0.836321 0.324483
O O14 0.670257 0.000000 0.250000
O O15 0.000000 0.750000 0.581386
#
# Coordination Sequence:
#
# PCOD8166013 Si02
#       6
#     8   8   8   8   8   8
#     4  12  23  37  65 106 133 167 209 267 346 420
#     4  12  22  42  69  98 132 172 227 275 337 408
#     4  11  26  48  67  89 134 185 234 286 330 384
#     4  11  24  43  64 100 139 170 217 275 347 408
#     4  11  19  37  64  95 137 173 203 270 346 415
#     4  11  21  39  66  97 129 173 225 274 333 396
#
# _framework density 20.399723999999999
#
# number of rings (size 3 to 8) (size 9 to 14) (size 15 to 20)
#    0.000    0.667    5.000    6.500    0.000    1.333 
#    3.000    0.833    0.000    0.000    0.000    0.000 
#    0.000    0.000    0.000    0.000    0.000    0.000 
#
# Total GULP energy -297594.480521 kJ/mol
# GULP energy per Si atom -12399.770022 kJ/mol
# Density = 2.035329 g / cm^3
# Si number density = 20.399724 Si / 1000 Ang^3
#
#
#
# Elastic Constant Matrix: (Units=GPa)
#
#
# Indices 1 2 3 4 5 6 
#
# 1 100.0642 21.5941 9.3971 0.0000 0.0000 0.0000
# 2 21.5941 137.7669 14.6576 0.0000 0.0000 0.0000
# 3 9.3971 14.6576 80.4872 0.0000 0.0000 0.0000
# 4 0.0000 0.0000 0.0000 12.3322 0.0000 0.0000
# 5 0.0000 0.0000 0.0000 0.0000 -218.5261 0.0000
# 6 0.0000 0.0000 0.0000 0.0000 0.0000 44.0238
#
#
#
# Elastic Compliance Matrix: (Units=1/GPa)
#
#
# Indices 1 2 3 4 5 6 
#
# 1 0.010412 -0.001532 -0.000937 0.000000 0.000000 0.000000
# 2 -0.001532 0.007628 -0.001210 0.000000 0.000000 0.000000
# 3 -0.000937 -0.001210 0.012754 0.000000 0.000000 0.000000
# 4 0.000000 0.000000 0.000000 0.081088 0.000000 0.000000
# 5 0.000000 0.000000 0.000000 0.000000 -0.004576 0.000000
# 6 0.000000 0.000000 0.000000 0.000000 0.000000 0.022715
#
#
# Mechanical properties :
#
#
# Convention : Reuss Voigt Hill
#
# Bulk Modulus (GPa) = 42.67016 45.51289 44.09152
# Shear Modulus (GPa) = 34.43731 -14.25604 10.09064
#
# Velocity S-wave (km/s) = 4.11314 -2.64642 2.22648
# Velocity P-wave (km/s) = 6.59694 3.60846 5.31698
#
# Compressibility (1/GPa) = 0.02343558
#
# Stress axis : x y z
#
# Youngs Moduli (GPa) = 96.04081 131.10303 78.40640
#
# Poissons Ratio (x) = 0.20090 0.07343
# Poissons Ratio (y) = 0.14717 0.09488
# Poissons Ratio (z) = 0.08995 0.15865
#
# Static dielectric constant tensor:
#      x y z
#    x 3.932840 0.000000 0.000000 
#    y 0.000000 10.364140 0.000000 
#    z 0.000000 0.000000 3.326310 
# 
# 
# High freq. dielectric constant tensor:
#      x y z
#    x 1.806040 0.000000 0.000000 
#    y 0.000000 1.823790 0.000000 
#    z 0.000000 0.000000 1.757170 
# 
# From -- ./inp_files/11272.got.cif
#   From: 2010.03.12/outbox.cif.g09.slc.cpg/sg24_6_cif.got.tgz:11272.got - 2010.04.14 03:06:53.
