data_PCOD8166011
_publ_section_title
;
Structure prediction by ZEFSAII (Michael W. Deem and Ramdas Pophale) SiO2 
 PCOD8166011
Probable space group: I 21 21 21
;
_chemical_formula_sum "Si O2"
_cell_formula_units_Z 60
_cell_length_a 11.084003
_cell_length_b 20.412876
_cell_length_c 13.449481
_cell_angle_alpha 90.000000
_cell_angle_beta 90.000000
_cell_angle_gamma 90.000000
_cell_volume 3043.030868
_symmetry_space_group_name_H-M "I 21 21 21"
_symmetry_group_IT_number 24
_symmetry_cell_setting 'orthorhombic'
loop_
_space_group_symop_operation_xyz
x,y,z
-x,1/2-y,z
x,-y,1/2-z
1/2-x,y,-z
1/2+x,1/2+y,1/2+z
1/2-x,-y,1/2+z
1/2+x,1/2-y,-z
-x,1/2+y,1/2-z
loop_
_atom_site_type_symbol
_atom_site_label
_atom_site_fract_x
_atom_site_fract_y
_atom_site_fract_z
Si Si1 0.250000 0.948686 0.500000
Si Si2 0.548357 0.545764 0.003516
Si Si3 0.718310 0.423407 0.782440
Si Si4 0.318471 0.488993 0.901801
Si Si5 0.732327 0.900574 0.239303
Si Si6 0.676807 0.202079 0.600151
Si Si7 0.475677 0.073397 0.282024
Si Si8 0.405257 0.843471 0.872184
O O1 0.207780 0.910119 0.401292
O O2 0.137984 0.989976 0.542000
O O3 0.452039 0.514485 0.926977
O O4 0.631476 0.599283 0.948163
O O5 0.491843 0.579259 0.100878
O O6 0.697337 0.500000 0.750000
O O7 0.847223 0.393798 0.744682
O O8 0.615212 0.375853 0.736402
O O9 0.318931 0.425119 0.829264
O O10 0.244181 0.547285 0.850357
O O11 0.250000 0.466560 0.000000
O O12 0.763682 0.828680 0.198833
O O13 0.592017 0.896595 0.274786
O O14 0.750000 0.182821 0.500000
O O15 0.542620 0.173193 0.599424
O O16 0.678158 0.280126 0.613298
O O17 0.460564 0.000000 0.250000
#
# Coordination Sequence:
#
# PCOD8166011 Si02
#       8
#     4   8   8   8   8   8   8   8
#     4  12  24  34  62  94 120 158 200 258 316 374
#     4  12  20  34  59  91 123 159 199 250 314 373
#     4  11  23  39  61  94 125 162 204 259 318 378
#     4  11  21  33  59  89 123 158 200 254 315 376
#     4  11  21  37  58  89 125 164 202 257 309 368
#     4  11  25  43  60  89 124 168 211 255 307 369
#     4  11  19  35  58  90 130 152 198 253 315 374
#     4  11  25  41  62  87 130 165 211 254 308 376
#
# _framework density 19.717184
#
# number of rings (size 3 to 8) (size 9 to 14) (size 15 to 20)
#    0.000    0.800    8.000    1.200    4.667    0.000 
#    0.000    0.000    1.467    0.000    0.000    0.000 
#    0.000    0.000    0.000    0.000    0.000    0.000 
#
# Total GULP energy -371777.255921 kJ/mol
# GULP energy per Si atom -12392.575197 kJ/mol
# Density = 1.967231 g / cm^3
# Si number density = 19.717184 Si / 1000 Ang^3
#
#
#
# Elastic Constant Matrix: (Units=GPa)
#
#
# Indices 1 2 3 4 5 6 
#
# 1 77.7942 31.5774 23.3795 0.0002 0.0000 0.0000
# 2 31.5774 79.5288 47.0231 0.0003 0.0000 -0.0002
# 3 23.3795 47.0231 138.4989 0.0007 0.0000 -0.0002
# 4 0.0002 0.0003 0.0007 21.8168 0.0000 -0.0002
# 5 0.0000 0.0000 0.0000 0.0000 32.2136 0.0002
# 6 0.0000 -0.0002 -0.0002 -0.0002 0.0002 12.8856
#
#
#
# Elastic Compliance Matrix: (Units=1/GPa)
#
#
# Indices 1 2 3 4 5 6 
#
# 1 0.015371 -0.005717 -0.000654 0.000000 0.000000 0.000000
# 2 -0.005717 0.017858 -0.005098 0.000000 0.000000 0.000000
# 3 -0.000654 -0.005098 0.009062 0.000000 0.000000 0.000000
# 4 0.000000 0.000000 0.000000 0.045836 0.000000 0.000001
# 5 0.000000 0.000000 0.000000 0.000000 0.031043 0.000000
# 6 0.000000 0.000000 0.000000 0.000001 0.000000 0.077606
#
#
# Mechanical properties :
#
#
# Convention : Reuss Voigt Hill
#
# Bulk Modulus (GPa) = 51.66958 55.53132 53.60045
# Shear Modulus (GPa) = 22.10772 26.30600 24.20686
#
# Velocity S-wave (km/s) = 3.35213 3.65659 3.50766
# Velocity P-wave (km/s) = 6.42219 6.78620 6.60671
#
# Compressibility (1/GPa) = 0.01935375
#
# Stress axis : x y z
#
# Youngs Moduli (GPa) = 65.05594 55.99622 110.35574
#
# Poissons Ratio (x) = 0.32011 0.07216
# Poissons Ratio (y) = 0.37190 0.56262
# Poissons Ratio (z) = 0.04254 0.28548
#
# Static dielectric constant tensor:
#      x y z
#    x 3.866470 0.000000 0.000000 
#    y 0.000000 3.379540 0.000000 
#    z 0.000000 0.000000 3.822660 
# 
# 
# High freq. dielectric constant tensor:
#      x y z
#    x 1.783230 0.000000 0.000000 
#    y 0.000000 1.718740 0.000000 
#    z 0.000000 0.000000 1.768720 
# 
# From -- ./inp_files/20004.got.cif
#   From: 2010.03.12/outbox.cif.g09.slc.cpg/sg24_11_cif.got.tgz:20004.got - 2010.04.14 03:06:53.
