data_PCOD8166235
_publ_section_title
;
Structure prediction by ZEFSAII (Michael W. Deem and Ramdas Pophale) SiO2 
 PCOD8166235
Probable space group: I 21 21 21
;
_chemical_formula_sum "Si O2"
_cell_formula_units_Z 56
_cell_length_a 27.670131
_cell_length_b 6.247448
_cell_length_c 14.193350
_cell_angle_alpha 90.000000
_cell_angle_beta 90.000000
_cell_angle_gamma 90.000000
_cell_volume 2453.571835
_symmetry_space_group_name_H-M "I 21 21 21"
_symmetry_group_IT_number 24
_symmetry_cell_setting 'orthorhombic'
loop_
_space_group_symop_operation_xyz
x,y,z
-x,1/2-y,z
x,-y,1/2-z
1/2-x,y,-z
1/2+x,1/2+y,1/2+z
1/2-x,-y,1/2+z
1/2+x,1/2-y,-z
-x,1/2+y,1/2-z
loop_
_atom_site_type_symbol
_atom_site_label
_atom_site_fract_x
_atom_site_fract_y
_atom_site_fract_z
Si Si1 0.875488 0.839728 0.588197
Si Si2 0.931410 0.000000 0.750000
Si Si3 0.131725 0.028500 0.139964
Si Si4 0.294243 0.373995 0.846099
Si Si5 0.314774 0.305017 0.504826
Si Si6 0.044507 0.108792 0.026346
Si Si7 0.500000 0.250000 0.392453
Si Si8 0.719840 0.588938 0.413951
O O1 0.896151 0.842683 0.693782
O O2 0.919809 0.773078 0.523720
O O3 0.835362 0.657105 0.588516
O O4 0.854453 0.068895 0.556582
O O5 0.962822 0.870515 0.825184
O O6 0.156229 0.259021 0.118691
O O7 0.139490 0.000000 0.250000
O O8 0.159152 0.852952 0.078235
O O9 0.074606 0.018755 0.115476
O O10 0.302969 0.500000 0.750000
O O11 0.281899 0.538959 0.930775
O O12 0.251135 0.194998 0.828383
O O13 0.281603 0.169258 0.429508
O O14 0.000000 0.250000 0.063689
O O15 0.028161 0.918476 0.957638
O O16 0.750000 0.692400 0.500000
#
# Coordination Sequence:
#
# PCOD8166235 Si02
#       8
#     8   4   8   8   8   8   4   8
#     4  12  26  46  70 108 145 195 251 303 378 449
#     4  12  26  46  72 110 142 192 246 316 374 438
#     4  12  25  45  74 110 141 195 251 306 376 449
#     4  12  26  46  75 109 148 198 257 310 372 448
#     4  12  23  46  76  97 149 199 242 310 368 449
#     4  12  25  49  74 108 147 192 251 298 389 462
#     4  12  26  50  80 102 150 196 244 316 382 458
#     4  12  25  43  70 105 142 198 248 292 371 445
#
# _framework density 22.823868000000001
#
# number of rings (size 3 to 8) (size 9 to 14) (size 15 to 20)
#    0.000    0.000    8.571    1.714    3.000    0.000 
#    1.286    1.429    0.000    0.000    0.000    0.000 
#    0.000    0.000    0.000    0.000    0.000    0.000 
#
# Total GULP energy -346995.432771 kJ/mol
# GULP energy per Si atom -12392.694028 kJ/mol
# Density = 2.277192 g / cm^3
# Si number density = 22.823868 Si / 1000 Ang^3
#
#
#
# Elastic Constant Matrix: (Units=GPa)
#
#
# Indices 1 2 3 4 5 6 
#
# 1 122.1076 55.2217 29.1218 0.0000 0.0000 0.0000
# 2 55.2217 145.8008 44.3430 0.0000 0.0000 0.0000
# 3 29.1218 44.3430 70.2761 0.0000 0.0000 0.0000
# 4 0.0000 0.0000 0.0000 28.7588 0.0000 0.0000
# 5 0.0000 0.0000 0.0000 0.0000 36.5531 0.0000
# 6 0.0000 0.0000 0.0000 0.0000 0.0000 25.5310
#
#
#
# Elastic Compliance Matrix: (Units=1/GPa)
#
#
# Indices 1 2 3 4 5 6 
#
# 1 0.010151 -0.003174 -0.002203 0.000000 0.000000 0.000000
# 2 -0.003174 0.009480 -0.004666 0.000000 0.000000 0.000000
# 3 -0.002203 -0.004666 0.018087 0.000000 0.000000 0.000000
# 4 0.000000 0.000000 0.000000 0.034772 0.000000 0.000000
# 5 0.000000 0.000000 0.000000 0.000000 0.027357 0.000000
# 6 0.000000 0.000000 0.000000 0.000000 0.000000 0.039168
#
#
# Mechanical properties :
#
#
# Convention : Reuss Voigt Hill
#
# Bulk Modulus (GPa) = 56.72288 66.17307 61.44797
# Shear Modulus (GPa) = 30.30671 32.13512 31.22091
#
# Velocity S-wave (km/s) = 3.64792 3.75635 3.70253
# Velocity P-wave (km/s) = 6.53066 6.91877 6.72752
#
# Compressibility (1/GPa) = 0.01762957
#
# Stress axis : x y z
#
# Youngs Moduli (GPa) = 98.51681 105.48331 55.28824
#
# Poissons Ratio (x) = 0.33485 0.12182
# Poissons Ratio (y) = 0.31273 0.25800
# Poissons Ratio (z) = 0.21706 0.49223
#
# Static dielectric constant tensor:
#      x y z
#    x 4.430970 0.000000 0.000000 
#    y 0.000000 4.344210 0.000000 
#    z 0.000000 0.000000 4.203770 
# 
# 
# High freq. dielectric constant tensor:
#      x y z
#    x 1.911620 0.000000 0.000000 
#    y 0.000000 1.917050 0.000000 
#    z 0.000000 0.000000 1.891460 
# 
# From -- ./inp_files/28247.got.cif
#   From: 2010.03.12/outbox.cif.g09.slc.cpg/sg24_15_cif.got.tgz:28247.got - 2010.04.14 03:06:53.
