data_PCOD8166593
_publ_section_title
;
Structure prediction by ZEFSAII (Michael W. Deem and Ramdas Pophale) SiO2 
 PCOD8166593
Probable space group: P M M 2
;
_chemical_formula_sum "Si O2"
_cell_formula_units_Z 32
_cell_length_a 9.127953
_cell_length_b 14.187502
_cell_length_c 15.404692
_cell_angle_alpha 90.000000
_cell_angle_beta 90.000000
_cell_angle_gamma 90.000000
_cell_volume 1994.951540
_symmetry_space_group_name_H-M "P M M 2"
_symmetry_group_IT_number 25
_symmetry_cell_setting 'orthorhombic'
loop_
_space_group_symop_operation_xyz
x,y,z
-x,-y,z
-x,y,z
x,-y,z
loop_
_atom_site_type_symbol
_atom_site_label
_atom_site_fract_x
_atom_site_fract_y
_atom_site_fract_z
Si Si1 0.330744 0.889155 0.243460
Si Si2 0.169213 0.606984 0.670633
Si Si3 0.838345 0.111707 0.076363
Si Si4 0.327310 0.779680 0.734329
Si Si5 0.825846 0.797754 0.403509
Si Si6 0.173664 0.397741 0.474688
Si Si7 0.171280 0.891326 0.883288
Si Si8 0.669021 0.890418 0.562852
O O1 0.500000 0.863269 0.253883
O O2 0.277693 0.854874 0.148567
O O3 0.237897 0.833053 0.313496
O O4 0.303174 0.000000 0.256657
O O5 0.189927 0.500000 0.703127
O O6 0.263266 0.674316 0.732407
O O7 0.230317 0.617932 0.572634
O O8 0.000000 0.637363 0.675789
O O9 0.000000 0.151682 0.099843
O O10 0.847365 0.000000 0.073637
O O11 0.790757 0.145762 0.980480
O O12 0.500000 0.775284 0.742136
O O13 0.266632 0.830833 0.818365
O O14 0.277462 0.835050 0.647924
O O15 0.773256 0.688941 0.415187
O O16 0.767051 0.861109 0.481650
O O17 0.000000 0.806529 0.401762
O O18 0.231448 0.500000 0.439609
O O19 0.000000 0.400876 0.478360
O O20 0.000000 0.877684 0.863763
O O21 0.216586 0.000000 0.872388
O O22 0.500000 0.868320 0.540729
O O23 0.693099 0.000000 0.581790
#
# Coordination Sequence:
#
# PCOD8166593 Si02
#       8
#     4   4   4   4   4   4   4   4
#     4  10  20  32  46  66  96 130 157 186 230 283
#     4   9  17  32  52  69  89 120 159 203 245 283
#     4   8  15  30  50  70  91 117 155 201 238 268
#     4  11  21  31  46  69  98 129 160 195 236 286
#     4  11  20  30  48  70  90 118 158 198 233 274
#     4   8  15  29  48  68  89 114 149 196 242 278
#     4   9  18  32  50  71  96 126 160 199 238 278
#     4  10  21  34  43  57  91 133 163 188 223 268
#
# _framework density 16.040489999999998
#
# number of rings (size 3 to 8) (size 9 to 14) (size 15 to 20)
#    0.000    2.500    1.250    3.375    0.000    4.500 
#    0.000    1.250    0.000    1.500    0.000    0.875 
#    0.000    3.000    0.000    0.000    0.000    0.000 
#
# Total GULP energy -396726.832089 kJ/mol
# GULP energy per Si atom -12397.713503 kJ/mol
# Density = 1.600398 g / cm^3
# Si number density = 16.040490 Si / 1000 Ang^3
#
#
#
# Elastic Constant Matrix: (Units=GPa)
#
#
# Indices 1 2 3 4 5 6 
#
# 1 65.1262 41.6030 47.8230 0.0000 0.0000 0.0000
# 2 41.6030 84.3368 45.0651 0.0000 0.0000 0.0000
# 3 47.8230 45.0651 101.6462 0.0000 0.0000 0.0000
# 4 0.0000 0.0000 0.0000 8.2527 0.0000 0.0000
# 5 0.0000 0.0000 0.0000 0.0000 26.7029 0.0000
# 6 0.0000 0.0000 0.0000 0.0000 0.0000 18.3312
#
#
#
# Elastic Compliance Matrix: (Units=1/GPa)
#
#
# Indices 1 2 3 4 5 6 
#
# 1 0.027655 -0.008766 -0.009125 0.000000 0.000000 0.000000
# 2 -0.008766 0.018317 -0.003996 0.000000 0.000000 0.000000
# 3 -0.009125 -0.003996 0.015903 0.000000 0.000000 0.000000
# 4 0.000000 0.000000 0.000000 0.121173 0.000000 0.000000
# 5 0.000000 0.000000 0.000000 0.000000 0.037449 0.000000
# 6 0.000000 0.000000 0.000000 0.000000 0.000000 0.054552
#
#
# Mechanical properties :
#
#
# Convention : Reuss Voigt Hill
#
# Bulk Modulus (GPa) = 55.24852 57.78791 56.51822
# Shear Modulus (GPa) = 15.39134 18.43189 16.91162
#
# Velocity S-wave (km/s) = 3.10099 3.39349 3.25053
# Velocity P-wave (km/s) = 6.88037 7.17348 7.02845
#
# Compressibility (1/GPa) = 0.01810003
#
# Stress axis : x y z
#
# Youngs Moduli (GPa) = 36.15948 54.59353 62.88146
#
# Poissons Ratio (x) = 0.47859 0.57378
# Poissons Ratio (y) = 0.31699 0.25130
# Poissons Ratio (z) = 0.32995 0.21818
#
# Static dielectric constant tensor:
#      x y z
#    x 2.979690 0.000000 0.000000 
#    y 0.000000 3.109220 0.000000 
#    z 0.000000 0.000000 3.065010 
# 
# 
# High freq. dielectric constant tensor:
#      x y z
#    x 1.612430 0.000000 0.000000 
#    y 0.000000 1.599780 0.000000 
#    z 0.000000 0.000000 1.605520 
# 
# From -- ./inp_files/5693.got.cif
#   From: 2010.03.12/outbox.cif.g09.slc.cpg/sg25_3_cif.got.tgz:5693.got - 2010.04.14 03:30:10.
