data_PCOD8166377
_publ_section_title
;
Structure prediction by ZEFSAII (Michael W. Deem and Ramdas Pophale) SiO2 
 PCOD8166377
Probable space group: P M M 2
;
_chemical_formula_sum "Si O2"
_cell_formula_units_Z 32
_cell_length_a 14.711671
_cell_length_b 9.144984
_cell_length_c 12.412074
_cell_angle_alpha 90.000000
_cell_angle_beta 90.000000
_cell_angle_gamma 90.000000
_cell_volume 1669.895561
_symmetry_space_group_name_H-M "P M M 2"
_symmetry_group_IT_number 25
_symmetry_cell_setting 'orthorhombic'
loop_
_space_group_symop_operation_xyz
x,y,z
-x,-y,z
-x,y,z
x,-y,z
loop_
_atom_site_type_symbol
_atom_site_label
_atom_site_fract_x
_atom_site_fract_y
_atom_site_fract_z
Si Si1 0.396092 0.173993 0.914490
Si Si2 0.711683 0.829241 0.705915
Si Si3 0.329515 0.171761 0.350823
Si Si4 0.900919 0.833333 0.617612
Si Si5 0.599600 0.334793 0.530440
Si Si6 0.100544 0.668657 0.172685
Si Si7 0.151781 0.670716 0.412235
Si Si8 0.278274 0.171958 0.114136
O O1 0.500000 0.235083 0.910258
O O2 0.336302 0.231481 0.813908
O O3 0.399365 0.000000 0.916688
O O4 0.343783 0.232693 0.020364
O O5 0.820364 0.795754 0.703243
O O6 0.669936 0.749149 0.604407
O O7 0.690751 0.000000 0.695247
O O8 0.409684 0.255583 0.413506
O O9 0.241158 0.231232 0.411360
O O10 0.328646 0.213823 0.225150
O O11 0.339061 0.000000 0.367392
O O12 0.904554 0.726683 0.514520
O O13 0.000000 0.816061 0.674965
O O14 0.887193 0.000000 0.577131
O O15 0.500000 0.330955 0.584192
O O16 0.633879 0.500000 0.514789
O O17 0.121415 0.500000 0.149534
O O18 0.098900 0.698687 0.300777
O O19 0.177686 0.758952 0.109752
O O20 0.000000 0.712316 0.129308
O O21 0.174748 0.500000 0.426420
O O22 0.263488 0.000000 0.103351
#
# Coordination Sequence:
#
# PCOD8166377 Si02
#       8
#     4   4   4   4   4   4   4   4
#     4   9  18  35  59  83 105 135 180 231 278 324
#     4  10  20  36  58  80 106 141 181 223 271 327
#     4  10  19  32  51  77 110 145 178 217 272 328
#     4  10  20  32  48  75 110 144 179 221 267 317
#     4  11  23  36  52  78 111 144 177 220 274 327
#     4   9  18  32  50  75 109 148 185 218 261 320
#     4  10  18  30  50  75 106 144 184 222 263 315
#     4   9  19  34  54  81 109 137 179 231 275 315
#
# _framework density 19.162875
#
# number of rings (size 3 to 8) (size 9 to 14) (size 15 to 20)
#    0.000    2.250    1.250    1.875    0.000    4.000 
#    0.000    2.500    0.000    3.375    0.000    0.000 
#    0.000    0.000    0.000    0.000    0.000    0.000 
#
# Total GULP energy -396606.850724 kJ/mol
# GULP energy per Si atom -12393.964085 kJ/mol
# Density = 1.911926 g / cm^3
# Si number density = 19.162875 Si / 1000 Ang^3
#
#
#
# Elastic Constant Matrix: (Units=GPa)
#
#
# Indices 1 2 3 4 5 6 
#
# 1 148.6850 31.8058 70.3826 0.0000 0.0000 0.0000
# 2 31.8058 47.2499 36.1004 0.0000 0.0000 0.0000
# 3 70.3826 36.1004 112.4922 0.0000 0.0000 0.0000
# 4 0.0000 0.0000 0.0000 13.6516 0.0000 0.0000
# 5 0.0000 0.0000 0.0000 0.0000 24.7874 0.0000
# 6 0.0000 0.0000 0.0000 0.0000 0.0000 19.9290
#
#
#
# Elastic Compliance Matrix: (Units=1/GPa)
#
#
# Indices 1 2 3 4 5 6 
#
# 1 0.009778 -0.002528 -0.005307 0.000000 0.000000 0.000000
# 2 -0.002528 0.028692 -0.007626 0.000000 0.000000 0.000000
# 3 -0.005307 -0.007626 0.014657 0.000000 0.000000 0.000000
# 4 0.000000 0.000000 0.000000 0.073251 0.000000 0.000000
# 5 0.000000 0.000000 0.000000 0.000000 0.040343 0.000000
# 6 0.000000 0.000000 0.000000 0.000000 0.000000 0.050178
#
#
# Mechanical properties :
#
#
# Convention : Reuss Voigt Hill
#
# Bulk Modulus (GPa) = 45.03232 65.00052 55.01642
# Shear Modulus (GPa) = 19.59059 23.01613 21.30336
#
# Velocity S-wave (km/s) = 3.20084 3.46942 3.33783
# Velocity P-wave (km/s) = 6.10011 7.07410 6.60508
#
# Compressibility (1/GPa) = 0.02220627
#
# Stress axis : x y z
#
# Youngs Moduli (GPa) = 102.26590 34.85261 68.22568
#
# Poissons Ratio (x) = 0.08809 0.36207
# Poissons Ratio (y) = 0.25849 0.52031
# Poissons Ratio (z) = 0.54271 0.26580
#
# Static dielectric constant tensor:
#      x y z
#    x 3.815890 0.000000 0.000000 
#    y 0.000000 3.348350 0.000000 
#    z 0.000000 0.000000 3.477820 
# 
# 
# High freq. dielectric constant tensor:
#      x y z
#    x 1.756190 0.000000 0.000000 
#    y 0.000000 1.729160 0.000000 
#    z 0.000000 0.000000 1.721910 
# 
# From -- ./inp_files/4166.got.cif
#   From: 2010.03.12/outbox.cif.g09.slc.cpg/sg25_3_cif.got.tgz:4166.got - 2010.04.14 03:30:10.
