data_PCOD8166907
_publ_section_title
;
Structure prediction by ZEFSAII (Michael W. Deem and Ramdas Pophale) SiO2 
 PCOD8166907
Probable space group: P M M 2
;
_chemical_formula_sum "Si O2"
_cell_formula_units_Z 28
_cell_length_a 9.218624
_cell_length_b 9.218642
_cell_length_c 18.036240
_cell_angle_alpha 90.000000
_cell_angle_beta 90.000000
_cell_angle_gamma 90.000000
_cell_volume 1532.777290
_symmetry_space_group_name_H-M "P M M 2"
_symmetry_group_IT_number 25
_symmetry_cell_setting 'orthorhombic'
loop_
_space_group_symop_operation_xyz
x,y,z
-x,-y,z
-x,y,z
x,-y,z
loop_
_atom_site_type_symbol
_atom_site_label
_atom_site_fract_x
_atom_site_fract_y
_atom_site_fract_z
Si Si1 0.167157 0.170371 0.166380
Si Si2 0.167732 0.331572 0.889865
Si Si3 0.663701 0.672542 0.458309
Si Si4 0.172542 0.836299 0.746253
Si Si5 0.670372 0.667156 0.038182
Si Si6 0.169120 0.330881 0.602281
Si Si7 0.831572 0.667732 0.314697
O O1 0.266708 0.233291 0.102280
O O2 0.216766 0.241125 0.243479
O O3 0.000000 0.209216 0.149308
O O4 0.192252 0.000000 0.171996
O O5 0.189108 0.500000 0.871381
O O6 0.229869 0.242601 0.820094
O O7 0.000000 0.294886 0.905692
O O8 0.258878 0.283236 0.961082
O O9 0.500000 0.731808 0.459230
O O10 0.668814 0.500000 0.458425
O O11 0.746529 0.730553 0.530858
O O12 0.742601 0.729868 0.384467
O O13 0.230553 0.753471 0.673704
O O14 0.000000 0.831186 0.746137
O O15 0.231809 0.000000 0.745331
O O16 0.500000 0.692246 0.032568
O O17 0.709221 0.500000 0.055255
O O18 0.199380 0.500000 0.615479
O O19 0.000000 0.300621 0.589083
O O20 0.794890 0.500000 0.298871
O O21 0.000000 0.689113 0.333180
#
# Coordination Sequence:
#
# PCOD8166907 Si02
#       7
#     4   4   4   4   4   4   4
#     4  10  21  36  54  77 104 134 169 208 251 300
#     4   9  17  31  52  75  98 126 162 204 248 293
#     4   9  17  29  47  72  98 124 159 202 244 287
#     4   9  17  29  47  72  98 124 159 202 244 287
#     4  10  21  36  54  77 104 134 169 208 251 300
#     4   9  16  28  48  71  94 122 158 199 242 288
#     4   9  17  31  52  75  98 126 162 204 248 293
#
# _framework density 18.267493999999999
#
# number of rings (size 3 to 8) (size 9 to 14) (size 15 to 20)
#    0.000    2.714    0.000    1.714    0.000    6.286 
#    0.000    4.286    0.000    9.000    0.000    0.000 
#    0.000    0.000    0.000    0.000    0.000    0.000 
#
# Total GULP energy -347251.783381 kJ/mol
# GULP energy per Si atom -12401.849406 kJ/mol
# Density = 1.822592 g / cm^3
# Si number density = 18.267494 Si / 1000 Ang^3
#
#
#
# Elastic Constant Matrix: (Units=GPa)
#
#
# Indices 1 2 3 4 5 6 
#
# 1 74.3855 38.8024 74.9094 0.0000 0.0000 0.0000
# 2 38.8024 74.3896 74.9115 0.0000 0.0000 0.0000
# 3 74.9094 74.9115 193.3029 0.0000 0.0000 0.0000
# 4 0.0000 0.0000 0.0000 3.6166 0.0000 0.0000
# 5 0.0000 0.0000 0.0000 0.0000 3.6151 0.0000
# 6 0.0000 0.0000 0.0000 0.0000 0.0000 15.2503
#
#
#
# Elastic Compliance Matrix: (Units=1/GPa)
#
#
# Indices 1 2 3 4 5 6 
#
# 1 0.023121 -0.004981 -0.007029 0.000000 0.000000 0.000000
# 2 -0.004981 0.023120 -0.007029 0.000000 0.000000 0.000000
# 3 -0.007029 -0.007029 0.010621 0.000000 0.000000 0.000000
# 4 0.000000 0.000000 0.000000 0.276506 0.000000 0.000000
# 5 0.000000 0.000000 0.000000 0.000000 0.276617 0.000000
# 6 0.000000 0.000000 0.000000 0.000000 0.000000 0.065572
#
#
# Mechanical properties :
#
#
# Convention : Reuss Voigt Hill
#
# Bulk Modulus (GPa) = 53.24305 79.92497 66.58401
# Shear Modulus (GPa) = 6.94543 14.72672 10.83607
#
# Velocity S-wave (km/s) = 1.95200 2.84239 2.43819
# Velocity P-wave (km/s) = 5.85577 7.39052 6.66745
#
# Compressibility (1/GPa) = 0.01878180
#
# Stress axis : x y z
#
# Youngs Moduli (GPa) = 43.25097 43.25329 94.14980
#
# Poissons Ratio (x) = 0.21546 0.66182
# Poissons Ratio (y) = 0.21545 0.66180
# Poissons Ratio (z) = 0.30403 0.30404
#
# Static dielectric constant tensor:
#      x y z
#    x 3.211060 0.000000 0.000000 
#    y 0.000000 3.211080 0.000000 
#    z 0.000000 0.000000 3.568660 
# 
# 
# High freq. dielectric constant tensor:
#      x y z
#    x 1.687520 0.000000 0.000000 
#    y 0.000000 1.687520 0.000000 
#    z 0.000000 0.000000 1.723600 
# 
# From -- ./inp_files/6096.got.cif
#   From: 2010.03.12/outbox.cif.g09.slc.cpg/sg25_4_cif.got.tgz:6096.got - 2010.04.14 03:30:10.
