data_PCOD8166419
_publ_section_title
;
Structure prediction by ZEFSAII (Michael W. Deem and Ramdas Pophale) SiO2 
 PCOD8166419
Probable space group: P M M 2
;
_chemical_formula_sum "Si O2"
_cell_formula_units_Z 32
_cell_length_a 15.370261
_cell_length_b 8.808964
_cell_length_c 11.877091
_cell_angle_alpha 90.000000
_cell_angle_beta 90.000000
_cell_angle_gamma 90.000000
_cell_volume 1608.111514
_symmetry_space_group_name_H-M "P M M 2"
_symmetry_group_IT_number 25
_symmetry_cell_setting 'orthorhombic'
loop_
_space_group_symop_operation_xyz
x,y,z
-x,-y,z
-x,y,z
x,-y,z
loop_
_atom_site_type_symbol
_atom_site_label
_atom_site_fract_x
_atom_site_fract_y
_atom_site_fract_z
Si Si1 0.743183 0.679086 0.644620
Si Si2 0.903758 0.319659 0.790418
Si Si3 0.597327 0.326199 0.266255
Si Si4 0.356852 0.675607 0.016049
Si Si5 0.598038 0.173778 0.791937
Si Si6 0.901378 0.322011 0.267308
Si Si7 0.251859 0.821974 0.403133
Si Si8 0.842596 0.320990 0.027904
O O1 0.747306 0.500000 0.626429
O O2 0.831542 0.741227 0.703397
O O3 0.661164 0.717450 0.722283
O O4 0.731006 0.758630 0.526291
O O5 0.896261 0.500000 0.796281
O O6 0.000000 0.268644 0.750034
O O7 0.886853 0.252262 0.915592
O O8 0.500000 0.295782 0.313099
O O9 0.625956 0.500000 0.288400
O O10 0.595387 0.293606 0.133384
O O11 0.665578 0.217862 0.326541
O O12 0.364243 0.500000 0.979618
O O13 0.257428 0.726149 0.029080
O O14 0.401805 0.778518 0.922359
O O15 0.500000 0.192527 0.745458
O O16 0.629062 0.000000 0.780297
O O17 0.880303 0.500000 0.269390
O O18 0.837681 0.243197 0.355033
O O19 0.887051 0.256060 0.141196
O O20 0.000000 0.288438 0.305193
O O21 0.242641 0.000000 0.409801
O O22 0.855163 0.500000 0.027338
#
# Coordination Sequence:
#
# PCOD8166419 Si02
#       8
#     4   4   4   4   4   4   4   4
#     4  11  23  41  64  87 112 152 205 255 297 348
#     4   9  17  31  56  91 121 144 180 234 292 343
#     4  10  21  39  64  91 119 154 200 252 299 352
#     4  10  18  34  62  92 121 154 195 242 292 349
#     4  11  24  40  59  87 124 161 196 239 297 362
#     4  10  20  37  64  93 121 157 202 250 297 352
#     4  12  26  42  60  84 120 162 199 249 310 368
#     4   9  15  29  57  92 123 148 184 239 296 344
#
# _framework density 19.899117
#
# number of rings (size 3 to 8) (size 9 to 14) (size 15 to 20)
#    0.000    1.750    2.500    2.625    0.000    5.000 
#    0.000    1.250    0.000    1.125    0.000    0.000 
#    0.000    0.000    0.000    0.000    0.000    0.000 
#
# Total GULP energy -396840.150289 kJ/mol
# GULP energy per Si atom -12401.254697 kJ/mol
# Density = 1.985383 g / cm^3
# Si number density = 19.899117 Si / 1000 Ang^3
#
#
#
# Elastic Constant Matrix: (Units=GPa)
#
#
# Indices 1 2 3 4 5 6 
#
# 1 122.1777 36.9783 40.3638 0.0000 0.0000 0.0000
# 2 36.9783 58.8525 26.9634 0.0000 0.0000 0.0000
# 3 40.3638 26.9634 89.8609 0.0000 0.0000 0.0000
# 4 0.0000 0.0000 0.0000 11.4524 0.0000 0.0000
# 5 0.0000 0.0000 0.0000 0.0000 3.7467 0.0000
# 6 0.0000 0.0000 0.0000 0.0000 0.0000 18.2392
#
#
#
# Elastic Compliance Matrix: (Units=1/GPa)
#
#
# Indices 1 2 3 4 5 6 
#
# 1 0.010885 -0.005332 -0.003290 0.000000 0.000000 0.000000
# 2 -0.005332 0.022312 -0.004300 0.000000 0.000000 0.000000
# 3 -0.003290 -0.004300 0.013896 0.000000 0.000000 0.000000
# 4 0.000000 0.000000 0.000000 0.087318 0.000000 0.000000
# 5 0.000000 0.000000 0.000000 0.000000 0.266902 0.000000
# 6 0.000000 0.000000 0.000000 0.000000 0.000000 0.054827
#
#
# Mechanical properties :
#
#
# Convention : Reuss Voigt Hill
#
# Bulk Modulus (GPa) = 47.05818 53.27803 50.16810
# Shear Modulus (GPa) = 10.22355 17.79337 14.00846
#
# Velocity S-wave (km/s) = 2.26911 2.99353 2.65613
# Velocity P-wave (km/s) = 5.52855 6.22740 5.88835
#
# Compressibility (1/GPa) = 0.02125029
#
# Stress axis : x y z
#
# Youngs Moduli (GPa) = 91.86545 44.81888 71.96303
#
# Poissons Ratio (x) = 0.23900 0.23672
# Poissons Ratio (y) = 0.48987 0.30941
# Poissons Ratio (z) = 0.30219 0.19270
#
# Static dielectric constant tensor:
#      x y z
#    x 3.747120 0.000000 0.000000 
#    y 0.000000 3.287340 0.000000 
#    z 0.000000 0.000000 3.675390 
# 
# 
# High freq. dielectric constant tensor:
#      x y z
#    x 1.792070 0.000000 0.000000 
#    y 0.000000 1.739260 0.000000 
#    z 0.000000 0.000000 1.777030 
# 
# From -- ./inp_files/4893.got.cif
#   From: 2010.03.12/outbox.cif.g09.slc.cpg/sg25_3_cif.got.tgz:4893.got - 2010.04.14 03:30:10.
