data_PCOD8166944
_publ_section_title
;
Structure prediction by ZEFSAII (Michael W. Deem and Ramdas Pophale) SiO2 
 PCOD8166944
Probable space group: P M M 2
;
_chemical_formula_sum "Si O2"
_cell_formula_units_Z 32
_cell_length_a 8.693807
_cell_length_b 13.859612
_cell_length_c 12.844093
_cell_angle_alpha 90.000000
_cell_angle_beta 90.000000
_cell_angle_gamma 90.000000
_cell_volume 1547.620624
_symmetry_space_group_name_H-M "P M M 2"
_symmetry_group_IT_number 25
_symmetry_cell_setting 'orthorhombic'
loop_
_space_group_symop_operation_xyz
x,y,z
-x,-y,z
-x,y,z
x,-y,z
loop_
_atom_site_type_symbol
_atom_site_label
_atom_site_fract_x
_atom_site_fract_y
_atom_site_fract_z
Si Si1 0.320513 0.207815 0.302130
Si Si2 0.672670 0.614290 0.595253
Si Si3 0.819637 0.610081 0.807053
Si Si4 0.823474 0.114180 0.498953
Si Si5 0.319101 0.223642 0.915043
Si Si6 0.180127 0.111315 0.104749
Si Si7 0.180557 0.389821 0.381694
Si Si8 0.321242 0.888138 0.711377
O O1 0.500000 0.200987 0.276459
O O2 0.285195 0.162506 0.413945
O O3 0.224520 0.148029 0.218464
O O4 0.267924 0.320204 0.300588
O O5 0.500000 0.653988 0.578414
O O6 0.674308 0.500000 0.603240
O O7 0.738981 0.654706 0.703773
O O8 0.778279 0.645898 0.498375
O O9 0.769584 0.500000 0.827518
O O10 0.762970 0.672121 0.905867
O O11 0.000000 0.618262 0.791073
O O12 0.771104 0.153462 0.612056
O O13 0.000000 0.143326 0.478510
O O14 0.799317 0.000000 0.493366
O O15 0.500000 0.238931 0.915441
O O16 0.262332 0.160624 0.817203
O O17 0.271596 0.173087 0.021004
O O18 0.000000 0.125017 0.087094
O O19 0.228901 0.000000 0.094255
O O20 0.235811 0.500000 0.362829
O O21 0.000000 0.379972 0.364922
O O22 0.500000 0.868303 0.691746
O O23 0.284849 0.000000 0.725658
#
# Coordination Sequence:
#
# PCOD8166944 Si02
#       8
#     4   4   4   4   4   4   4   4
#     4  12  25  40  63  91 122 160 204 253 308 366
#     4   9  17  31  53  82 118 160 204 250 300 356
#     4  10  21  37  57  84 122 167 212 257 306 361
#     4  10  21  37  58  86 121 159 200 249 305 365
#     4  11  23  39  63  92 123 159 204 256 311 368
#     4  11  25  46  70  94 122 157 202 255 308 367
#     4  10  21  38  60  87 122 163 206 253 305 362
#     4   9  19  36  57  84 120 158 195 241 302 370
#
# _framework density 20.676901999999998
#
# number of rings (size 3 to 8) (size 9 to 14) (size 15 to 20)
#    0.000    1.750    0.000    4.125    1.750    7.750 
#    0.000    1.875    0.000    3.750    0.000    0.000 
#    0.000    0.000    0.000    0.000    0.000    0.000 
#
# Total GULP energy -396942.039029 kJ/mol
# GULP energy per Si atom -12404.438720 kJ/mol
# Density = 2.062984 g / cm^3
# Si number density = 20.676902 Si / 1000 Ang^3
#
#
#
# Elastic Constant Matrix: (Units=GPa)
#
#
# Indices 1 2 3 4 5 6 
#
# 1 65.4227 27.4605 15.9657 0.0000 0.0000 0.0000
# 2 27.4605 72.1158 34.0348 0.0000 0.0000 0.0000
# 3 15.9657 34.0348 71.5168 0.0000 0.0000 0.0000
# 4 0.0000 0.0000 0.0000 37.7299 0.0000 0.0000
# 5 0.0000 0.0000 0.0000 0.0000 37.9969 0.0000
# 6 0.0000 0.0000 0.0000 0.0000 0.0000 29.8184
#
#
#
# Elastic Compliance Matrix: (Units=1/GPa)
#
#
# Indices 1 2 3 4 5 6 
#
# 1 0.018247 -0.006481 -0.000989 0.000000 0.000000 0.000000
# 2 -0.006481 0.020185 -0.008159 0.000000 0.000000 0.000000
# 3 -0.000989 -0.008159 0.018087 0.000000 0.000000 0.000000
# 4 0.000000 0.000000 0.000000 0.026504 0.000000 0.000000
# 5 0.000000 0.000000 0.000000 0.000000 0.026318 0.000000
# 6 0.000000 0.000000 0.000000 0.000000 0.000000 0.033536
#
#
# Mechanical properties :
#
#
# Convention : Reuss Voigt Hill
#
# Bulk Modulus (GPa) = 39.58906 40.44191 40.01548
# Shear Modulus (GPa) = 27.38878 29.88201 28.63540
#
# Velocity S-wave (km/s) = 3.64346 3.80569 3.72546
# Velocity P-wave (km/s) = 6.07354 6.23798 6.15631
#
# Compressibility (1/GPa) = 0.02525950
#
# Stress axis : x y z
#
# Youngs Moduli (GPa) = 54.80331 49.54095 55.28981
#
# Poissons Ratio (x) = 0.32109 0.05469
# Poissons Ratio (y) = 0.35520 0.45112
# Poissons Ratio (z) = 0.05420 0.40422
#
# Static dielectric constant tensor:
#      x y z
#    x 3.708900 0.000000 0.000000 
#    y 0.000000 3.959170 0.000000 
#    z 0.000000 0.000000 3.625700 
# 
# 
# High freq. dielectric constant tensor:
#      x y z
#    x 1.814000 0.000000 0.000000 
#    y 0.000000 1.824250 0.000000 
#    z 0.000000 0.000000 1.791610 
# 
# From -- ./inp_files/4155.got.cif
#   From: 2010.03.12/outbox.cif.g09.slc.cpg/sg25_3_cif.got.tgz:4155.got - 2010.04.14 03:30:10.
