data_PCOD8166126
_publ_section_title
;
Structure prediction by ZEFSAII (Michael W. Deem and Ramdas Pophale) SiO2 
 PCOD8166126
Probable space group: I 21 21 21
;
_chemical_formula_sum "Si O2"
_cell_formula_units_Z 64
_cell_length_a 17.949993
_cell_length_b 13.858599
_cell_length_c 13.673391
_cell_angle_alpha 90.000000
_cell_angle_beta 90.000000
_cell_angle_gamma 90.000000
_cell_volume 3401.416743
_symmetry_space_group_name_H-M "I 21 21 21"
_symmetry_group_IT_number 24
_symmetry_cell_setting 'orthorhombic'
loop_
_space_group_symop_operation_xyz
x,y,z
-x,1/2-y,z
x,-y,1/2-z
1/2-x,y,-z
1/2+x,1/2+y,1/2+z
1/2-x,-y,1/2+z
1/2+x,1/2-y,-z
-x,1/2+y,1/2-z
loop_
_atom_site_type_symbol
_atom_site_label
_atom_site_fract_x
_atom_site_fract_y
_atom_site_fract_z
Si Si1 0.085923 0.229040 0.114863
Si Si2 0.663714 0.124842 0.020298
Si Si3 0.079783 0.009798 0.137221
Si Si4 0.166245 0.690960 0.201011
Si Si5 0.822760 0.886489 0.740240
Si Si6 0.169865 0.845485 0.033516
Si Si7 0.077312 0.707837 0.905404
Si Si8 0.578824 0.053155 0.570742
O O1 0.101242 0.116235 0.102492
O O2 0.107515 0.266204 0.222316
O O3 0.000000 0.250000 0.096206
O O4 0.136129 0.279852 0.033718
O O5 0.645425 0.139503 0.134110
O O6 0.750000 0.106726 0.000000
O O7 0.620999 0.031078 0.984240
O O8 0.102326 0.000000 0.250000
O O9 0.125113 0.937309 0.069950
O O10 0.992791 0.989475 0.124185
O O11 0.243559 0.665625 0.251813
O O12 0.181903 0.768655 0.118431
O O13 0.132133 0.594313 0.154950
O O14 0.880734 0.849564 0.820560
O O15 0.811369 0.000000 0.750000
O O16 0.250000 0.883349 0.000000
O O17 0.128014 0.795901 0.942582
O O18 0.000000 0.750000 0.863429
O O19 0.057005 0.637027 0.994938
#
# Coordination Sequence:
#
# PCOD8166126 Si02
#       8
#     8   8   8   8   8   8   8   8
#     4  12  25  41  64  95 132 168 209 265 330 384
#     4  12  25  41  64  95 132 168 209 265 330 384
#     4  12  24  42  67  93 128 171 217 262 322 385
#     4  11  24  39  66  98 129 162 209 263 327 385
#     4  12  24  42  67  93 128 171 217 262 322 385
#     4  11  23  42  67  94 126 167 213 265 317 380
#     4  11  23  42  67  94 126 167 213 265 317 380
#     4  11  24  39  66  98 129 162 209 263 327 385
#
# _framework density 18.815688999999999
#
# number of rings (size 3 to 8) (size 9 to 14) (size 15 to 20)
#    0.000    0.500    7.500    1.500    0.000    1.000 
#    0.000    0.000    0.000    0.000    0.000    0.000 
#    0.000    0.000    0.000    0.000    0.000    0.000 
#
# Total GULP energy -397010.241458 kJ/mol
# GULP energy per Si atom -12406.570046 kJ/mol
# Density = 1.877286 g / cm^3
# Si number density = 18.815689 Si / 1000 Ang^3
#
#
#
# Elastic Constant Matrix: (Units=GPa)
#
#
# Indices 1 2 3 4 5 6 
#
# 1 79.1923 40.8119 17.5487 0.0000 0.0000 0.0000
# 2 40.8119 116.6050 31.2193 0.0000 0.0000 0.0000
# 3 17.5487 31.2193 85.0870 0.0000 0.0000 0.0000
# 4 0.0000 0.0000 0.0000 58.5779 0.0000 0.0000
# 5 0.0000 0.0000 0.0000 0.0000 81.9181 0.0000
# 6 0.0000 0.0000 0.0000 0.0000 0.0000 35.9918
#
#
#
# Elastic Compliance Matrix: (Units=1/GPa)
#
#
# Indices 1 2 3 4 5 6 
#
# 1 0.015543 -0.005081 -0.001341 0.000000 0.000000 0.000000
# 2 -0.005081 0.011171 -0.003051 0.000000 0.000000 0.000000
# 3 -0.001341 -0.003051 0.013149 0.000000 0.000000 0.000000
# 4 0.000000 0.000000 0.000000 0.017071 0.000000 0.000000
# 5 0.000000 0.000000 0.000000 0.000000 0.012207 0.000000
# 6 0.000000 0.000000 0.000000 0.000000 0.000000 0.027784
#
#
# Mechanical properties :
#
#
# Convention : Reuss Voigt Hill
#
# Bulk Modulus (GPa) = 47.80914 51.11600 49.46257
# Shear Modulus (GPa) = 40.70183 48.05121 44.37652
#
# Velocity S-wave (km/s) = 4.65605 5.05898 4.86169
# Velocity P-wave (km/s) = 7.37356 7.83263 7.60656
#
# Compressibility (1/GPa) = 0.02091650
#
# Stress axis : x y z
#
# Youngs Moduli (GPa) = 64.33659 89.51624 76.05295
#
# Poissons Ratio (x) = 0.45483 0.10202
# Poissons Ratio (y) = 0.32689 0.23203
# Poissons Ratio (z) = 0.08630 0.27310
#
# Static dielectric constant tensor:
#      x y z
#    x 3.567240 0.000000 0.000000 
#    y 0.000000 2.775910 0.000000 
#    z 0.000000 0.000000 3.547930 
# 
# 
# High freq. dielectric constant tensor:
#      x y z
#    x 1.737570 0.000000 0.000000 
#    y 0.000000 1.740030 0.000000 
#    z 0.000000 0.000000 1.735220 
# 
# From -- ./inp_files/21730.got.cif
#   From: 2010.03.12/outbox.cif.g09.slc.cpg/sg24_11_cif.got.tgz:21730.got - 2010.04.14 03:06:53.
