data_PCOD8166937
_publ_section_title
;
Structure prediction by ZEFSAII (Michael W. Deem and Ramdas Pophale) SiO2 
 PCOD8166937
Probable space group: P M M 2
;
_chemical_formula_sum "Si O2"
_cell_formula_units_Z 32
_cell_length_a 14.957445
_cell_length_b 9.062514
_cell_length_c 12.272385
_cell_angle_alpha 90.000000
_cell_angle_beta 90.000000
_cell_angle_gamma 90.000000
_cell_volume 1663.547003
_symmetry_space_group_name_H-M "P M M 2"
_symmetry_group_IT_number 25
_symmetry_cell_setting 'orthorhombic'
loop_
_space_group_symop_operation_xyz
x,y,z
-x,-y,z
-x,y,z
x,-y,z
loop_
_atom_site_type_symbol
_atom_site_label
_atom_site_fract_x
_atom_site_fract_y
_atom_site_fract_z
Si Si1 0.397355 0.676004 0.598950
Si Si2 0.746097 0.826933 0.209954
Si Si3 0.894048 0.163406 0.816394
Si Si4 0.099099 0.824461 0.055079
Si Si5 0.753190 0.826469 0.462196
Si Si6 0.398035 0.324438 0.069617
Si Si7 0.605780 0.338878 0.835053
Si Si8 0.104919 0.329060 0.604611
O O1 0.500000 0.717224 0.572448
O O2 0.384288 0.500000 0.595270
O O3 0.335536 0.753319 0.510613
O O4 0.368982 0.739113 0.719879
O O5 0.833359 0.765486 0.146784
O O6 0.756874 0.786838 0.335507
O O7 0.658871 0.747035 0.165006
O O8 0.734575 0.000000 0.190732
O O9 0.860936 0.274828 0.723066
O O10 0.000000 0.151986 0.816104
O O11 0.853668 0.000000 0.794105
O O12 0.864839 0.224663 0.935278
O O13 0.000000 0.758715 0.078501
O O14 0.093171 0.000000 0.056480
O O15 0.843400 0.761005 0.512716
O O16 0.750218 0.000000 0.483373
O O17 0.500000 0.279737 0.093178
O O18 0.386669 0.500000 0.070282
O O19 0.366905 0.260268 0.949595
O O20 0.500000 0.359014 0.836964
O O21 0.650831 0.500000 0.833841
O O22 0.128949 0.500000 0.594199
O O23 0.000000 0.298727 0.588539
#
# Coordination Sequence:
#
# PCOD8166937 Si02
#       8
#     4   4   4   4   4   4   4   4
#     4   9  18  35  59  82 106 139 176 217 266 316
#     4  10  22  37  52  74 103 137 179 221 257 297
#     4   8  14  28  53  82 108 133 163 203 256 318
#     4   8  15  31  55  79 103 133 169 210 257 311
#     4  11  24  38  52  74 106 144 184 223 261 306
#     4   9  18  34  56  79 104 135 168 206 257 315
#     4   7  12  27  52  80 105 129 163 207 258 316
#     4  10  21  37  57  80 107 138 172 215 264 313
#
# _framework density 19.236008000000002
#
# number of rings (size 3 to 8) (size 9 to 14) (size 15 to 20)
#    0.000    3.000    0.000    3.000    0.000    4.250 
#    0.000    7.500    0.000    3.375    0.000    0.000 
#    0.000    0.000    0.000    0.000    0.000    0.000 
#
# Total GULP energy -396535.524258 kJ/mol
# GULP energy per Si atom -12391.735133 kJ/mol
# Density = 1.919223 g / cm^3
# Si number density = 19.236008 Si / 1000 Ang^3
#
#
#
# Elastic Constant Matrix: (Units=GPa)
#
#
# Indices 1 2 3 4 5 6 
#
# 1 96.0283 38.9979 75.7067 0.0000 0.0000 0.0000
# 2 38.9979 53.4731 57.4604 0.0000 0.0000 0.0000
# 3 75.7067 57.4604 169.4600 0.0000 0.0000 0.0000
# 4 0.0000 0.0000 0.0000 24.4911 0.0000 0.0000
# 5 0.0000 0.0000 0.0000 0.0000 33.2336 0.0000
# 6 0.0000 0.0000 0.0000 0.0000 0.0000 26.0839
#
#
#
# Elastic Compliance Matrix: (Units=1/GPa)
#
#
# Indices 1 2 3 4 5 6 
#
# 1 0.017550 -0.006881 -0.005507 0.000000 0.000000 0.000000
# 2 -0.006881 0.032119 -0.007817 0.000000 0.000000 0.000000
# 3 -0.005507 -0.007817 0.011012 0.000000 0.000000 0.000000
# 4 0.000000 0.000000 0.000000 0.040831 0.000000 0.000000
# 5 0.000000 0.000000 0.000000 0.000000 0.030090 0.000000
# 6 0.000000 0.000000 0.000000 0.000000 0.000000 0.038338
#
#
# Mechanical properties :
#
#
# Convention : Reuss Voigt Hill
#
# Bulk Modulus (GPa) = 49.33263 73.69905 61.51584
# Shear Modulus (GPa) = 23.03013 26.54814 24.78914
#
# Velocity S-wave (km/s) = 3.46387 3.71904 3.59372
# Velocity P-wave (km/s) = 6.45752 7.53909 7.01917
#
# Compressibility (1/GPa) = 0.02027056
#
# Stress axis : x y z
#
# Youngs Moduli (GPa) = 56.98043 31.13422 90.81100
#
# Poissons Ratio (x) = 0.21425 0.50011
# Poissons Ratio (y) = 0.39210 0.70984
# Poissons Ratio (z) = 0.31380 0.24336
#
# Static dielectric constant tensor:
#      x y z
#    x 3.445100 0.000000 0.000000 
#    y 0.000000 3.221430 0.000000 
#    z 0.000000 0.000000 3.818620 
# 
# 
# High freq. dielectric constant tensor:
#      x y z
#    x 1.741550 0.000000 0.000000 
#    y 0.000000 1.714970 0.000000 
#    z 0.000000 0.000000 1.758040 
# 
# From -- ./inp_files/4898.got.cif
#   From: 2010.03.12/outbox.cif.g09.slc.cpg/sg25_3_cif.got.tgz:4898.got - 2010.04.14 03:30:10.
