data_PCOD8166591
_publ_section_title
;
Structure prediction by ZEFSAII (Michael W. Deem and Ramdas Pophale) SiO2 
 PCOD8166591
Probable space group: P M M 2
;
_chemical_formula_sum "Si O2"
_cell_formula_units_Z 32
_cell_length_a 9.308463
_cell_length_b 9.492803
_cell_length_c 20.986174
_cell_angle_alpha 90.000000
_cell_angle_beta 90.000000
_cell_angle_gamma 90.000000
_cell_volume 1854.409803
_symmetry_space_group_name_H-M "P M M 2"
_symmetry_group_IT_number 25
_symmetry_cell_setting 'orthorhombic'
loop_
_space_group_symop_operation_xyz
x,y,z
-x,-y,z
-x,y,z
x,-y,z
loop_
_atom_site_type_symbol
_atom_site_label
_atom_site_fract_x
_atom_site_fract_y
_atom_site_fract_z
Si Si1 0.671160 0.656821 0.916800
Si Si2 0.838531 0.831451 0.678969
Si Si3 0.331597 0.336097 0.299306
Si Si4 0.830151 0.846268 0.543060
Si Si5 0.161412 0.332546 0.174979
Si Si6 0.668563 0.162283 0.799841
Si Si7 0.339482 0.332014 0.056525
Si Si8 0.165144 0.831899 0.404463
O O1 0.500000 0.653336 0.915786
O O2 0.732336 0.500000 0.904913
O O3 0.731530 0.757348 0.861392
O O4 0.719072 0.714032 0.986602
O O5 0.783190 0.770168 0.609732
O O6 0.738694 0.774365 0.735732
O O7 0.000000 0.779983 0.693332
O O8 0.832167 0.000000 0.674938
O O9 0.500000 0.308664 0.291053
O O10 0.298708 0.500000 0.312339
O O11 0.253167 0.282530 0.235518
O O12 0.272557 0.244857 0.357212
O O13 0.793325 0.772093 0.475499
O O14 0.000000 0.865628 0.546982
O O15 0.756884 0.000000 0.541031
O O16 0.159041 0.500000 0.171685
O O17 0.234464 0.271158 0.110890
O O18 0.000000 0.272034 0.180399
O O19 0.500000 0.185028 0.793243
O O20 0.710305 0.000000 0.808751
O O21 0.500000 0.272324 0.068597
O O22 0.345232 0.500000 0.058943
O O23 0.000000 0.793196 0.387950
O O24 0.186202 0.000000 0.401075
#
# Coordination Sequence:
#
# PCOD8166591 Si02
#       8
#     4   4   4   4   4   4   4   4
#     4   8  14  25  41  59  80 109 140 166 201 254
#     4   8  13  23  40  60  82 109 139 170 207 251
#     4  10  20  32  46  66  93 123 152 182 217 260
#     4   7  11  22  41  63  84 107 138 174 210 251
#     4   9  16  26  42  64  87 110 140 180 221 256
#     4   9  16  25  39  61  85 106 134 174 210 239
#     4   8  13  23  40  59  77 101 137 176 209 247
#     4   9  17  30  49  71  92 115 146 185 227 269
#
# _framework density 17.256163999999998
#
# number of rings (size 3 to 8) (size 9 to 14) (size 15 to 20)
#    0.000    3.500    0.000    3.000    0.000    2.500 
#    0.000    1.250    0.000    4.875    0.000    5.250 
#    0.000    0.000    0.000    0.000    0.000    0.000 
#
# Total GULP energy -396419.746143 kJ/mol
# GULP energy per Si atom -12388.117067 kJ/mol
# Density = 1.721689 g / cm^3
# Si number density = 17.256164 Si / 1000 Ang^3
#
#
#
# Elastic Constant Matrix: (Units=GPa)
#
#
# Indices 1 2 3 4 5 6 
#
# 1 73.2958 21.6980 67.9953 0.0000 0.0000 0.0000
# 2 21.6980 25.5983 39.4692 0.0000 0.0000 0.0000
# 3 67.9953 39.4692 195.5059 0.0000 0.0000 0.0000
# 4 0.0000 0.0000 0.0000 17.8908 0.0000 0.0000
# 5 0.0000 0.0000 0.0000 0.0000 32.3660 0.0000
# 6 0.0000 0.0000 0.0000 0.0000 0.0000 13.8129
#
#
#
# Elastic Compliance Matrix: (Units=1/GPa)
#
#
# Indices 1 2 3 4 5 6 
#
# 1 0.021718 -0.009819 -0.005571 0.000000 0.000000 0.000000
# 2 -0.009819 0.061160 -0.008932 0.000000 0.000000 0.000000
# 3 -0.005571 -0.008932 0.008856 0.000000 0.000000 0.000000
# 4 0.000000 0.000000 0.000000 0.055895 0.000000 0.000000
# 5 0.000000 0.000000 0.000000 0.000000 0.030897 0.000000
# 6 0.000000 0.000000 0.000000 0.000000 0.000000 0.072396
#
#
# Mechanical properties :
#
#
# Convention : Reuss Voigt Hill
#
# Bulk Modulus (GPa) = 23.20755 61.41388 42.31071
# Shear Modulus (GPa) = 15.92711 23.82979 19.87845
#
# Velocity S-wave (km/s) = 3.04136 3.72014 3.39774
# Velocity P-wave (km/s) = 5.08047 7.35659 6.32181
#
# Compressibility (1/GPa) = 0.04308943
#
# Stress axis : x y z
#
# Youngs Moduli (GPa) = 46.04386 16.35046 112.92061
#
# Poissons Ratio (x) = 0.16055 0.62910
# Poissons Ratio (y) = 0.45212 1.00863
# Poissons Ratio (z) = 0.25652 0.14604
#
# Static dielectric constant tensor:
#      x y z
#    x 3.056060 0.000000 0.000000 
#    y 0.000000 2.962600 0.000000 
#    z 0.000000 0.000000 3.789370 
# 
# 
# High freq. dielectric constant tensor:
#      x y z
#    x 1.639980 0.000000 0.000000 
#    y 0.000000 1.600780 0.000000 
#    z 0.000000 0.000000 1.692760 
# 
# From -- ./inp_files/6309.got.cif
#   From: 2010.03.12/outbox.cif.g09.slc.cpg/sg25_4_cif.got.tgz:6309.got - 2010.04.14 03:30:10.
