data_PCOD8166334
_publ_section_title
;
Structure prediction by ZEFSAII (Michael W. Deem and Ramdas Pophale) SiO2 
 PCOD8166334
Probable space group: P M M 2
;
_chemical_formula_sum "Si O2"
_cell_formula_units_Z 20
_cell_length_a 9.064824
_cell_length_b 7.789341
_cell_length_c 14.735035
_cell_angle_alpha 90.000000
_cell_angle_beta 90.000000
_cell_angle_gamma 90.000000
_cell_volume 1040.426164
_symmetry_space_group_name_H-M "P M M 2"
_symmetry_group_IT_number 25
_symmetry_cell_setting 'orthorhombic'
loop_
_space_group_symop_operation_xyz
x,y,z
-x,-y,z
-x,y,z
x,-y,z
loop_
_atom_site_type_symbol
_atom_site_label
_atom_site_fract_x
_atom_site_fract_y
_atom_site_fract_z
Si Si1 0.325766 0.809425 0.151310
Si Si2 0.333022 0.703318 0.957596
Si Si3 0.176166 0.500000 0.470196
Si Si4 0.676120 0.500000 0.276531
Si Si5 0.339312 0.690756 0.612541
Si Si6 0.835243 0.705384 0.780546
O O1 0.500000 0.787709 0.144102
O O2 0.268475 0.668131 0.222253
O O3 0.280165 0.000000 0.185067
O O4 0.262121 0.778178 0.050249
O O5 0.500000 0.768500 0.944108
O O6 0.327845 0.500000 0.964708
O O7 0.239887 0.772076 0.872681
O O8 0.236070 0.500000 0.369399
O O9 0.239094 0.672018 0.521075
O O10 0.000000 0.500000 0.473149
O O11 0.500000 0.500000 0.293917
O O12 0.500000 0.779183 0.592422
O O13 0.371559 0.500000 0.649614
O O14 0.251544 0.785514 0.693620
O O15 0.838473 0.500000 0.776743
O O16 0.000000 0.779540 0.777301
#
# Coordination Sequence:
#
# PCOD8166334 Si02
#       6
#     4   4   2   2   4   4
#     4   9  17  30  50  74  98 128 169 214 254 292
#     4   9  15  25  42  65  93 126 161 198 238 283
#     4  10  18  28  43  66  97 128 161 204 250 302
#     4  10  18  32  51  72  97 126 165 212 256 298
#     4   8  14  24  39  62  92 124 158 199 241 287
#     4   9  15  22  36  61  95 128 158 195 236 287
#
# _framework density 19.222892999999999
#
# number of rings (size 3 to 8) (size 9 to 14) (size 15 to 20)
#    0.600    2.400    1.000    1.800    0.000    2.400 
#    0.000    1.000    0.000    2.400    0.000    1.400 
#    0.000   11.200    0.000    0.000    0.000    0.000 
#
# Total GULP energy -247763.550110 kJ/mol
# GULP energy per Si atom -12388.177506 kJ/mol
# Density = 1.917914 g / cm^3
# Si number density = 19.222893 Si / 1000 Ang^3
#
#
#
# Elastic Constant Matrix: (Units=GPa)
#
#
# Indices 1 2 3 4 5 6 
#
# 1 128.8762 19.1186 78.1310 0.0000 0.0000 0.0000
# 2 19.1186 56.3067 42.2439 0.0000 0.0000 0.0000
# 3 78.1310 42.2439 186.3894 0.0000 0.0000 0.0000
# 4 0.0000 0.0000 0.0000 1.1959 0.0000 0.0000
# 5 0.0000 0.0000 0.0000 0.0000 15.8467 0.0000
# 6 0.0000 0.0000 0.0000 0.0000 0.0000 0.8959
#
#
#
# Elastic Compliance Matrix: (Units=1/GPa)
#
#
# Indices 1 2 3 4 5 6 
#
# 1 0.010408 -0.000314 -0.004292 0.000000 0.000000 0.000000
# 2 -0.000314 0.021408 -0.004720 0.000000 0.000000 0.000000
# 3 -0.004292 -0.004720 0.008234 0.000000 0.000000 0.000000
# 4 0.000000 0.000000 0.000000 0.836204 0.000000 0.000000
# 5 0.000000 0.000000 0.000000 0.000000 0.063105 0.000000
# 6 0.000000 0.000000 0.000000 0.000000 0.000000 1.116160
#
#
# Mechanical properties :
#
#
# Convention : Reuss Voigt Hill
#
# Bulk Modulus (GPa) = 46.73427 72.28437 59.50932
# Shear Modulus (GPa) = 2.40234 19.05962 10.73098
#
# Velocity S-wave (km/s) = 1.11913 3.15224 2.36527
# Velocity P-wave (km/s) = 5.10240 7.13678 6.20355
#
# Compressibility (1/GPa) = 0.02139757
#
# Stress axis : x y z
#
# Youngs Moduli (GPa) = 96.08250 46.71168 121.44979
#
# Poissons Ratio (x) = 0.01468 0.52120
# Poissons Ratio (y) = 0.03019 0.57327
# Poissons Ratio (z) = 0.41234 0.22049
#
# Static dielectric constant tensor:
#      x y z
#    x 3.462860 0.000000 0.000000 
#    y 0.000000 3.038050 0.000000 
#    z 0.000000 0.000000 3.518610 
# 
# 
# High freq. dielectric constant tensor:
#      x y z
#    x 1.727590 0.000000 0.000000 
#    y 0.000000 1.696530 0.000000 
#    z 0.000000 0.000000 1.749750 
# 
# From -- ./inp_files/5198.got.cif
#   From: 2010.03.12/outbox.cif.g09.slc.cpg/sg25_3_cif.got.tgz:5198.got - 2010.04.14 03:30:10.
