data_PCOD8166385
_publ_section_title
;
Structure prediction by ZEFSAII (Michael W. Deem and Ramdas Pophale) SiO2 
 PCOD8166385
Probable space group: P M M 2
;
_chemical_formula_sum "Si O2"
_cell_formula_units_Z 32
_cell_length_a 14.698037
_cell_length_b 8.638022
_cell_length_c 12.463743
_cell_angle_alpha 90.000000
_cell_angle_beta 90.000000
_cell_angle_gamma 90.000000
_cell_volume 1582.421327
_symmetry_space_group_name_H-M "P M M 2"
_symmetry_group_IT_number 25
_symmetry_cell_setting 'orthorhombic'
loop_
_space_group_symop_operation_xyz
x,y,z
-x,-y,z
-x,y,z
x,-y,z
loop_
_atom_site_type_symbol
_atom_site_label
_atom_site_fract_x
_atom_site_fract_y
_atom_site_fract_z
Si Si1 0.397197 0.317544 0.904050
Si Si2 0.714609 0.821342 0.712923
Si Si3 0.338885 0.180052 0.334305
Si Si4 0.899696 0.821631 0.614380
Si Si5 0.600247 0.324886 0.535380
Si Si6 0.096819 0.678974 0.166469
Si Si7 0.156253 0.677479 0.399342
Si Si8 0.293615 0.315254 0.113400
O O1 0.500000 0.247851 0.894717
O O2 0.404628 0.500000 0.912904
O O3 0.334671 0.278803 0.803024
O O4 0.346508 0.251595 0.009491
O O5 0.821305 0.774026 0.700176
O O6 0.667307 0.787399 0.599603
O O7 0.703458 0.000000 0.743542
O O8 0.409634 0.264283 0.413444
O O9 0.241226 0.208692 0.387996
O O10 0.347311 0.253778 0.216587
O O11 0.361135 0.000000 0.326259
O O12 0.897615 0.719825 0.506780
O O13 0.000000 0.796909 0.666790
O O14 0.884327 0.000000 0.581858
O O15 0.500000 0.319616 0.588012
O O16 0.638357 0.500000 0.538672
O O17 0.097241 0.500000 0.135640
O O18 0.094107 0.700619 0.294906
O O19 0.189018 0.751529 0.114683
O O20 0.000000 0.751938 0.124131
O O21 0.190288 0.500000 0.405781
O O22 0.291761 0.500000 0.118583
#
# Coordination Sequence:
#
# PCOD8166385 Si02
#       8
#     4   4   4   4   4   4   4   4
#     4  10  22  41  63  84 109 147 195 246 299 353
#     4  11  23  39  60  85 115 149 189 241 292 345
#     4  11  21  34  54  83 120 156 188 231 288 346
#     4  10  21  36  54  80 116 156 193 233 289 350
#     4  11  23  38  58  84 115 152 190 233 290 353
#     4   8  14  26  47  77 110 142 181 230 281 330
#     4  10  18  30  51  79 113 155 199 238 277 332
#     4   9  19  36  57  81 110 147 192 241 291 345
#
# _framework density 20.222173999999999
#
# number of rings (size 3 to 8) (size 9 to 14) (size 15 to 20)
#    0.000    2.000    1.250    3.750    0.000    5.000 
#    0.000    1.875    0.000    4.125    0.000    0.000 
#    0.000    0.000    0.000    0.000    0.000    0.000 
#
# Total GULP energy -396609.351668 kJ/mol
# GULP energy per Si atom -12394.042240 kJ/mol
# Density = 2.017615 g / cm^3
# Si number density = 20.222174 Si / 1000 Ang^3
#
#
#
# Elastic Constant Matrix: (Units=GPa)
#
#
# Indices 1 2 3 4 5 6 
#
# 1 141.5973 17.3232 57.9128 0.0000 0.0000 0.0000
# 2 17.3232 36.6565 10.8025 0.0000 0.0000 0.0000
# 3 57.9128 10.8025 106.2278 0.0000 0.0000 0.0000
# 4 0.0000 0.0000 0.0000 19.5970 0.0000 0.0000
# 5 0.0000 0.0000 0.0000 0.0000 22.4518 0.0000
# 6 0.0000 0.0000 0.0000 0.0000 0.0000 18.3465
#
#
#
# Elastic Compliance Matrix: (Units=1/GPa)
#
#
# Indices 1 2 3 4 5 6 
#
# 1 0.009403 -0.003024 -0.004819 0.000000 0.000000 0.000000
# 2 -0.003024 0.029095 -0.001310 0.000000 0.000000 0.000000
# 3 -0.004819 -0.001310 0.012174 0.000000 0.000000 0.000000
# 4 0.000000 0.000000 0.000000 0.051028 0.000000 0.000000
# 5 0.000000 0.000000 0.000000 0.000000 0.044540 0.000000
# 6 0.000000 0.000000 0.000000 0.000000 0.000000 0.054506
#
#
# Mechanical properties :
#
#
# Convention : Reuss Voigt Hill
#
# Bulk Modulus (GPa) = 30.89576 50.72873 40.81224
# Shear Modulus (GPa) = 21.75411 25.30860 23.53135
#
# Velocity S-wave (km/s) = 3.28343 3.54153 3.41492
# Velocity P-wave (km/s) = 5.44847 6.47019 5.98119
#
# Compressibility (1/GPa) = 0.03236690
#
# Stress axis : x y z
#
# Youngs Moduli (GPa) = 106.34798 34.36971 82.14154
#
# Poissons Ratio (x) = 0.10392 0.39583
# Poissons Ratio (y) = 0.32156 0.10763
# Poissons Ratio (z) = 0.51248 0.04504
#
# Static dielectric constant tensor:
#      x y z
#    x 4.015470 0.000000 0.000000 
#    y 0.000000 3.395090 0.000000 
#    z 0.000000 0.000000 3.526320 
# 
# 
# High freq. dielectric constant tensor:
#      x y z
#    x 1.803330 0.000000 0.000000 
#    y 0.000000 1.767470 0.000000 
#    z 0.000000 0.000000 1.766110 
# 
# From -- ./inp_files/4894.got.cif
#   From: 2010.03.12/outbox.cif.g09.slc.cpg/sg25_3_cif.got.tgz:4894.got - 2010.04.14 03:30:10.
