data_PCOD8166759
_publ_section_title
;
Structure prediction by ZEFSAII (Michael W. Deem and Ramdas Pophale) SiO2 
 PCOD8166759
Probable space group: P M M 2
;
_chemical_formula_sum "Si O2"
_cell_formula_units_Z 24
_cell_length_a 8.987527
_cell_length_b 8.729674
_cell_length_c 15.586417
_cell_angle_alpha 90.000000
_cell_angle_beta 90.000000
_cell_angle_gamma 90.000000
_cell_volume 1222.881923
_symmetry_space_group_name_H-M "P M M 2"
_symmetry_group_IT_number 25
_symmetry_cell_setting 'orthorhombic'
loop_
_space_group_symop_operation_xyz
x,y,z
-x,-y,z
-x,y,z
x,-y,z
loop_
_atom_site_type_symbol
_atom_site_label
_atom_site_fract_x
_atom_site_fract_y
_atom_site_fract_z
Si Si1 0.832482 0.182182 0.164100
Si Si2 0.167984 0.817382 0.501580
Si Si3 0.667509 0.818338 0.670342
Si Si4 0.674927 0.822661 0.991542
Si Si5 0.828893 0.321385 0.830909
Si Si6 0.331987 0.817220 0.332354
O O1 0.749618 0.247858 0.247899
O O2 0.000000 0.246952 0.162103
O O3 0.833023 0.000000 0.167899
O O4 0.746755 0.238240 0.079543
O O5 0.256897 0.753919 0.583863
O O6 0.246954 0.754368 0.416013
O O7 0.000000 0.753998 0.504748
O O8 0.167963 0.000000 0.501385
O O9 0.500000 0.752421 0.677302
O O10 0.763867 0.768789 0.750857
O O11 0.663134 0.000000 0.667832
O O12 0.500000 0.797912 0.997872
O O13 0.738716 0.721657 0.915362
O O14 0.715088 0.000000 0.974904
O O15 0.811209 0.500000 0.812970
O O16 0.000000 0.273486 0.843463
O O17 0.500000 0.754662 0.333659
O O18 0.331088 0.000000 0.331771
#
# Coordination Sequence:
#
# PCOD8166759 Si02
#       6
#     4   4   4   4   4   4
#     4   9  16  26  42  66  97 132 167 203 246 295
#     4   9  16  26  42  66  97 132 167 203 246 295
#     4  10  20  34  53  77 103 132 168 209 253 301
#     4  10  20  34  53  77 103 132 168 209 253 301
#     4  11  24  39  54  74 100 131 168 209 254 304
#     4   9  15  23  37  61  96 133 166 203 246 291
#
# _framework density 19.625772000000001
#
# number of rings (size 3 to 8) (size 9 to 14) (size 15 to 20)
#    0.000    2.333    0.000    3.500    0.000   11.333 
#    0.000    0.000    0.000    0.000    0.000    1.167 
#    0.000    9.333    0.000    0.000    0.000    0.000 
#
# Total GULP energy -297641.409341 kJ/mol
# GULP energy per Si atom -12401.725389 kJ/mol
# Density = 1.958110 g / cm^3
# Si number density = 19.625772 Si / 1000 Ang^3
#
#
#
# Elastic Constant Matrix: (Units=GPa)
#
#
# Indices 1 2 3 4 5 6 
#
# 1 142.0586 17.7556 64.7537 0.0000 0.0000 0.0000
# 2 17.7556 6.6175 8.8133 0.0000 0.0000 0.0000
# 3 64.7537 8.8133 167.9931 0.0000 0.0000 0.0000
# 4 0.0000 0.0000 0.0000 -5.3721 0.0000 0.0000
# 5 0.0000 0.0000 0.0000 0.0000 48.7503 0.0000
# 6 0.0000 0.0000 0.0000 0.0000 0.0000 14.5709
#
#
#
# Elastic Compliance Matrix: (Units=1/GPa)
#
#
# Indices 1 2 3 4 5 6 
#
# 1 0.011961 -0.027902 -0.003147 0.000000 0.000000 0.000000
# 2 -0.027902 0.227554 -0.001183 0.000000 0.000000 0.000000
# 3 -0.003147 -0.001183 0.007228 0.000000 0.000000 0.000000
# 4 0.000000 0.000000 0.000000 -0.186149 0.000000 0.000000
# 5 0.000000 0.000000 0.000000 0.000000 0.020513 0.000000
# 6 0.000000 0.000000 0.000000 0.000000 0.000000 0.068630
#
#
# Mechanical properties :
#
#
# Convention : Reuss Voigt Hill
#
# Bulk Modulus (GPa) = 5.48611 55.47937 30.48274
# Shear Modulus (GPa) = 18.18453 26.61294 22.39873
#
# Velocity S-wave (km/s) = 3.04725 3.68641 3.38197
# Velocity P-wave (km/s) = 3.89646 6.81539 5.55121
#
# Compressibility (1/GPa) = 0.18227867
#
# Stress axis : x y z
#
# Youngs Moduli (GPa) = 83.60437 4.39457 138.35892
#
# Poissons Ratio (x) = 0.12262 0.43537
# Poissons Ratio (y) = 2.33274 0.16367
# Poissons Ratio (z) = 0.26307 0.00520
#
# Static dielectric constant tensor:
#      x y z
#    x 3.878010 0.000000 0.000000 
#    y 0.000000 2.921280 0.000000 
#    z 0.000000 0.000000 3.816040 
# 
# 
# High freq. dielectric constant tensor:
#      x y z
#    x 1.786690 0.000000 0.000000 
#    y 0.000000 1.695860 0.000000 
#    z 0.000000 0.000000 1.784900 
# 
# From -- ./inp_files/5254.got.cif
#   From: 2010.03.12/outbox.cif.g09.slc.cpg/sg25_3_cif.got.tgz:5254.got - 2010.04.14 03:30:10.
