data_PCOD8166985
_publ_section_title
;
Structure prediction by ZEFSAII (Michael W. Deem and Ramdas Pophale) SiO2 
 PCOD8166985
Probable space group: P M M 2
;
_chemical_formula_sum "Si O2"
_cell_formula_units_Z 32
_cell_length_a 14.069739
_cell_length_b 14.064750
_cell_length_c 10.138697
_cell_angle_alpha 90.000000
_cell_angle_beta 90.000000
_cell_angle_gamma 90.000000
_cell_volume 2006.319999
_symmetry_space_group_name_H-M "P M M 2"
_symmetry_group_IT_number 25
_symmetry_cell_setting 'orthorhombic'
loop_
_space_group_symop_operation_xyz
x,y,z
-x,-y,z
-x,y,z
x,-y,z
loop_
_atom_site_type_symbol
_atom_site_label
_atom_site_fract_x
_atom_site_fract_y
_atom_site_fract_z
Si Si1 0.612401 0.797605 0.765460
Si Si2 0.299338 0.888356 0.014113
Si Si3 0.389272 0.197543 0.264557
Si Si4 0.700272 0.888763 0.516255
Si Si5 0.103059 0.887486 0.422009
Si Si6 0.103937 0.112874 0.126283
Si Si7 0.612529 0.396770 0.882735
Si Si8 0.387152 0.603742 0.178509
O O1 0.500000 0.810640 0.783818
O O2 0.641418 0.826364 0.618614
O O3 0.645884 0.688582 0.787744
O O4 0.667323 0.864950 0.867078
O O5 0.370308 0.840025 0.117622
O O6 0.190734 0.850842 0.034962
O O7 0.304655 0.000000 0.036576
O O8 0.500000 0.189491 0.295518
O O9 0.334866 0.133147 0.369188
O O10 0.354409 0.308487 0.271140
O O11 0.811697 0.858031 0.520633
O O12 0.685551 0.000000 0.546685
O O13 0.120061 0.846952 0.274512
O O14 0.000000 0.851958 0.476419
O O15 0.102890 0.000000 0.410329
O O16 0.000000 0.148288 0.073642
O O17 0.104019 0.000000 0.128955
O O18 0.500000 0.396934 0.889501
O O19 0.648102 0.500000 0.828785
O O20 0.653100 0.380542 0.030327
O O21 0.500000 0.604758 0.170668
O O22 0.352511 0.500000 0.232971
#
# Coordination Sequence:
#
# PCOD8166985 Si02
#       8
#     4   4   4   4   4   4   4   4
#     4  11  22  34  45  64  97 135 165 190 225 271
#     4  11  20  30  45  67  93 124 163 196 224 272
#     4  11  20  30  45  67  93 124 163 196 224 272
#     4  11  22  34  45  64  97 135 165 190 225 271
#     4   8  14  28  49  67  84 113 155 200 243 279
#     4   8  14  27  47  68  88 112 149 202 251 275
#     4   8  14  28  49  67  84 113 155 200 243 279
#     4   8  14  27  47  68  88 112 149 202 251 275
#
# _framework density 15.949598999999999
#
# number of rings (size 3 to 8) (size 9 to 14) (size 15 to 20)
#    0.000    2.500    2.500    3.000    0.000    3.000 
#    0.000    1.250    0.000    6.000    0.000    0.000 
#    0.000    6.000    0.000    0.000    0.000    0.000 
#
# Total GULP energy -396482.276709 kJ/mol
# GULP energy per Si atom -12390.071147 kJ/mol
# Density = 1.591330 g / cm^3
# Si number density = 15.949599 Si / 1000 Ang^3
#
#
#
# Elastic Constant Matrix: (Units=GPa)
#
#
# Indices 1 2 3 4 5 6 
#
# 1 78.0450 28.4496 18.8195 0.0000 0.0000 0.0000
# 2 28.4496 71.2143 15.2197 0.0000 0.0000 0.0000
# 3 18.8195 15.2197 43.4596 0.0000 0.0000 0.0000
# 4 0.0000 0.0000 0.0000 21.7397 0.0000 0.0000
# 5 0.0000 0.0000 0.0000 0.0000 21.8090 0.0000
# 6 0.0000 0.0000 0.0000 0.0000 0.0000 0.5526
#
#
#
# Elastic Compliance Matrix: (Units=1/GPa)
#
#
# Indices 1 2 3 4 5 6 
#
# 1 0.015963 -0.005296 -0.005058 0.000000 0.000000 0.000000
# 2 -0.005296 0.016935 -0.003637 0.000000 0.000000 0.000000
# 3 -0.005058 -0.003637 0.026474 0.000000 0.000000 0.000000
# 4 0.000000 0.000000 0.000000 0.045999 0.000000 0.000000
# 5 0.000000 0.000000 0.000000 0.000000 0.045853 0.000000
# 6 0.000000 0.000000 0.000000 0.000000 0.000000 1.809489
#
#
# Mechanical properties :
#
#
# Convention : Reuss Voigt Hill
#
# Bulk Modulus (GPa) = 31.85771 35.29961 33.57866
# Shear Modulus (GPa) = 2.50105 17.50228 10.00166
#
# Velocity S-wave (km/s) = 1.25359 3.31622 2.50687
# Velocity P-wave (km/s) = 4.70241 6.06985 5.42935
#
# Compressibility (1/GPa) = 0.03138957
#
# Stress axis : x y z
#
# Youngs Moduli (GPa) = 62.64324 59.04816 37.77294
#
# Poissons Ratio (x) = 0.31274 0.19105
# Poissons Ratio (y) = 0.33178 0.13739
# Poissons Ratio (z) = 0.31685 0.21478
#
# Static dielectric constant tensor:
#      x y z
#    x 3.205510 0.000000 0.000000 
#    y 0.000000 3.170150 0.000000 
#    z 0.000000 0.000000 2.796660 
# 
# 
# High freq. dielectric constant tensor:
#      x y z
#    x 1.595080 0.000000 0.000000 
#    y 0.000000 1.594520 0.000000 
#    z 0.000000 0.000000 1.589930 
# 
# From -- ./inp_files/3289.got.cif
#   From: 2010.03.12/outbox.cif.g09.slc.cpg/sg25_2_cif.got.tgz:3289.got - 2010.04.14 03:30:10.
