data_PCOD8166797
_publ_section_title
;
Structure prediction by ZEFSAII (Michael W. Deem and Ramdas Pophale) SiO2 
 PCOD8166797
Probable space group: P M M 2
;
_chemical_formula_sum "Si O2"
_cell_formula_units_Z 32
_cell_length_a 8.942514
_cell_length_b 14.638739
_cell_length_c 12.379960
_cell_angle_alpha 90.000000
_cell_angle_beta 90.000000
_cell_angle_gamma 90.000000
_cell_volume 1620.625014
_symmetry_space_group_name_H-M "P M M 2"
_symmetry_group_IT_number 25
_symmetry_cell_setting 'orthorhombic'
loop_
_space_group_symop_operation_xyz
x,y,z
-x,-y,z
-x,y,z
x,-y,z
loop_
_atom_site_type_symbol
_atom_site_label
_atom_site_fract_x
_atom_site_fract_y
_atom_site_fract_z
Si Si1 0.827763 0.602145 0.164930
Si Si2 0.322848 0.895869 0.877010
Si Si3 0.829819 0.177910 0.443714
Si Si4 0.322811 0.772268 0.074253
Si Si5 0.668595 0.099269 0.266492
Si Si6 0.828898 0.791458 0.686860
Si Si7 0.827729 0.400999 0.605039
Si Si8 0.323966 0.640853 0.388418
O O1 0.812931 0.500000 0.115664
O O2 0.753204 0.672661 0.079859
O O3 0.748058 0.600789 0.280679
O O4 0.000000 0.629667 0.180731
O O5 0.500000 0.899874 0.880452
O O6 0.273949 0.848584 0.766216
O O7 0.259412 0.000000 0.885472
O O8 0.262035 0.831693 0.973498
O O9 0.777284 0.092639 0.371461
O O10 0.809481 0.160220 0.570613
O O11 0.716538 0.253736 0.399406
O O12 0.000000 0.205608 0.419026
O O13 0.500000 0.759468 0.066453
O O14 0.274652 0.825766 0.181835
O O15 0.500000 0.121393 0.303521
O O16 0.674757 0.000000 0.209515
O O17 0.774356 0.684685 0.678797
O O18 0.000000 0.796190 0.726875
O O19 0.810930 0.500000 0.665045
O O20 0.736778 0.410096 0.494341
O O21 0.000000 0.380920 0.574070
O O22 0.500000 0.626398 0.380342
#
# Coordination Sequence:
#
# PCOD8166797 Si02
#       8
#     4   4   4   4   4   4   4   4
#     4  11  23  37  55  82 117 155 192 232 280 337
#     4  10  22  41  64  87 111 145 190 239 292 347
#     4  10  20  35  54  79 116 156 192 235 286 338
#     4  10  21  39  61  84 113 148 189 240 289 338
#     4  10  20  34  55  84 115 148 185 229 289 354
#     4   9  20  37  57  83 114 149 191 238 285 334
#     4   9  18  34  55  80 114 155 194 233 282 339
#     4  11  20  31  51  81 116 154 194 235 280 333
#
# _framework density 19.745469
#
# number of rings (size 3 to 8) (size 9 to 14) (size 15 to 20)
#    0.000    2.000    1.250    3.375    0.000    8.250 
#    0.000    3.125    0.000    4.500    0.000    0.000 
#    0.000    0.000    0.000    0.000    0.000    0.000 
#
# Total GULP energy -396627.559753 kJ/mol
# GULP energy per Si atom -12394.611242 kJ/mol
# Density = 1.970053 g / cm^3
# Si number density = 19.745469 Si / 1000 Ang^3
#
#
#
# Elastic Constant Matrix: (Units=GPa)
#
#
# Indices 1 2 3 4 5 6 
#
# 1 71.6944 39.5040 36.7625 0.0000 0.0000 0.0000
# 2 39.5040 134.5879 57.1129 0.0000 0.0000 0.0000
# 3 36.7625 57.1129 93.0964 0.0000 0.0000 0.0000
# 4 0.0000 0.0000 0.0000 19.9621 0.0000 0.0000
# 5 0.0000 0.0000 0.0000 0.0000 25.4444 0.0000
# 6 0.0000 0.0000 0.0000 0.0000 0.0000 26.8158
#
#
#
# Elastic Compliance Matrix: (Units=1/GPa)
#
#
# Indices 1 2 3 4 5 6 
#
# 1 0.018419 -0.003136 -0.005349 0.000000 0.000000 0.000000
# 2 -0.003136 0.010579 -0.005252 0.000000 0.000000 0.000000
# 3 -0.005349 -0.005252 0.016076 0.000000 0.000000 0.000000
# 4 0.000000 0.000000 0.000000 0.050095 0.000000 0.000000
# 5 0.000000 0.000000 0.000000 0.000000 0.039301 0.000000
# 6 0.000000 0.000000 0.000000 0.000000 0.000000 0.037291
#
#
# Mechanical properties :
#
#
# Convention : Reuss Voigt Hill
#
# Bulk Modulus (GPa) = 56.82018 62.90419 59.86219
# Shear Modulus (GPa) = 24.37797 25.51109 24.94453
#
# Velocity S-wave (km/s) = 3.51752 3.59834 3.55816
# Velocity P-wave (km/s) = 6.73320 7.01361 6.87484
#
# Compressibility (1/GPa) = 0.01759938
#
# Stress axis : x y z
#
# Youngs Moduli (GPa) = 54.29111 94.52493 62.20537
#
# Poissons Ratio (x) = 0.29646 0.33276
# Poissons Ratio (y) = 0.17027 0.32668
# Poissons Ratio (z) = 0.29043 0.49641
#
# Static dielectric constant tensor:
#      x y z
#    x 3.473090 0.000000 0.000000 
#    y 0.000000 3.859030 0.000000 
#    z 0.000000 0.000000 3.394100 
# 
# 
# High freq. dielectric constant tensor:
#      x y z
#    x 1.762370 0.000000 0.000000 
#    y 0.000000 1.784150 0.000000 
#    z 0.000000 0.000000 1.743350 
# 
# From -- ./inp_files/4247.got.cif
#   From: 2010.03.12/outbox.cif.g09.slc.cpg/sg25_3_cif.got.tgz:4247.got - 2010.04.14 03:30:10.
