data_PCOD8166098
_publ_section_title
;
Structure prediction by ZEFSAII (Michael W. Deem and Ramdas Pophale) SiO2 
 PCOD8166098
Probable space group: I 21 21 21
;
_chemical_formula_sum "Si O2"
_cell_formula_units_Z 56
_cell_length_a 12.694102
_cell_length_b 14.309275
_cell_length_c 13.933378
_cell_angle_alpha 90.000000
_cell_angle_beta 90.000000
_cell_angle_gamma 90.000000
_cell_volume 2530.906103
_symmetry_space_group_name_H-M "I 21 21 21"
_symmetry_group_IT_number 24
_symmetry_cell_setting 'orthorhombic'
loop_
_space_group_symop_operation_xyz
x,y,z
-x,1/2-y,z
x,-y,1/2-z
1/2-x,y,-z
1/2+x,1/2+y,1/2+z
1/2-x,-y,1/2+z
1/2+x,1/2-y,-z
-x,1/2+y,1/2-z
loop_
_atom_site_type_symbol
_atom_site_label
_atom_site_fract_x
_atom_site_fract_y
_atom_site_fract_z
Si Si1 0.775772 0.042235 0.899338
Si Si2 0.812418 0.840390 0.094260
Si Si3 0.356362 0.100598 0.439254
Si Si4 0.993120 0.574028 0.565019
Si Si5 0.407825 0.822601 0.258184
Si Si6 0.500000 0.750000 0.579649
Si Si7 0.788913 0.218781 0.201232
Si Si8 0.500000 0.250000 0.523467
O O1 0.736362 0.110188 0.816675
O O2 0.899003 0.020778 0.908054
O O3 0.712511 0.947233 0.884023
O O4 0.750000 0.092746 0.000000
O O5 0.788226 0.771996 0.183113
O O6 0.938159 0.829219 0.083603
O O7 0.750000 0.805270 0.000000
O O8 0.250000 0.099860 0.500000
O O9 0.352336 0.112647 0.323639
O O10 0.415972 0.195529 0.461995
O O11 0.413483 0.005064 0.471815
O O12 0.962924 0.609522 0.668566
O O13 0.002348 0.656975 0.485985
O O14 0.500000 0.750000 0.222022
O O15 0.315403 0.777028 0.325407
O O16 0.395474 0.752714 0.647683
#
# Coordination Sequence:
#
# PCOD8166098 Si02
#       8
#     8   8   8   8   8   4   8   4
#     4  11  22  43  71 109 145 190 253 317 370 448
#     4  11  25  42  71 104 145 193 243 310 370 450
#     4  12  28  46  74 107 149 197 248 314 390 455
#     4  12  26  46  74 108 150 199 251 320 378 457
#     4  12  25  45  75 110 147 199 259 317 380 457
#     4  12  27  47  76 110 158 210 247 316 395 458
#     4  12  25  43  73 108 149 195 255 304 388 452
#     4  12  23  45  70  98 140 188 243 298 379 444
#
# _framework density 22.126463999999999
#
# number of rings (size 3 to 8) (size 9 to 14) (size 15 to 20)
#    0.000    0.286    4.286    5.143    4.000    1.143 
#    0.000    0.000    0.000    0.000    0.000    0.000 
#    0.000    0.000    0.000    0.000    0.000    0.000 
#
# Total GULP energy -346879.443175 kJ/mol
# GULP energy per Si atom -12388.551542 kJ/mol
# Density = 2.207610 g / cm^3
# Si number density = 22.126464 Si / 1000 Ang^3
#
#
#
# Elastic Constant Matrix: (Units=GPa)
#
#
# Indices 1 2 3 4 5 6 
#
# 1 157.7360 61.2914 49.1702 0.0000 0.0000 0.0000
# 2 61.2914 114.3210 27.0571 0.0000 0.0000 0.0000
# 3 49.1702 27.0571 115.9434 0.0001 0.0000 0.0000
# 4 0.0000 0.0000 0.0001 14.1314 0.0000 0.0000
# 5 0.0000 0.0000 0.0000 0.0000 33.0973 0.0000
# 6 0.0000 0.0000 0.0000 0.0000 0.0000 46.8598
#
#
#
# Elastic Compliance Matrix: (Units=1/GPa)
#
#
# Indices 1 2 3 4 5 6 
#
# 1 0.008779 -0.004049 -0.002778 0.000000 0.000000 0.000000
# 2 -0.004049 0.011126 -0.000879 0.000000 0.000000 0.000000
# 3 -0.002778 -0.000879 0.010008 0.000000 0.000000 0.000000
# 4 0.000000 0.000000 0.000000 0.070764 0.000000 0.000000
# 5 0.000000 0.000000 0.000000 0.000000 0.030214 0.000000
# 6 0.000000 0.000000 0.000000 0.000000 0.000000 0.021340
#
#
# Mechanical properties :
#
#
# Convention : Reuss Voigt Hill
#
# Bulk Modulus (GPa) = 68.96373 73.67089 71.31731
# Shear Modulus (GPa) = 28.98898 35.51648 32.25273
#
# Velocity S-wave (km/s) = 3.62353 4.01079 3.82207
# Velocity P-wave (km/s) = 6.98156 7.40380 7.19578
#
# Compressibility (1/GPa) = 0.01450037
#
# Stress axis : x y z
#
# Youngs Moduli (GPa) = 113.90615 89.87673 99.91729
#
# Poissons Ratio (x) = 0.36394 0.27759
# Poissons Ratio (y) = 0.46124 0.08785
# Poissons Ratio (z) = 0.31645 0.07902
#
# Static dielectric constant tensor:
#      x y z
#    x 4.939550 0.000000 0.000000 
#    y 0.000000 3.972480 0.000000 
#    z 0.000000 0.000000 4.142920 
# 
# 
# High freq. dielectric constant tensor:
#      x y z
#    x 1.882750 0.000000 0.000000 
#    y 0.000000 1.872050 0.000000 
#    z 0.000000 0.000000 1.874990 
# 
# From -- ./inp_files/25864.got.cif
#   From: 2010.03.12/outbox.cif.g09.slc.cpg/sg24_13_cif.got.tgz:25864.got - 2010.04.14 03:06:53.
