data_PCOD8166717
_publ_section_title
;
Structure prediction by ZEFSAII (Michael W. Deem and Ramdas Pophale) SiO2 
 PCOD8166717
Probable space group: P M M 2
;
_chemical_formula_sum "Si O2"
_cell_formula_units_Z 32
_cell_length_a 9.055909
_cell_length_b 14.827386
_cell_length_c 12.417299
_cell_angle_alpha 90.000000
_cell_angle_beta 90.000000
_cell_angle_gamma 90.000000
_cell_volume 1667.338514
_symmetry_space_group_name_H-M "P M M 2"
_symmetry_group_IT_number 25
_symmetry_cell_setting 'orthorhombic'
loop_
_space_group_symop_operation_xyz
x,y,z
-x,-y,z
-x,y,z
x,-y,z
loop_
_atom_site_type_symbol
_atom_site_label
_atom_site_fract_x
_atom_site_fract_y
_atom_site_fract_z
Si Si1 0.667162 0.098965 0.505540
Si Si2 0.827442 0.359865 0.654300
Si Si3 0.327944 0.220080 0.952391
Si Si4 0.173636 0.400312 0.889677
Si Si5 0.335451 0.191257 0.712845
Si Si6 0.825550 0.784377 0.340227
Si Si7 0.824537 0.105004 0.134730
Si Si8 0.824559 0.597330 0.420794
O O1 0.500000 0.117143 0.466482
O O2 0.674596 0.103794 0.636330
O O3 0.773807 0.170186 0.450230
O O4 0.719976 0.000000 0.471056
O O5 0.771042 0.406091 0.765071
O O6 0.785710 0.255984 0.661596
O O7 0.759206 0.398902 0.543185
O O8 0.000000 0.372903 0.647693
O O9 0.500000 0.227605 0.982074
O O10 0.260368 0.321675 0.953633
O O11 0.300722 0.171412 0.837416
O O12 0.247211 0.153178 0.033106
O O13 0.204617 0.500000 0.940476
O O14 0.000000 0.376887 0.895761
O O15 0.500000 0.234672 0.705784
O O16 0.763499 0.839539 0.238107
O O17 0.767945 0.679941 0.345212
O O18 0.000000 0.787443 0.336795
O O19 0.000000 0.111856 0.124993
O O20 0.775105 0.000000 0.142465
O O21 0.776903 0.500000 0.371050
O O22 0.000000 0.604936 0.427551
#
# Coordination Sequence:
#
# PCOD8166717 Si02
#       8
#     4   4   4   4   4   4   4   4
#     4  10  20  33  51  76 107 141 173 212 269 332
#     4   9  15  26  47  75 107 143 182 217 252 303
#     4  10  21  36  56  81 108 141 184 232 276 324
#     4   9  17  30  51  80 114 151 186 220 264 319
#     4   9  18  32  49  73 108 143 173 212 267 321
#     4  10  20  36  57  80 107 139 177 224 271 316
#     4  10  22  40  59  78 103 137 180 233 286 334
#     4   9  16  27  48  79 110 139 173 212 257 309
#
# _framework density 19.192264999999999
#
# number of rings (size 3 to 8) (size 9 to 14) (size 15 to 20)
#    0.000    2.500    1.250    1.125    0.000    4.250 
#    0.000    1.875    0.000    4.500    0.000    0.000 
#    0.000    0.000    0.000    0.000    0.000    0.000 
#
# Total GULP energy -396424.838546 kJ/mol
# GULP energy per Si atom -12388.276205 kJ/mol
# Density = 1.914858 g / cm^3
# Si number density = 19.192265 Si / 1000 Ang^3
#
#
#
# Elastic Constant Matrix: (Units=GPa)
#
#
# Indices 1 2 3 4 5 6 
#
# 1 12.0043 25.3787 21.4803 0.0000 0.0000 0.0000
# 2 25.3787 156.7212 70.1357 0.0000 0.0000 0.0000
# 3 21.4803 70.1357 100.9165 0.0000 0.0000 0.0000
# 4 0.0000 0.0000 0.0000 22.5851 0.0000 0.0000
# 5 0.0000 0.0000 0.0000 0.0000 21.7713 0.0000
# 6 0.0000 0.0000 0.0000 0.0000 0.0000 12.8637
#
#
#
# Elastic Compliance Matrix: (Units=1/GPa)
#
#
# Indices 1 2 3 4 5 6 
#
# 1 0.155745 -0.015073 -0.022675 0.000000 0.000000 0.000000
# 2 -0.015073 0.010720 -0.004242 0.000000 0.000000 0.000000
# 3 -0.022675 -0.004242 0.017684 0.000000 0.000000 0.000000
# 4 0.000000 0.000000 0.000000 0.044277 0.000000 0.000000
# 5 0.000000 0.000000 0.000000 0.000000 0.045932 0.000000
# 6 0.000000 0.000000 0.000000 0.000000 0.000000 0.077738
#
#
# Mechanical properties :
#
#
# Convention : Reuss Voigt Hill
#
# Bulk Modulus (GPa) = 9.98320 55.95903 32.97112
# Shear Modulus (GPa) = 10.65043 21.62050 16.13547
#
# Velocity S-wave (km/s) = 2.35826 3.36001 2.90268
# Velocity P-wave (km/s) = 3.55361 6.65382 5.33392
#
# Compressibility (1/GPa) = 0.10016830
#
# Stress axis : x y z
#
# Youngs Moduli (GPa) = 6.42077 93.28418 56.54930
#
# Poissons Ratio (x) = 1.40607 1.28226
# Poissons Ratio (y) = 0.09678 0.23988
# Poissons Ratio (z) = 0.14559 0.39570
#
# Static dielectric constant tensor:
#      x y z
#    x 3.281970 0.000000 0.000000 
#    y 0.000000 3.774750 0.000000 
#    z 0.000000 0.000000 3.538230 
# 
# 
# High freq. dielectric constant tensor:
#      x y z
#    x 1.719230 0.000000 0.000000 
#    y 0.000000 1.750190 0.000000 
#    z 0.000000 0.000000 1.733010 
# 
# From -- ./inp_files/4246.got.cif
#   From: 2010.03.12/outbox.cif.g09.slc.cpg/sg25_3_cif.got.tgz:4246.got - 2010.04.14 03:30:10.
