data_PCOD8166009
_publ_section_title
;
Structure prediction by ZEFSAII (Michael W. Deem and Ramdas Pophale) SiO2 
 PCOD8166009
Probable space group: I 21 21 21
;
_chemical_formula_sum "Si O2"
_cell_formula_units_Z 36
_cell_length_a 8.220292
_cell_length_b 15.566185
_cell_length_c 14.263298
_cell_angle_alpha 90.000000
_cell_angle_beta 90.000000
_cell_angle_gamma 90.000000
_cell_volume 1825.111444
_symmetry_space_group_name_H-M "I 21 21 21"
_symmetry_group_IT_number 24
_symmetry_cell_setting 'orthorhombic'
loop_
_space_group_symop_operation_xyz
x,y,z
-x,1/2-y,z
x,-y,1/2-z
1/2-x,y,-z
1/2+x,1/2+y,1/2+z
1/2-x,-y,1/2+z
1/2+x,1/2-y,-z
-x,1/2+y,1/2-z
loop_
_atom_site_type_symbol
_atom_site_label
_atom_site_fract_x
_atom_site_fract_y
_atom_site_fract_z
Si Si1 0.607136 0.095476 0.059132
Si Si2 0.044059 0.655744 0.755709
Si Si3 0.804728 0.949695 0.158338
Si Si4 0.692927 0.500000 0.250000
Si Si5 0.616016 0.492503 0.566723
O O1 0.558484 0.158558 0.142923
O O2 0.675223 0.006172 0.101146
O O3 0.750000 0.141590 0.000000
O O4 0.454379 0.074077 0.991657
O O5 0.214974 0.636578 0.807938
O O6 0.000000 0.750000 0.792256
O O7 0.914694 0.581685 0.781999
O O8 0.965146 0.929727 0.095118
O O9 0.866224 0.000000 0.250000
O O10 0.799962 0.527876 0.338983
O O11 0.750000 0.445410 0.500000
#
# Coordination Sequence:
#
# PCOD8166009 Si02
#       5
#     8   8   8   4   8
#     4   9  18  35  60  86 117 163 203 250 315 379
#     4  11  21  39  61  89 126 166 205 257 314 385
#     4   9  17  35  61  84 120 168 205 241 309 378
#     4  12  22  38  60  90 122 162 212 256 312 374
#     4  11  19  33  64  91 120 160 208 263 311 371
#
# _framework density 19.724824000000002
#
# number of rings (size 3 to 8) (size 9 to 14) (size 15 to 20)
#    0.000    1.778    6.667    0.000    0.000    0.000 
#    4.000    1.111    0.000   20.000    0.000    0.000 
#    0.000    0.000    0.000    0.000    0.000    0.000 
#
# Total GULP energy -223027.297818 kJ/mol
# GULP energy per Si atom -12390.405434 kJ/mol
# Density = 1.967993 g / cm^3
# Si number density = 19.724824 Si / 1000 Ang^3
#
#
#
# Elastic Constant Matrix: (Units=GPa)
#
#
# Indices 1 2 3 4 5 6 
#
# 1 125.2864 44.4511 49.0331 0.0000 0.0000 0.0000
# 2 44.4511 86.6263 7.0947 0.0000 0.0000 0.0000
# 3 49.0331 7.0947 89.2087 -0.0001 0.0000 0.0000
# 4 0.0000 0.0000 -0.0001 14.8281 0.0000 0.0000
# 5 0.0000 0.0000 0.0000 0.0000 64.3938 0.0000
# 6 0.0000 0.0000 0.0000 0.0000 0.0000 12.9219
#
#
#
# Elastic Compliance Matrix: (Units=1/GPa)
#
#
# Indices 1 2 3 4 5 6 
#
# 1 0.012622 -0.005947 -0.006465 0.000000 0.000000 0.000000
# 2 -0.005947 0.014422 0.002122 0.000000 0.000000 0.000000
# 3 -0.006465 0.002122 0.014594 0.000000 0.000000 0.000000
# 4 0.000000 0.000000 0.000000 0.067439 0.000000 0.000000
# 5 0.000000 0.000000 0.000000 0.000000 0.015529 0.000000
# 6 0.000000 0.000000 0.000000 0.000000 0.000000 0.077388
#
#
# Mechanical properties :
#
#
# Convention : Reuss Voigt Hill
#
# Bulk Modulus (GPa) = 47.48793 55.80881 51.64837
# Shear Modulus (GPa) = 21.77761 31.79826 26.78793
#
# Velocity S-wave (km/s) = 3.32636 4.01944 3.68921
# Velocity P-wave (km/s) = 6.23541 7.06374 6.66246
#
# Compressibility (1/GPa) = 0.02105798
#
# Stress axis : x y z
#
# Youngs Moduli (GPa) = 79.22820 69.33950 68.52086
#
# Poissons Ratio (x) = 0.41238 0.44295
# Poissons Ratio (y) = 0.47119 -0.14539
# Poissons Ratio (z) = 0.51217 -0.14713
#
# Static dielectric constant tensor:
#      x y z
#    x 3.941580 0.000000 0.000000 
#    y 0.000000 2.808580 0.000000 
#    z 0.000000 0.000000 4.196760 
# 
# 
# High freq. dielectric constant tensor:
#      x y z
#    x 1.788530 0.000000 0.000000 
#    y 0.000000 1.680430 0.000000 
#    z 0.000000 0.000000 1.794790 
# 
# From -- ./inp_files/12216.got.cif
#   From: 2010.03.12/outbox.cif.g09.slc.cpg/sg24_7_cif.got.tgz:12216.got - 2010.04.14 03:06:53.
