data_PCOD8166627
_publ_section_title
;
Structure prediction by ZEFSAII (Michael W. Deem and Ramdas Pophale) SiO2 
 PCOD8166627
Probable space group: P M M 2
;
_chemical_formula_sum "Si O2"
_cell_formula_units_Z 32
_cell_length_a 9.419462
_cell_length_b 9.249339
_cell_length_c 20.648162
_cell_angle_alpha 90.000000
_cell_angle_beta 90.000000
_cell_angle_gamma 90.000000
_cell_volume 1798.946279
_symmetry_space_group_name_H-M "P M M 2"
_symmetry_group_IT_number 25
_symmetry_cell_setting 'orthorhombic'
loop_
_space_group_symop_operation_xyz
x,y,z
-x,-y,z
-x,y,z
x,-y,z
loop_
_atom_site_type_symbol
_atom_site_label
_atom_site_fract_x
_atom_site_fract_y
_atom_site_fract_z
Si Si1 0.669002 0.663669 0.718840
Si Si2 0.669066 0.163499 0.595155
Si Si3 0.830742 0.161863 0.218754
Si Si4 0.168436 0.340103 0.098753
Si Si5 0.665271 0.667491 0.469240
Si Si6 0.164175 0.331824 0.343848
Si Si7 0.165617 0.332098 0.953474
Si Si8 0.333455 0.167845 0.845452
O O1 0.500000 0.662517 0.716472
O O2 0.728438 0.500000 0.719353
O O3 0.729812 0.747599 0.656295
O O4 0.722618 0.746583 0.782605
O O5 0.500000 0.163816 0.597479
O O6 0.722277 0.240155 0.529719
O O7 0.727909 0.000000 0.597553
O O8 0.768626 0.233320 0.153167
O O9 0.776146 0.247782 0.281519
O O10 0.000000 0.164516 0.216887
O O11 0.771193 0.000000 0.222586
O O12 0.230503 0.500000 0.111754
O O13 0.000000 0.346774 0.104014
O O14 0.209956 0.288545 0.026653
O O15 0.500000 0.695230 0.456513
O O16 0.695931 0.500000 0.484465
O O17 0.749161 0.720971 0.406210
O O18 0.188699 0.500000 0.330193
O O19 0.000000 0.296162 0.356611
O O20 0.201797 0.500000 0.940302
O O21 0.255129 0.228922 0.907807
O O22 0.000000 0.303183 0.941552
O O23 0.500000 0.192142 0.855339
O O24 0.296466 0.000000 0.836124
#
# Coordination Sequence:
#
# PCOD8166627 Si02
#       8
#     4   4   4   4   4   4   4   4
#     4   9  16  27  45  67  90 118 153 192 230 267
#     4   9  16  26  42  65  91 116 144 182 226 268
#     4   9  16  25  40  64  90 114 144 183 223 262
#     4   8  14  26  44  65  89 116 147 185 226 266
#     4   9  17  29  45  65  88 114 145 180 217 260
#     4   9  17  29  45  64  87 116 147 179 217 260
#     4   9  18  32  50  72  96 123 157 195 234 278
#     4  10  20  32  47  70  99 128 157 191 233 280
#
# _framework density 17.788191999999999
#
# number of rings (size 3 to 8) (size 9 to 14) (size 15 to 20)
#    0.000    3.000    0.000    2.250    0.000    6.500 
#    0.000    1.250    0.000    1.500    0.000    3.500 
#    0.000    0.000    0.000    0.000    0.000    0.000 
#
# Total GULP energy -396746.690649 kJ/mol
# GULP energy per Si atom -12398.334083 kJ/mol
# Density = 1.774771 g / cm^3
# Si number density = 17.788192 Si / 1000 Ang^3
#
#
#
# Elastic Constant Matrix: (Units=GPa)
#
#
# Indices 1 2 3 4 5 6 
#
# 1 20.9724 27.7975 35.0027 0.0000 0.0000 0.0000
# 2 27.7975 135.7102 102.4592 0.0000 0.0000 0.0000
# 3 35.0027 102.4592 184.5911 0.0000 0.0000 0.0000
# 4 0.0000 0.0000 0.0000 25.8217 0.0000 0.0000
# 5 0.0000 0.0000 0.0000 0.0000 25.7732 0.0000
# 6 0.0000 0.0000 0.0000 0.0000 0.0000 15.8761
#
#
#
# Elastic Compliance Matrix: (Units=1/GPa)
#
#
# Indices 1 2 3 4 5 6 
#
# 1 0.074368 -0.007894 -0.009720 0.000000 0.000000 0.000000
# 2 -0.007894 0.013522 -0.006009 0.000000 0.000000 0.000000
# 3 -0.009720 -0.006009 0.010596 0.000000 0.000000 0.000000
# 4 0.000000 0.000000 0.000000 0.038727 0.000000 0.000000
# 5 0.000000 0.000000 0.000000 0.000000 0.038800 0.000000
# 6 0.000000 0.000000 0.000000 0.000000 0.000000 0.062988
#
#
# Mechanical properties :
#
#
# Convention : Reuss Voigt Hill
#
# Bulk Modulus (GPa) = 19.51614 74.64361 47.07988
# Shear Modulus (GPa) = 16.48390 25.22847 20.85619
#
# Velocity S-wave (km/s) = 3.04744 3.77008 3.42786
# Velocity P-wave (km/s) = 4.83505 7.81056 6.49548
#
# Compressibility (1/GPa) = 0.05123964
#
# Stress axis : x y z
#
# Youngs Moduli (GPa) = 13.44669 73.95333 94.37821
#
# Poissons Ratio (x) = 0.58381 0.91736
# Poissons Ratio (y) = 0.10615 0.56708
# Poissons Ratio (z) = 0.13070 0.44436
#
# Static dielectric constant tensor:
#      x y z
#    x 2.704900 0.000000 0.000000 
#    y 0.000000 3.453070 0.000000 
#    z 0.000000 0.000000 3.525840 
# 
# 
# High freq. dielectric constant tensor:
#      x y z
#    x 1.623030 0.000000 0.000000 
#    y 0.000000 1.694470 0.000000 
#    z 0.000000 0.000000 1.705200 
# 
# From -- ./inp_files/6265.got.cif
#   From: 2010.03.12/outbox.cif.g09.slc.cpg/sg25_4_cif.got.tgz:6265.got - 2010.04.14 03:30:10.
