data_PCOD8166624
_publ_section_title
;
Structure prediction by ZEFSAII (Michael W. Deem and Ramdas Pophale) SiO2 
 PCOD8166624
Probable space group: P M M 2
;
_chemical_formula_sum "Si O2"
_cell_formula_units_Z 28
_cell_length_a 9.246985
_cell_length_b 9.324598
_cell_length_c 18.308335
_cell_angle_alpha 90.000000
_cell_angle_beta 90.000000
_cell_angle_gamma 90.000000
_cell_volume 1578.625527
_symmetry_space_group_name_H-M "P M M 2"
_symmetry_group_IT_number 25
_symmetry_cell_setting 'orthorhombic'
loop_
_space_group_symop_operation_xyz
x,y,z
-x,-y,z
-x,y,z
x,-y,z
loop_
_atom_site_type_symbol
_atom_site_label
_atom_site_fract_x
_atom_site_fract_y
_atom_site_fract_z
Si Si1 0.327613 0.662169 0.983770
Si Si2 0.171106 0.665190 0.563334
Si Si3 0.670480 0.833892 0.436534
Si Si4 0.327381 0.339144 0.297269
Si Si5 0.341888 0.330001 0.140883
Si Si6 0.828342 0.159072 0.701307
Si Si7 0.162654 0.830503 0.862706
O O1 0.500000 0.672433 0.985305
O O2 0.277943 0.500000 0.966755
O O3 0.267851 0.764535 0.921978
O O4 0.264883 0.712531 0.063944
O O5 0.218284 0.500000 0.559926
O O6 0.248278 0.751518 0.499962
O O7 0.226008 0.729131 0.640532
O O8 0.000000 0.683567 0.554469
O O9 0.500000 0.810492 0.446327
O O10 0.725490 0.769733 0.359506
O O11 0.713362 0.000000 0.439011
O O12 0.500000 0.339575 0.291228
O O13 0.272933 0.500000 0.316744
O O14 0.262894 0.287909 0.217727
O O15 0.500000 0.257081 0.141031
O O16 0.360441 0.500000 0.140815
O O17 0.778581 0.211247 0.781787
O O18 0.000000 0.149694 0.701946
O O19 0.765746 0.000000 0.683728
O O20 0.000000 0.771614 0.874343
O O21 0.164506 0.000000 0.871343
#
# Coordination Sequence:
#
# PCOD8166624 Si02
#       7
#     4   4   4   4   4   4   4
#     4   9  17  29  46  70  98 124 153 191 232 274
#     4  10  20  33  51  74  95 117 151 193 233 274
#     4  10  20  32  47  70  99 127 154 186 227 275
#     4   8  13  24  44  66  88 118 155 193 231 268
#     4   7  11  22  41  64  89 118 152 189 228 269
#     4   8  15  30  50  68  88 118 155 192 229 271
#     4   9  18  32  49  69  93 122 156 191 228 274
#
# _framework density 17.736948999999999
#
# number of rings (size 3 to 8) (size 9 to 14) (size 15 to 20)
#    0.000    3.286    0.000    3.429    0.000    2.857 
#    0.000    2.857    0.000    4.286    0.000    2.000 
#    0.000    0.000    0.000    0.000    0.000    0.000 
#
# Total GULP energy -346882.542871 kJ/mol
# GULP energy per Si atom -12388.662245 kJ/mol
# Density = 1.769658 g / cm^3
# Si number density = 17.736949 Si / 1000 Ang^3
#
#
#
# Elastic Constant Matrix: (Units=GPa)
#
#
# Indices 1 2 3 4 5 6 
#
# 1 19.1219 22.9299 32.3730 0.0000 0.0000 0.0000
# 2 22.9299 92.2097 82.5544 0.0000 0.0000 0.0000
# 3 32.3730 82.5544 192.7225 0.0000 0.0000 0.0000
# 4 0.0000 0.0000 0.0000 -13.2176 0.0000 0.0000
# 5 0.0000 0.0000 0.0000 0.0000 56.0926 0.0000
# 6 0.0000 0.0000 0.0000 0.0000 0.0000 21.1368
#
#
#
# Elastic Compliance Matrix: (Units=1/GPa)
#
#
# Indices 1 2 3 4 5 6 
#
# 1 0.081705 -0.013025 -0.008145 0.000000 0.000000 0.000000
# 2 -0.013025 0.019668 -0.006237 0.000000 0.000000 0.000000
# 3 -0.008145 -0.006237 0.009229 0.000000 0.000000 0.000000
# 4 0.000000 0.000000 0.000000 -0.075657 0.000000 0.000000
# 5 0.000000 0.000000 0.000000 0.000000 0.017828 0.000000
# 6 0.000000 0.000000 0.000000 0.000000 0.000000 0.047311
#
#
# Mechanical properties :
#
#
# Convention : Reuss Voigt Hill
#
# Bulk Modulus (GPa) = 17.92547 64.41873 41.17210
# Shear Modulus (GPa) = 28.81962 23.88216 26.35089
#
# Velocity S-wave (km/s) = 4.03530 3.67340 3.85859
# Velocity P-wave (km/s) = 5.64267 7.37493 6.56618
#
# Compressibility (1/GPa) = 0.05578655
#
# Stress axis : x y z
#
# Youngs Moduli (GPa) = 12.23916 50.84490 108.35900
#
# Poissons Ratio (x) = 0.66228 0.88259
# Poissons Ratio (y) = 0.15942 0.67582
# Poissons Ratio (z) = 0.09969 0.31711
#
# Static dielectric constant tensor:
#      x y z
#    x 2.795730 0.000000 0.000000 
#    y 0.000000 3.717270 0.000000 
#    z 0.000000 0.000000 3.867830 
# 
# 
# High freq. dielectric constant tensor:
#      x y z
#    x 1.628270 0.000000 0.000000 
#    y 0.000000 1.670190 0.000000 
#    z 0.000000 0.000000 1.712570 
# 
# From -- ./inp_files/6414.got.cif
#   From: 2010.03.12/outbox.cif.g09.slc.cpg/sg25_4_cif.got.tgz:6414.got - 2010.04.14 03:30:10.
