data_PCOD8166491
_publ_section_title
;
Structure prediction by ZEFSAII (Michael W. Deem and Ramdas Pophale) SiO2 
 PCOD8166491
Probable space group: P M M 2
;
_chemical_formula_sum "Si O2"
_cell_formula_units_Z 32
_cell_length_a 8.795551
_cell_length_b 35.346246
_cell_length_c 5.157798
_cell_angle_alpha 90.000000
_cell_angle_beta 90.000000
_cell_angle_gamma 90.000000
_cell_volume 1603.506321
_symmetry_space_group_name_H-M "P M M 2"
_symmetry_group_IT_number 25
_symmetry_cell_setting 'orthorhombic'
loop_
_space_group_symop_operation_xyz
x,y,z
-x,-y,z
-x,y,z
x,-y,z
loop_
_atom_site_type_symbol
_atom_site_label
_atom_site_fract_x
_atom_site_fract_y
_atom_site_fract_z
Si Si1 0.819197 0.330211 0.714240
Si Si2 0.680745 0.457555 0.208865
Si Si3 0.675405 0.043935 0.256998
Si Si4 0.680528 0.412601 0.709435
Si Si5 0.179603 0.286204 0.214138
Si Si6 0.323270 0.842121 0.737803
Si Si7 0.179199 0.078241 0.754130
Si Si8 0.324170 0.794474 0.236816
O O1 0.752711 0.371695 0.700982
O O2 0.756689 0.306231 0.471413
O O3 0.000000 0.332823 0.712845
O O4 0.756220 0.309244 0.968946
O O5 0.500000 0.459534 0.206107
O O6 0.748110 0.500000 0.204433
O O7 0.739357 0.436174 0.463445
O O8 0.740822 0.434664 0.961113
O O9 0.500000 0.056517 0.261322
O O10 0.746253 0.051472 0.538304
O O11 0.692931 0.000000 0.190309
O O12 0.760497 0.067840 0.038313
O O13 0.500000 0.408529 0.710286
O O14 0.228776 0.243081 0.198812
O O15 0.000000 0.287163 0.212214
O O16 0.500000 0.853991 0.726112
O O17 0.220317 0.878625 0.692622
O O18 0.283079 0.812512 0.512704
O O19 0.279886 0.823900 0.012343
O O20 0.000000 0.072412 0.746704
O O21 0.500000 0.783509 0.218032
#
# Coordination Sequence:
#
# PCOD8166491 Si02
#       8
#     4   4   4   4   4   4   4   4
#     4  10  21  36  52  73 103 138 171 208 261 318
#     4   9  17  30  49  74 102 129 162 207 256 304
#     4  11  24  43  66  90 121 165 208 245 298 366
#     4  10  19  31  51  76  98 128 169 209 251 300
#     4  10  21  36  54  75 102 138 175 213 265 324
#     4  10  21  38  58  82 115 153 189 227 281 346
#     4  12  25  40  63  95 126 158 201 254 303 346
#     4  10  21  36  57  83 109 142 185 232 277 324
#
# _framework density 19.956267
#
# number of rings (size 3 to 8) (size 9 to 14) (size 15 to 20)
#    0.000    1.750    0.000    4.500    0.000    7.000 
#    0.000    0.000    0.000    2.250    0.000    0.000 
#    0.000    0.000    0.000    0.000    0.000    0.000 
#
# Total GULP energy -396964.466265 kJ/mol
# GULP energy per Si atom -12405.139571 kJ/mol
# Density = 1.991085 g / cm^3
# Si number density = 19.956267 Si / 1000 Ang^3
#
#
#
# Elastic Constant Matrix: (Units=GPa)
#
#
# Indices 1 2 3 4 5 6 
#
# 1 50.1648 30.8913 26.8405 0.0000 0.0000 0.0000
# 2 30.8913 104.0878 32.0221 0.0000 0.0000 0.0000
# 3 26.8405 32.0221 130.9825 0.0000 0.0000 0.0000
# 4 0.0000 0.0000 0.0000 36.1662 0.0000 0.0000
# 5 0.0000 0.0000 0.0000 0.0000 16.1271 0.0000
# 6 0.0000 0.0000 0.0000 0.0000 0.0000 139.7446
#
#
#
# Elastic Compliance Matrix: (Units=1/GPa)
#
#
# Indices 1 2 3 4 5 6 
#
# 1 0.025964 -0.006562 -0.003716 0.000000 0.000000 0.000000
# 2 -0.006562 0.012047 -0.001601 0.000000 0.000000 0.000000
# 3 -0.003716 -0.001601 0.008787 0.000000 0.000000 0.000000
# 4 0.000000 0.000000 0.000000 0.027650 0.000000 0.000000
# 5 0.000000 0.000000 0.000000 0.000000 0.062007 0.000000
# 6 0.000000 0.000000 0.000000 0.000000 0.000000 0.007156
#
#
# Mechanical properties :
#
#
# Convention : Reuss Voigt Hill
#
# Bulk Modulus (GPa) = 43.40192 51.63811 47.52002
# Shear Modulus (GPa) = 28.56334 51.43965 40.00150
#
# Velocity S-wave (km/s) = 3.78735 5.08253 4.48197
# Velocity P-wave (km/s) = 6.39696 7.77011 7.11673
#
# Compressibility (1/GPa) = 0.02304045
#
# Stress axis : x y z
#
# Youngs Moduli (GPa) = 38.51548 83.00661 113.79954
#
# Poissons Ratio (x) = 0.54471 0.42288
# Poissons Ratio (y) = 0.25275 0.18214
# Poissons Ratio (z) = 0.14313 0.13286
#
# Static dielectric constant tensor:
#      x y z
#    x 3.400710 0.000000 0.000000 
#    y 0.000000 3.618250 0.000000 
#    z 0.000000 0.000000 4.267810 
# 
# 
# High freq. dielectric constant tensor:
#      x y z
#    x 1.753520 0.000000 0.000000 
#    y 0.000000 1.792550 0.000000 
#    z 0.000000 0.000000 1.800920 
# 
# From -- ./inp_files/376.got.cif
#   From: 2010.03.12/outbox.cif.g09.slc.cpg/sg25_1_cif.got.tgz:376.got - 2010.04.14 03:30:10.
