data_PCOD8166810
_publ_section_title
;
Structure prediction by ZEFSAII (Michael W. Deem and Ramdas Pophale) SiO2 
 PCOD8166810
Probable space group: P M M 2
;
_chemical_formula_sum "Si O2"
_cell_formula_units_Z 32
_cell_length_a 13.131494
_cell_length_b 13.623526
_cell_length_c 9.698293
_cell_angle_alpha 90.000000
_cell_angle_beta 90.000000
_cell_angle_gamma 90.000000
_cell_volume 1734.997947
_symmetry_space_group_name_H-M "P M M 2"
_symmetry_group_IT_number 25
_symmetry_cell_setting 'orthorhombic'
loop_
_space_group_symop_operation_xyz
x,y,z
-x,-y,z
-x,y,z
x,-y,z
loop_
_atom_site_type_symbol
_atom_site_label
_atom_site_fract_x
_atom_site_fract_y
_atom_site_fract_z
Si Si1 0.618126 0.777157 0.676610
Si Si2 0.752786 0.113389 0.877595
Si Si3 0.891134 0.613666 0.510869
Si Si4 0.750199 0.387882 0.744751
Si Si5 0.121626 0.291676 0.964855
Si Si6 0.616263 0.110534 0.138287
Si Si7 0.617113 0.268709 0.358756
Si Si8 0.790578 0.613295 0.231122
O O1 0.500000 0.802181 0.703916
O O2 0.690716 0.863432 0.736533
O O3 0.648604 0.677988 0.761600
O O4 0.639840 0.761106 0.515443
O O5 0.850047 0.184313 0.902543
O O6 0.788867 0.000000 0.873651
O O7 0.678825 0.137526 0.003574
O O8 0.895850 0.500000 0.550708
O O9 0.801976 0.656796 0.605784
O O10 0.873972 0.627855 0.349417
O O11 0.000000 0.663429 0.546673
O O12 0.714782 0.500000 0.733990
O O13 0.831987 0.375492 0.866370
O O14 0.000000 0.301693 0.975144
O O15 0.174718 0.312451 0.111680
O O16 0.500000 0.128518 0.096758
O O17 0.648351 0.175064 0.268314
O O18 0.636973 0.000000 0.186064
O O19 0.500000 0.299727 0.340876
O O20 0.682188 0.359746 0.300359
O O21 0.785851 0.500000 0.180205
#
# Coordination Sequence:
#
# PCOD8166810 Si02
#       8
#     4   4   4   4   4   4   4   4
#     4  10  21  35  55  83 114 149 188 230 278 334
#     4  10  21  38  60  85 112 143 180 230 287 342
#     4   9  17  30  50  73 100 140 188 233 273 316
#     4  10  20  35  53  78 111 146 187 232 278 330
#     4  11  23  38  58  83 110 144 186 235 286 336
#     4   9  17  32  56  81 106 140 181 225 273 326
#     4  10  20  35  54  81 116 150 186 228 277 336
#     4  11  21  35  53  80 115 150 192 234 276 327
#
# _framework density 18.443825
#
# number of rings (size 3 to 8) (size 9 to 14) (size 15 to 20)
#    0.000    2.000    2.500    1.500    0.000    4.000 
#    0.000    2.500    0.000    1.500    0.000    0.000 
#    0.000    0.000    0.000    0.000    0.000    0.000 
#
# Total GULP energy -396612.144787 kJ/mol
# GULP energy per Si atom -12394.129525 kJ/mol
# Density = 1.840185 g / cm^3
# Si number density = 18.443825 Si / 1000 Ang^3
#
#
#
# Elastic Constant Matrix: (Units=GPa)
#
#
# Indices 1 2 3 4 5 6 
#
# 1 63.0081 13.0446 25.0358 0.0000 0.0000 0.0000
# 2 13.0446 64.4002 18.7694 0.0000 0.0000 0.0000
# 3 25.0358 18.7694 82.4481 0.0000 0.0000 0.0000
# 4 0.0000 0.0000 0.0000 23.6311 0.0000 0.0000
# 5 0.0000 0.0000 0.0000 0.0000 21.0313 0.0000
# 6 0.0000 0.0000 0.0000 0.0000 0.0000 18.7907
#
#
#
# Elastic Compliance Matrix: (Units=1/GPa)
#
#
# Indices 1 2 3 4 5 6 
#
# 1 0.018346 -0.002241 -0.005061 0.000000 0.000000 0.000000
# 2 -0.002241 0.016905 -0.003168 0.000000 0.000000 0.000000
# 3 -0.005061 -0.003168 0.014387 0.000000 0.000000 0.000000
# 4 0.000000 0.000000 0.000000 0.042317 0.000000 0.000000
# 5 0.000000 0.000000 0.000000 0.000000 0.047548 0.000000
# 6 0.000000 0.000000 0.000000 0.000000 0.000000 0.053218
#
#
# Mechanical properties :
#
#
# Convention : Reuss Voigt Hill
#
# Bulk Modulus (GPa) = 34.84530 35.95067 35.39799
# Shear Modulus (GPa) = 22.39881 22.89105 22.64493
#
# Velocity S-wave (km/s) = 3.48865 3.52678 3.50777
# Velocity P-wave (km/s) = 5.92970 6.00987 5.96992
#
# Compressibility (1/GPa) = 0.02869828
#
# Stress axis : x y z
#
# Youngs Moduli (GPa) = 54.50857 59.15352 69.50866
#
# Poissons Ratio (x) = 0.13257 0.35175
# Poissons Ratio (y) = 0.12216 0.22020
# Poissons Ratio (z) = 0.27584 0.18740
#
# Static dielectric constant tensor:
#      x y z
#    x 3.395650 0.000000 0.000000 
#    y 0.000000 3.255020 0.000000 
#    z 0.000000 0.000000 3.491100 
# 
# 
# High freq. dielectric constant tensor:
#      x y z
#    x 1.711270 0.000000 0.000000 
#    y 0.000000 1.698090 0.000000 
#    z 0.000000 0.000000 1.725150 
# 
# From -- ./inp_files/2796.got.cif
#   From: 2010.03.12/outbox.cif.g09.slc.cpg/sg25_2_cif.got.tgz:2796.got - 2010.04.14 03:30:10.
