data_PCOD8166640
_publ_section_title
;
Structure prediction by ZEFSAII (Michael W. Deem and Ramdas Pophale) SiO2 
 PCOD8166640
Probable space group: P M M 2
;
_chemical_formula_sum "Si O2"
_cell_formula_units_Z 28
_cell_length_a 9.441360
_cell_length_b 9.329033
_cell_length_c 18.205470
_cell_angle_alpha 90.000000
_cell_angle_beta 90.000000
_cell_angle_gamma 90.000000
_cell_volume 1603.515205
_symmetry_space_group_name_H-M "P M M 2"
_symmetry_group_IT_number 25
_symmetry_cell_setting 'orthorhombic'
loop_
_space_group_symop_operation_xyz
x,y,z
-x,-y,z
-x,y,z
x,-y,z
loop_
_atom_site_type_symbol
_atom_site_label
_atom_site_fract_x
_atom_site_fract_y
_atom_site_fract_z
Si Si1 0.333231 0.166684 0.212080
Si Si2 0.331796 0.340456 0.072028
Si Si3 0.832097 0.838127 0.637729
Si Si4 0.342377 0.329418 0.911477
Si Si5 0.832834 0.333666 0.336684
Si Si6 0.163582 0.331966 0.775665
Si Si7 0.831830 0.160516 0.476180
O O1 0.500000 0.192045 0.223671
O O2 0.281128 0.229704 0.134050
O O3 0.248999 0.249027 0.274358
O O4 0.293697 0.000000 0.214477
O O5 0.500000 0.349501 0.069081
O O6 0.271122 0.500000 0.089486
O O7 0.280121 0.285128 0.991709
O O8 0.770023 0.738017 0.702053
O O9 0.775475 0.790860 0.556863
O O10 0.000000 0.825018 0.637783
O O11 0.783945 0.000000 0.653878
O O12 0.500000 0.266211 0.899837
O O13 0.347691 0.500000 0.908578
O O14 0.242801 0.268757 0.847054
O O15 0.791918 0.500000 0.333144
O O16 0.779077 0.271964 0.414852
O O17 0.000000 0.309714 0.326150
O O18 0.187056 0.500000 0.767868
O O19 0.000000 0.291209 0.785267
O O20 0.000000 0.157423 0.478079
O O21 0.776023 0.000000 0.457644
#
# Coordination Sequence:
#
# PCOD8166640 Si02
#       7
#     4   4   4   4   4   4   4
#     4  10  20  33  50  71  94 122 155 189 228 275
#     4   8  14  27  47  66  84 112 151 189 221 260
#     4   8  14  25  41  61  86 117 149 178 214 262
#     4   8  14  26  44  63  84 114 148 178 215 265
#     4  10  20  32  48  72  98 122 151 189 232 275
#     4   9  16  25  40  64  89 110 139 183 225 256
#     4   8  14  26  44  64  87 117 151 185 221 263
#
# _framework density 17.461637
#
# number of rings (size 3 to 8) (size 9 to 14) (size 15 to 20)
#    0.000    3.286    0.000    2.571    0.000    2.286 
#    0.000    4.286    0.000    4.714    0.000    4.000 
#    0.000    0.000    0.000    0.000    0.000    0.000 
#
# Total GULP energy -346994.424416 kJ/mol
# GULP energy per Si atom -12392.658015 kJ/mol
# Density = 1.742189 g / cm^3
# Si number density = 17.461637 Si / 1000 Ang^3
#
#
#
# Elastic Constant Matrix: (Units=GPa)
#
#
# Indices 1 2 3 4 5 6 
#
# 1 30.0275 30.8411 45.8153 0.0000 0.0000 0.0000
# 2 30.8411 95.6884 86.6816 0.0000 0.0000 0.0000
# 3 45.8153 86.6816 194.9562 0.0000 0.0000 0.0000
# 4 0.0000 0.0000 0.0000 20.3513 0.0000 0.0000
# 5 0.0000 0.0000 0.0000 0.0000 -10.4070 0.0000
# 6 0.0000 0.0000 0.0000 0.0000 0.0000 15.1887
#
#
#
# Elastic Compliance Matrix: (Units=1/GPa)
#
#
# Indices 1 2 3 4 5 6 
#
# 1 0.057662 -0.010565 -0.008853 0.000000 0.000000 0.000000
# 2 -0.010565 0.019434 -0.006158 0.000000 0.000000 0.000000
# 3 -0.008853 -0.006158 0.009948 0.000000 0.000000 0.000000
# 4 0.000000 0.000000 0.000000 0.049137 0.000000 0.000000
# 5 0.000000 0.000000 0.000000 0.000000 -0.096089 0.000000
# 6 0.000000 0.000000 0.000000 0.000000 0.000000 0.065838
#
#
# Mechanical properties :
#
#
# Convention : Reuss Voigt Hill
#
# Bulk Modulus (GPa) = 27.86165 71.92757 49.89461
# Shear Modulus (GPa) = 29.57756 15.51554 22.54655
#
# Velocity S-wave (km/s) = 4.12012 2.98409 3.59723
# Velocity P-wave (km/s) = 6.21485 7.29070 6.77417
#
# Compressibility (1/GPa) = 0.03589162
#
# Stress axis : x y z
#
# Youngs Moduli (GPa) = 17.34237 51.45585 100.52335
#
# Poissons Ratio (x) = 0.54362 0.88998
# Poissons Ratio (y) = 0.18322 0.61903
# Poissons Ratio (z) = 0.15354 0.31687
#
# Static dielectric constant tensor:
#      x y z
#    x 2.895420 0.000000 0.000000 
#    y 0.000000 3.287860 0.000000 
#    z 0.000000 0.000000 3.903540 
# 
# 
# High freq. dielectric constant tensor:
#      x y z
#    x 1.621030 0.000000 0.000000 
#    y 0.000000 1.659380 0.000000 
#    z 0.000000 0.000000 1.695930 
# 
# From -- ./inp_files/6390.got.cif
#   From: 2010.03.12/outbox.cif.g09.slc.cpg/sg25_4_cif.got.tgz:6390.got - 2010.04.14 03:30:10.
