data_PCOD8166630
_publ_section_title
;
Structure prediction by ZEFSAII (Michael W. Deem and Ramdas Pophale) SiO2 
 PCOD8166630
Probable space group: P M M 2
;
_chemical_formula_sum "Si O2"
_cell_formula_units_Z 24
_cell_length_a 9.088512
_cell_length_b 9.688915
_cell_length_c 15.453719
_cell_angle_alpha 90.000000
_cell_angle_beta 90.000000
_cell_angle_gamma 90.000000
_cell_volume 1360.820810
_symmetry_space_group_name_H-M "P M M 2"
_symmetry_group_IT_number 25
_symmetry_cell_setting 'orthorhombic'
loop_
_space_group_symop_operation_xyz
x,y,z
-x,-y,z
-x,y,z
x,-y,z
loop_
_atom_site_type_symbol
_atom_site_label
_atom_site_fract_x
_atom_site_fract_y
_atom_site_fract_z
Si Si1 0.330193 0.161698 0.051790
Si Si2 0.172465 0.659500 0.192541
Si Si3 0.166082 0.335560 0.532247
Si Si4 0.334195 0.335812 0.364828
Si Si5 0.674566 0.847663 0.857613
Si Si6 0.672792 0.659192 0.703605
O O1 0.500000 0.203210 0.067029
O O2 0.226393 0.250500 0.112691
O O3 0.307670 0.000000 0.070345
O O4 0.279329 0.198124 0.954098
O O5 0.212457 0.500000 0.174793
O O6 0.251562 0.714882 0.278886
O O7 0.000000 0.679711 0.205740
O O8 0.168570 0.500000 0.529703
O O9 0.250842 0.275559 0.448764
O O10 0.246563 0.282644 0.618660
O O11 0.000000 0.278990 0.531250
O O12 0.500000 0.277658 0.363816
O O13 0.334147 0.500000 0.368957
O O14 0.500000 0.852932 0.853937
O O15 0.735369 0.740887 0.786674
O O16 0.738092 0.000000 0.837032
O O17 0.500000 0.682174 0.689955
O O18 0.710769 0.500000 0.719740
#
# Coordination Sequence:
#
# PCOD8166630 Si02
#       6
#     4   4   4   4   4   4
#     4   9  18  33  52  72  94 124 163 202 240 286
#     4  10  20  32  47  71 101 129 158 195 240 287
#     4   9  16  26  41  63  93 125 152 183 228 278
#     4   9  16  27  45  68  93 122 156 193 232 276
#     4   8  15  29  48  68  90 118 153 192 232 274
#     4   9  16  26  43  68  93 117 150 190 228 268
#
# _framework density 17.636413999999998
#
# number of rings (size 3 to 8) (size 9 to 14) (size 15 to 20)
#    0.000    3.000    0.000    2.500    0.000    6.000 
#    0.000    2.500    0.000    4.500    0.000    2.333 
#    0.000    0.000    0.000    0.000    0.000    0.000 
#
# Total GULP energy -297553.493387 kJ/mol
# GULP energy per Si atom -12398.062224 kJ/mol
# Density = 1.759627 g / cm^3
# Si number density = 17.636414 Si / 1000 Ang^3
#
#
#
# Elastic Constant Matrix: (Units=GPa)
#
#
# Indices 1 2 3 4 5 6 
#
# 1 91.0450 31.6851 67.8624 0.0000 0.0000 0.0000
# 2 31.6851 43.7832 58.1648 0.0000 0.0000 0.0000
# 3 67.8624 58.1648 176.1860 0.0000 0.0000 0.0000
# 4 0.0000 0.0000 0.0000 1.7796 0.0000 0.0000
# 5 0.0000 0.0000 0.0000 0.0000 13.1871 0.0000
# 6 0.0000 0.0000 0.0000 0.0000 0.0000 15.8469
#
#
#
# Elastic Compliance Matrix: (Units=1/GPa)
#
#
# Indices 1 2 3 4 5 6 
#
# 1 0.016286 -0.006149 -0.004243 0.000000 0.000000 0.000000
# 2 -0.006149 0.043004 -0.011828 0.000000 0.000000 0.000000
# 3 -0.004243 -0.011828 0.011215 0.000000 0.000000 0.000000
# 4 0.000000 0.000000 0.000000 0.561925 0.000000 0.000000
# 5 0.000000 0.000000 0.000000 0.000000 0.075832 0.000000
# 6 0.000000 0.000000 0.000000 0.000000 0.000000 0.063104
#
#
# Mechanical properties :
#
#
# Convention : Reuss Voigt Hill
#
# Bulk Modulus (GPa) = 38.36774 69.60430 53.98602
# Shear Modulus (GPa) = 6.06432 16.38283 11.22357
#
# Velocity S-wave (km/s) = 1.85634 3.05113 2.52541
# Velocity P-wave (km/s) = 5.13777 7.20863 6.25944
#
# Compressibility (1/GPa) = 0.02606357
#
# Stress axis : x y z
#
# Youngs Moduli (GPa) = 61.40158 23.25382 89.16630
#
# Poissons Ratio (x) = 0.14300 0.37832
# Poissons Ratio (y) = 0.37759 1.05469
# Poissons Ratio (z) = 0.26052 0.27505
#
# Static dielectric constant tensor:
#      x y z
#    x 3.179340 0.000000 0.000000 
#    y 0.000000 2.990220 0.000000 
#    z 0.000000 0.000000 3.525730 
# 
# 
# High freq. dielectric constant tensor:
#      x y z
#    x 1.670960 0.000000 0.000000 
#    y 0.000000 1.637300 0.000000 
#    z 0.000000 0.000000 1.697690 
# 
# From -- ./inp_files/3911.got.cif
#   From: 2010.03.12/outbox.cif.g09.slc.cpg/sg25_2_cif.got.tgz:3911.got - 2010.04.14 03:30:10.
