data_PCOD8166024
_publ_section_title
;
Structure prediction by ZEFSAII (Michael W. Deem and Ramdas Pophale) SiO2 
 PCOD8166024
Probable space group: I 21 21 21
;
_chemical_formula_sum "Si O2"
_cell_formula_units_Z 40
_cell_length_a 14.148651
_cell_length_b 8.743764
_cell_length_c 14.788658
_cell_angle_alpha 90.000000
_cell_angle_beta 90.000000
_cell_angle_gamma 90.000000
_cell_volume 1829.541339
_symmetry_space_group_name_H-M "I 21 21 21"
_symmetry_group_IT_number 24
_symmetry_cell_setting 'orthorhombic'
loop_
_space_group_symop_operation_xyz
x,y,z
-x,1/2-y,z
x,-y,1/2-z
1/2-x,y,-z
1/2+x,1/2+y,1/2+z
1/2-x,-y,1/2+z
1/2+x,1/2-y,-z
-x,1/2+y,1/2-z
loop_
_atom_site_type_symbol
_atom_site_label
_atom_site_fract_x
_atom_site_fract_y
_atom_site_fract_z
Si Si1 0.091256 0.841733 0.936677
Si Si2 0.100556 0.679752 0.113702
Si Si3 0.759706 0.665608 0.780738
Si Si4 0.907820 0.146747 0.815791
Si Si5 0.536022 0.088828 0.990240
O O1 0.167701 0.868399 0.860818
O O2 0.000000 0.750000 0.897256
O O3 0.137090 0.747909 0.018800
O O4 0.058782 0.003330 0.976788
O O5 0.175520 0.720109 0.190767
O O6 0.000000 0.750000 0.142231
O O7 0.088254 0.497881 0.093232
O O8 0.719597 0.500000 0.750000
O O9 0.814488 0.753345 0.701877
O O10 0.897489 0.098503 0.920745
O O11 0.000000 0.250000 0.800835
O O12 0.913230 0.000000 0.750000
O O13 0.500000 0.250000 0.952024
#
# Coordination Sequence:
#
# PCOD8166024 Si02
#       5
#     8   8   8   8   8
#     4   9  18  34  59  88 122 161 197 242 302 363
#     4   9  21  41  61  81 114 165 210 243 291 359
#     4  12  22  35  60  93 125 158 199 251 311 366
#     4  11  20  33  56  93 132 158 191 251 320 371
#     4   9  17  33  59  87 119 156 201 253 302 355
#
# _framework density 21.863403000000002
#
# number of rings (size 3 to 8) (size 9 to 14) (size 15 to 20)
#    0.000    2.400    0.000    7.800    0.000    0.800 
#    0.000    5.000    0.000   15.600    0.000    0.000 
#    0.000    0.000    0.000    0.000    0.000    0.000 
#
# Total GULP energy -247893.501165 kJ/mol
# GULP energy per Si atom -12394.675058 kJ/mol
# Density = 2.181364 g / cm^3
# Si number density = 21.863403 Si / 1000 Ang^3
#
#
#
# Elastic Constant Matrix: (Units=GPa)
#
#
# Indices 1 2 3 4 5 6 
#
# 1 98.3164 53.0824 49.9997 0.0000 0.0000 0.0000
# 2 53.0824 176.4159 38.8105 0.0000 0.0000 0.0000
# 3 49.9997 38.8105 51.9273 0.0000 0.0000 0.0000
# 4 0.0000 0.0000 0.0000 25.9040 0.0000 0.0000
# 5 0.0000 0.0000 0.0000 0.0000 13.0648 0.0000
# 6 0.0000 0.0000 0.0000 0.0000 0.0000 24.4266
#
#
#
# Elastic Compliance Matrix: (Units=1/GPa)
#
#
# Indices 1 2 3 4 5 6 
#
# 1 0.020619 -0.002198 -0.018211 0.000000 0.000000 0.000000
# 2 -0.002198 0.007018 -0.003129 0.000000 0.000000 0.000000
# 3 -0.018211 -0.003129 0.039132 0.000000 0.000000 0.000000
# 4 0.000000 0.000000 0.000000 0.038604 0.000000 0.000000
# 5 0.000000 0.000000 0.000000 0.000000 0.076542 0.000000
# 6 0.000000 0.000000 0.000000 0.000000 0.000000 0.040939
#
#
# Mechanical properties :
#
#
# Convention : Reuss Voigt Hill
#
# Bulk Modulus (GPa) = 50.78028 67.82721 59.30375
# Shear Modulus (GPa) = 18.08353 24.99687 21.54020
#
# Velocity S-wave (km/s) = 2.87908 3.38497 3.14222
# Velocity P-wave (km/s) = 5.85907 6.80940 6.35203
#
# Compressibility (1/GPa) = 0.01969268
#
# Stress axis : x y z
#
# Youngs Moduli (GPa) = 48.49796 142.48811 25.55477
#
# Poissons Ratio (x) = 0.31317 0.46539
# Poissons Ratio (y) = 0.10659 0.07996
# Poissons Ratio (z) = 0.88321 0.44586
#
# Static dielectric constant tensor:
#      x y z
#    x 3.693870 0.000000 0.000000 
#    y 0.000000 4.319770 0.000000 
#    z 0.000000 0.000000 3.749860 
# 
# 
# High freq. dielectric constant tensor:
#      x y z
#    x 1.831210 0.000000 0.000000 
#    y 0.000000 1.874480 0.000000 
#    z 0.000000 0.000000 1.837910 
# 
# From -- ./inp_files/30594.got.cif
#   From: 2010.03.12/outbox.cif.g09.slc.cpg/sg24_16_cif.got.tgz:30594.got - 2010.04.14 03:06:53.
