data_PCOD8166340
_publ_section_title
;
Structure prediction by ZEFSAII (Michael W. Deem and Ramdas Pophale) SiO2 
 PCOD8166340
Probable space group: P M M 2
;
_chemical_formula_sum "Si O2"
_cell_formula_units_Z 32
_cell_length_a 18.185107
_cell_length_b 13.430545
_cell_length_c 7.705522
_cell_angle_alpha 90.000000
_cell_angle_beta 90.000000
_cell_angle_gamma 90.000000
_cell_volume 1881.965084
_symmetry_space_group_name_H-M "P M M 2"
_symmetry_group_IT_number 25
_symmetry_cell_setting 'orthorhombic'
loop_
_space_group_symop_operation_xyz
x,y,z
-x,-y,z
-x,y,z
x,-y,z
loop_
_atom_site_type_symbol
_atom_site_label
_atom_site_fract_x
_atom_site_fract_y
_atom_site_fract_z
Si Si1 0.770646 0.616677 0.391920
Si Si2 0.079339 0.618129 0.245240
Si Si3 0.586233 0.201039 0.072670
Si Si4 0.229278 0.700565 0.748614
Si Si5 0.678451 0.113990 0.773101
Si Si6 0.320800 0.613510 0.051039
Si Si7 0.082490 0.616360 0.848403
Si Si8 0.583516 0.884044 0.440011
O O1 0.774100 0.500000 0.428965
O O2 0.852716 0.660372 0.355592
O O3 0.738337 0.671080 0.560666
O O4 0.719516 0.640771 0.229374
O O5 0.081269 0.500000 0.250859
O O6 0.000000 0.656232 0.317862
O O7 0.087809 0.651157 0.046692
O O8 0.500000 0.187542 0.043666
O O9 0.608889 0.314861 0.031897
O O10 0.609574 0.174480 0.268782
O O11 0.627295 0.127002 0.941282
O O12 0.249809 0.815512 0.786947
O O13 0.141349 0.683103 0.744268
O O14 0.264381 0.629023 0.893488
O O15 0.633456 0.146212 0.602442
O O16 0.705107 0.000000 0.763007
O O17 0.348773 0.500000 0.049953
O O18 0.102120 0.500000 0.825293
O O19 0.000000 0.636485 0.776626
O O20 0.500000 0.855101 0.487865
O O21 0.590216 0.000000 0.397658
#
# Coordination Sequence:
#
# PCOD8166340 Si02
#       8
#     4   4   4   4   4   4   4   4
#     4  10  18  28  46  69  96 131 165 192 229 279
#     4   8  14  25  42  66  97 128 156 190 230 269
#     4  10  20  33  52  75  96 123 160 198 238 290
#     4  11  20  31  49  71  96 128 167 199 237 287
#     4  10  21  35  51  72  98 124 156 203 252 290
#     4  10  20  33  46  66 100 134 162 194 232 278
#     4   9  16  28  47  71 100 130 159 194 235 277
#     4   9  17  31  52  75  97 120 151 198 252 294
#
# _framework density 17.003504
#
# number of rings (size 3 to 8) (size 9 to 14) (size 15 to 20)
#    0.000    2.375    1.250    3.375    0.000    2.000 
#    0.000    1.250    0.000    0.375    0.000    3.500 
#    0.000    0.000    0.000    0.000    0.000    0.000 
#
# Total GULP energy -396715.022123 kJ/mol
# GULP energy per Si atom -12397.344441 kJ/mol
# Density = 1.696480 g / cm^3
# Si number density = 17.003504 Si / 1000 Ang^3
#
#
#
# Elastic Constant Matrix: (Units=GPa)
#
#
# Indices 1 2 3 4 5 6 
#
# 1 69.6407 37.4399 24.7086 0.0000 0.0000 0.0000
# 2 37.4399 67.4155 27.5540 0.0000 0.0000 0.0000
# 3 24.7086 27.5540 91.2406 0.0000 0.0000 0.0000
# 4 0.0000 0.0000 0.0000 19.8181 0.0000 0.0000
# 5 0.0000 0.0000 0.0000 0.0000 11.6778 0.0000
# 6 0.0000 0.0000 0.0000 0.0000 0.0000 18.6736
#
#
#
# Elastic Compliance Matrix: (Units=1/GPa)
#
#
# Indices 1 2 3 4 5 6 
#
# 1 0.020946 -0.010626 -0.002463 0.000000 0.000000 0.000000
# 2 -0.010626 0.022312 -0.003861 0.000000 0.000000 0.000000
# 3 -0.002463 -0.003861 0.012793 0.000000 0.000000 0.000000
# 4 0.000000 0.000000 0.000000 0.050459 0.000000 0.000000
# 5 0.000000 0.000000 0.000000 0.000000 0.085632 0.000000
# 6 0.000000 0.000000 0.000000 0.000000 0.000000 0.053551
#
#
# Mechanical properties :
#
#
# Convention : Reuss Voigt Hill
#
# Bulk Modulus (GPa) = 45.14306 45.30022 45.22164
# Shear Modulus (GPa) = 17.42295 19.27353 18.34824
#
# Velocity S-wave (km/s) = 3.20452 3.37041 3.28851
# Velocity P-wave (km/s) = 6.34813 6.46883 6.40876
#
# Compressibility (1/GPa) = 0.02215180
#
# Stress axis : x y z
#
# Youngs Moduli (GPa) = 47.74174 44.81807 78.16750
#
# Poissons Ratio (x) = 0.47623 0.19256
# Poissons Ratio (y) = 0.50729 0.30178
# Poissons Ratio (z) = 0.11761 0.17303
#
# Static dielectric constant tensor:
#      x y z
#    x 3.222590 0.000000 0.000000 
#    y 0.000000 2.855570 0.000000 
#    z 0.000000 0.000000 3.293220 
# 
# 
# High freq. dielectric constant tensor:
#      x y z
#    x 1.648370 0.000000 0.000000 
#    y 0.000000 1.617100 0.000000 
#    z 0.000000 0.000000 1.670420 
# 
# From -- ./inp_files/3512.got.cif
#   From: 2010.03.12/outbox.cif.g09.slc.cpg/sg25_2_cif.got.tgz:3512.got - 2010.04.14 03:30:10.
