data_PCOD8166253
_publ_section_title
;
Structure prediction by ZEFSAII (Michael W. Deem and Ramdas Pophale) SiO2 
 PCOD8166253
Probable space group: I 21 21 21
;
_chemical_formula_sum "Si O2"
_cell_formula_units_Z 28
_cell_length_a 5.974822
_cell_length_b 19.744607
_cell_length_c 9.634464
_cell_angle_alpha 90.000000
_cell_angle_beta 90.000000
_cell_angle_gamma 90.000000
_cell_volume 1136.582654
_symmetry_space_group_name_H-M "I 21 21 21"
_symmetry_group_IT_number 24
_symmetry_cell_setting 'orthorhombic'
loop_
_space_group_symop_operation_xyz
x,y,z
-x,1/2-y,z
x,-y,1/2-z
1/2-x,y,-z
1/2+x,1/2+y,1/2+z
1/2-x,-y,1/2+z
1/2+x,1/2-y,-z
-x,1/2+y,1/2-z
loop_
_atom_site_type_symbol
_atom_site_label
_atom_site_fract_x
_atom_site_fract_y
_atom_site_fract_z
Si Si1 0.299397 0.000000 0.750000
Si Si2 0.057833 0.578559 0.597836
Si Si3 0.145386 0.389056 0.350404
Si Si4 0.750000 0.689625 0.500000
Si Si5 0.000000 0.250000 0.237419
O O1 0.148652 0.971857 0.623655
O O2 0.446664 0.940955 0.817281
O O3 0.250000 0.544454 0.500000
O O4 0.151466 0.598431 0.746514
O O5 0.973126 0.644508 0.515351
O O6 0.250000 0.400783 0.500000
O O7 0.051831 0.313007 0.337007
O O8 0.787233 0.734683 0.362766
#
# Coordination Sequence:
#
# PCOD8166253 Si02
#       5
#     4   8   8   4   4
#     4  12  28  54  80 120 168 210 270 346 398 488
#     4  12  25  49  82 117 156 213 275 328 406 474
#     4  12  30  51  81 119 163 216 263 331 416 486
#     4  12  24  48  84 120 152 214 276 342 384 486
#     4  12  24  52  82 118 162 206 272 338 402 476
#
# _framework density 24.635252000000001
#
# number of rings (size 3 to 8) (size 9 to 14) (size 15 to 20)
#    0.000    0.000    5.714    2.571    0.000   14.857 
#    0.000    0.000    0.000    0.000    0.000    0.000 
#    0.000    0.000    0.000    0.000    0.000    0.000 
#
# Total GULP energy -173666.978218 kJ/mol
# GULP energy per Si atom -12404.784158 kJ/mol
# Density = 2.457918 g / cm^3
# Si number density = 24.635252 Si / 1000 Ang^3
#
#
#
# Elastic Constant Matrix: (Units=GPa)
#
#
# Indices 1 2 3 4 5 6 
#
# 1 149.7997 83.7517 67.9051 0.0000 0.0000 0.0000
# 2 83.7517 171.0973 58.8185 -0.0001 0.0000 0.0000
# 3 67.9051 58.8185 158.6578 0.0000 0.0000 0.0002
# 4 0.0000 -0.0001 0.0000 23.7112 0.0000 0.0001
# 5 0.0000 0.0000 0.0000 0.0000 63.9391 0.0000
# 6 0.0000 0.0000 0.0002 0.0001 0.0000 19.8814
#
#
#
# Elastic Compliance Matrix: (Units=1/GPa)
#
#
# Indices 1 2 3 4 5 6 
#
# 1 0.010230 -0.004014 -0.002890 0.000000 0.000000 0.000000
# 2 -0.004014 0.008273 -0.001349 0.000000 0.000000 0.000000
# 3 -0.002890 -0.001349 0.008040 0.000000 0.000000 0.000000
# 4 0.000000 0.000000 0.000000 0.042174 0.000000 0.000000
# 5 0.000000 0.000000 0.000000 0.000000 0.015640 0.000000
# 6 0.000000 0.000000 0.000000 0.000000 0.000000 0.050298
#
#
# Mechanical properties :
#
#
# Convention : Reuss Voigt Hill
#
# Bulk Modulus (GPa) = 99.63662 100.05616 99.84639
# Shear Modulus (GPa) = 32.36080 39.44496 35.90288
#
# Velocity S-wave (km/s) = 3.62829 4.00579 3.82170
# Velocity P-wave (km/s) = 7.62136 7.88025 7.75189
#
# Compressibility (1/GPa) = 0.01003647
#
# Stress axis : x y z
#
# Youngs Moduli (GPa) = 97.75246 120.87179 124.37675
#
# Poissons Ratio (x) = 0.48517 0.35949
# Poissons Ratio (y) = 0.39237 0.16780
# Poissons Ratio (z) = 0.28254 0.16308
#
# Static dielectric constant tensor:
#      x y z
#    x 4.599610 0.000000 0.000000 
#    y 0.000000 4.718870 0.000000 
#    z 0.000000 0.000000 4.484190 
# 
# 
# High freq. dielectric constant tensor:
#      x y z
#    x 1.993710 0.000000 0.000000 
#    y 0.000000 1.993570 0.000000 
#    z 0.000000 0.000000 1.983140 
# 
# From -- ./inp_files/8900.got.cif
#   From: 2010.03.12/outbox.cif.g09.slc.cpg/sg24_5_cif.got.tgz:8900.got - 2010.04.14 03:06:53.
