data_PCOD8166212
_publ_section_title
;
Structure prediction by ZEFSAII (Michael W. Deem and Ramdas Pophale) SiO2 
 PCOD8166212
Probable space group: I 21 21 21
;
_chemical_formula_sum "Si O2"
_cell_formula_units_Z 36
_cell_length_a 17.935504
_cell_length_b 19.601453
_cell_length_c 4.893485
_cell_angle_alpha 90.000000
_cell_angle_beta 90.000000
_cell_angle_gamma 90.000000
_cell_volume 1720.363074
_symmetry_space_group_name_H-M "I 21 21 21"
_symmetry_group_IT_number 24
_symmetry_cell_setting 'orthorhombic'
loop_
_space_group_symop_operation_xyz
x,y,z
-x,1/2-y,z
x,-y,1/2-z
1/2-x,y,-z
1/2+x,1/2+y,1/2+z
1/2-x,-y,1/2+z
1/2+x,1/2-y,-z
-x,1/2+y,1/2-z
loop_
_atom_site_type_symbol
_atom_site_label
_atom_site_fract_x
_atom_site_fract_y
_atom_site_fract_z
Si Si1 0.489042 0.919758 0.775663
Si Si2 0.337649 0.255334 0.042928
Si Si3 0.425849 0.296326 0.524186
Si Si4 0.793825 0.500000 0.750000
Si Si5 0.102714 0.885883 0.713192
O O1 0.557124 0.873673 0.883109
O O2 0.469953 0.888550 0.478963
O O3 0.510400 0.000000 0.750000
O O4 0.419529 0.906728 0.978772
O O5 0.375685 0.308476 0.253109
O O6 0.353780 0.184758 0.199748
O O7 0.250000 0.268679 0.000000
O O8 0.378245 0.257042 0.752494
O O9 0.500000 0.250000 0.460945
O O10 0.750000 0.465070 0.500000
O O11 0.841564 0.557495 0.598022
#
# Coordination Sequence:
#
# PCOD8166212 Si02
#       5
#     8   8   8   4   8
#     4  12  23  40  65  94 127 168 222 274 324 386
#     4  12  25  42  65 100 133 171 219 276 332 393
#     4  12  23  42  70  93 131 176 221 273 329 385
#     4  12  24  36  52  82 130 182 210 238 310 396
#     4  12  22  39  61  88 131 174 212 263 324 387
#
# _framework density 20.925816999999999
#
# number of rings (size 3 to 8) (size 9 to 14) (size 15 to 20)
#    0.000    0.000    6.667    4.667    0.000    1.778 
#    0.000    0.000    0.000    2.667    0.000    0.000 
#    0.000    0.000    0.000    0.000    0.000    0.000 
#
# Total GULP energy -223160.635599 kJ/mol
# GULP energy per Si atom -12397.813089 kJ/mol
# Density = 2.087819 g / cm^3
# Si number density = 20.925817 Si / 1000 Ang^3
#
#
#
# Elastic Constant Matrix: (Units=GPa)
#
#
# Indices 1 2 3 4 5 6 
#
# 1 126.4265 41.6903 44.3727 0.0000 0.0000 0.0000
# 2 41.6903 102.7674 9.4785 0.0000 0.0000 0.0000
# 3 44.3727 9.4785 103.9224 0.0000 0.0000 0.0000
# 4 0.0000 0.0000 0.0000 27.7737 0.0000 0.0000
# 5 0.0000 0.0000 0.0000 0.0000 35.9206 0.0000
# 6 0.0000 0.0000 0.0000 0.0000 0.0000 18.0135
#
#
#
# Elastic Compliance Matrix: (Units=1/GPa)
#
#
# Indices 1 2 3 4 5 6 
#
# 1 0.010687 -0.003948 -0.004203 0.000000 0.000000 0.000000
# 2 -0.003948 0.011272 0.000658 0.000000 0.000000 0.000000
# 3 -0.004203 0.000658 0.011357 0.000000 0.000000 0.000000
# 4 0.000000 0.000000 0.000000 0.036005 0.000000 0.000000
# 5 0.000000 0.000000 0.000000 0.000000 0.027839 0.000000
# 6 0.000000 0.000000 0.000000 0.000000 0.000000 0.055514
#
#
# Mechanical properties :
#
#
# Convention : Reuss Voigt Hill
#
# Bulk Modulus (GPa) = 54.55772 58.24436 56.40104
# Shear Modulus (GPa) = 28.77375 32.17988 30.47681
#
# Velocity S-wave (km/s) = 3.71217 3.92574 3.82045
# Velocity P-wave (km/s) = 6.67100 6.96008 6.81707
#
# Compressibility (1/GPa) = 0.01832921
#
# Stress axis : x y z
#
# Youngs Moduli (GPa) = 93.57481 88.71898 88.05028
#
# Poissons Ratio (x) = 0.35023 0.37007
# Poissons Ratio (y) = 0.36940 -0.05790
# Poissons Ratio (z) = 0.39329 -0.05834
#
# Static dielectric constant tensor:
#      x y z
#    x 3.754910 0.000000 0.000000 
#    y 0.000000 3.790220 0.000000 
#    z 0.000000 0.000000 3.414280 
# 
# 
# High freq. dielectric constant tensor:
#      x y z
#    x 1.795270 0.000000 0.000000 
#    y 0.000000 1.809610 0.000000 
#    z 0.000000 0.000000 1.847380 
# 
# From -- ./inp_files/3364.got.cif
#   From: 2010.03.12/outbox.cif.g09.slc.cpg/sg24_2_cif.got.tgz:3364.got - 2010.04.14 03:06:53.
