data_PCOD8166078
_publ_section_title
;
Structure prediction by ZEFSAII (Michael W. Deem and Ramdas Pophale) SiO2 
 PCOD8166078
Probable space group: I 21 21 21
;
_chemical_formula_sum "Si O2"
_cell_formula_units_Z 48
_cell_length_a 9.625756
_cell_length_b 8.485918
_cell_length_c 28.585057
_cell_angle_alpha 90.000000
_cell_angle_beta 90.000000
_cell_angle_gamma 90.000000
_cell_volume 2334.923962
_symmetry_space_group_name_H-M "I 21 21 21"
_symmetry_group_IT_number 24
_symmetry_cell_setting 'orthorhombic'
loop_
_space_group_symop_operation_xyz
x,y,z
-x,1/2-y,z
x,-y,1/2-z
1/2-x,y,-z
1/2+x,1/2+y,1/2+z
1/2-x,-y,1/2+z
1/2+x,1/2-y,-z
-x,1/2+y,1/2-z
loop_
_atom_site_type_symbol
_atom_site_label
_atom_site_fract_x
_atom_site_fract_y
_atom_site_fract_z
Si Si1 0.226158 0.065758 0.801897
Si Si2 0.086213 0.406661 0.547189
Si Si3 0.517942 0.563222 0.850613
Si Si4 0.027828 0.564267 0.853778
Si Si5 0.409494 0.593513 0.946507
Si Si6 0.271797 0.565101 0.700231
O O1 0.250723 0.249958 0.801759
O O2 0.249454 0.000000 0.750000
O O3 0.323351 0.980239 0.840069
O O4 0.071101 0.033840 0.819718
O O5 0.246557 0.365396 0.559432
O O6 0.073139 0.497930 0.496887
O O7 0.000000 0.250000 0.539704
O O8 0.018690 0.495800 0.591953
O O9 0.500000 0.750000 0.847461
O O10 0.467658 0.496569 0.901617
O O11 0.431569 0.476095 0.810046
O O12 0.000000 0.750000 0.850217
O O13 0.183740 0.528469 0.838132
O O14 0.500000 0.750000 0.947309
O O15 0.225535 0.500000 0.750000
#
# Coordination Sequence:
#
# PCOD8166078 Si02
#       6
#     8   8   8   8   8   8
#     4  12  26  42  61  88 123 163 204 253 307 370
#     4   9  18  33  58  92 126 160 203 255 303 355
#     4  11  22  39  63  92 121 160 203 254 305 359
#     4  11  22  39  63  92 121 160 203 254 305 359
#     4   9  18  33  58  92 126 160 203 255 303 355
#     4  12  24  42  63  86 121 159 204 253 309 372
#
# _framework density 20.557413
#
# number of rings (size 3 to 8) (size 9 to 14) (size 15 to 20)
#    0.000    1.333    1.667    5.000    7.000    0.000 
#    0.000    0.000    0.000    6.000    0.000    0.000 
#    0.000    0.000    0.000    0.000    0.000    0.000 
#
# Total GULP energy -297421.384219 kJ/mol
# GULP energy per Si atom -12392.557676 kJ/mol
# Density = 2.051062 g / cm^3
# Si number density = 20.557413 Si / 1000 Ang^3
#
#
#
# Elastic Constant Matrix: (Units=GPa)
#
#
# Indices 1 2 3 4 5 6 
#
# 1 71.5544 4.0485 30.0328 0.0000 0.0000 0.0000
# 2 4.0485 79.8564 35.1851 0.0000 0.0000 0.0000
# 3 30.0328 35.1851 167.0871 0.0000 0.0000 0.0000
# 4 0.0000 0.0000 0.0000 17.6916 0.0000 0.0000
# 5 0.0000 0.0000 0.0000 0.0000 31.1374 0.0000
# 6 0.0000 0.0000 0.0000 0.0000 0.0000 32.8732
#
#
#
# Elastic Compliance Matrix: (Units=1/GPa)
#
#
# Indices 1 2 3 4 5 6 
#
# 1 0.015132 0.000475 -0.002820 0.000000 0.000000 0.000000
# 2 0.000475 0.013818 -0.002995 0.000000 0.000000 0.000000
# 3 -0.002820 -0.002995 0.007123 0.000000 0.000000 0.000000
# 4 0.000000 0.000000 0.000000 0.056524 0.000000 0.000000
# 5 0.000000 0.000000 0.000000 0.000000 0.032116 0.000000
# 6 0.000000 0.000000 0.000000 0.000000 0.000000 0.030420
#
#
# Mechanical properties :
#
#
# Convention : Reuss Voigt Hill
#
# Bulk Modulus (GPa) = 39.38106 50.78121 45.08114
# Shear Modulus (GPa) = 28.69007 32.95589 30.82298
#
# Velocity S-wave (km/s) = 3.73983 4.00823 3.87636
# Velocity P-wave (km/s) = 6.15197 6.79537 6.48166
#
# Compressibility (1/GPa) = 0.02539292
#
# Stress axis : x y z
#
# Youngs Moduli (GPa) = 66.08472 72.36887 140.39983
#
# Poissons Ratio (x) = -0.03440 0.39593
# Poissons Ratio (y) = -0.03141 0.42053
# Poissons Ratio (z) = 0.18636 0.21676
#
# Static dielectric constant tensor:
#      x y z
#    x 4.157150 0.000000 0.000000 
#    y 0.000000 3.255310 0.000000 
#    z 0.000000 0.000000 4.646010 
# 
# 
# High freq. dielectric constant tensor:
#      x y z
#    x 1.819860 0.000000 0.000000 
#    y 0.000000 1.753840 0.000000 
#    z 0.000000 0.000000 1.836100 
# 
# From -- ./inp_files/38268.got.cif
#   From: 2010.03.12/outbox.cif.g09.slc.cpg/sg24_20_cif.got.tgz:38268.got - 2010.04.14 03:06:53.
