data_PCOD8166734
_publ_section_title
;
Structure prediction by ZEFSAII (Michael W. Deem and Ramdas Pophale) SiO2 
 PCOD8166734
Probable space group: P M M 2
;
_chemical_formula_sum "Si O2"
_cell_formula_units_Z 32
_cell_length_a 14.115753
_cell_length_b 10.070451
_cell_length_c 12.374169
_cell_angle_alpha 90.000000
_cell_angle_beta 90.000000
_cell_angle_gamma 90.000000
_cell_volume 1759.012858
_symmetry_space_group_name_H-M "P M M 2"
_symmetry_group_IT_number 25
_symmetry_cell_setting 'orthorhombic'
loop_
_space_group_symop_operation_xyz
x,y,z
-x,-y,z
-x,y,z
x,-y,z
loop_
_atom_site_type_symbol
_atom_site_label
_atom_site_fract_x
_atom_site_fract_y
_atom_site_fract_z
Si Si1 0.392919 0.649437 0.780610
Si Si2 0.110865 0.846538 0.524972
Si Si3 0.394595 0.240754 0.011077
Si Si4 0.201501 0.856818 0.971210
Si Si5 0.603163 0.344379 0.246866
Si Si6 0.110042 0.650538 0.129109
Si Si7 0.765634 0.151107 0.731074
Si Si8 0.792582 0.656181 0.353227
O O1 0.500000 0.682119 0.743012
O O2 0.364778 0.500000 0.746954
O O3 0.323705 0.750556 0.718019
O O4 0.386052 0.657712 0.910825
O O5 0.154390 0.820408 0.642585
O O6 0.165599 0.747616 0.446076
O O7 0.000000 0.810350 0.527777
O O8 0.125621 0.000000 0.489075
O O9 0.500000 0.176220 0.014181
O O10 0.371803 0.315696 0.122530
O O11 0.314550 0.129845 0.993412
O O12 0.183119 0.824782 0.845689
O O13 0.156776 0.000000 0.001601
O O14 0.156918 0.741149 0.039782
O O15 0.500000 0.282298 0.278223
O O16 0.598571 0.500000 0.259474
O O17 0.685335 0.293551 0.327434
O O18 0.135542 0.500000 0.098438
O O19 0.145774 0.684620 0.247767
O O20 0.000000 0.678719 0.127745
O O21 0.727388 0.000000 0.722711
O O22 0.796571 0.500000 0.385692
#
# Coordination Sequence:
#
# PCOD8166734 Si02
#       8
#     4   4   4   4   4   4   4   4
#     4   9  17  29  50  82 114 144 181 221 259 308
#     4  10  22  41  62  79  98 133 184 236 279 322
#     4   9  16  28  48  75 111 150 181 211 253 308
#     4  10  20  33  52  80 111 142 177 218 265 320
#     4   9  16  28  50  79 109 143 178 208 250 310
#     4  10  21  36  53  76 108 143 175 213 269 331
#     4   9  20  37  55  77 106 142 181 223 273 323
#     4  10  20  36  58  82 109 138 174 222 270 319
#
# _framework density 18.192021
#
# number of rings (size 3 to 8) (size 9 to 14) (size 15 to 20)
#    0.000    2.500    1.250    0.750    0.000    6.500 
#    0.000    4.375    0.000    2.625    0.000    0.000 
#    0.000    0.000    0.000    0.000    0.000    0.000 
#
# Total GULP energy -396603.309058 kJ/mol
# GULP energy per Si atom -12393.853408 kJ/mol
# Density = 1.815061 g / cm^3
# Si number density = 18.192021 Si / 1000 Ang^3
#
#
#
# Elastic Constant Matrix: (Units=GPa)
#
#
# Indices 1 2 3 4 5 6 
#
# 1 173.4501 46.0759 51.2743 0.0000 0.0000 0.0000
# 2 46.0759 77.3238 51.9432 0.0000 0.0000 0.0000
# 3 51.2743 51.9432 101.8111 0.0000 0.0000 0.0000
# 4 0.0000 0.0000 0.0000 24.5646 0.0000 0.0000
# 5 0.0000 0.0000 0.0000 0.0000 26.1437 0.0000
# 6 0.0000 0.0000 0.0000 0.0000 0.0000 20.2377
#
#
#
# Elastic Compliance Matrix: (Units=1/GPa)
#
#
# Indices 1 2 3 4 5 6 
#
# 1 0.007152 -0.002803 -0.002172 0.000000 0.000000 0.000000
# 2 -0.002803 0.020775 -0.009188 0.000000 0.000000 0.000000
# 3 -0.002172 -0.009188 0.015603 0.000000 0.000000 0.000000
# 4 0.000000 0.000000 0.000000 0.040709 0.000000 0.000000
# 5 0.000000 0.000000 0.000000 0.000000 0.038250 0.000000
# 6 0.000000 0.000000 0.000000 0.000000 0.000000 0.049413
#
#
# Mechanical properties :
#
#
# Convention : Reuss Voigt Hill
#
# Bulk Modulus (GPa) = 65.76564 72.35243 69.05904
# Shear Modulus (GPa) = 24.35523 27.74194 26.04859
#
# Velocity S-wave (km/s) = 3.66291 3.90930 3.78811
# Velocity P-wave (km/s) = 7.35653 7.76110 7.56152
#
# Compressibility (1/GPa) = 0.01520551
#
# Stress axis : x y z
#
# Youngs Moduli (GPa) = 139.82257 48.13592 64.08871
#
# Poissons Ratio (x) = 0.13491 0.13920
# Poissons Ratio (y) = 0.39187 0.58882
# Poissons Ratio (z) = 0.30369 0.44225
#
# Static dielectric constant tensor:
#      x y z
#    x 3.875490 0.000000 0.000000 
#    y 0.000000 3.245550 0.000000 
#    z 0.000000 0.000000 3.092960 
# 
# 
# High freq. dielectric constant tensor:
#      x y z
#    x 1.714890 0.000000 0.000000 
#    y 0.000000 1.693110 0.000000 
#    z 0.000000 0.000000 1.688360 
# 
# From -- ./inp_files/4890.got.cif
#   From: 2010.03.12/outbox.cif.g09.slc.cpg/sg25_3_cif.got.tgz:4890.got - 2010.04.14 03:30:10.
