data_PCOD8166140
_publ_section_title
;
Structure prediction by ZEFSAII (Michael W. Deem and Ramdas Pophale) SiO2 
 PCOD8166140
Probable space group: I 21 21 21
;
_chemical_formula_sum "Si O2"
_cell_formula_units_Z 32
_cell_length_a 9.907045
_cell_length_b 14.989400
_cell_length_c 9.354352
_cell_angle_alpha 90.000000
_cell_angle_beta 90.000000
_cell_angle_gamma 90.000000
_cell_volume 1389.127449
_symmetry_space_group_name_H-M "I 21 21 21"
_symmetry_group_IT_number 24
_symmetry_cell_setting 'orthorhombic'
loop_
_space_group_symop_operation_xyz
x,y,z
-x,1/2-y,z
x,-y,1/2-z
1/2-x,y,-z
1/2+x,1/2+y,1/2+z
1/2-x,-y,1/2+z
1/2+x,1/2-y,-z
-x,1/2+y,1/2-z
loop_
_atom_site_type_symbol
_atom_site_label
_atom_site_fract_x
_atom_site_fract_y
_atom_site_fract_z
Si Si1 0.845938 0.761597 0.127205
Si Si2 0.191133 0.098250 0.199747
Si Si3 0.226412 0.591764 0.669649
Si Si4 0.961151 0.649295 0.554679
O O1 0.816650 0.659260 0.161878
O O2 0.816051 0.829138 0.259739
O O3 0.000000 0.750000 0.077507
O O4 0.750000 0.795731 0.000000
O O5 0.314074 0.142156 0.117358
O O6 0.223953 0.000000 0.250000
O O7 0.053610 0.100300 0.101596
O O8 0.261330 0.500000 0.750000
O O9 0.250000 0.586379 0.500000
O O10 0.065269 0.609194 0.671600
O O11 0.000000 0.750000 0.519839
#
# Coordination Sequence:
#
# PCOD8166140 Si02
#       4
#     8   8   8   8
#     4  12  29  48  74 109 154 201 254 323 386 465
#     4  11  25  44  74 112 151 198 256 323 382 464
#     4  12  26  48  75 109 149 200 255 318 391 469
#     4  11  23  45  78 104 150 208 254 306 396 470
#
# _framework density 23.036041999999998
#
# number of rings (size 3 to 8) (size 9 to 14) (size 15 to 20)
#    0.000    0.500    2.500    5.250    7.000    6.000 
#    0.000    0.000    0.000    0.000    0.000    0.000 
#    0.000    0.000    0.000    0.000    0.000    0.000 
#
# Total GULP energy -198215.752435 kJ/mol
# GULP energy per Si atom -12388.484527 kJ/mol
# Density = 2.298361 g / cm^3
# Si number density = 23.036042 Si / 1000 Ang^3
#
#
#
# Elastic Constant Matrix: (Units=GPa)
#
#
# Indices 1 2 3 4 5 6 
#
# 1 130.1902 53.5593 54.3322 0.0000 0.0000 0.0000
# 2 53.5593 99.2222 32.5595 -0.0001 0.0002 0.0000
# 3 54.3322 32.5595 118.7322 -0.0001 0.0002 0.0001
# 4 0.0000 -0.0001 -0.0001 33.4035 0.0002 0.0000
# 5 0.0000 0.0002 0.0002 0.0002 12.0333 -0.0001
# 6 0.0000 0.0000 0.0001 0.0000 -0.0001 26.7434
#
#
#
# Elastic Compliance Matrix: (Units=1/GPa)
#
#
# Indices 1 2 3 4 5 6 
#
# 1 0.011264 -0.004823 -0.003832 0.000000 0.000000 0.000000
# 2 -0.004823 0.013140 -0.001396 0.000000 0.000000 0.000000
# 3 -0.003832 -0.001396 0.010559 0.000000 0.000000 0.000000
# 4 0.000000 0.000000 0.000000 0.029937 0.000000 0.000000
# 5 0.000000 0.000000 0.000000 0.000000 0.083103 0.000000
# 6 0.000000 0.000000 0.000000 0.000000 0.000000 0.037392
#
#
# Mechanical properties :
#
#
# Convention : Reuss Voigt Hill
#
# Bulk Modulus (GPa) = 67.29243 69.89404 68.59324
# Shear Modulus (GPa) = 23.75844 28.28227 26.02036
#
# Velocity S-wave (km/s) = 3.21496 3.50771 3.36452
# Velocity P-wave (km/s) = 6.56175 6.84196 6.70332
#
# Compressibility (1/GPa) = 0.01486051
#
# Stress axis : x y z
#
# Youngs Moduli (GPa) = 88.77505 76.10358 94.70794
#
# Poissons Ratio (x) = 0.36704 0.36293
# Poissons Ratio (y) = 0.42816 0.13224
# Poissons Ratio (z) = 0.34019 0.10627
#
# Static dielectric constant tensor:
#      x y z
#    x 4.873130 0.000000 0.000000 
#    y 0.000000 4.080520 0.000000 
#    z 0.000000 0.000000 4.628800 
# 
# 
# High freq. dielectric constant tensor:
#      x y z
#    x 1.931190 0.000000 0.000000 
#    y 0.000000 1.907140 0.000000 
#    z 0.000000 0.000000 1.910820 
# 
# From -- ./inp_files/11974.got.cif
#   From: 2010.03.12/outbox.cif.g09.slc.cpg/sg24_6_cif.got.tgz:11974.got - 2010.04.14 03:06:53.
