data_PCOD8166562
_publ_section_title
;
Structure prediction by ZEFSAII (Michael W. Deem and Ramdas Pophale) SiO2 
 PCOD8166562
Probable space group: P M M 2
;
_chemical_formula_sum "Si O2"
_cell_formula_units_Z 24
_cell_length_a 17.374263
_cell_length_b 8.525151
_cell_length_c 8.047437
_cell_angle_alpha 90.000000
_cell_angle_beta 90.000000
_cell_angle_gamma 90.000000
_cell_volume 1191.972009
_symmetry_space_group_name_H-M "P M M 2"
_symmetry_group_IT_number 25
_symmetry_cell_setting 'orthorhombic'
loop_
_space_group_symop_operation_xyz
x,y,z
-x,-y,z
-x,y,z
x,-y,z
loop_
_atom_site_type_symbol
_atom_site_label
_atom_site_fract_x
_atom_site_fract_y
_atom_site_fract_z
Si Si1 0.087547 0.187114 0.538320
Si Si2 0.181549 0.180721 0.850461
Si Si3 0.182707 0.815013 0.225109
Si Si4 0.500000 0.671127 0.358593
Si Si5 0.352937 0.820283 0.884884
Si Si6 0.500000 0.327561 0.739859
Si Si7 0.343734 0.319041 0.229253
O O1 0.130099 0.257490 0.703089
O O2 0.124017 0.251028 0.364818
O O3 0.000000 0.245492 0.544448
O O4 0.093962 0.000000 0.539357
O O5 0.270607 0.200497 0.793565
O O6 0.158278 0.000000 0.862977
O O7 0.167152 0.254074 0.037224
O O8 0.267967 0.772083 0.289431
O O9 0.176519 0.000000 0.213246
O O10 0.500000 0.500000 0.266916
O O11 0.500000 0.639227 0.549397
O O12 0.578921 0.759485 0.307471
O O13 0.424379 0.775374 0.771402
O O14 0.360979 0.000000 0.947293
O O15 0.353499 0.697838 0.033678
O O16 0.500000 0.500000 0.829620
O O17 0.335119 0.500000 0.281667
#
# Coordination Sequence:
#
# PCOD8166562 Si02
#       7
#     4   4   4   2   4   2   4
#     4   9  17  29  49  77 106 137 171 213 271 328
#     4   8  16  30  47  71 104 135 168 215 264 315
#     4   9  18  32  51  77 107 136 174 222 268 318
#     4   9  21  35  48  72 104 135 176 219 256 308
#     4  10  20  35  53  76 104 137 178 222 267 313
#     4  11  22  35  50  74 106 139 176 219 262 314
#     4  10  19  35  56  75 100 140 181 219 265 314
#
# _framework density 20.134699000000001
#
# number of rings (size 3 to 8) (size 9 to 14) (size 15 to 20)
#    0.000    2.667    0.000    2.750    2.333    1.333 
#    0.000    7.083    0.000    0.500    0.000    0.000 
#    0.000    0.000    0.000    0.000    0.000    0.000 
#
# Total GULP energy -297316.720389 kJ/mol
# GULP energy per Si atom -12388.196683 kJ/mol
# Density = 2.008887 g / cm^3
# Si number density = 20.134699 Si / 1000 Ang^3
#
#
#
# Elastic Constant Matrix: (Units=GPa)
#
#
# Indices 1 2 3 4 5 6 
#
# 1 177.7585 13.8445 92.6457 0.0000 0.0000 0.0000
# 2 13.8445 18.4420 13.7637 0.0000 0.0000 0.0000
# 3 92.6457 13.7637 120.0050 0.0000 0.0000 0.0000
# 4 0.0000 0.0000 0.0000 13.8566 0.0000 0.0000
# 5 0.0000 0.0000 0.0000 0.0000 38.6021 0.0000
# 6 0.0000 0.0000 0.0000 0.0000 0.0000 15.0212
#
#
#
# Elastic Compliance Matrix: (Units=1/GPa)
#
#
# Indices 1 2 3 4 5 6 
#
# 1 0.009468 -0.001807 -0.007102 0.000000 0.000000 0.000000
# 2 -0.001807 0.059645 -0.005446 0.000000 0.000000 0.000000
# 3 -0.007102 -0.005446 0.014440 0.000000 0.000000 0.000000
# 4 0.000000 0.000000 0.000000 0.072168 0.000000 0.000000
# 5 0.000000 0.000000 0.000000 0.000000 0.025905 0.000000
# 6 0.000000 0.000000 0.000000 0.000000 0.000000 0.066572
#
#
# Mechanical properties :
#
#
# Convention : Reuss Voigt Hill
#
# Bulk Modulus (GPa) = 18.23372 61.85706 40.04539
# Shear Modulus (GPa) = 16.93824 26.55942 21.74883
#
# Velocity S-wave (km/s) = 2.90357 3.63586 3.29015
# Velocity P-wave (km/s) = 4.50738 6.95804 5.86220
#
# Compressibility (1/GPa) = 0.05484343
#
# Stress axis : x y z
#
# Youngs Moduli (GPa) = 105.62026 16.76589 69.24972
#
# Poissons Ratio (x) = 0.03030 0.49182
# Poissons Ratio (y) = 0.19087 0.37712
# Poissons Ratio (z) = 0.75012 0.09130
#
# Static dielectric constant tensor:
#      x y z
#    x 4.357960 0.000000 0.000000 
#    y 0.000000 3.290190 0.000000 
#    z 0.000000 0.000000 3.819470 
# 
# 
# High freq. dielectric constant tensor:
#      x y z
#    x 1.793480 0.000000 0.000000 
#    y 0.000000 1.736340 0.000000 
#    z 0.000000 0.000000 1.783410 
# 
# From -- ./inp_files/3371.got.cif
#   From: 2010.03.12/outbox.cif.g09.slc.cpg/sg25_2_cif.got.tgz:3371.got - 2010.04.14 03:30:10.
