data_PCOD8166416
_publ_section_title
;
Structure prediction by ZEFSAII (Michael W. Deem and Ramdas Pophale) SiO2 
 PCOD8166416
Probable space group: P M M 2
;
_chemical_formula_sum "Si O2"
_cell_formula_units_Z 32
_cell_length_a 8.949223
_cell_length_b 15.364612
_cell_length_c 11.867416
_cell_angle_alpha 90.000000
_cell_angle_beta 90.000000
_cell_angle_gamma 90.000000
_cell_volume 1631.785592
_symmetry_space_group_name_H-M "P M M 2"
_symmetry_group_IT_number 25
_symmetry_cell_setting 'orthorhombic'
loop_
_space_group_symop_operation_xyz
x,y,z
-x,-y,z
-x,y,z
x,-y,z
loop_
_atom_site_type_symbol
_atom_site_label
_atom_site_fract_x
_atom_site_fract_y
_atom_site_fract_z
Si Si1 0.172233 0.903069 0.140700
Si Si2 0.322550 0.742410 0.532798
Si Si3 0.677434 0.903833 0.676401
Si Si4 0.675451 0.152476 0.918652
Si Si5 0.828264 0.400918 0.683063
Si Si6 0.327798 0.647895 0.906290
Si Si7 0.824081 0.255309 0.291549
Si Si8 0.670108 0.402139 0.155153
O O1 0.234120 0.832067 0.229134
O O2 0.000000 0.883054 0.117474
O O3 0.196461 0.000000 0.191344
O O4 0.254080 0.898849 0.021810
O O5 0.500000 0.741354 0.528414
O O6 0.260939 0.830948 0.590817
O O7 0.270371 0.659469 0.603333
O O8 0.259713 0.737148 0.408500
O O9 0.500000 0.897719 0.679827
O O10 0.739385 0.885939 0.801814
O O11 0.730248 0.000000 0.636758
O O12 0.500000 0.138579 0.926795
O O13 0.720374 0.252931 0.925708
O O14 0.809429 0.500000 0.641399
O O15 0.774419 0.394866 0.811572
O O16 0.000000 0.371252 0.675911
O O17 0.500000 0.641787 0.867093
O O18 0.299334 0.596974 0.021799
O O19 0.784997 0.339078 0.217017
O O20 0.000000 0.252843 0.313455
O O21 0.500000 0.370895 0.178571
O O22 0.694895 0.500000 0.200458
#
# Coordination Sequence:
#
# PCOD8166416 Si02
#       8
#     4   4   4   4   4   4   4   4
#     4  10  22  39  58  84 120 159 196 235 286 348
#     4  11  23  41  63  85 112 152 198 246 294 344
#     4   9  18  34  57  87 119 148 183 232 288 341
#     4  10  18  33  60  90 119 151 189 236 288 342
#     4  11  24  40  60  88 121 156 194 237 288 348
#     4  10  19  35  61  91 121 153 191 236 288 345
#     4  11  24  41  60  83 114 154 196 246 296 344
#     4  10  21  38  61  88 118 153 193 238 288 346
#
# _framework density 19.610420999999999
#
# number of rings (size 3 to 8) (size 9 to 14) (size 15 to 20)
#    0.000    1.750    2.500    1.875    0.000    5.000 
#    0.000    0.000    0.000    1.875    0.000    0.000 
#    0.000    0.000    0.000    0.000    0.000    0.000 
#
# Total GULP energy -396878.626609 kJ/mol
# GULP energy per Si atom -12402.457082 kJ/mol
# Density = 1.956579 g / cm^3
# Si number density = 19.610421 Si / 1000 Ang^3
#
#
#
# Elastic Constant Matrix: (Units=GPa)
#
#
# Indices 1 2 3 4 5 6 
#
# 1 59.6470 37.4275 37.4364 0.0000 0.0000 0.0000
# 2 37.4275 127.2093 48.5565 0.0000 0.0000 0.0000
# 3 37.4364 48.5565 110.3706 0.0000 0.0000 0.0000
# 4 0.0000 0.0000 0.0000 7.7652 0.0000 0.0000
# 5 0.0000 0.0000 0.0000 0.0000 11.1226 0.0000
# 6 0.0000 0.0000 0.0000 0.0000 0.0000 24.6840
#
#
#
# Elastic Compliance Matrix: (Units=1/GPa)
#
#
# Indices 1 2 3 4 5 6 
#
# 1 0.023365 -0.004626 -0.005890 0.000000 0.000000 0.000000
# 2 -0.004626 0.010364 -0.002990 0.000000 0.000000 0.000000
# 3 -0.005890 -0.002990 0.012374 0.000000 0.000000 0.000000
# 4 0.000000 0.000000 0.000000 0.128779 0.000000 0.000000
# 5 0.000000 0.000000 0.000000 0.000000 0.089907 0.000000
# 6 0.000000 0.000000 0.000000 0.000000 0.000000 0.040512
#
#
# Mechanical properties :
#
#
# Convention : Reuss Voigt Hill
#
# Bulk Modulus (GPa) = 52.38463 60.45199 56.41831
# Shear Modulus (GPa) = 14.76339 20.30147 17.53243
#
# Velocity S-wave (km/s) = 2.74676 3.22100 2.99329
# Velocity P-wave (km/s) = 6.06879 6.68779 6.38579
#
# Compressibility (1/GPa) = 0.01908957
#
# Stress axis : x y z
#
# Youngs Moduli (GPa) = 42.79939 96.49197 80.81694
#
# Poissons Ratio (x) = 0.44639 0.47600
# Poissons Ratio (y) = 0.19800 0.24166
# Poissons Ratio (z) = 0.25208 0.28853
#
# Static dielectric constant tensor:
#      x y z
#    x 3.398130 0.000000 0.000000 
#    y 0.000000 3.824930 0.000000 
#    z 0.000000 0.000000 3.524410 
# 
# 
# High freq. dielectric constant tensor:
#      x y z
#    x 1.746440 0.000000 0.000000 
#    y 0.000000 1.780790 0.000000 
#    z 0.000000 0.000000 1.760360 
# 
# From -- ./inp_files/4192.got.cif
#   From: 2010.03.12/outbox.cif.g09.slc.cpg/sg25_3_cif.got.tgz:4192.got - 2010.04.14 03:30:10.
