data_PCOD8166423
_publ_section_title
;
Structure prediction by ZEFSAII (Michael W. Deem and Ramdas Pophale) SiO2 
 PCOD8166423
Probable space group: P M M 2
;
_chemical_formula_sum "Si O2"
_cell_formula_units_Z 28
_cell_length_a 15.252510
_cell_length_b 9.317238
_cell_length_c 12.455624
_cell_angle_alpha 90.000000
_cell_angle_beta 90.000000
_cell_angle_gamma 90.000000
_cell_volume 1770.084493
_symmetry_space_group_name_H-M "P M M 2"
_symmetry_group_IT_number 25
_symmetry_cell_setting 'orthorhombic'
loop_
_space_group_symop_operation_xyz
x,y,z
-x,-y,z
-x,y,z
x,-y,z
loop_
_atom_site_type_symbol
_atom_site_label
_atom_site_fract_x
_atom_site_fract_y
_atom_site_fract_z
Si Si1 0.095664 0.160782 0.705170
Si Si2 0.902951 0.161724 0.960125
Si Si3 0.402968 0.329358 0.542585
Si Si4 0.265432 0.331209 0.955261
Si Si5 0.604032 0.340550 0.306848
Si Si6 0.740189 0.667120 0.705199
Si Si7 0.603366 0.166921 0.102281
O O1 0.096130 0.164771 0.832799
O O2 0.170796 0.263337 0.659710
O O3 0.000000 0.212970 0.663833
O O4 0.114053 0.000000 0.664379
O O5 0.826630 0.268550 0.001356
O O6 0.000000 0.210192 0.002038
O O7 0.882689 0.000000 0.000607
O O8 0.500000 0.263599 0.561522
O O9 0.408848 0.500000 0.548645
O O10 0.365323 0.286254 0.424764
O O11 0.339916 0.268760 0.635671
O O12 0.268088 0.500000 0.979553
O O13 0.276035 0.297261 0.829430
O O14 0.347364 0.253173 0.009494
O O15 0.500000 0.349988 0.309388
O O16 0.641935 0.500000 0.281172
O O17 0.635765 0.228626 0.216883
O O18 0.750479 0.500000 0.685400
O O19 0.500000 0.191654 0.085715
O O20 0.628171 0.000000 0.096930
#
# Coordination Sequence:
#
# PCOD8166423 Si02
#       7
#     4   4   4   4   4   4   4
#     4   8  14  25  40  57  80 112 145 175 209 247
#     4   8  14  26  43  60  81 112 146 178 213 252
#     4   8  14  26  44  64  86 112 140 171 210 254
#     4  10  19  28  41  64  92 119 146 176 209 251
#     4   8  14  27  47  65  79 101 138 181 219 254
#     4   9  17  27  41  64  90 115 143 173 205 245
#     4  10  20  32  45  61  84 114 146 181 218 255
#
# _framework density 15.818453
#
# number of rings (size 3 to 8) (size 9 to 14) (size 15 to 20)
#    0.000    3.286    0.000    2.571    0.000    2.571 
#    0.000    5.000    0.000    1.286    0.000    1.000 
#    0.000    5.714    0.000    0.000    0.000    0.000 
#
# Total GULP energy -346983.205729 kJ/mol
# GULP energy per Si atom -12392.257347 kJ/mol
# Density = 1.578245 g / cm^3
# Si number density = 15.818453 Si / 1000 Ang^3
#
#
#
# Elastic Constant Matrix: (Units=GPa)
#
#
# Indices 1 2 3 4 5 6 
#
# 1 102.9190 53.1874 50.4419 0.0000 0.0000 0.0000
# 2 53.1874 77.9539 41.8034 0.0000 0.0000 0.0000
# 3 50.4419 41.8034 64.7828 0.0000 0.0000 0.0000
# 4 0.0000 0.0000 0.0000 13.5166 0.0000 0.0000
# 5 0.0000 0.0000 0.0000 0.0000 2.9688 0.0000
# 6 0.0000 0.0000 0.0000 0.0000 0.0000 27.5730
#
#
#
# Elastic Compliance Matrix: (Units=1/GPa)
#
#
# Indices 1 2 3 4 5 6 
#
# 1 0.018087 -0.007322 -0.009358 0.000000 0.000000 0.000000
# 2 -0.007322 0.022580 -0.008869 0.000000 0.000000 0.000000
# 3 -0.009358 -0.008869 0.028446 0.000000 0.000000 0.000000
# 4 0.000000 0.000000 0.000000 0.073983 0.000000 0.000000
# 5 0.000000 0.000000 0.000000 0.000000 0.336835 0.000000
# 6 0.000000 0.000000 0.000000 0.000000 0.000000 0.036267
#
#
# Mechanical properties :
#
#
# Convention : Reuss Voigt Hill
#
# Bulk Modulus (GPa) = 55.51324 59.61345 57.56335
# Shear Modulus (GPa) = 8.72138 15.49320 12.10729
#
# Velocity S-wave (km/s) = 2.35062 3.13299 2.76957
# Velocity P-wave (km/s) = 6.52207 7.13129 6.83347
#
# Compressibility (1/GPa) = 0.01801372
#
# Stress axis : x y z
#
# Youngs Moduli (GPa) = 55.28840 44.28632 35.15425
#
# Poissons Ratio (x) = 0.32428 0.32898
# Poissons Ratio (y) = 0.40484 0.31180
# Poissons Ratio (z) = 0.51740 0.39279
#
# Static dielectric constant tensor:
#      x y z
#    x 3.270240 0.000000 0.000000 
#    y 0.000000 3.004950 0.000000 
#    z 0.000000 0.000000 2.921960 
# 
# 
# High freq. dielectric constant tensor:
#      x y z
#    x 1.600710 0.000000 0.000000 
#    y 0.000000 1.598360 0.000000 
#    z 0.000000 0.000000 1.573040 
# 
# From -- ./inp_files/4993.got.cif
#   From: 2010.03.12/outbox.cif.g09.slc.cpg/sg25_3_cif.got.tgz:4993.got - 2010.04.14 03:30:10.
