data_PCOD8166353
_publ_section_title
;
Structure prediction by ZEFSAII (Michael W. Deem and Ramdas Pophale) SiO2 
 PCOD8166353
Probable space group: P M M 2
;
_chemical_formula_sum "Si O2"
_cell_formula_units_Z 32
_cell_length_a 9.041085
_cell_length_b 19.562701
_cell_length_c 10.367617
_cell_angle_alpha 90.000000
_cell_angle_beta 90.000000
_cell_angle_gamma 90.000000
_cell_volume 1833.700125
_symmetry_space_group_name_H-M "P M M 2"
_symmetry_group_IT_number 25
_symmetry_cell_setting 'orthorhombic'
loop_
_space_group_symop_operation_xyz
x,y,z
-x,-y,z
-x,y,z
x,-y,z
loop_
_atom_site_type_symbol
_atom_site_label
_atom_site_fract_x
_atom_site_fract_y
_atom_site_fract_z
Si Si1 0.675686 0.840134 0.642260
Si Si2 0.675946 0.923882 0.396512
Si Si3 0.832561 0.572746 0.272556
Si Si4 0.675974 0.922481 0.892190
Si Si5 0.671784 0.424944 0.534722
Si Si6 0.826637 0.290468 0.547798
Si Si7 0.675370 0.846097 0.145842
Si Si8 0.168781 0.280424 0.245932
O O1 0.500000 0.831248 0.641900
O O2 0.733186 0.882633 0.519632
O O3 0.731229 0.880836 0.767875
O O4 0.749817 0.766051 0.637395
O O5 0.500000 0.926288 0.394916
O O6 0.736566 0.888271 0.267711
O O7 0.741697 0.000000 0.403117
O O8 0.819505 0.500000 0.194171
O O9 0.713818 0.570374 0.385239
O O10 0.805421 0.642029 0.190338
O O11 0.000000 0.579213 0.331157
O O12 0.500000 0.925603 0.894748
O O13 0.738924 0.000000 0.889220
O O14 0.736704 0.882851 0.017819
O O15 0.500000 0.406136 0.546556
O O16 0.703722 0.500000 0.598478
O O17 0.766728 0.363932 0.598475
O O18 0.784641 0.278745 0.397174
O O19 0.000000 0.287405 0.570771
O O20 0.500000 0.843879 0.143663
O O21 0.732403 0.768696 0.157968
O O22 0.000000 0.257013 0.230671
#
# Coordination Sequence:
#
# PCOD8166353 Si02
#       8
#     4   4   4   4   4   4   4   4
#     4  10  18  30  49  71  93 120 155 198 243 285
#     4   9  16  26  44  69  91 114 149 190 233 283
#     4   8  14  25  40  60  90 128 162 191 232 282
#     4   9  18  32  50  72  96 121 154 199 246 290
#     4   9  16  25  40  65  96 127 159 195 234 278
#     4  10  19  30  45  66  96 130 161 197 238 282
#     4  10  18  29  47  70  94 122 155 194 236 285
#     4   9  17  28  43  65  94 125 155 193 235 277
#
# _framework density 17.451053999999999
#
# number of rings (size 3 to 8) (size 9 to 14) (size 15 to 20)
#    0.000    2.750    1.250    2.250    0.000    5.750 
#    0.000    0.625    0.000    4.500    0.000    0.875 
#    0.000    5.000    0.000    0.000    0.000    0.000 
#
# Total GULP energy -396537.479741 kJ/mol
# GULP energy per Si atom -12391.796242 kJ/mol
# Density = 1.741133 g / cm^3
# Si number density = 17.451054 Si / 1000 Ang^3
#
#
#
# Elastic Constant Matrix: (Units=GPa)
#
#
# Indices 1 2 3 4 5 6 
#
# 1 36.6387 39.2610 21.1624 0.0000 0.0000 0.0000
# 2 39.2610 186.4339 63.0034 0.0000 0.0000 0.0000
# 3 21.1624 63.0034 95.9924 0.0000 0.0000 0.0000
# 4 0.0000 0.0000 0.0000 21.2460 0.0000 0.0000
# 5 0.0000 0.0000 0.0000 0.0000 9.2550 0.0000
# 6 0.0000 0.0000 0.0000 0.0000 0.0000 17.8639
#
#
#
# Elastic Compliance Matrix: (Units=1/GPa)
#
#
# Indices 1 2 3 4 5 6 
#
# 1 0.036316 -0.006351 -0.003838 0.000000 0.000000 0.000000
# 2 -0.006351 0.008003 -0.003853 0.000000 0.000000 0.000000
# 3 -0.003838 -0.003853 0.013792 0.000000 0.000000 0.000000
# 4 0.000000 0.000000 0.000000 0.047068 0.000000 0.000000
# 5 0.000000 0.000000 0.000000 0.000000 0.108049 0.000000
# 6 0.000000 0.000000 0.000000 0.000000 0.000000 0.055979
#
#
# Mechanical properties :
#
#
# Convention : Reuss Voigt Hill
#
# Bulk Modulus (GPa) = 33.30181 62.87982 48.09082
# Shear Modulus (GPa) = 16.27081 22.71554 19.49318
#
# Velocity S-wave (km/s) = 3.05678 3.61178 3.34581
# Velocity P-wave (km/s) = 5.61987 7.31462 6.52252
#
# Compressibility (1/GPa) = 0.03002840
#
# Stress axis : x y z
#
# Youngs Moduli (GPa) = 27.53642 124.94986 72.50427
#
# Poissons Ratio (x) = 0.79352 0.27826
# Poissons Ratio (y) = 0.17488 0.27934
# Poissons Ratio (z) = 0.10568 0.48140
#
# Static dielectric constant tensor:
#      x y z
#    x 2.940090 0.000000 0.000000 
#    y 0.000000 3.724480 0.000000 
#    z 0.000000 0.000000 2.926640 
# 
# 
# High freq. dielectric constant tensor:
#      x y z
#    x 1.648040 0.000000 0.000000 
#    y 0.000000 1.702640 0.000000 
#    z 0.000000 0.000000 1.618190 
# 
# From -- ./inp_files/4480.got.cif
#   From: 2010.03.12/outbox.cif.g09.slc.cpg/sg25_3_cif.got.tgz:4480.got - 2010.04.14 03:30:10.
