data_PCOD8166523
_publ_section_title
;
Structure prediction by ZEFSAII (Michael W. Deem and Ramdas Pophale) SiO2 
 PCOD8166523
Probable space group: P M M 2
;
_chemical_formula_sum "Si O2"
_cell_formula_units_Z 28
_cell_length_a 19.422069
_cell_length_b 9.381378
_cell_length_c 8.094853
_cell_angle_alpha 90.000000
_cell_angle_beta 90.000000
_cell_angle_gamma 90.000000
_cell_volume 1474.928931
_symmetry_space_group_name_H-M "P M M 2"
_symmetry_group_IT_number 25
_symmetry_cell_setting 'orthorhombic'
loop_
_space_group_symop_operation_xyz
x,y,z
-x,-y,z
-x,y,z
x,-y,z
loop_
_atom_site_type_symbol
_atom_site_label
_atom_site_fract_x
_atom_site_fract_y
_atom_site_fract_z
Si Si1 0.076046 0.337011 0.484700
Si Si2 0.076618 0.165502 0.812916
Si Si3 0.653058 0.837665 0.837558
Si Si4 0.577982 0.169732 0.159337
Si Si5 0.208564 0.162956 0.004395
Si Si6 0.784167 0.666798 0.322463
Si Si7 0.333831 0.829851 0.474475
O O1 0.080318 0.500000 0.542421
O O2 0.090791 0.244400 0.643955
O O3 0.134714 0.303427 0.351309
O O4 0.000000 0.302531 0.409942
O O5 0.000000 0.199745 0.882253
O O6 0.085816 0.000000 0.774107
O O7 0.133570 0.214738 0.944452
O O8 0.634644 0.780720 0.653042
O O9 0.629292 0.000000 0.843454
O O10 0.612637 0.764262 0.991933
O O11 0.735500 0.822897 0.858840
O O12 0.500000 0.225607 0.167845
O O13 0.616612 0.221724 0.325728
O O14 0.581635 0.000000 0.155740
O O15 0.234604 0.266714 0.146809
O O16 0.206212 0.000000 0.070277
O O17 0.766497 0.500000 0.325006
O O18 0.738824 0.748375 0.458545
O O19 0.321228 0.000000 0.471876
#
# Coordination Sequence:
#
# PCOD8166523 Si02
#       7
#     4   4   4   4   4   4   4
#     4   9  19  35  51  69  99 137 176 221 271 322
#     4   9  18  32  51  76 103 132 173 224 272 322
#     4   9  17  30  51  78 105 138 175 212 257 313
#     4   9  17  30  51  83 116 139 170 217 261 312
#     4  10  19  33  51  72 103 138 175 217 267 321
#     4  11  22  34  51  76 104 136 181 228 268 314
#     4  10  19  34  57  80 108 144 177 214 270 320
#
# _framework density 18.983965000000001
#
# number of rings (size 3 to 8) (size 9 to 14) (size 15 to 20)
#    0.000    2.429    1.429    1.286    0.000    4.000 
#    0.000    3.571    0.000    0.429    0.000    0.000 
#    0.000    0.000    0.000    0.000    0.000    0.000 
#
# Total GULP energy -347028.143431 kJ/mol
# GULP energy per Si atom -12393.862265 kJ/mol
# Density = 1.894076 g / cm^3
# Si number density = 18.983965 Si / 1000 Ang^3
#
#
#
# Elastic Constant Matrix: (Units=GPa)
#
#
# Indices 1 2 3 4 5 6 
#
# 1 109.4946 23.3791 57.7032 0.0000 0.0000 0.0000
# 2 23.3791 32.9079 24.3646 0.0000 0.0000 0.0000
# 3 57.7032 24.3646 142.6214 0.0000 0.0000 0.0000
# 4 0.0000 0.0000 0.0000 -2.2360 0.0000 0.0000
# 5 0.0000 0.0000 0.0000 0.0000 24.8924 0.0000
# 6 0.0000 0.0000 0.0000 0.0000 0.0000 15.4566
#
#
#
# Elastic Compliance Matrix: (Units=1/GPa)
#
#
# Indices 1 2 3 4 5 6 
#
# 1 0.012533 -0.005895 -0.004064 0.000000 0.000000 0.000000
# 2 -0.005895 0.037561 -0.004032 0.000000 0.000000 0.000000
# 3 -0.004064 -0.004032 0.009344 0.000000 0.000000 0.000000
# 4 0.000000 0.000000 0.000000 -0.447228 0.000000 0.000000
# 5 0.000000 0.000000 0.000000 0.000000 0.040173 0.000000
# 6 0.000000 0.000000 0.000000 0.000000 0.000000 0.064697
#
#
# Mechanical properties :
#
#
# Convention : Reuss Voigt Hill
#
# Bulk Modulus (GPa) = 31.78889 55.10196 43.44542
# Shear Modulus (GPa) = -20.45393 19.59440 -0.42977
#
# Velocity S-wave (km/s) = -3.28599 3.21620 -0.47632
# Velocity P-wave (km/s) = 1.54419 6.54832 4.75736
#
# Compressibility (1/GPa) = 0.03145753
#
# Stress axis : x y z
#
# Youngs Moduli (GPa) = 79.78820 26.62332 107.01586
#
# Poissons Ratio (x) = 0.15695 0.43488
# Poissons Ratio (y) = 0.47038 0.43143
# Poissons Ratio (z) = 0.32423 0.10733
#
# Static dielectric constant tensor:
#      x y z
#    x 3.709740 0.000000 0.000000 
#    y 0.000000 3.138330 0.000000 
#    z 0.000000 0.000000 3.546650 
# 
# 
# High freq. dielectric constant tensor:
#      x y z
#    x 1.744400 0.000000 0.000000 
#    y 0.000000 1.695490 0.000000 
#    z 0.000000 0.000000 1.735420 
# 
# From -- ./inp_files/3548.got.cif
#   From: 2010.03.12/outbox.cif.g09.slc.cpg/sg25_2_cif.got.tgz:3548.got - 2010.04.14 03:30:10.
