data_PCOD8166435
_publ_section_title
;
Structure prediction by ZEFSAII (Michael W. Deem and Ramdas Pophale) SiO2 
 PCOD8166435
Probable space group: P M M 2
;
_chemical_formula_sum "Si O2"
_cell_formula_units_Z 28
_cell_length_a 15.218712
_cell_length_b 8.998224
_cell_length_c 12.614770
_cell_angle_alpha 90.000000
_cell_angle_beta 90.000000
_cell_angle_gamma 90.000000
_cell_volume 1727.484007
_symmetry_space_group_name_H-M "P M M 2"
_symmetry_group_IT_number 25
_symmetry_cell_setting 'orthorhombic'
loop_
_space_group_symop_operation_xyz
x,y,z
-x,-y,z
-x,y,z
x,-y,z
loop_
_atom_site_type_symbol
_atom_site_label
_atom_site_fract_x
_atom_site_fract_y
_atom_site_fract_z
Si Si1 0.899439 0.327510 0.954660
Si Si2 0.895854 0.669934 0.373524
Si Si3 0.104499 0.832651 0.164384
Si Si4 0.219318 0.178238 0.544228
Si Si5 0.596260 0.166331 0.780976
Si Si6 0.407457 0.166202 0.529209
Si Si7 0.768233 0.673952 0.768260
O O1 0.891795 0.500000 0.983312
O O2 0.842982 0.285497 0.852509
O O3 0.000000 0.282850 0.930221
O O4 0.861172 0.238655 0.055321
O O5 0.864690 0.500000 0.379850
O O6 0.859688 0.739216 0.264152
O O7 0.858094 0.761344 0.471825
O O8 0.000000 0.683465 0.380571
O O9 0.000000 0.828782 0.164942
O O10 0.140567 0.000000 0.173565
O O11 0.313682 0.237189 0.495118
O O12 0.205809 0.238749 0.662378
O O13 0.217666 0.000000 0.548387
O O14 0.500000 0.221795 0.822043
O O15 0.595216 0.161858 0.655127
O O16 0.674280 0.275732 0.817523
O O17 0.614516 0.000000 0.824422
O O18 0.500000 0.247710 0.493164
O O19 0.411776 0.000000 0.483566
O O20 0.764594 0.500000 0.742987
#
# Coordination Sequence:
#
# PCOD8166435 Si02
#       7
#     4   4   4   4   4   4   4
#     4   9  18  32  47  63  88 122 154 183 220 267
#     4  10  20  33  48  65  89 121 152 184 225 270
#     4   9  17  30  49  70  87 106 143 193 232 262
#     4  10  19  30  45  66  93 123 154 187 222 264
#     4   8  14  26  43  61  84 116 151 187 227 267
#     4   7  11  22  40  60  82 110 143 178 217 258
#     4  10  19  29  43  66  95 125 155 185 222 270
#
# _framework density 16.208544
#
# number of rings (size 3 to 8) (size 9 to 14) (size 15 to 20)
#    0.000    3.000    0.000    3.429    0.000    4.571 
#    0.000    1.429    0.000    1.286    0.000    1.000 
#    0.000    5.714    0.000    0.000    0.000    0.000 
#
# Total GULP energy -346901.530264 kJ/mol
# GULP energy per Si atom -12389.340367 kJ/mol
# Density = 1.617165 g / cm^3
# Si number density = 16.208544 Si / 1000 Ang^3
#
#
#
# Elastic Constant Matrix: (Units=GPa)
#
#
# Indices 1 2 3 4 5 6 
#
# 1 72.1672 41.1663 44.4932 0.0000 0.0000 0.0000
# 2 41.1663 87.2212 50.9567 0.0000 0.0000 0.0000
# 3 44.4932 50.9567 84.1134 0.0000 0.0000 0.0000
# 4 0.0000 0.0000 0.0000 20.7987 0.0000 0.0000
# 5 0.0000 0.0000 0.0000 0.0000 1.2583 0.0000
# 6 0.0000 0.0000 0.0000 0.0000 0.0000 23.0520
#
#
#
# Elastic Compliance Matrix: (Units=1/GPa)
#
#
# Indices 1 2 3 4 5 6 
#
# 1 0.022199 -0.005599 -0.008351 0.000000 0.000000 0.000000
# 2 -0.005599 0.019158 -0.008645 0.000000 0.000000 0.000000
# 3 -0.008351 -0.008645 0.021543 0.000000 0.000000 0.000000
# 4 0.000000 0.000000 0.000000 0.048080 0.000000 0.000000
# 5 0.000000 0.000000 0.000000 0.000000 0.794696 0.000000
# 6 0.000000 0.000000 0.000000 0.000000 0.000000 0.043380
#
#
# Mechanical properties :
#
#
# Convention : Reuss Voigt Hill
#
# Bulk Modulus (GPa) = 56.45948 57.41491 56.93720
# Shear Modulus (GPa) = 4.99926 16.14752 10.57339
#
# Velocity S-wave (km/s) = 1.75813 3.15974 2.55685
# Velocity P-wave (km/s) = 6.24741 6.98652 6.62728
#
# Compressibility (1/GPa) = 0.01771182
#
# Stress axis : x y z
#
# Youngs Moduli (GPa) = 45.04746 52.19795 46.41896
#
# Poissons Ratio (x) = 0.29223 0.38763
# Poissons Ratio (y) = 0.25220 0.40127
# Poissons Ratio (z) = 0.37618 0.45123
#
# Static dielectric constant tensor:
#      x y z
#    x 3.501520 0.000000 0.000000 
#    y 0.000000 3.089560 0.000000 
#    z 0.000000 0.000000 2.796420 
# 
# 
# High freq. dielectric constant tensor:
#      x y z
#    x 1.619020 0.000000 0.000000 
#    y 0.000000 1.619860 0.000000 
#    z 0.000000 0.000000 1.586910 
# 
# From -- ./inp_files/4994.got.cif
#   From: 2010.03.12/outbox.cif.g09.slc.cpg/sg25_3_cif.got.tgz:4994.got - 2010.04.14 03:30:10.
