data_PCOD8166826
_publ_section_title
;
Structure prediction by ZEFSAII (Michael W. Deem and Ramdas Pophale) SiO2 
 PCOD8166826
Probable space group: P M M 2
;
_chemical_formula_sum "Si O2"
_cell_formula_units_Z 32
_cell_length_a 9.159589
_cell_length_b 13.807797
_cell_length_c 12.957534
_cell_angle_alpha 90.000000
_cell_angle_beta 90.000000
_cell_angle_gamma 90.000000
_cell_volume 1638.787858
_symmetry_space_group_name_H-M "P M M 2"
_symmetry_group_IT_number 25
_symmetry_cell_setting 'orthorhombic'
loop_
_space_group_symop_operation_xyz
x,y,z
-x,-y,z
-x,y,z
x,-y,z
loop_
_atom_site_type_symbol
_atom_site_label
_atom_site_fract_x
_atom_site_fract_y
_atom_site_fract_z
Si Si1 0.665628 0.614869 0.090420
Si Si2 0.669625 0.701442 0.483647
Si Si3 0.171164 0.308097 0.891860
Si Si4 0.169262 0.612592 0.671753
Si Si5 0.332470 0.107658 0.378965
Si Si6 0.160659 0.114401 0.184425
Si Si7 0.165683 0.385111 0.290485
Si Si8 0.172129 0.894403 0.959714
O O1 0.500000 0.654440 0.094677
O O2 0.666485 0.500000 0.096617
O O3 0.755584 0.658284 0.187991
O O4 0.739695 0.645126 0.983997
O O5 0.500000 0.672835 0.479672
O O6 0.734757 0.674050 0.593619
O O7 0.692060 0.817610 0.472635
O O8 0.750343 0.644463 0.393446
O O9 0.219397 0.359236 0.786634
O O10 0.208998 0.192728 0.881318
O O11 0.000000 0.324095 0.913955
O O12 0.199303 0.500000 0.653397
O O13 0.000000 0.638403 0.654730
O O14 0.500000 0.100054 0.348063
O O15 0.254552 0.155236 0.279270
O O16 0.273346 0.000000 0.409491
O O17 0.000000 0.161372 0.192512
O O18 0.151658 0.000000 0.197149
O O19 0.234032 0.136909 0.072828
O O20 0.167062 0.500000 0.284758
O O21 0.000000 0.346044 0.294594
O O22 0.000000 0.906552 0.974092
O O23 0.235726 0.000000 0.923487
#
# Coordination Sequence:
#
# PCOD8166826 Si02
#       8
#     4   4   4   4   4   4   4   4
#     4  10  21  36  54  80 115 148 179 223 279 336
#     4  11  23  37  57  83 109 141 185 233 282 332
#     4  10  20  35  58  84 110 145 189 232 276 326
#     4  10  22  40  59  80 109 145 187 235 283 335
#     4   9  19  35  52  74 108 146 181 220 271 328
#     4   8  14  26  46  73 105 141 179 217 257 309
#     4  10  21  37  57  81 111 146 181 221 276 339
#     4   8  15  29  50  79 113 145 180 223 271 320
#
# _framework density 19.526627999999999
#
# number of rings (size 3 to 8) (size 9 to 14) (size 15 to 20)
#    0.000    2.500    0.000    2.625    1.750    5.250 
#    0.000    0.625    0.000    1.125    0.000    0.000 
#    0.000    0.000    0.000    0.000    0.000    0.000 
#
# Total GULP energy -396677.409525 kJ/mol
# GULP energy per Si atom -12396.169048 kJ/mol
# Density = 1.948218 g / cm^3
# Si number density = 19.526628 Si / 1000 Ang^3
#
#
#
# Elastic Constant Matrix: (Units=GPa)
#
#
# Indices 1 2 3 4 5 6 
#
# 1 98.9610 29.4718 63.2884 0.0000 0.0000 0.0000
# 2 29.4718 46.8001 29.8929 0.0000 0.0000 0.0000
# 3 63.2884 29.8929 109.6290 0.0000 0.0000 0.0000
# 4 0.0000 0.0000 0.0000 32.6798 0.0000 0.0000
# 5 0.0000 0.0000 0.0000 0.0000 2.2033 0.0000
# 6 0.0000 0.0000 0.0000 0.0000 0.0000 18.5096
#
#
#
# Elastic Compliance Matrix: (Units=1/GPa)
#
#
# Indices 1 2 3 4 5 6 
#
# 1 0.017075 -0.005396 -0.008386 0.000000 0.000000 0.000000
# 2 -0.005396 0.027579 -0.004405 0.000000 0.000000 0.000000
# 3 -0.008386 -0.004405 0.015164 0.000000 0.000000 0.000000
# 4 0.000000 0.000000 0.000000 0.030600 0.000000 0.000000
# 5 0.000000 0.000000 0.000000 0.000000 0.453865 0.000000
# 6 0.000000 0.000000 0.000000 0.000000 0.000000 0.054026
#
#
# Mechanical properties :
#
#
# Convention : Reuss Voigt Hill
#
# Bulk Modulus (GPa) = 42.65483 55.63292 49.14387
# Shear Modulus (GPa) = 7.78211 19.52765 13.65488
#
# Velocity S-wave (km/s) = 1.99851 3.16579 2.64729
# Velocity P-wave (km/s) = 5.21702 6.47423 5.87932
#
# Compressibility (1/GPa) = 0.02344400
#
# Stress axis : x y z
#
# Youngs Moduli (GPa) = 58.56442 36.25902 65.94592
#
# Poissons Ratio (x) = 0.19567 0.55302
# Poissons Ratio (y) = 0.31604 0.29048
# Poissons Ratio (z) = 0.49112 0.15971
#
# Static dielectric constant tensor:
#      x y z
#    x 3.621760 0.000000 0.000000 
#    y 0.000000 3.780040 0.000000 
#    z 0.000000 0.000000 3.435740 
# 
# 
# High freq. dielectric constant tensor:
#      x y z
#    x 1.744970 0.000000 0.000000 
#    y 0.000000 1.774920 0.000000 
#    z 0.000000 0.000000 1.742510 
# 
# From -- ./inp_files/4242.got.cif
#   From: 2010.03.12/outbox.cif.g09.slc.cpg/sg25_3_cif.got.tgz:4242.got - 2010.04.14 03:30:10.
