data_PCOD8166681
_publ_section_title
;
Structure prediction by ZEFSAII (Michael W. Deem and Ramdas Pophale) SiO2 
 PCOD8166681
Probable space group: P M M 2
;
_chemical_formula_sum "Si O2"
_cell_formula_units_Z 32
_cell_length_a 13.963320
_cell_length_b 13.504341
_cell_length_c 9.258981
_cell_angle_alpha 90.000000
_cell_angle_beta 90.000000
_cell_angle_gamma 90.000000
_cell_volume 1745.923778
_symmetry_space_group_name_H-M "P M M 2"
_symmetry_group_IT_number 25
_symmetry_cell_setting 'orthorhombic'
loop_
_space_group_symop_operation_xyz
x,y,z
-x,-y,z
-x,y,z
x,-y,z
loop_
_atom_site_type_symbol
_atom_site_label
_atom_site_fract_x
_atom_site_fract_y
_atom_site_fract_z
Si Si1 0.734718 0.886231 0.889610
Si Si2 0.740966 0.385888 0.844607
Si Si3 0.609597 0.885655 0.611391
Si Si4 0.387190 0.751046 0.045363
Si Si5 0.889619 0.386503 0.281296
Si Si6 0.247595 0.386423 0.526252
Si Si7 0.610569 0.730425 0.370395
Si Si8 0.111512 0.725526 0.989901
O O1 0.690542 0.862912 0.731451
O O2 0.827260 0.820431 0.934675
O O3 0.764992 0.000000 0.905588
O O4 0.647362 0.860446 0.997936
O O5 0.711581 0.500000 0.846830
O O6 0.742061 0.337727 0.684276
O O7 0.849148 0.369652 0.902415
O O8 0.664156 0.329051 0.943106
O O9 0.500000 0.857870 0.662262
O O10 0.637775 0.825676 0.467050
O O11 0.612975 0.000000 0.567832
O O12 0.500000 0.739253 0.028732
O O13 0.350105 0.739998 0.208475
O O14 0.854552 0.500000 0.241726
O O15 0.837762 0.344681 0.425315
O O16 0.000000 0.390787 0.319707
O O17 0.870935 0.305185 0.156416
O O18 0.228271 0.500000 0.554464
O O19 0.345534 0.367887 0.440622
O O20 0.500000 0.711140 0.363958
O O21 0.000000 0.744647 0.956782
#
# Coordination Sequence:
#
# PCOD8166681 Si02
#       8
#     4   4   4   4   4   4   4   4
#     4  10  20  34  53  76 103 136 172 212 260 312
#     4  10  21  35  52  77 107 138 173 213 257 306
#     4   9  18  34  55  76  99 131 171 214 259 304
#     4  10  21  35  52  77 107 138 173 213 257 306
#     4   9  18  34  55  76  99 131 171 214 259 304
#     4  10  20  33  50  72 100 134 171 212 252 295
#     4  10  20  33  50  72 100 134 171 212 252 295
#     4  10  20  34  53  76 103 136 172 212 260 312
#
# _framework density 18.328406000000001
#
# number of rings (size 3 to 8) (size 9 to 14) (size 15 to 20)
#    0.000    2.250    0.000    3.750    0.000    6.250 
#    0.000    5.000    0.000    0.000    0.000    0.000 
#    0.000   10.000    0.000    0.000    0.000    0.000 
#
# Total GULP energy -396427.600832 kJ/mol
# GULP energy per Si atom -12388.362526 kJ/mol
# Density = 1.828669 g / cm^3
# Si number density = 18.328406 Si / 1000 Ang^3
#
#
#
# Elastic Constant Matrix: (Units=GPa)
#
#
# Indices 1 2 3 4 5 6 
#
# 1 91.1253 46.9543 69.6795 0.0000 0.0000 0.0000
# 2 46.9543 58.1519 34.6187 0.0000 0.0000 0.0000
# 3 69.6795 34.6187 148.6969 0.0000 0.0000 0.0000
# 4 0.0000 0.0000 0.0000 22.5859 0.0000 0.0000
# 5 0.0000 0.0000 0.0000 0.0000 28.9076 0.0000
# 6 0.0000 0.0000 0.0000 0.0000 0.0000 28.6759
#
#
#
# Elastic Compliance Matrix: (Units=1/GPa)
#
#
# Indices 1 2 3 4 5 6 
#
# 1 0.025240 -0.015485 -0.008222 0.000000 0.000000 0.000000
# 2 -0.015485 0.029463 0.000397 0.000000 0.000000 0.000000
# 3 -0.008222 0.000397 0.010486 0.000000 0.000000 0.000000
# 4 0.000000 0.000000 0.000000 0.044275 0.000000 0.000000
# 5 0.000000 0.000000 0.000000 0.000000 0.034593 0.000000
# 6 0.000000 0.000000 0.000000 0.000000 0.000000 0.034872
#
#
# Mechanical properties :
#
#
# Convention : Reuss Voigt Hill
#
# Bulk Modulus (GPa) = 53.85613 66.71991 60.28802
# Shear Modulus (GPa) = 21.57579 25.81532 23.69556
#
# Velocity S-wave (km/s) = 3.43472 3.75705 3.59950
# Velocity P-wave (km/s) = 6.72142 7.43654 7.08800
#
# Compressibility (1/GPa) = 0.01856799
#
# Stress axis : x y z
#
# Youngs Moduli (GPa) = 39.61917 33.94038 95.36741
#
# Poissons Ratio (x) = 0.52557 0.78416
# Poissons Ratio (y) = 0.61351 -0.03785
# Poissons Ratio (z) = 0.32577 -0.01347
#
# Static dielectric constant tensor:
#      x y z
#    x 3.380940 0.000000 0.000000 
#    y 0.000000 3.321530 0.000000 
#    z 0.000000 0.000000 3.726730 
# 
# 
# High freq. dielectric constant tensor:
#      x y z
#    x 1.706690 0.000000 0.000000 
#    y 0.000000 1.697640 0.000000 
#    z 0.000000 0.000000 1.723870 
# 
# From -- ./inp_files/3294.got.cif
#   From: 2010.03.12/outbox.cif.g09.slc.cpg/sg25_2_cif.got.tgz:3294.got - 2010.04.14 03:30:10.
