data_PCOD8166076
_publ_section_title
;
Structure prediction by ZEFSAII (Michael W. Deem and Ramdas Pophale) SiO2 
 PCOD8166076
Probable space group: I 21 21 21
;
_chemical_formula_sum "Si O2"
_cell_formula_units_Z 32
_cell_length_a 4.906638
_cell_length_b 18.949726
_cell_length_c 16.429207
_cell_angle_alpha 90.000000
_cell_angle_beta 90.000000
_cell_angle_gamma 90.000000
_cell_volume 1527.578560
_symmetry_space_group_name_H-M "I 21 21 21"
_symmetry_group_IT_number 24
_symmetry_cell_setting 'orthorhombic'
loop_
_space_group_symop_operation_xyz
x,y,z
-x,1/2-y,z
x,-y,1/2-z
1/2-x,y,-z
1/2+x,1/2+y,1/2+z
1/2-x,-y,1/2+z
1/2+x,1/2-y,-z
-x,1/2+y,1/2-z
loop_
_atom_site_type_symbol
_atom_site_label
_atom_site_fract_x
_atom_site_fract_y
_atom_site_fract_z
Si Si1 0.356564 0.467238 0.585047
Si Si2 0.161647 0.937773 0.811174
Si Si3 0.878763 0.327402 0.819656
Si Si4 0.865467 0.128322 0.083653
O O1 0.250000 0.434601 0.500000
O O2 0.633046 0.429657 0.613137
O O3 0.451148 0.547856 0.569237
O O4 0.137452 0.455543 0.656137
O O5 0.188864 0.862058 0.766905
O O6 0.258042 0.000000 0.750000
O O7 0.617508 0.326454 0.880201
O O8 0.000000 0.250000 0.807810
O O9 0.114980 0.376472 0.854775
O O10 0.750000 0.163398 0.000000
#
# Coordination Sequence:
#
# PCOD8166076 Si02
#       4
#     8   8   8   8
#     4  11  22  38  64  95 122 158 209 263 318 366
#     4  12  21  39  64  90 126 163 207 262 311 363
#     4  12  25  39  59  90 125 170 210 251 308 372
#     4  11  22  39  60  88 126 166 207 251 304 377
#
# _framework density 20.948186
#
# number of rings (size 3 to 8) (size 9 to 14) (size 15 to 20)
#    0.000    0.500    5.000    4.500    0.000    6.000 
#    0.000    0.000    0.000    3.000    0.000    0.000 
#    0.000    0.000    0.000    0.000    0.000    0.000 
#
# Total GULP energy -198420.606877 kJ/mol
# GULP energy per Si atom -12401.287930 kJ/mol
# Density = 2.090051 g / cm^3
# Si number density = 20.948186 Si / 1000 Ang^3
#
#
#
# Elastic Constant Matrix: (Units=GPa)
#
#
# Indices 1 2 3 4 5 6 
#
# 1 111.7687 26.7092 24.4304 0.0000 0.0000 0.0000
# 2 26.7092 79.8087 49.0962 0.0000 0.0000 0.0000
# 3 24.4304 49.0962 92.4219 0.0001 0.0000 0.0000
# 4 0.0000 0.0000 0.0001 0.2668 0.0000 0.0000
# 5 0.0000 0.0000 0.0000 0.0000 42.2830 0.0000
# 6 0.0000 0.0000 0.0000 0.0000 0.0000 26.5751
#
#
#
# Elastic Compliance Matrix: (Units=1/GPa)
#
#
# Indices 1 2 3 4 5 6 
#
# 1 0.009823 -0.002510 -0.001263 0.000001 0.000000 0.000000
# 2 -0.002510 0.019254 -0.009564 0.000001 0.000000 0.000000
# 3 -0.001263 -0.009564 0.016235 -0.000003 0.000000 0.000000
# 4 0.000001 0.000001 -0.000003 3.748444 -0.000002 -0.000001
# 5 0.000000 0.000000 0.000000 -0.000002 0.023650 0.000000
# 6 0.000000 0.000000 0.000000 -0.000001 0.000000 0.037629
#
#
# Mechanical properties :
#
#
# Convention : Reuss Voigt Hill
#
# Bulk Modulus (GPa) = 53.66015 53.83009 53.74512
# Shear Modulus (GPa) = 1.28603 26.07588 13.68096
#
# Velocity S-wave (km/s) = 0.78438 3.53197 2.55833
# Velocity P-wave (km/s) = 5.14700 6.51043 5.86844
#
# Compressibility (1/GPa) = 0.01863580
#
# Stress axis : x y z
#
# Youngs Moduli (GPa) = 101.80158 51.93755 61.59693
#
# Poissons Ratio (x) = 0.13039 0.07779
# Poissons Ratio (y) = 0.25557 0.58914
# Poissons Ratio (z) = 0.12857 0.49675
#
# Static dielectric constant tensor:
#      x y z
#    x 3.938830 0.000000 0.000000 
#    y 0.000000 3.358140 0.000000 
#    z 0.000000 0.000000 3.981200 
# 
# 
# High freq. dielectric constant tensor:
#      x y z
#    x 1.841840 0.000000 0.000000 
#    y 0.000000 1.778430 0.000000 
#    z 0.000000 0.000000 1.822400 
# 
# From -- ./inp_files/3069.got.cif
#   From: 2010.03.12/outbox.cif.g09.slc.cpg/sg24_2_cif.got.tgz:3069.got - 2010.04.14 03:06:53.
