data_PCOD8166978
_publ_section_title
;
Structure prediction by ZEFSAII (Michael W. Deem and Ramdas Pophale) SiO2 
 PCOD8166978
Probable space group: P M M 2
;
_chemical_formula_sum "Si O2"
_cell_formula_units_Z 32
_cell_length_a 8.602346
_cell_length_b 15.319098
_cell_length_c 11.794317
_cell_angle_alpha 90.000000
_cell_angle_beta 90.000000
_cell_angle_gamma 90.000000
_cell_volume 1554.257234
_symmetry_space_group_name_H-M "P M M 2"
_symmetry_group_IT_number 25
_symmetry_cell_setting 'orthorhombic'
loop_
_space_group_symop_operation_xyz
x,y,z
-x,-y,z
-x,y,z
x,-y,z
loop_
_atom_site_type_symbol
_atom_site_label
_atom_site_fract_x
_atom_site_fract_y
_atom_site_fract_z
Si Si1 0.320954 0.148106 0.969390
Si Si2 0.821394 0.598693 0.202016
Si Si3 0.180977 0.743629 0.584535
Si Si4 0.821690 0.902885 0.738958
Si Si5 0.178104 0.901217 0.198510
Si Si6 0.322004 0.598452 0.736086
Si Si7 0.679015 0.249082 0.342058
Si Si8 0.821861 0.666497 0.957903
O O1 0.500000 0.132004 0.998829
O O2 0.282642 0.103821 0.850238
O O3 0.289296 0.250609 0.962865
O O4 0.217780 0.103426 0.065955
O O5 0.779355 0.500000 0.237697
O O6 0.712187 0.664243 0.270013
O O7 0.000000 0.620519 0.231329
O O8 0.792405 0.607361 0.067806
O O9 0.234253 0.832858 0.646110
O O10 0.274046 0.662254 0.634856
O O11 0.215007 0.752918 0.452567
O O12 0.000000 0.726103 0.602947
O O13 0.000000 0.884884 0.773136
O O14 0.801510 0.000000 0.686960
O O15 0.287373 0.836544 0.268186
O O16 0.000000 0.872059 0.215482
O O17 0.203847 0.000000 0.241870
O O18 0.500000 0.616595 0.769293
O O19 0.298436 0.500000 0.691496
O O20 0.216871 0.611006 0.846862
O O21 0.500000 0.248968 0.378114
O O22 0.000000 0.698232 0.951056
#
# Coordination Sequence:
#
# PCOD8166978 Si02
#       8
#     4   4   4   4   4   4   4   4
#     4  12  23  36  61  96 132 166 202 251 314 373
#     4  10  22  41  66  94 125 164 211 258 305 369
#     4  11  24  43  67  90 120 166 214 262 309 368
#     4  10  22  41  65  93 124 162 207 253 307 371
#     4  11  24  43  67  93 125 167 213 258 307 370
#     4  11  24  41  63  94 131 166 204 258 319 371
#     4  12  26  43  65  92 126 165 207 263 320 372
#     4  11  21  37  64  94 127 167 208 251 307 373
#
# _framework density 20.588615000000001
#
# number of rings (size 3 to 8) (size 9 to 14) (size 15 to 20)
#    0.000    1.000    2.500    4.500    0.000    6.500 
#    0.000    1.250    0.000    0.000    0.000    0.000 
#    0.000    0.000    0.000    0.000    0.000    0.000 
#
# Total GULP energy -397005.765604 kJ/mol
# GULP energy per Si atom -12406.430175 kJ/mol
# Density = 2.054175 g / cm^3
# Si number density = 20.588615 Si / 1000 Ang^3
#
#
#
# Elastic Constant Matrix: (Units=GPa)
#
#
# Indices 1 2 3 4 5 6 
#
# 1 64.8127 35.8586 14.0547 0.0000 0.0000 0.0000
# 2 35.8586 135.6311 37.9944 0.0000 0.0000 0.0000
# 3 14.0547 37.9944 103.0159 0.0000 0.0000 0.0000
# 4 0.0000 0.0000 0.0000 20.8427 0.0000 0.0000
# 5 0.0000 0.0000 0.0000 0.0000 28.3402 0.0000
# 6 0.0000 0.0000 0.0000 0.0000 0.0000 21.4483
#
#
#
# Elastic Compliance Matrix: (Units=1/GPa)
#
#
# Indices 1 2 3 4 5 6 
#
# 1 0.018130 -0.004573 -0.000787 0.000000 0.000000 0.000000
# 2 -0.004573 0.009376 -0.002834 0.000000 0.000000 0.000000
# 3 -0.000787 -0.002834 0.010860 0.000000 0.000000 0.000000
# 4 0.000000 0.000000 0.000000 0.047978 0.000000 0.000000
# 5 0.000000 0.000000 0.000000 0.000000 0.035286 0.000000
# 6 0.000000 0.000000 0.000000 0.000000 0.000000 0.046624
#
#
# Mechanical properties :
#
#
# Convention : Reuss Voigt Hill
#
# Bulk Modulus (GPa) = 45.50059 53.25281 49.37670
# Shear Modulus (GPa) = 26.04619 28.49636 27.27128
#
# Velocity S-wave (km/s) = 3.56065 3.72436 3.64343
# Velocity P-wave (km/s) = 6.24917 6.66452 6.46019
#
# Compressibility (1/GPa) = 0.02197773
#
# Stress axis : x y z
#
# Youngs Moduli (GPa) = 55.15821 106.65727 92.08197
#
# Poissons Ratio (x) = 0.48772 0.07246
# Poissons Ratio (y) = 0.25222 0.26097
# Poissons Ratio (z) = 0.04341 0.30228
#
# Static dielectric constant tensor:
#      x y z
#    x 3.678790 0.000000 0.000000 
#    y 0.000000 3.840130 0.000000 
#    z 0.000000 0.000000 3.591010 
# 
# 
# High freq. dielectric constant tensor:
#      x y z
#    x 1.807410 0.000000 0.000000 
#    y 0.000000 1.818060 0.000000 
#    z 0.000000 0.000000 1.798010 
# 
# From -- ./inp_files/4264.got.cif
#   From: 2010.03.12/outbox.cif.g09.slc.cpg/sg25_3_cif.got.tgz:4264.got - 2010.04.14 03:30:10.
