data_PCOD8166395
_publ_section_title
;
Structure prediction by ZEFSAII (Michael W. Deem and Ramdas Pophale) SiO2 
 PCOD8166395
Probable space group: P M M 2
;
_chemical_formula_sum "Si O2"
_cell_formula_units_Z 32
_cell_length_a 9.310409
_cell_length_b 18.992777
_cell_length_c 10.420139
_cell_angle_alpha 90.000000
_cell_angle_beta 90.000000
_cell_angle_gamma 90.000000
_cell_volume 1842.598618
_symmetry_space_group_name_H-M "P M M 2"
_symmetry_group_IT_number 25
_symmetry_cell_setting 'orthorhombic'
loop_
_space_group_symop_operation_xyz
x,y,z
-x,-y,z
-x,y,z
x,-y,z
loop_
_atom_site_type_symbol
_atom_site_label
_atom_site_fract_x
_atom_site_fract_y
_atom_site_fract_z
Si Si1 0.332296 0.079730 0.271260
Si Si2 0.830924 0.281768 0.925504
Si Si3 0.335280 0.919948 0.565409
Si Si4 0.831131 0.796533 0.673913
Si Si5 0.168133 0.702460 0.430986
Si Si6 0.666455 0.419717 0.538489
Si Si7 0.829864 0.210195 0.182079
Si Si8 0.166026 0.421385 0.799980
O O1 0.500000 0.096280 0.255959
O O2 0.284108 0.088871 0.418730
O O3 0.241867 0.133303 0.184451
O O4 0.299100 0.000000 0.225745
O O5 0.770810 0.238379 0.803985
O O6 0.790590 0.364513 0.908751
O O7 0.000000 0.272825 0.930154
O O8 0.767824 0.251469 0.057967
O O9 0.500000 0.896941 0.577865
O O10 0.240952 0.872364 0.658958
O O11 0.314015 0.000000 0.610504
O O12 0.788061 0.747209 0.555292
O O13 0.000000 0.808222 0.679216
O O14 0.256148 0.629551 0.433807
O O15 0.216704 0.745108 0.305736
O O16 0.000000 0.684773 0.427616
O O17 0.500000 0.399409 0.549715
O O18 0.686700 0.500000 0.492700
O O19 0.738316 0.407688 0.676134
O O20 0.000000 0.199581 0.177057
O O21 0.191051 0.500000 0.855678
O O22 0.000000 0.410326 0.758404
#
# Coordination Sequence:
#
# PCOD8166395 Si02
#       8
#     4   4   4   4   4   4   4   4
#     4   9  18  33  52  74 101 132 167 207 251 301
#     4   9  18  33  50  73 105 133 161 204 252 297
#     4   9  18  32  50  74 102 130 164 208 253 294
#     4  10  18  31  51  75 101 128 162 203 247 295
#     4  10  19  32  51  76 101 128 166 207 248 293
#     4  10  20  32  49  76 105 132 167 210 253 296
#     4  10  20  34  52  75 103 133 168 210 249 294
#     4   9  16  30  53  75  98 132 169 204 248 300
#
# _framework density 17.366778
#
# number of rings (size 3 to 8) (size 9 to 14) (size 15 to 20)
#    0.000    2.500    2.500    1.125    0.000    2.250 
#    0.000    3.750    0.000    6.000    0.000    1.750 
#    0.000    0.000    0.000    0.000    0.000    0.000 
#
# Total GULP energy -396776.390626 kJ/mol
# GULP energy per Si atom -12399.262207 kJ/mol
# Density = 1.732725 g / cm^3
# Si number density = 17.366778 Si / 1000 Ang^3
#
#
#
# Elastic Constant Matrix: (Units=GPa)
#
#
# Indices 1 2 3 4 5 6 
#
# 1 47.2827 50.1517 30.2562 0.0000 0.0000 0.0000
# 2 50.1517 140.4691 66.6024 0.0000 0.0000 0.0000
# 3 30.2562 66.6024 107.3674 0.0000 0.0000 0.0000
# 4 0.0000 0.0000 0.0000 28.9053 0.0000 0.0000
# 5 0.0000 0.0000 0.0000 0.0000 13.4235 0.0000
# 6 0.0000 0.0000 0.0000 0.0000 0.0000 30.8076
#
#
#
# Elastic Compliance Matrix: (Units=1/GPa)
#
#
# Indices 1 2 3 4 5 6 
#
# 1 0.034694 -0.010981 -0.002965 0.000000 0.000000 0.000000
# 2 -0.010981 0.013561 -0.005318 0.000000 0.000000 0.000000
# 3 -0.002965 -0.005318 0.013448 0.000000 0.000000 0.000000
# 4 0.000000 0.000000 0.000000 0.034596 0.000000 0.000000
# 5 0.000000 0.000000 0.000000 0.000000 0.074496 0.000000
# 6 0.000000 0.000000 0.000000 0.000000 0.000000 0.032459
#
#
# Mechanical properties :
#
#
# Convention : Reuss Voigt Hill
#
# Bulk Modulus (GPa) = 43.14894 65.45999 54.30447
# Shear Modulus (GPa) = 20.03954 24.50122 22.27038
#
# Velocity S-wave (km/s) = 3.40060 3.76015 3.58488
# Velocity P-wave (km/s) = 6.34967 7.52503 6.96220
#
# Compressibility (1/GPa) = 0.02317554
#
# Stress axis : x y z
#
# Youngs Moduli (GPa) = 28.82344 73.74157 74.36028
#
# Poissons Ratio (x) = 0.80975 0.22048
# Poissons Ratio (y) = 0.31651 0.39542
# Poissons Ratio (z) = 0.08546 0.39213
#
# Static dielectric constant tensor:
#      x y z
#    x 3.036330 0.000000 0.000000 
#    y 0.000000 3.393920 0.000000 
#    z 0.000000 0.000000 3.168560 
# 
# 
# High freq. dielectric constant tensor:
#      x y z
#    x 1.654050 0.000000 0.000000 
#    y 0.000000 1.684150 0.000000 
#    z 0.000000 0.000000 1.643420 
# 
# From -- ./inp_files/4453.got.cif
#   From: 2010.03.12/outbox.cif.g09.slc.cpg/sg25_3_cif.got.tgz:4453.got - 2010.04.14 03:30:10.
