data_PCOD8166806
_publ_section_title
;
Structure prediction by ZEFSAII (Michael W. Deem and Ramdas Pophale) SiO2 
 PCOD8166806
Probable space group: P M M 2
;
_chemical_formula_sum "Si O2"
_cell_formula_units_Z 32
_cell_length_a 8.968090
_cell_length_b 14.014362
_cell_length_c 12.976293
_cell_angle_alpha 90.000000
_cell_angle_beta 90.000000
_cell_angle_gamma 90.000000
_cell_volume 1630.887232
_symmetry_space_group_name_H-M "P M M 2"
_symmetry_group_IT_number 25
_symmetry_cell_setting 'orthorhombic'
loop_
_space_group_symop_operation_xyz
x,y,z
-x,-y,z
-x,y,z
x,-y,z
loop_
_atom_site_type_symbol
_atom_site_label
_atom_site_fract_x
_atom_site_fract_y
_atom_site_fract_z
Si Si1 0.830469 0.886400 0.427040
Si Si2 0.827759 0.606900 0.744020
Si Si3 0.823772 0.391094 0.332149
Si Si4 0.172604 0.211063 0.855243
Si Si5 0.676575 0.891820 0.042949
Si Si6 0.667758 0.386618 0.539667
Si Si7 0.324284 0.781738 0.245238
Si Si8 0.823074 0.105276 0.653092
O O1 0.718637 0.841476 0.345592
O O2 0.775398 0.852907 0.541179
O O3 0.000000 0.851905 0.404685
O O4 0.822131 0.000000 0.420731
O O5 0.775719 0.500000 0.774299
O O6 0.802936 0.674647 0.843698
O O7 0.738713 0.649431 0.646484
O O8 0.000000 0.608123 0.710589
O O9 0.772328 0.500000 0.310806
O O10 0.764557 0.352164 0.442110
O O11 0.754187 0.322338 0.244964
O O12 0.000000 0.382893 0.331123
O O13 0.233311 0.168848 0.747547
O O14 0.000000 0.185125 0.874382
O O15 0.267893 0.169863 0.947471
O O16 0.500000 0.894653 0.040031
O O17 0.733491 0.840452 0.146377
O O18 0.740524 0.000000 0.038800
O O19 0.500000 0.346827 0.528773
O O20 0.669635 0.500000 0.541857
O O21 0.500000 0.766136 0.241895
O O22 0.000000 0.098689 0.652921
O O23 0.754309 0.000000 0.668676
#
# Coordination Sequence:
#
# PCOD8166806 Si02
#       8
#     4   4   4   4   4   4   4   4
#     4   9  18  33  54  81 114 150 186 228 284 349
#     4   9  18  32  50  78 117 156 192 231 279 332
#     4  10  21  37  57  82 114 151 191 235 282 335
#     4  10  20  34  57  84 109 145 193 239 283 333
#     4  10  23  43  62  81 110 146 184 234 292 346
#     4   9  17  30  50  78 113 152 191 230 272 324
#     4  11  23  38  58  83 112 148 191 237 288 346
#     4   8  15  29  49  76 109 140 173 223 285 339
#
# _framework density 19.621221999999999
#
# number of rings (size 3 to 8) (size 9 to 14) (size 15 to 20)
#    0.000    2.500    0.000    2.625    1.750    5.250 
#    0.000    1.250    0.000    3.000    0.000    0.000 
#    0.000    0.000    0.000    0.000    0.000    0.000 
#
# Total GULP energy -396732.554829 kJ/mol
# GULP energy per Si atom -12397.892338 kJ/mol
# Density = 1.957656 g / cm^3
# Si number density = 19.621222 Si / 1000 Ang^3
#
#
#
# Elastic Constant Matrix: (Units=GPa)
#
#
# Indices 1 2 3 4 5 6 
#
# 1 52.8250 25.8489 31.5568 0.0000 0.0000 0.0000
# 2 25.8489 99.0830 67.8504 0.0000 0.0000 0.0000
# 3 31.5568 67.8504 127.8407 0.0000 0.0000 0.0000
# 4 0.0000 0.0000 0.0000 33.4729 0.0000 0.0000
# 5 0.0000 0.0000 0.0000 0.0000 32.3349 0.0000
# 6 0.0000 0.0000 0.0000 0.0000 0.0000 25.3679
#
#
#
# Elastic Compliance Matrix: (Units=1/GPa)
#
#
# Indices 1 2 3 4 5 6 
#
# 1 0.022872 -0.003300 -0.003894 0.000000 0.000000 0.000000
# 2 -0.003300 0.016331 -0.007853 0.000000 0.000000 0.000000
# 3 -0.003894 -0.007853 0.012951 0.000000 0.000000 0.000000
# 4 0.000000 0.000000 0.000000 0.029875 0.000000 0.000000
# 5 0.000000 0.000000 0.000000 0.000000 0.030926 0.000000
# 6 0.000000 0.000000 0.000000 0.000000 0.000000 0.039420
#
#
# Mechanical properties :
#
#
# Convention : Reuss Voigt Hill
#
# Bulk Modulus (GPa) = 45.33190 58.91787 52.12489
# Shear Modulus (GPa) = 26.34032 28.53464 27.43748
#
# Velocity S-wave (km/s) = 3.66791 3.81763 3.74352
# Velocity P-wave (km/s) = 6.41028 7.03742 6.73116
#
# Compressibility (1/GPa) = 0.02205952
#
# Stress axis : x y z
#
# Youngs Moduli (GPa) = 43.72233 61.23303 77.21156
#
# Poissons Ratio (x) = 0.20207 0.30068
# Poissons Ratio (y) = 0.14429 0.60634
# Poissons Ratio (z) = 0.17027 0.48086
#
# Static dielectric constant tensor:
#      x y z
#    x 3.370110 0.000000 0.000000 
#    y 0.000000 3.858410 0.000000 
#    z 0.000000 0.000000 3.560520 
# 
# 
# High freq. dielectric constant tensor:
#      x y z
#    x 1.744120 0.000000 0.000000 
#    y 0.000000 1.777480 0.000000 
#    z 0.000000 0.000000 1.747770 
# 
# From -- ./inp_files/4253.got.cif
#   From: 2010.03.12/outbox.cif.g09.slc.cpg/sg25_3_cif.got.tgz:4253.got - 2010.04.14 03:30:10.
