data_PCOD8166058
_publ_section_title
;
Structure prediction by ZEFSAII (Michael W. Deem and Ramdas Pophale) SiO2 
 PCOD8166058
Probable space group: I 21 21 21
;
_chemical_formula_sum "Si O2"
_cell_formula_units_Z 32
_cell_length_a 10.610061
_cell_length_b 17.669543
_cell_length_c 7.625810
_cell_angle_alpha 90.000000
_cell_angle_beta 90.000000
_cell_angle_gamma 90.000000
_cell_volume 1429.648189
_symmetry_space_group_name_H-M "I 21 21 21"
_symmetry_group_IT_number 24
_symmetry_cell_setting 'orthorhombic'
loop_
_space_group_symop_operation_xyz
x,y,z
-x,1/2-y,z
x,-y,1/2-z
1/2-x,y,-z
1/2+x,1/2+y,1/2+z
1/2-x,-y,1/2+z
1/2+x,1/2-y,-z
-x,1/2+y,1/2-z
loop_
_atom_site_type_symbol
_atom_site_label
_atom_site_fract_x
_atom_site_fract_y
_atom_site_fract_z
Si Si1 0.022202 0.913301 0.294832
Si Si2 0.389212 0.809546 0.000228
Si Si3 0.759344 0.085772 0.706396
Si Si4 0.500982 0.337688 0.146522
O O1 0.875143 0.892432 0.285363
O O2 0.058903 0.890115 0.493010
O O3 0.107092 0.868679 0.157253
O O4 0.046192 0.000000 0.250000
O O5 0.500000 0.750000 0.971525
O O6 0.250000 0.771277 0.000000
O O7 0.409327 0.851280 0.185892
O O8 0.750000 0.097874 0.500000
O O9 0.859473 0.140845 0.796267
O O10 0.799023 0.000000 0.750000
O O11 0.500000 0.250000 0.086691
#
# Coordination Sequence:
#
# PCOD8166058 Si02
#       4
#     8   8   8   8
#     4  11  24  46  72 104 142 191 239 300 357 428
#     4  11  27  48  73 107 145 190 237 297 362 428
#     4  11  21  41  74 109 145 183 243 304 356 422
#     4  11  25  42  68 107 144 187 238 296 360 422
#
# _framework density 22.383130000000001
#
# number of rings (size 3 to 8) (size 9 to 14) (size 15 to 20)
#    0.000    1.000    2.500    4.500    7.000    1.000 
#   13.500    0.000    0.000    0.000    0.000    0.000 
#    0.000    0.000    0.000    0.000    0.000    0.000 
#
# Total GULP energy -198429.399347 kJ/mol
# GULP energy per Si atom -12401.837459 kJ/mol
# Density = 2.233218 g / cm^3
# Si number density = 22.383130 Si / 1000 Ang^3
#
#
#
# Elastic Constant Matrix: (Units=GPa)
#
#
# Indices 1 2 3 4 5 6 
#
# 1 120.8483 55.0942 19.3419 0.0001 -0.0001 0.0000
# 2 55.0942 105.5080 55.6734 -0.0001 0.0001 0.0000
# 3 19.3419 55.6734 182.8549 -0.0013 0.0005 0.0002
# 4 0.0001 -0.0001 -0.0013 38.2740 0.0003 0.0001
# 5 -0.0001 0.0001 0.0005 0.0003 5.1457 0.0000
# 6 0.0000 0.0000 0.0002 0.0001 0.0000 39.1802
#
#
#
# Elastic Compliance Matrix: (Units=1/GPa)
#
#
# Indices 1 2 3 4 5 6 
#
# 1 0.010933 -0.006075 0.000693 0.000000 0.000000 0.000000
# 2 -0.006075 0.014668 -0.003823 0.000000 0.000000 0.000000
# 3 0.000693 -0.003823 0.006560 0.000000 0.000000 0.000000
# 4 0.000000 0.000000 0.000000 0.026127 -0.000001 0.000000
# 5 0.000000 0.000000 0.000000 -0.000001 0.194336 0.000000
# 6 0.000000 0.000000 0.000000 0.000000 0.000000 0.025523
#
#
# Mechanical properties :
#
#
# Convention : Reuss Voigt Hill
#
# Bulk Modulus (GPa) = 72.72485 74.38112 73.55299
# Shear Modulus (GPa) = 16.60355 35.12676 25.86516
#
# Velocity S-wave (km/s) = 2.72653 3.96579 3.40305
# Velocity P-wave (km/s) = 6.51717 7.36702 6.95509
#
# Compressibility (1/GPa) = 0.01375046
#
# Stress axis : x y z
#
# Youngs Moduli (GPa) = 91.46236 68.17752 152.44958
#
# Poissons Ratio (x) = 0.41418 -0.10567
# Poissons Ratio (y) = 0.55563 0.58285
# Poissons Ratio (z) = -0.06339 0.26066
#
# Static dielectric constant tensor:
#      x y z
#    x 4.167760 0.000000 0.000000 
#    y 0.000000 3.985640 0.000000 
#    z 0.000000 0.000000 4.533150 
# 
# 
# High freq. dielectric constant tensor:
#      x y z
#    x 1.870380 0.000000 0.000000 
#    y 0.000000 1.877590 0.000000 
#    z 0.000000 0.000000 1.903750 
# 
# From -- ./inp_files/10379.got.cif
#   From: 2010.03.12/outbox.cif.g09.slc.cpg/sg24_6_cif.got.tgz:10379.got - 2010.04.14 03:06:53.
