data_PCOD8166088
_publ_section_title
;
Structure prediction by ZEFSAII (Michael W. Deem and Ramdas Pophale) SiO2 
 PCOD8166088
Probable space group: I 21 21 21
;
_chemical_formula_sum "Si O2"
_cell_formula_units_Z 48
_cell_length_a 7.964632
_cell_length_b 19.810270
_cell_length_c 13.992841
_cell_angle_alpha 90.000000
_cell_angle_beta 90.000000
_cell_angle_gamma 90.000000
_cell_volume 2207.811587
_symmetry_space_group_name_H-M "I 21 21 21"
_symmetry_group_IT_number 24
_symmetry_cell_setting 'orthorhombic'
loop_
_space_group_symop_operation_xyz
x,y,z
-x,1/2-y,z
x,-y,1/2-z
1/2-x,y,-z
1/2+x,1/2+y,1/2+z
1/2-x,-y,1/2+z
1/2+x,1/2-y,-z
-x,1/2+y,1/2-z
loop_
_atom_site_type_symbol
_atom_site_label
_atom_site_fract_x
_atom_site_fract_y
_atom_site_fract_z
Si Si1 0.366143 0.427294 0.719467
Si Si2 0.554690 0.032629 0.520546
Si Si3 0.829027 0.500000 0.750000
Si Si4 0.609330 0.419740 0.884806
Si Si5 0.000000 0.750000 0.742234
Si Si6 0.476801 0.615420 0.161869
Si Si7 0.806386 0.270155 0.102218
O O1 0.290908 0.500000 0.750000
O O2 0.481635 0.436587 0.625350
O O3 0.468950 0.396161 0.807347
O O4 0.219045 0.378064 0.687006
O O5 0.750000 0.020081 0.500000
O O6 0.483525 0.086578 0.444145
O O7 0.468121 0.957276 0.520269
O O8 0.718336 0.480068 0.840497
O O9 0.941276 0.565037 0.764333
O O10 0.708899 0.351667 0.908355
O O11 0.044099 0.810334 0.815896
O O12 0.830802 0.758394 0.677988
O O13 0.000000 0.250000 0.126879
O O14 0.750000 0.239195 0.000000
#
# Coordination Sequence:
#
# PCOD8166088 Si02
#       7
#     8   8   4   8   4   8   8
#     4   9  17  39  65  91 127 171 218 271 334 398
#     4   9  20  37  66  98 130 168 226 282 335 406
#     4  12  22  36  64  96 132 172 220 284 346 398
#     4  11  22  41  67  97 132 171 224 288 341 402
#     4  12  26  48  70  98 142 188 230 276 360 430
#     4  11  23  39  67  97 131 174 222 280 341 415
#     4  12  27  47  68  99 137 179 230 285 350 428
#
# _framework density 21.740984999999998
#
# number of rings (size 3 to 8) (size 9 to 14) (size 15 to 20)
#    0.000    1.333    5.833    1.000    2.333    0.667 
#    0.000    0.000   23.833    0.000    0.000    0.000 
#    0.000    0.000    0.000    0.000    0.000    0.000 
#
# Total GULP energy -297318.190767 kJ/mol
# GULP energy per Si atom -12388.257949 kJ/mol
# Density = 2.169150 g / cm^3
# Si number density = 21.740985 Si / 1000 Ang^3
#
#
#
# Elastic Constant Matrix: (Units=GPa)
#
#
# Indices 1 2 3 4 5 6 
#
# 1 75.8816 19.0532 22.9707 0.0000 0.0000 0.0000
# 2 19.0532 115.1399 40.7921 -0.0001 0.0000 0.0001
# 3 22.9707 40.7921 121.4680 -0.0003 -0.0001 0.0006
# 4 0.0000 -0.0001 -0.0003 33.0581 0.0000 0.0002
# 5 0.0000 0.0000 -0.0001 0.0000 25.8581 0.0000
# 6 0.0000 0.0001 0.0006 0.0002 0.0000 10.8994
#
#
#
# Elastic Compliance Matrix: (Units=1/GPa)
#
#
# Indices 1 2 3 4 5 6 
#
# 1 0.014231 -0.001591 -0.002157 0.000000 0.000000 0.000000
# 2 -0.001591 0.010036 -0.003069 0.000000 0.000000 0.000000
# 3 -0.002157 -0.003069 0.009671 0.000000 0.000000 -0.000001
# 4 0.000000 0.000000 0.000000 0.030250 0.000000 -0.000001
# 5 0.000000 0.000000 0.000000 0.000000 0.038673 0.000000
# 6 0.000000 0.000000 -0.000001 -0.000001 0.000000 0.091748
#
#
# Mechanical properties :
#
#
# Convention : Reuss Voigt Hill
#
# Bulk Modulus (GPa) = 49.25230 53.12460 51.18845
# Shear Modulus (GPa) = 23.25467 29.27468 26.26467
#
# Velocity S-wave (km/s) = 3.27406 3.67348 3.47950
# Velocity P-wave (km/s) = 6.08243 6.51773 6.30384
#
# Compressibility (1/GPa) = 0.02030362
#
# Stress axis : x y z
#
# Youngs Moduli (GPa) = 70.27017 99.64354 103.39841
#
# Poissons Ratio (x) = 0.15850 0.22303
# Poissons Ratio (y) = 0.11178 0.31738
# Poissons Ratio (z) = 0.15157 0.30585
#
# Static dielectric constant tensor:
#      x y z
#    x 4.028740 0.000000 0.000000 
#    y 0.000000 3.584090 0.000000 
#    z 0.000000 0.000000 4.032980 
# 
# 
# High freq. dielectric constant tensor:
#      x y z
#    x 1.858780 0.000000 0.000000 
#    y 0.000000 1.832710 0.000000 
#    z 0.000000 0.000000 1.852470 
# 
# From -- ./inp_files/24949.got.cif
#   From: 2010.03.12/outbox.cif.g09.slc.cpg/sg24_13_cif.got.tgz:24949.got - 2010.04.14 03:06:53.
