data_PCOD8166226
_publ_section_title
;
Structure prediction by ZEFSAII (Michael W. Deem and Ramdas Pophale) SiO2 
 PCOD8166226
Probable space group: I 21 21 21
;
_chemical_formula_sum "Si O2"
_cell_formula_units_Z 40
_cell_length_a 8.487585
_cell_length_b 10.888750
_cell_length_c 20.334845
_cell_angle_alpha 90.000000
_cell_angle_beta 90.000000
_cell_angle_gamma 90.000000
_cell_volume 1879.329927
_symmetry_space_group_name_H-M "I 21 21 21"
_symmetry_group_IT_number 24
_symmetry_cell_setting 'orthorhombic'
loop_
_space_group_symop_operation_xyz
x,y,z
-x,1/2-y,z
x,-y,1/2-z
1/2-x,y,-z
1/2+x,1/2+y,1/2+z
1/2-x,-y,1/2+z
1/2+x,1/2-y,-z
-x,1/2+y,1/2-z
loop_
_atom_site_type_symbol
_atom_site_label
_atom_site_fract_x
_atom_site_fract_y
_atom_site_fract_z
Si Si1 0.504611 0.505018 0.125418
Si Si2 0.066438 0.377322 0.499340
Si Si3 0.226870 0.310294 0.702969
Si Si4 0.641417 0.410220 0.630389
Si Si5 0.000000 0.750000 0.694591
Si Si6 0.459550 0.500000 0.750000
O O1 0.454099 0.510294 0.049610
O O2 0.404015 0.602862 0.168237
O O3 0.688929 0.531344 0.120400
O O4 0.468828 0.369120 0.150843
O O5 0.250000 0.352606 0.500000
O O6 0.000000 0.250000 0.528756
O O7 0.976767 0.411095 0.431711
O O8 0.328880 0.232139 0.650813
O O9 0.145136 0.221120 0.756157
O O10 0.349005 0.381993 0.748412
O O11 0.564644 0.497842 0.684841
#
# Coordination Sequence:
#
# PCOD8166226 Si02
#       6
#     8   8   8   8   4   4
#     4  12  24  44  70  99 137 187 232 290 354 433
#     4  12  25  44  71 101 138 180 236 297 358 423
#     4  12  23  43  72 103 139 182 237 296 354 421
#     4  12  25  43  71 105 139 184 237 295 359 419
#     4  12  24  42  72  98 140 184 234 282 370 422
#     4  12  24  38  66 106 142 172 224 290 356 422
#
# _framework density 21.284182000000001
#
# number of rings (size 3 to 8) (size 9 to 14) (size 15 to 20)
#    0.000    0.000    4.000    8.400    0.000    0.000 
#    0.000    2.000    4.400    0.000    0.000    0.000 
#    0.000    0.000    0.000    0.000    0.000    0.000 
#
# Total GULP energy -247844.840395 kJ/mol
# GULP energy per Si atom -12392.242020 kJ/mol
# Density = 2.123574 g / cm^3
# Si number density = 21.284182 Si / 1000 Ang^3
#
#
#
# Elastic Constant Matrix: (Units=GPa)
#
#
# Indices 1 2 3 4 5 6 
#
# 1 160.6935 37.8247 59.8404 0.0000 0.0000 0.0000
# 2 37.8247 87.3948 71.6710 0.0000 0.0000 0.0000
# 3 59.8404 71.6710 143.7129 0.0000 0.0000 0.0000
# 4 0.0000 0.0000 0.0000 38.7249 0.0000 0.0000
# 5 0.0000 0.0000 0.0000 0.0000 34.4589 0.0000
# 6 0.0000 0.0000 0.0000 0.0000 0.0000 36.2527
#
#
#
# Elastic Compliance Matrix: (Units=1/GPa)
#
#
# Indices 1 2 3 4 5 6 
#
# 1 0.007433 -0.001149 -0.002522 0.000000 0.000000 0.000000
# 2 -0.001149 0.019538 -0.009265 0.000000 0.000000 0.000000
# 3 -0.002522 -0.009265 0.012629 0.000000 0.000000 0.000000
# 4 0.000000 0.000000 0.000000 0.025823 0.000000 0.000000
# 5 0.000000 0.000000 0.000000 0.000000 0.029020 0.000000
# 6 0.000000 0.000000 0.000000 0.000000 0.000000 0.027584
#
#
# Mechanical properties :
#
#
# Convention : Reuss Voigt Hill
#
# Bulk Modulus (GPa) = 72.84623 81.16372 77.00497
# Shear Modulus (GPa) = 32.79223 36.71830 34.75527
#
# Velocity S-wave (km/s) = 3.92941 4.15799 4.04532
# Velocity P-wave (km/s) = 7.40857 7.82739 7.62086
#
# Compressibility (1/GPa) = 0.01372755
#
# Stress axis : x y z
#
# Youngs Moduli (GPa) = 134.54326 51.18257 79.18118
#
# Poissons Ratio (x) = 0.05879 0.19970
# Poissons Ratio (y) = 0.15453 0.73365
# Poissons Ratio (z) = 0.33932 0.47423
#
# Static dielectric constant tensor:
#      x y z
#    x 4.814480 0.000000 0.000000 
#    y 0.000000 4.018070 0.000000 
#    z 0.000000 0.000000 4.130590 
# 
# 
# High freq. dielectric constant tensor:
#      x y z
#    x 1.872600 0.000000 0.000000 
#    y 0.000000 1.809310 0.000000 
#    z 0.000000 0.000000 1.839070 
# 
# From -- ./inp_files/10735.got.cif
#   From: 2010.03.12/outbox.cif.g09.slc.cpg/sg24_6_cif.got.tgz:10735.got - 2010.04.14 03:06:53.
