data_PCOD8166021
_publ_section_title
;
Structure prediction by ZEFSAII (Michael W. Deem and Ramdas Pophale) SiO2 
 PCOD8166021
Probable space group: I 21 21 21
;
_chemical_formula_sum "Si O2"
_cell_formula_units_Z 36
_cell_length_a 16.173696
_cell_length_b 4.901671
_cell_length_c 22.650591
_cell_angle_alpha 90.000000
_cell_angle_beta 90.000000
_cell_angle_gamma 90.000000
_cell_volume 1795.696648
_symmetry_space_group_name_H-M "I 21 21 21"
_symmetry_group_IT_number 24
_symmetry_cell_setting 'orthorhombic'
loop_
_space_group_symop_operation_xyz
x,y,z
-x,1/2-y,z
x,-y,1/2-z
1/2-x,y,-z
1/2+x,1/2+y,1/2+z
1/2-x,-y,1/2+z
1/2+x,1/2-y,-z
-x,1/2+y,1/2-z
loop_
_atom_site_type_symbol
_atom_site_label
_atom_site_fract_x
_atom_site_fract_y
_atom_site_fract_z
Si Si1 0.910174 0.724050 0.945165
Si Si2 0.149166 0.432726 0.129324
Si Si3 0.576280 0.581638 0.922615
Si Si4 0.939433 0.000000 0.250000
Si Si5 0.300040 0.747417 0.438855
O O1 0.848452 0.511932 0.914038
O O2 0.000000 0.750000 0.912782
O O3 0.866293 0.013065 0.951943
O O4 0.929132 0.580594 0.007531
O O5 0.152883 0.735533 0.100567
O O6 0.124733 0.438528 0.197552
O O7 0.240366 0.318515 0.116141
O O8 0.082061 0.231462 0.097987
O O9 0.500000 0.750000 0.893413
O O10 0.000000 0.250000 0.264623
O O11 0.250000 0.808468 0.500000
#
# Coordination Sequence:
#
# PCOD8166021 Si02
#       5
#     8   8   8   4   8
#     4  11  22  36  55  84 121 154 190 236 299 368
#     4  12  23  36  58  79 114 158 200 245 286 328
#     4  11  20  33  53  81 113 155 194 232 286 347
#     4  12  26  44  58  84 122 164 210 240 278 344
#     4  12  21  37  56  87 117 154 199 245 297 353
#
# _framework density 20.047930000000001
#
# number of rings (size 3 to 8) (size 9 to 14) (size 15 to 20)
#    0.000    0.444    4.444    6.667    0.000    3.556 
#    0.000    0.000    0.000    0.000    0.000    3.111 
#    0.000    0.000    0.000    0.000    0.000    0.000 
#
# Total GULP energy -223124.034386 kJ/mol
# GULP energy per Si atom -12395.779688 kJ/mol
# Density = 2.000230 g / cm^3
# Si number density = 20.047930 Si / 1000 Ang^3
#
#
#
# Elastic Constant Matrix: (Units=GPa)
#
#
# Indices 1 2 3 4 5 6 
#
# 1 123.8661 15.5707 28.9718 0.0000 0.0000 0.0000
# 2 15.5707 81.4561 3.5151 0.0000 0.0000 0.0000
# 3 28.9718 3.5151 69.1922 0.0000 0.0000 0.0000
# 4 0.0000 0.0000 0.0000 15.8172 0.0000 0.0000
# 5 0.0000 0.0000 0.0000 0.0000 9.8002 0.0000
# 6 0.0000 0.0000 0.0000 0.0000 0.0000 36.9267
#
#
#
# Elastic Compliance Matrix: (Units=1/GPa)
#
#
# Indices 1 2 3 4 5 6 
#
# 1 0.009150 -0.001587 -0.003751 0.000000 0.000000 0.000000
# 2 -0.001587 0.012579 0.000026 0.000000 0.000000 0.000000
# 3 -0.003751 0.000026 0.016022 0.000000 0.000000 0.000000
# 4 0.000000 0.000000 0.000000 0.063222 0.000000 0.000000
# 5 0.000000 0.000000 0.000000 0.000000 0.102038 0.000000
# 6 0.000000 0.000000 0.000000 0.000000 0.000000 0.027081
#
#
# Mechanical properties :
#
#
# Convention : Reuss Voigt Hill
#
# Bulk Modulus (GPa) = 36.86504 41.18107 39.02305
# Shear Modulus (GPa) = 20.01936 27.60596 23.81266
#
# Velocity S-wave (km/s) = 3.16345 3.71482 3.45017
# Velocity P-wave (km/s) = 5.63663 6.24386 5.94800
#
# Compressibility (1/GPa) = 0.02712597
#
# Stress axis : x y z
#
# Youngs Moduli (GPa) = 109.28949 79.49855 62.41557
#
# Poissons Ratio (x) = 0.12618 0.23410
# Poissons Ratio (y) = 0.17347 -0.00160
# Poissons Ratio (z) = 0.40990 -0.00203
#
# Static dielectric constant tensor:
#      x y z
#    x 4.131230 0.000000 0.000000 
#    y 0.000000 3.977150 0.000000 
#    z 0.000000 0.000000 3.119260 
# 
# 
# High freq. dielectric constant tensor:
#      x y z
#    x 1.790630 0.000000 0.000000 
#    y 0.000000 1.813500 0.000000 
#    z 0.000000 0.000000 1.713360 
# 
# From -- ./inp_files/3458.got.cif
#   From: 2010.03.12/outbox.cif.g09.slc.cpg/sg24_2_cif.got.tgz:3458.got - 2010.04.14 03:06:53.
