data_PCOD8166325
_publ_section_title
;
Structure prediction by ZEFSAII (Michael W. Deem and Ramdas Pophale) SiO2 
 PCOD8166325
Probable space group: P M M 2
;
_chemical_formula_sum "Si O2"
_cell_formula_units_Z 32
_cell_length_a 14.820471
_cell_length_b 8.982703
_cell_length_c 12.498486
_cell_angle_alpha 90.000000
_cell_angle_beta 90.000000
_cell_angle_gamma 90.000000
_cell_volume 1663.897061
_symmetry_space_group_name_H-M "P M M 2"
_symmetry_group_IT_number 25
_symmetry_cell_setting 'orthorhombic'
loop_
_space_group_symop_operation_xyz
x,y,z
-x,-y,z
-x,y,z
x,-y,z
loop_
_atom_site_type_symbol
_atom_site_label
_atom_site_fract_x
_atom_site_fract_y
_atom_site_fract_z
Si Si1 0.213218 0.672332 0.397360
Si Si2 0.358158 0.175486 0.107968
Si Si3 0.103510 0.677448 0.597509
Si Si4 0.821697 0.328616 0.160485
Si Si5 0.598649 0.176131 0.872420
Si Si6 0.402391 0.326481 0.320577
Si Si7 0.098351 0.833030 0.984972
Si Si8 0.215484 0.175058 0.784323
O O1 0.221481 0.500000 0.424762
O O2 0.153752 0.744615 0.491946
O O3 0.160239 0.700014 0.286084
O O4 0.316546 0.737903 0.388115
O O5 0.254362 0.218607 0.116709
O O6 0.411532 0.251433 0.204893
O O7 0.371595 0.000000 0.117831
O O8 0.393893 0.236342 0.993933
O O9 0.102023 0.500000 0.597175
O O10 0.162458 0.732540 0.696257
O O11 0.000000 0.737245 0.601812
O O12 0.795330 0.500000 0.142194
O O13 0.905146 0.279470 0.086755
O O14 0.500000 0.224325 0.826189
O O15 0.679881 0.230666 0.794332
O O16 0.607726 0.000000 0.878947
O O17 0.500000 0.301584 0.379154
O O18 0.383279 0.500000 0.300428
O O19 0.171803 0.785559 0.898050
O O20 0.000000 0.823568 0.930124
O O21 0.117987 0.000000 0.025875
O O22 0.207662 0.000000 0.757736
#
# Coordination Sequence:
#
# PCOD8166325 Si02
#       8
#     4   4   4   4   4   4   4   4
#     4   8  17  34  53  74 102 137 175 217 268 320
#     4  10  17  29  49  74 108 146 182 215 256 311
#     4  10  21  38  59  79 100 133 182 234 276 318
#     4  10  19  32  52  78 109 142 177 215 264 322
#     4   9  17  30  51  77 104 139 179 211 251 313
#     4   9  17  30  49  75 107 142 179 219 265 317
#     4  10  20  34  52  76 107 142 176 214 269 331
#     4  10  20  37  57  77 106 140 176 220 270 322
#
# _framework density 19.231957999999999
#
# number of rings (size 3 to 8) (size 9 to 14) (size 15 to 20)
#    0.000    2.500    1.250    2.250    0.000    2.750 
#    0.000    5.000    0.000    2.625    0.000    0.000 
#    0.000    0.000    0.000    0.000    0.000    0.000 
#
# Total GULP energy -396449.794682 kJ/mol
# GULP energy per Si atom -12389.056084 kJ/mol
# Density = 1.918819 g / cm^3
# Si number density = 19.231958 Si / 1000 Ang^3
#
#
#
# Elastic Constant Matrix: (Units=GPa)
#
#
# Indices 1 2 3 4 5 6 
#
# 1 153.7235 21.0099 67.1605 0.0000 0.0000 0.0000
# 2 21.0099 29.1880 23.8323 0.0000 0.0000 0.0000
# 3 67.1605 23.8323 95.1667 0.0000 0.0000 0.0000
# 4 0.0000 0.0000 0.0000 15.8608 0.0000 0.0000
# 5 0.0000 0.0000 0.0000 0.0000 23.5742 0.0000
# 6 0.0000 0.0000 0.0000 0.0000 0.0000 19.7676
#
#
#
# Elastic Compliance Matrix: (Units=1/GPa)
#
#
# Indices 1 2 3 4 5 6 
#
# 1 0.009472 -0.001710 -0.006257 0.000000 0.000000 0.000000
# 2 -0.001710 0.043375 -0.009656 0.000000 0.000000 0.000000
# 3 -0.006257 -0.009656 0.017341 0.000000 0.000000 0.000000
# 4 0.000000 0.000000 0.000000 0.063048 0.000000 0.000000
# 5 0.000000 0.000000 0.000000 0.000000 0.042419 0.000000
# 6 0.000000 0.000000 0.000000 0.000000 0.000000 0.050588
#
#
# Mechanical properties :
#
#
# Convention : Reuss Voigt Hill
#
# Bulk Modulus (GPa) = 28.61658 55.78707 42.20183
# Shear Modulus (GPa) = 18.30586 22.91224 20.60905
#
# Velocity S-wave (km/s) = 3.08855 3.45536 3.27709
# Velocity P-wave (km/s) = 5.25650 6.70744 6.02580
#
# Compressibility (1/GPa) = 0.03494477
#
# Stress axis : x y z
#
# Youngs Moduli (GPa) = 105.57088 23.05459 57.66581
#
# Poissons Ratio (x) = 0.03942 0.36079
# Poissons Ratio (y) = 0.18050 0.55681
# Poissons Ratio (z) = 0.66051 0.22261
#
# Static dielectric constant tensor:
#      x y z
#    x 3.923650 0.000000 0.000000 
#    y 0.000000 3.209420 0.000000 
#    z 0.000000 0.000000 3.425950 
# 
# 
# High freq. dielectric constant tensor:
#      x y z
#    x 1.766130 0.000000 0.000000 
#    y 0.000000 1.714480 0.000000 
#    z 0.000000 0.000000 1.725500 
# 
# From -- ./inp_files/4916.got.cif
#   From: 2010.03.12/outbox.cif.g09.slc.cpg/sg25_3_cif.got.tgz:4916.got - 2010.04.14 03:30:10.
