data_PCOD8166770
_publ_section_title
;
Structure prediction by ZEFSAII (Michael W. Deem and Ramdas Pophale) SiO2 
 PCOD8166770
Probable space group: P M M 2
;
_chemical_formula_sum "Si O2"
_cell_formula_units_Z 32
_cell_length_a 9.144693
_cell_length_b 9.162810
_cell_length_c 20.986130
_cell_angle_alpha 90.000000
_cell_angle_beta 90.000000
_cell_angle_gamma 90.000000
_cell_volume 1758.450591
_symmetry_space_group_name_H-M "P M M 2"
_symmetry_group_IT_number 25
_symmetry_cell_setting 'orthorhombic'
loop_
_space_group_symop_operation_xyz
x,y,z
-x,-y,z
-x,y,z
x,-y,z
loop_
_atom_site_type_symbol
_atom_site_label
_atom_site_fract_x
_atom_site_fract_y
_atom_site_fract_z
Si Si1 0.172278 0.666230 0.953050
Si Si2 0.169293 0.171506 0.080284
Si Si3 0.164812 0.673456 0.319290
Si Si4 0.673683 0.166359 0.565858
Si Si5 0.668958 0.671470 0.442962
Si Si6 0.672004 0.330961 0.193073
Si Si7 0.670327 0.827905 0.840272
Si Si8 0.326563 0.837635 0.702394
O O1 0.226806 0.500000 0.959481
O O2 0.239982 0.738668 0.891237
O O3 0.000000 0.674825 0.945407
O O4 0.223623 0.753955 0.015272
O O5 0.268175 0.233715 0.136184
O O6 0.000000 0.209022 0.094226
O O7 0.195107 0.000000 0.073866
O O8 0.165969 0.500000 0.321559
O O9 0.242687 0.734770 0.382659
O O10 0.253276 0.727190 0.257621
O O11 0.000000 0.734727 0.315804
O O12 0.500000 0.172798 0.562329
O O13 0.737609 0.258761 0.507102
O O14 0.724296 0.235718 0.634960
O O15 0.728409 0.000000 0.559725
O O16 0.500000 0.714196 0.433149
O O17 0.689016 0.500000 0.449471
O O18 0.500000 0.308191 0.199966
O O19 0.711529 0.500000 0.180219
O O20 0.500000 0.797792 0.851776
O O21 0.721297 0.766343 0.769987
O O22 0.704085 0.000000 0.845830
O O23 0.500000 0.846645 0.703394
O O24 0.261752 0.000000 0.701044
#
# Coordination Sequence:
#
# PCOD8166770 Si02
#       8
#     4   4   4   4   4   4   4   4
#     4  10  21  36  53  73  99 132 167 201 239 286
#     4  10  21  37  56  76  98 127 163 200 239 286
#     4   9  17  30  49  70  93 126 164 196 231 282
#     4   8  13  23  41  64  90 121 155 191 235 286
#     4   9  16  26  42  66  93 118 151 198 242 278
#     4  10  20  34  54  79 103 127 158 198 243 289
#     4   9  17  30  50  75 100 127 162 205 250 293
#     4   7  11  22  41  65  92 121 154 192 235 285
#
# _framework density 18.197838000000001
#
# number of rings (size 3 to 8) (size 9 to 14) (size 15 to 20)
#    0.000    3.000    0.000    3.000    0.000    4.500 
#    0.000    1.250    0.000    5.625    0.000    3.500 
#    0.000    0.000    0.000    0.000    0.000    0.000 
#
# Total GULP energy -396528.865496 kJ/mol
# GULP energy per Si atom -12391.527047 kJ/mol
# Density = 1.815642 g / cm^3
# Si number density = 18.197838 Si / 1000 Ang^3
#
#
#
# Elastic Constant Matrix: (Units=GPa)
#
#
# Indices 1 2 3 4 5 6 
#
# 1 48.3483 24.5649 55.2331 0.0000 0.0000 0.0000
# 2 24.5649 54.4837 57.2496 0.0000 0.0000 0.0000
# 3 55.2331 57.2496 202.8508 0.0000 0.0000 0.0000
# 4 0.0000 0.0000 0.0000 32.7968 0.0000 0.0000
# 5 0.0000 0.0000 0.0000 0.0000 -1.9598 0.0000
# 6 0.0000 0.0000 0.0000 0.0000 0.0000 19.3596
#
#
#
# Elastic Compliance Matrix: (Units=1/GPa)
#
#
# Indices 1 2 3 4 5 6 
#
# 1 0.032044 -0.007505 -0.006607 0.000000 0.000000 0.000000
# 2 -0.007505 0.027849 -0.005816 0.000000 0.000000 0.000000
# 3 -0.006607 -0.005816 0.008370 0.000000 0.000000 0.000000
# 4 0.000000 0.000000 0.000000 0.030491 0.000000 0.000000
# 5 0.000000 0.000000 0.000000 0.000000 -0.510254 0.000000
# 6 0.000000 0.000000 0.000000 0.000000 0.000000 0.051654
#
#
# Mechanical properties :
#
#
# Convention : Reuss Voigt Hill
#
# Bulk Modulus (GPa) = 35.20265 64.41978 49.81122
# Shear Modulus (GPa) = -16.10208 21.28168 2.58980
#
# Velocity S-wave (km/s) = -2.97784 3.42345 1.19425
# Velocity P-wave (km/s) = 2.75009 7.14865 5.41600
#
# Compressibility (1/GPa) = 0.02840695
#
# Stress axis : x y z
#
# Youngs Moduli (GPa) = 31.20670 35.90729 119.47145
#
# Poissons Ratio (x) = 0.26950 0.78935
# Poissons Ratio (y) = 0.23422 0.69487
# Poissons Ratio (z) = 0.20618 0.20885
#
# Static dielectric constant tensor:
#      x y z
#    x 3.100930 0.000000 0.000000 
#    y 0.000000 2.487470 0.000000 
#    z 0.000000 0.000000 3.877740 
# 
# 
# High freq. dielectric constant tensor:
#      x y z
#    x 1.673330 0.000000 0.000000 
#    y 0.000000 1.671720 0.000000 
#    z 0.000000 0.000000 1.732400 
# 
# From -- ./inp_files/6582.got.cif
#   From: 2010.03.12/outbox.cif.g09.slc.cpg/sg25_4_cif.got.tgz:6582.got - 2010.04.14 03:30:10.
