data_PCOD8166432
_publ_section_title
;
Structure prediction by ZEFSAII (Michael W. Deem and Ramdas Pophale) SiO2 
 PCOD8166432
Probable space group: P M M 2
;
_chemical_formula_sum "Si O2"
_cell_formula_units_Z 24
_cell_length_a 13.644034
_cell_length_b 9.022806
_cell_length_c 13.043373
_cell_angle_alpha 90.000000
_cell_angle_beta 90.000000
_cell_angle_gamma 90.000000
_cell_volume 1605.736674
_symmetry_space_group_name_H-M "P M M 2"
_symmetry_group_IT_number 25
_symmetry_cell_setting 'orthorhombic'
loop_
_space_group_symop_operation_xyz
x,y,z
-x,-y,z
-x,y,z
x,-y,z
loop_
_atom_site_type_symbol
_atom_site_label
_atom_site_fract_x
_atom_site_fract_y
_atom_site_fract_z
Si Si1 0.782402 0.824817 0.105720
Si Si2 0.114105 0.672690 0.512153
Si Si3 0.208789 0.668569 0.304737
Si Si4 0.883448 0.832911 0.715274
Si Si5 0.116256 0.330487 0.917611
Si Si6 0.390422 0.668724 0.187886
O O1 0.835372 0.764032 0.209761
O O2 0.839009 0.764135 0.008568
O O3 0.668951 0.767115 0.104191
O O4 0.785304 0.000000 0.104253
O O5 0.133620 0.500000 0.531766
O O6 0.173657 0.732793 0.413449
O O7 0.155277 0.760433 0.610155
O O8 0.000000 0.704810 0.492888
O O9 0.170173 0.500000 0.293292
O O10 0.328306 0.675002 0.295057
O O11 0.000000 0.830841 0.714498
O O12 0.843032 0.000000 0.723976
O O13 0.844487 0.737520 0.810963
O O14 0.151412 0.500000 0.924971
O O15 0.000000 0.318199 0.924209
O O16 0.500000 0.731921 0.204872
O O17 0.394574 0.500000 0.147530
#
# Coordination Sequence:
#
# PCOD8166432 Si02
#       6
#     4   4   4   4   4   4
#     4  10  19  29  43  66  93 115 143 181 225 269
#     4   9  16  27  43  61  85 117 150 183 215 253
#     4   8  16  29  42  62  88 115 151 181 213 260
#     4   9  17  28  42  61  85 113 147 184 220 255
#     4  10  19  31  46  62  85 119 155 185 214 256
#     4   8  15  30  48  64  86 115 147 182 218 261
#
# _framework density 14.946412
#
# number of rings (size 3 to 8) (size 9 to 14) (size 15 to 20)
#    1.000    2.000    0.000    2.000    0.000    4.667 
#    0.000    1.667    0.000    0.000    0.000    1.167 
#    0.000    6.667    0.000    0.000    0.000    0.000 
#
# Total GULP energy -297355.038915 kJ/mol
# GULP energy per Si atom -12389.793288 kJ/mol
# Density = 1.491239 g / cm^3
# Si number density = 14.946412 Si / 1000 Ang^3
#
#
#
# Elastic Constant Matrix: (Units=GPa)
#
#
# Indices 1 2 3 4 5 6 
#
# 1 31.7483 27.3713 30.5263 0.0000 0.0000 0.0000
# 2 27.3713 104.6342 62.5589 0.0000 0.0000 0.0000
# 3 30.5263 62.5589 127.1274 0.0000 0.0000 0.0000
# 4 0.0000 0.0000 0.0000 19.0159 0.0000 0.0000
# 5 0.0000 0.0000 0.0000 0.0000 -0.0690 0.0000
# 6 0.0000 0.0000 0.0000 0.0000 0.0000 13.9218
#
#
#
# Elastic Compliance Matrix: (Units=1/GPa)
#
#
# Indices 1 2 3 4 5 6 
#
# 1 0.044737 -0.007481 -0.007061 0.000000 0.000000 0.000000
# 2 -0.007481 0.014792 -0.005483 0.000000 0.000000 0.000000
# 3 -0.007061 -0.005483 0.012260 0.000000 0.000000 0.000000
# 4 0.000000 0.000000 0.000000 0.052588 0.000000 0.000000
# 5 0.000000 0.000000 0.000000 0.000000-14.484353 0.000000
# 6 0.000000 0.000000 0.000000 0.000000 0.000000 0.071830
#
#
# Mechanical properties :
#
#
# Convention : Reuss Voigt Hill
#
# Bulk Modulus (GPa) = 31.50707 56.04699 43.77703
# Shear Modulus (GPa) = -0.35118 16.11061 7.87971
#
# Velocity S-wave (km/s) = -0.48526 3.28669 2.29857
# Velocity P-wave (km/s) = 4.56200 7.20993 6.03303
#
# Compressibility (1/GPa) = 0.03173891
#
# Stress axis : x y z
#
# Youngs Moduli (GPa) = 22.35305 67.60352 81.56819
#
# Poissons Ratio (x) = 0.50575 0.57595
# Poissons Ratio (y) = 0.16722 0.44722
# Poissons Ratio (z) = 0.15783 0.37066
#
# Static dielectric constant tensor:
#      x y z
#    x 2.619070 0.000000 0.000000 
#    y 0.000000 2.949630 0.000000 
#    z 0.000000 0.000000 2.909560 
# 
# 
# High freq. dielectric constant tensor:
#      x y z
#    x 1.527640 0.000000 0.000000 
#    y 0.000000 1.578860 0.000000 
#    z 0.000000 0.000000 1.567430 
# 
# From -- ./inp_files/4982.got.cif
#   From: 2010.03.12/outbox.cif.g09.slc.cpg/sg25_3_cif.got.tgz:4982.got - 2010.04.14 03:30:10.
