data_PCOD8166245
_publ_section_title
;
Structure prediction by ZEFSAII (Michael W. Deem and Ramdas Pophale) SiO2 
 PCOD8166245
Probable space group: I 21 21 21
;
_chemical_formula_sum "Si O2"
_cell_formula_units_Z 32
_cell_length_a 11.345196
_cell_length_b 21.580946
_cell_length_c 4.822705
_cell_angle_alpha 90.000000
_cell_angle_beta 90.000000
_cell_angle_gamma 90.000000
_cell_volume 1180.791392
_symmetry_space_group_name_H-M "I 21 21 21"
_symmetry_group_IT_number 24
_symmetry_cell_setting 'orthorhombic'
loop_
_space_group_symop_operation_xyz
x,y,z
-x,1/2-y,z
x,-y,1/2-z
1/2-x,y,-z
1/2+x,1/2+y,1/2+z
1/2-x,-y,1/2+z
1/2+x,1/2-y,-z
-x,1/2+y,1/2-z
loop_
_atom_site_type_symbol
_atom_site_label
_atom_site_fract_x
_atom_site_fract_y
_atom_site_fract_z
Si Si1 0.750000 0.464930 0.000000
Si Si2 0.127991 0.757132 0.330523
Si Si3 0.583660 0.071947 0.190576
Si Si4 0.942710 0.610948 0.187002
Si Si5 0.750000 0.156640 0.500000
O O1 0.820437 0.500000 0.750000
O O2 0.659683 0.428944 0.813257
O O3 0.250000 0.759961 0.500000
O O4 0.109434 0.820206 0.164566
O O5 0.143182 0.699838 0.116806
O O6 0.000000 0.750000 0.493813
O O7 0.470952 0.091436 0.374278
O O8 0.696909 0.113412 0.262185
O O9 0.614564 0.000000 0.250000
O O10 0.557201 0.093094 0.874239
#
# Coordination Sequence:
#
# PCOD8166245 Si02
#       5
#     4   8   8   8   4
#     4  12  24  43  72 111 154 202 266 330 406 500
#     4  12  27  52  83 121 170 218 280 353 427 511
#     4  12  28  52  80 114 166 217 283 343 414 506
#     4  12  26  49  78 117 156 216 269 342 422 494
#     4  12  30  49  82 119 162 222 280 346 428 502
#
# _framework density 27.100466999999998
#
# number of rings (size 3 to 8) (size 9 to 14) (size 15 to 20)
#    0.000    0.000    3.750    6.000    3.500    4.000 
#    0.000    0.000    0.000    0.000    0.000    0.000 
#    0.000    0.000    0.000    0.000    0.000    0.000 
#
# Total GULP energy -198212.098049 kJ/mol
# GULP energy per Si atom -12388.256128 kJ/mol
# Density = 2.703878 g / cm^3
# Si number density = 27.100467 Si / 1000 Ang^3
#
#
#
# Elastic Constant Matrix: (Units=GPa)
#
#
# Indices 1 2 3 4 5 6 
#
# 1 178.4130 29.6738 2.9307 -0.0164 0.0030 -0.0051
# 2 29.6738 202.7678 18.4268 -0.0159 -0.0132 -0.0107
# 3 2.9307 18.4268 52.6952 0.1923 -0.0910 -0.1269
# 4 -0.0164 -0.0159 0.1923 41.1717 -0.0617 -0.1384
# 5 0.0030 -0.0132 -0.0910 -0.0617 48.4239 0.0450
# 6 -0.0051 -0.0107 -0.1269 -0.1384 0.0450 40.2012
#
#
#
# Elastic Compliance Matrix: (Units=1/GPa)
#
#
# Indices 1 2 3 4 5 6 
#
# 1 0.005745 -0.000838 -0.000026 0.000002 -0.000001 0.000000
# 2 -0.000838 0.005216 -0.001777 0.000010 -0.000002 -0.000004
# 3 -0.000026 -0.001777 0.019601 -0.000092 0.000036 0.000061
# 4 0.000002 0.000010 -0.000092 0.024289 0.000031 0.000083
# 5 -0.000001 -0.000002 0.000036 0.000031 0.020651 -0.000023
# 6 0.000000 -0.000004 0.000061 0.000083 -0.000023 0.024875
#
#
# Mechanical properties :
#
#
# Convention : Reuss Voigt Hill
#
# Bulk Modulus (GPa) = 39.56124 59.54873 49.55498
# Shear Modulus (GPa) = 43.82620 51.48234 47.65427
#
# Velocity S-wave (km/s) = 4.02577 4.36327 4.19791
# Velocity P-wave (km/s) = 6.01987 6.88514 6.46699
#
# Compressibility (1/GPa) = 0.02527727
#
# Stress axis : x y z
#
# Youngs Moduli (GPa) = 174.06933 191.71943 51.01885
#
# Poissons Ratio (x) = 0.16072 0.00134
# Poissons Ratio (y) = 0.14593 0.09068
# Poissons Ratio (z) = 0.00459 0.34076
#
# Static dielectric constant tensor:
#      x y z
#    x 5.161270 0.000170 0.005790 
#    y 0.000170 5.510170 -0.002200 
#    z 0.005790 -0.002200 9.824970 
# 
# 
# High freq. dielectric constant tensor:
#      x y z
#    x 2.116740 0.000010 0.000010 
#    y 0.000010 2.116520 -0.000030 
#    z 0.000010 -0.000030 2.075670 
# 
# From -- ./inp_files/2026.got.cif
#   From: 2010.03.12/outbox.cif.g09.slc.cpg/sg24_2_cif.got.tgz:2026.got - 2010.04.14 03:06:53.
