data_PCOD8166823
_publ_section_title
;
Structure prediction by ZEFSAII (Michael W. Deem and Ramdas Pophale) SiO2 
 PCOD8166823
Probable space group: P M M 2
;
_chemical_formula_sum "Si O2"
_cell_formula_units_Z 28
_cell_length_a 8.986413
_cell_length_b 9.089750
_cell_length_c 17.995203
_cell_angle_alpha 90.000000
_cell_angle_beta 90.000000
_cell_angle_gamma 90.000000
_cell_volume 1469.924617
_symmetry_space_group_name_H-M "P M M 2"
_symmetry_group_IT_number 25
_symmetry_cell_setting 'orthorhombic'
loop_
_space_group_symop_operation_xyz
x,y,z
-x,-y,z
-x,y,z
x,-y,z
loop_
_atom_site_type_symbol
_atom_site_label
_atom_site_fract_x
_atom_site_fract_y
_atom_site_fract_z
Si Si1 0.326724 0.668981 0.965690
Si Si2 0.829156 0.674360 0.389338
Si Si3 0.667567 0.674972 0.536815
Si Si4 0.672987 0.828038 0.252995
Si Si5 0.175102 0.669238 0.118282
Si Si6 0.826972 0.329569 0.683846
Si Si7 0.829685 0.826892 0.833257
O O1 0.500000 0.694831 0.980088
O O2 0.291161 0.500000 0.946003
O O3 0.274198 0.769426 0.898434
O O4 0.239607 0.718425 0.039143
O O5 0.813467 0.500000 0.382154
O O6 0.763674 0.732342 0.467337
O O7 0.736067 0.746439 0.324230
O O8 0.000000 0.724046 0.383685
O O9 0.500000 0.735381 0.529379
O O10 0.670529 0.500000 0.537880
O O11 0.738373 0.734420 0.613174
O O12 0.500000 0.790452 0.245462
O O13 0.755245 0.772828 0.179926
O O14 0.702522 0.000000 0.262083
O O15 0.216618 0.500000 0.135612
O O16 0.000000 0.693558 0.117116
O O17 0.790310 0.500000 0.697559
O O18 0.773195 0.241790 0.756095
O O19 0.000000 0.304401 0.667538
O O20 0.000000 0.779264 0.848818
O O21 0.812993 0.000000 0.827445
#
# Coordination Sequence:
#
# PCOD8166823 Si02
#       7
#     4   4   4   4   4   4   4
#     4  10  21  37  58  83 109 139 177 221 269 319
#     4  10  20  35  57  83 109 140 181 225 268 317
#     4   9  17  30  51  79 107 136 175 224 274 320
#     4  11  24  39  55  79 112 147 181 218 264 318
#     4  10  21  38  61  86 109 137 177 222 267 317
#     4   9  17  31  52  76 103 137 178 224 271 319
#     4  10  21  36  54  78 109 145 183 221 265 319
#
# _framework density 19.048597000000001
#
# number of rings (size 3 to 8) (size 9 to 14) (size 15 to 20)
#    0.000    2.143    0.000    3.000    0.000    9.143 
#    0.000    2.143    0.000    2.571    0.000    0.000 
#    0.000    0.000    0.000    0.000    0.000    0.000 
#
# Total GULP energy -347314.795199 kJ/mol
# GULP energy per Si atom -12404.099829 kJ/mol
# Density = 1.900524 g / cm^3
# Si number density = 19.048597 Si / 1000 Ang^3
#
#
#
# Elastic Constant Matrix: (Units=GPa)
#
#
# Indices 1 2 3 4 5 6 
#
# 1 81.0972 27.4508 51.6838 0.0000 0.0000 0.0000
# 2 27.4508 40.5737 37.1507 0.0000 0.0000 0.0000
# 3 51.6838 37.1507 141.7461 0.0000 0.0000 0.0000
# 4 0.0000 0.0000 0.0000 -15.3363 0.0000 0.0000
# 5 0.0000 0.0000 0.0000 0.0000 118.1153 0.0000
# 6 0.0000 0.0000 0.0000 0.0000 0.0000 24.9186
#
#
#
# Elastic Compliance Matrix: (Units=1/GPa)
#
#
# Indices 1 2 3 4 5 6 
#
# 1 0.017863 -0.008055 -0.004402 0.000000 0.000000 0.000000
# 2 -0.008055 0.036061 -0.006514 0.000000 0.000000 0.000000
# 3 -0.004402 -0.006514 0.010367 0.000000 0.000000 0.000000
# 4 0.000000 0.000000 0.000000 -0.065205 0.000000 0.000000
# 5 0.000000 0.000000 0.000000 0.000000 0.008466 0.000000
# 6 0.000000 0.000000 0.000000 0.000000 0.000000 0.040131
#
#
# Mechanical properties :
#
#
# Convention : Reuss Voigt Hill
#
# Bulk Modulus (GPa) = 37.95256 55.10971 46.53114
# Shear Modulus (GPa) = 52.96145 35.34831 44.15488
#
# Velocity S-wave (km/s) = 5.27861 4.31245 4.81980
# Velocity P-wave (km/s) = 7.55771 7.33418 7.44678
#
# Compressibility (1/GPa) = 0.02634868
#
# Stress axis : x y z
#
# Youngs Moduli (GPa) = 55.98219 27.73092 96.45669
#
# Poissons Ratio (x) = 0.22336 0.42461
# Poissons Ratio (y) = 0.45092 0.62836
# Poissons Ratio (z) = 0.24644 0.18065
#
# Static dielectric constant tensor:
#      x y z
#    x 3.616900 0.000000 0.000000 
#    y 0.000000 3.280620 0.000000 
#    z 0.000000 0.000000 3.739530 
# 
# 
# High freq. dielectric constant tensor:
#      x y z
#    x 1.750380 0.000000 0.000000 
#    y 0.000000 1.716800 0.000000 
#    z 0.000000 0.000000 1.757000 
# 
# From -- ./inp_files/6118.got.cif
#   From: 2010.03.12/outbox.cif.g09.slc.cpg/sg25_4_cif.got.tgz:6118.got - 2010.04.14 03:30:10.
