data_PCOD8166342
_publ_section_title
;
Structure prediction by ZEFSAII (Michael W. Deem and Ramdas Pophale) SiO2 
 PCOD8166342
Probable space group: P M M 2
;
_chemical_formula_sum "Si O2"
_cell_formula_units_Z 28
_cell_length_a 12.818562
_cell_length_b 23.282194
_cell_length_c 5.206890
_cell_angle_alpha 90.000000
_cell_angle_beta 90.000000
_cell_angle_gamma 90.000000
_cell_volume 1553.966367
_symmetry_space_group_name_H-M "P M M 2"
_symmetry_group_IT_number 25
_symmetry_cell_setting 'orthorhombic'
loop_
_space_group_symop_operation_xyz
x,y,z
-x,-y,z
-x,y,z
x,-y,z
loop_
_atom_site_type_symbol
_atom_site_label
_atom_site_fract_x
_atom_site_fract_y
_atom_site_fract_z
Si Si1 0.624055 0.064549 0.568690
Si Si2 0.116524 0.391898 0.423545
Si Si3 0.314288 0.435228 0.606868
Si Si4 0.376097 0.131604 0.068781
Si Si5 0.882058 0.263228 0.581175
Si Si6 0.248296 0.754435 0.083648
Si Si7 0.301140 0.628149 0.112694
O O1 0.500000 0.062234 0.568241
O O2 0.665004 0.097694 0.317964
O O3 0.669633 0.000000 0.567756
O O4 0.664833 0.097236 0.820699
O O5 0.186957 0.436283 0.589149
O O6 0.116725 0.332134 0.576568
O O7 0.175317 0.382572 0.148349
O O8 0.000000 0.415745 0.377919
O O9 0.358005 0.500000 0.600334
O O10 0.358875 0.397764 0.367088
O O11 0.348943 0.404805 0.869535
O O12 0.500000 0.136856 0.069013
O O13 0.331128 0.195155 0.065278
O O14 0.819378 0.238123 0.340206
O O15 0.000000 0.239288 0.572970
O O16 0.828558 0.243028 0.842245
O O17 0.317987 0.696246 0.086771
#
# Coordination Sequence:
#
# PCOD8166342 Si02
#       7
#     4   4   4   4   4   4   4
#     4   9  17  31  49  73 109 144 165 184 217 274
#     4   8  17  28  39  55  78 109 146 185 232 286
#     4  10  18  29  40  55  80 109 154 193 229 294
#     4  10  20  31  50  79 107 137 165 190 231 282
#     4  10  19  31  48  67  91 129 167 202 249 292
#     4  11  18  33  49  68 100 126 159 208 243 284
#     4   9  18  30  40  57  78 116 146 188 239 280
#
# _framework density 18.018408999999998
#
# number of rings (size 3 to 8) (size 9 to 14) (size 15 to 20)
#    0.857    1.571    1.429    2.143    0.000    3.143 
#    0.000    0.000    0.000    0.000    0.000    0.000 
#    0.000   43.429    0.000    0.000    0.000    0.000 
#
# Total GULP energy -346976.578294 kJ/mol
# GULP energy per Si atom -12392.020653 kJ/mol
# Density = 1.797740 g / cm^3
# Si number density = 18.018409 Si / 1000 Ang^3
#
#
#
# Elastic Constant Matrix: (Units=GPa)
#
#
# Indices 1 2 3 4 5 6 
#
# 1 18.4035 20.4821 14.1201 0.0000 0.0000 0.0000
# 2 20.4821 134.4847 62.4187 0.0000 0.0000 0.0000
# 3 14.1201 62.4187 153.2092 0.0000 0.0000 0.0000
# 4 0.0000 0.0000 0.0000 23.0808 0.0000 0.0000
# 5 0.0000 0.0000 0.0000 0.0000 6.8358 0.0000
# 6 0.0000 0.0000 0.0000 0.0000 0.0000 22.2134
#
#
#
# Elastic Compliance Matrix: (Units=1/GPa)
#
#
# Indices 1 2 3 4 5 6 
#
# 1 0.066169 -0.008937 -0.002457 0.000000 0.000000 0.000000
# 2 -0.008937 0.010377 -0.003404 0.000000 0.000000 0.000000
# 3 -0.002457 -0.003404 0.008140 0.000000 0.000000 0.000000
# 4 0.000000 0.000000 0.000000 0.043326 0.000000 0.000000
# 5 0.000000 0.000000 0.000000 0.000000 0.146288 0.000000
# 6 0.000000 0.000000 0.000000 0.000000 0.000000 0.045018
#
#
# Mechanical properties :
#
#
# Convention : Reuss Voigt Hill
#
# Bulk Modulus (GPa) = 18.15216 55.57103 36.86159
# Shear Modulus (GPa) = 13.61366 24.36443 18.98905
#
# Velocity S-wave (km/s) = 2.75169 3.68121 3.24986
# Velocity P-wave (km/s) = 4.49353 6.99833 5.88084
#
# Compressibility (1/GPa) = 0.05508987
#
# Stress axis : x y z
#
# Youngs Moduli (GPa) = 15.11271 96.36875 122.84593
#
# Poissons Ratio (x) = 0.86127 0.30186
# Poissons Ratio (y) = 0.13507 0.41816
# Poissons Ratio (z) = 0.03714 0.32803
#
# Static dielectric constant tensor:
#      x y z
#    x 2.866470 0.000000 0.000000 
#    y 0.000000 3.213600 0.000000 
#    z 0.000000 0.000000 3.451210 
# 
# 
# High freq. dielectric constant tensor:
#      x y z
#    x 1.645330 0.000000 0.000000 
#    y 0.000000 1.685530 0.000000 
#    z 0.000000 0.000000 1.713800 
# 
# From -- ./inp_files/685.got.cif
#   From: 2010.03.12/outbox.cif.g09.slc.cpg/sg25_1_cif.got.tgz:685.got - 2010.04.14 03:30:10.
