data_PCOD8166971
_publ_section_title
;
Structure prediction by ZEFSAII (Michael W. Deem and Ramdas Pophale) SiO2 
 PCOD8166971
Probable space group: P M M 2
;
_chemical_formula_sum "Si O2"
_cell_formula_units_Z 20
_cell_length_a 12.632062
_cell_length_b 8.992800
_cell_length_c 9.139149
_cell_angle_alpha 90.000000
_cell_angle_beta 90.000000
_cell_angle_gamma 90.000000
_cell_volume 1038.185458
_symmetry_space_group_name_H-M "P M M 2"
_symmetry_group_IT_number 25
_symmetry_cell_setting 'orthorhombic'
loop_
_space_group_symop_operation_xyz
x,y,z
-x,-y,z
-x,y,z
x,-y,z
loop_
_atom_site_type_symbol
_atom_site_label
_atom_site_fract_x
_atom_site_fract_y
_atom_site_fract_z
Si Si1 0.876935 0.327460 0.720140
Si Si2 0.118029 0.675004 0.388553
Si Si3 0.298162 0.172661 0.214949
Si Si4 0.500000 0.676503 0.714420
Si Si5 0.307305 0.825365 0.878966
Si Si6 0.500000 0.825461 0.404220
O O1 0.850295 0.500000 0.748303
O O2 0.847967 0.282888 0.553648
O O3 0.808702 0.224815 0.827110
O O4 0.000000 0.296147 0.752115
O O5 0.119876 0.500000 0.369993
O O6 0.194869 0.743928 0.269859
O O7 0.000000 0.735730 0.357816
O O8 0.398401 0.220357 0.310201
O O9 0.274425 0.000000 0.230065
O O10 0.321199 0.216243 0.048217
O O11 0.500000 0.500000 0.722505
O O12 0.395425 0.737513 0.790387
O O13 0.500000 0.726678 0.547520
O O14 0.322026 0.000000 0.851067
O O15 0.500000 0.000000 0.443766
#
# Coordination Sequence:
#
# PCOD8166971 Si02
#       6
#     4   4   4   2   4   2
#     4   9  19  37  59  84 115 150 190 234 277 326
#     4   9  19  36  57  81 111 147 187 231 276 323
#     4  10  22  38  57  82 113 147 183 226 275 330
#     4  12  25  40  60  86 112 142 185 232 280 334
#     4  11  23  39  58  83 116 150 186 229 278 332
#     4  10  21  40  62  82 108 144 183 226 280 332
#
# _framework density 19.264381
#
# number of rings (size 3 to 8) (size 9 to 14) (size 15 to 20)
#    0.000    2.000    0.000    4.500    0.000    9.600 
#    0.000    7.000    0.000    0.000    0.000    0.000 
#    0.000    0.000    0.000    0.000    0.000    0.000 
#
# Total GULP energy -248071.050719 kJ/mol
# GULP energy per Si atom -12403.552536 kJ/mol
# Density = 1.922053 g / cm^3
# Si number density = 19.264381 Si / 1000 Ang^3
#
#
#
# Elastic Constant Matrix: (Units=GPa)
#
#
# Indices 1 2 3 4 5 6 
#
# 1 119.5314 57.2995 71.0434 0.0000 0.0000 0.0000
# 2 57.2995 82.0016 72.2497 0.0000 0.0000 0.0000
# 3 71.0434 72.2497 132.6237 0.0000 0.0000 0.0000
# 4 0.0000 0.0000 0.0000 28.0731 0.0000 0.0000
# 5 0.0000 0.0000 0.0000 0.0000 10.9774 0.0000
# 6 0.0000 0.0000 0.0000 0.0000 0.0000 35.8127
#
#
#
# Elastic Compliance Matrix: (Units=1/GPa)
#
#
# Indices 1 2 3 4 5 6 
#
# 1 0.013631 -0.005945 -0.004063 0.000000 0.000000 0.000000
# 2 -0.005945 0.026044 -0.011003 0.000000 0.000000 0.000000
# 3 -0.004063 -0.011003 0.015711 0.000000 0.000000 0.000000
# 4 0.000000 0.000000 0.000000 0.035621 0.000000 0.000000
# 5 0.000000 0.000000 0.000000 0.000000 0.091096 0.000000
# 6 0.000000 0.000000 0.000000 0.000000 0.000000 0.027923
#
#
# Mechanical properties :
#
#
# Convention : Reuss Voigt Hill
#
# Bulk Modulus (GPa) = 74.83425 81.70466 78.26945
# Shear Modulus (GPa) = 19.49298 23.87692 21.68495
#
# Velocity S-wave (km/s) = 3.18444 3.52438 3.35871
# Velocity P-wave (km/s) = 7.24231 7.68544 7.46717
#
# Compressibility (1/GPa) = 0.01336287
#
# Stress axis : x y z
#
# Youngs Moduli (GPa) = 73.36459 38.39718 63.64952
#
# Poissons Ratio (x) = 0.22825 0.25862
# Poissons Ratio (y) = 0.43612 0.70036
# Poissons Ratio (z) = 0.29809 0.42250
#
# Static dielectric constant tensor:
#      x y z
#    x 3.699410 0.000000 0.000000 
#    y 0.000000 3.404070 0.000000 
#    z 0.000000 0.000000 3.657240 
# 
# 
# High freq. dielectric constant tensor:
#      x y z
#    x 1.764320 0.000000 0.000000 
#    y 0.000000 1.743630 0.000000 
#    z 0.000000 0.000000 1.756410 
# 
# From -- ./inp_files/2536.got.cif
#   From: 2010.03.12/outbox.cif.g09.slc.cpg/sg25_2_cif.got.tgz:2536.got - 2010.04.14 03:30:10.
