data_PCOD8166670
_publ_section_title
;
Structure prediction by ZEFSAII (Michael W. Deem and Ramdas Pophale) SiO2 
 PCOD8166670
Probable space group: P M M 2
;
_chemical_formula_sum "Si O2"
_cell_formula_units_Z 32
_cell_length_a 9.245568
_cell_length_b 9.201092
_cell_length_c 20.827895
_cell_angle_alpha 90.000000
_cell_angle_beta 90.000000
_cell_angle_gamma 90.000000
_cell_volume 1771.814901
_symmetry_space_group_name_H-M "P M M 2"
_symmetry_group_IT_number 25
_symmetry_cell_setting 'orthorhombic'
loop_
_space_group_symop_operation_xyz
x,y,z
-x,-y,z
-x,y,z
x,-y,z
loop_
_atom_site_type_symbol
_atom_site_label
_atom_site_fract_x
_atom_site_fract_y
_atom_site_fract_z
Si Si1 0.172256 0.163880 0.314700
Si Si2 0.827997 0.336933 0.193833
Si Si3 0.329238 0.331294 0.953999
Si Si4 0.669570 0.668118 0.703446
Si Si5 0.828231 0.836464 0.455714
Si Si6 0.829479 0.831445 0.067798
Si Si7 0.328092 0.835862 0.828073
Si Si8 0.833296 0.330041 0.577962
O O1 0.235739 0.268892 0.259652
O O2 0.224523 0.218615 0.385306
O O3 0.000000 0.164304 0.311877
O O4 0.228068 0.000000 0.302444
O O5 0.766355 0.500000 0.185710
O O6 0.776703 0.237853 0.134710
O O7 0.000000 0.340190 0.196891
O O8 0.500000 0.311402 0.962346
O O9 0.285436 0.500000 0.952098
O O10 0.272957 0.256286 0.888770
O O11 0.250985 0.253078 0.012076
O O12 0.500000 0.690949 0.693844
O O13 0.707525 0.500000 0.716235
O O14 0.729914 0.759943 0.763448
O O15 0.747615 0.727926 0.639838
O O16 0.765189 0.739576 0.513473
O O17 0.000000 0.828935 0.457252
O O18 0.773779 0.000000 0.466605
O O19 0.000000 0.811711 0.058285
O O20 0.784718 0.000000 0.067075
O O21 0.500000 0.836245 0.827077
O O22 0.267205 0.000000 0.832375
O O23 0.812230 0.500000 0.570216
O O24 0.000000 0.286041 0.587028
#
# Coordination Sequence:
#
# PCOD8166670 Si02
#       8
#     4   4   4   4   4   4   4   4
#     4   8  13  22  36  55  81 113 148 184 222 265
#     4   9  16  25  39  61  89 120 153 189 229 272
#     4  10  20  34  53  75  97 123 156 193 233 278
#     4   9  17  30  47  65  86 114 147 181 219 265
#     4   8  14  24  38  57  83 115 147 179 219 266
#     4  10  20  33  49  70  98 130 160 192 233 279
#     4   9  17  30  49  71  92 115 148 190 229 265
#     4   9  17  28  42  62  88 115 143 178 220 264
#
# _framework density 18.060576000000001
#
# number of rings (size 3 to 8) (size 9 to 14) (size 15 to 20)
#    0.000    3.000    0.000    2.250    0.000    5.500 
#    0.000    3.125    0.000    2.250    0.000    0.875 
#    0.000    3.000    0.000    0.000    0.000    0.000 
#
# Total GULP energy -396682.724781 kJ/mol
# GULP energy per Si atom -12396.335149 kJ/mol
# Density = 1.801947 g / cm^3
# Si number density = 18.060576 Si / 1000 Ang^3
#
#
#
# Elastic Constant Matrix: (Units=GPa)
#
#
# Indices 1 2 3 4 5 6 
#
# 1 16.1535 25.5570 32.4040 0.0000 0.0000 0.0000
# 2 25.5570 131.6277 101.3353 0.0000 0.0000 0.0000
# 3 32.4040 101.3353 204.3173 0.0000 0.0000 0.0000
# 4 0.0000 0.0000 0.0000 43.2728 0.0000 0.0000
# 5 0.0000 0.0000 0.0000 0.0000 -17.7162 0.0000
# 6 0.0000 0.0000 0.0000 0.0000 0.0000 15.2891
#
#
#
# Elastic Compliance Matrix: (Units=1/GPa)
#
#
# Indices 1 2 3 4 5 6 
#
# 1 0.100923 -0.011765 -0.010171 0.000000 0.000000 0.000000
# 2 -0.011765 0.013661 -0.004910 0.000000 0.000000 0.000000
# 3 -0.010171 -0.004910 0.008942 0.000000 0.000000 0.000000
# 4 0.000000 0.000000 0.000000 0.023109 0.000000 0.000000
# 5 0.000000 0.000000 0.000000 0.000000 -0.056446 0.000000
# 6 0.000000 0.000000 0.000000 0.000000 0.000000 0.065406
#
#
# Mechanical properties :
#
#
# Convention : Reuss Voigt Hill
#
# Bulk Modulus (GPa) = 14.31944 74.52124 44.42034
# Shear Modulus (GPa) = 21.49931 21.02263 21.26097
#
# Velocity S-wave (km/s) = 3.45396 3.41546 3.43476
# Velocity P-wave (km/s) = 4.88388 7.54355 6.35442
#
# Compressibility (1/GPa) = 0.06983512
#
# Stress axis : x y z
#
# Youngs Moduli (GPa) = 9.90859 73.19953 111.82586
#
# Poissons Ratio (x) = 0.86120 1.13736
# Poissons Ratio (y) = 0.11658 0.54903
# Poissons Ratio (z) = 0.10078 0.35939
#
# Static dielectric constant tensor:
#      x y z
#    x 2.801000 0.000000 0.000000 
#    y 0.000000 3.534000 0.000000 
#    z 0.000000 0.000000 3.748610 
# 
# 
# High freq. dielectric constant tensor:
#      x y z
#    x 1.633030 0.000000 0.000000 
#    y 0.000000 1.704700 0.000000 
#    z 0.000000 0.000000 1.720330 
# 
# From -- ./inp_files/6286.got.cif
#   From: 2010.03.12/outbox.cif.g09.slc.cpg/sg25_4_cif.got.tgz:6286.got - 2010.04.14 03:30:10.
