data_PCOD8166194
_publ_section_title
;
Structure prediction by ZEFSAII (Michael W. Deem and Ramdas Pophale) SiO2 
 PCOD8166194
Probable space group: I 21 21 21
;
_chemical_formula_sum "Si O2"
_cell_formula_units_Z 60
_cell_length_a 27.099754
_cell_length_b 11.026339
_cell_length_c 9.162676
_cell_angle_alpha 90.000000
_cell_angle_beta 90.000000
_cell_angle_gamma 90.000000
_cell_volume 2737.909060
_symmetry_space_group_name_H-M "I 21 21 21"
_symmetry_group_IT_number 24
_symmetry_cell_setting 'orthorhombic'
loop_
_space_group_symop_operation_xyz
x,y,z
-x,1/2-y,z
x,-y,1/2-z
1/2-x,y,-z
1/2+x,1/2+y,1/2+z
1/2-x,-y,1/2+z
1/2+x,1/2-y,-z
-x,1/2+y,1/2-z
loop_
_atom_site_type_symbol
_atom_site_label
_atom_site_fract_x
_atom_site_fract_y
_atom_site_fract_z
Si Si1 0.528142 0.622852 0.827474
Si Si2 0.697087 0.212162 0.256991
Si Si3 0.659771 0.897026 0.522222
Si Si4 0.991885 0.882466 0.858083
Si Si5 0.272750 0.114603 0.839000
Si Si6 0.735657 0.000000 0.750000
Si Si7 0.874297 0.262090 0.237996
Si Si8 0.381723 0.640909 0.043045
O O1 0.500000 0.750000 0.788904
O O2 0.506276 0.500000 0.750000
O O3 0.583682 0.637248 0.763394
O O4 0.529191 0.601804 0.003612
O O5 0.730064 0.331598 0.264990
O O6 0.728771 0.100766 0.322754
O O7 0.645839 0.230030 0.344060
O O8 0.684807 0.196240 0.087435
O O9 0.613512 0.837777 0.612742
O O10 0.703459 0.939159 0.626487
O O11 0.637203 0.005736 0.428852
O O12 0.939568 0.865604 0.934602
O O13 0.000000 0.750000 0.778274
O O14 0.996076 0.000000 0.750000
O O15 0.322762 0.193033 0.833051
O O16 0.290634 0.000000 0.750000
O O17 0.250000 0.090522 0.000000
O O18 0.866403 0.186863 0.384769
#
# Coordination Sequence:
#
# PCOD8166194 Si02
#       8
#     8   8   8   8   8   4   8   8
#     4  11  26  50  77 112 141 186 250 311 376 448
#     4  12  24  41  63 102 144 181 236 289 352 432
#     4  12  22  39  67 104 143 187 230 293 358 436
#     4  11  25  51  76 108 151 190 248 309 383 459
#     4  12  27  48  68  99 142 198 250 293 361 443
#     4  12  20  34  66  96 138 174 222 280 348 410
#     4  12  24  45  73  99 149 183 241 305 364 437
#     4  12  24  42  71 110 140 189 233 304 369 443
#
# _framework density 21.914535000000001
#
# number of rings (size 3 to 8) (size 9 to 14) (size 15 to 20)
#    0.000    0.267    8.000    1.600    3.733    1.600 
#    2.400    0.667    0.000    0.000    0.000    0.000 
#    0.000    0.000    0.000    0.000    0.000    0.000 
#
# Total GULP energy -371653.713492 kJ/mol
# GULP energy per Si atom -12388.457116 kJ/mol
# Density = 2.186466 g / cm^3
# Si number density = 21.914535 Si / 1000 Ang^3
#
#
#
# Elastic Constant Matrix: (Units=GPa)
#
#
# Indices 1 2 3 4 5 6 
#
# 1 93.0496 17.0488 43.9510 0.0000 0.0000 0.0000
# 2 17.0488 111.7317 45.6499 0.0000 0.0000 0.0000
# 3 43.9510 45.6499 94.7702 0.0000 0.0000 0.0000
# 4 0.0000 0.0000 0.0000 34.6259 0.0000 0.0000
# 5 0.0000 0.0000 0.0000 0.0000 27.5486 0.0000
# 6 0.0000 0.0000 0.0000 0.0000 0.0000 29.8894
#
#
#
# Elastic Compliance Matrix: (Units=1/GPa)
#
#
# Indices 1 2 3 4 5 6 
#
# 1 0.013797 0.000634 -0.006704 0.000000 0.000000 0.000000
# 2 0.000634 0.011172 -0.005675 0.000000 0.000000 0.000000
# 3 -0.006704 -0.005675 0.016395 0.000000 0.000000 0.000000
# 4 0.000000 0.000000 0.000000 0.028880 0.000000 0.000000
# 5 0.000000 0.000000 0.000000 0.000000 0.036299 0.000000
# 6 0.000000 0.000000 0.000000 0.000000 0.000000 0.033457
#
#
# Mechanical properties :
#
#
# Convention : Reuss Voigt Hill
#
# Bulk Modulus (GPa) = 55.95073 56.98343 56.46708
# Shear Modulus (GPa) = 29.50734 31.27291 30.39013
#
# Velocity S-wave (km/s) = 3.67341 3.78172 3.72796
# Velocity P-wave (km/s) = 6.60142 6.71770 6.65981
#
# Compressibility (1/GPa) = 0.01787287
#
# Stress axis : x y z
#
# Youngs Moduli (GPa) = 72.47741 89.50884 60.99539
#
# Poissons Ratio (x) = -0.05672 0.40891
# Poissons Ratio (y) = -0.04593 0.34617
# Poissons Ratio (z) = 0.48589 0.50800
#
# Static dielectric constant tensor:
#      x y z
#    x 4.049780 0.000000 0.000000 
#    y 0.000000 4.476590 0.000000 
#    z 0.000000 0.000000 3.973970 
# 
# 
# High freq. dielectric constant tensor:
#      x y z
#    x 1.858610 0.000000 0.000000 
#    y 0.000000 1.865400 0.000000 
#    z 0.000000 0.000000 1.860900 
# 
# From -- ./inp_files/16442.got.cif
#   From: 2010.03.12/outbox.cif.g09.slc.cpg/sg24_9_cif.got.tgz:16442.got - 2010.04.14 03:06:53.
