data_PCOD8166457
_publ_section_title
;
Structure prediction by ZEFSAII (Michael W. Deem and Ramdas Pophale) SiO2 
 PCOD8166457
Probable space group: P M M 2
;
_chemical_formula_sum "Si O2"
_cell_formula_units_Z 20
_cell_length_a 9.078294
_cell_length_b 7.774481
_cell_length_c 14.699328
_cell_angle_alpha 90.000000
_cell_angle_beta 90.000000
_cell_angle_gamma 90.000000
_cell_volume 1037.464227
_symmetry_space_group_name_H-M "P M M 2"
_symmetry_group_IT_number 25
_symmetry_cell_setting 'orthorhombic'
loop_
_space_group_symop_operation_xyz
x,y,z
-x,-y,z
-x,y,z
x,-y,z
loop_
_atom_site_type_symbol
_atom_site_label
_atom_site_fract_x
_atom_site_fract_y
_atom_site_fract_z
Si Si1 0.673120 0.803645 0.913020
Si Si2 0.160280 0.691639 0.388463
Si Si3 0.674128 0.500000 0.041798
Si Si4 0.324226 0.500000 0.247322
Si Si5 0.167516 0.798431 0.727884
Si Si6 0.661603 0.697562 0.552677
O O1 0.500000 0.784358 0.895116
O O2 0.755062 0.746881 0.821668
O O3 0.713074 0.000000 0.941152
O O4 0.728412 0.673678 0.991456
O O5 0.127952 0.500000 0.425215
O O6 0.258878 0.672991 0.296103
O O7 0.249207 0.789330 0.469272
O O8 0.000000 0.781335 0.369840
O O9 0.500000 0.500000 0.045448
O O10 0.735231 0.500000 0.144248
O O11 0.500000 0.500000 0.254771
O O12 0.250725 0.707081 0.646236
O O13 0.000000 0.732703 0.731040
O O14 0.176293 0.000000 0.711130
O O15 0.500000 0.785424 0.562379
O O16 0.637610 0.500000 0.526709
#
# Coordination Sequence:
#
# PCOD8166457 Si02
#       6
#     4   4   2   2   4   4
#     4   9  18  34  53  73 102 137 173 217 264 307
#     4   8  15  27  44  68  98 127 158 201 248 298
#     4   9  18  31  52  79 100 127 173 220 262 313
#     4   9  15  27  46  69  96 125 163 210 254 303
#     4  10  21  35  49  69 102 139 171 208 256 309
#     4  10  19  30  49  75  99 128 167 208 247 297
#
# _framework density 19.277773
#
# number of rings (size 3 to 8) (size 9 to 14) (size 15 to 20)
#    0.600    2.200    0.000    1.800    1.400    2.400 
#    0.000    2.000    0.000    1.200    0.000    2.800 
#    0.000    0.000    0.000    0.000    0.000    0.000 
#
# Total GULP energy -247792.318410 kJ/mol
# GULP energy per Si atom -12389.615921 kJ/mol
# Density = 1.923390 g / cm^3
# Si number density = 19.277773 Si / 1000 Ang^3
#
#
#
# Elastic Constant Matrix: (Units=GPa)
#
#
# Indices 1 2 3 4 5 6 
#
# 1 130.9855 21.3869 76.1235 0.0000 0.0000 0.0000
# 2 21.3869 45.0847 40.0261 0.0000 0.0000 0.0000
# 3 76.1235 40.0261 177.4702 0.0000 0.0000 0.0000
# 4 0.0000 0.0000 0.0000 -6.6131 0.0000 0.0000
# 5 0.0000 0.0000 0.0000 0.0000 13.1950 0.0000
# 6 0.0000 0.0000 0.0000 0.0000 0.0000 10.2553
#
#
#
# Elastic Compliance Matrix: (Units=1/GPa)
#
#
# Indices 1 2 3 4 5 6 
#
# 1 0.010221 -0.001196 -0.004114 0.000000 0.000000 0.000000
# 2 -0.001196 0.027873 -0.005774 0.000000 0.000000 0.000000
# 3 -0.004114 -0.005774 0.008702 0.000000 0.000000 0.000000
# 4 0.000000 0.000000 0.000000 -0.151216 0.000000 0.000000
# 5 0.000000 0.000000 0.000000 0.000000 0.075786 0.000000
# 6 0.000000 0.000000 0.000000 0.000000 0.000000 0.097511
#
#
# Mechanical properties :
#
#
# Convention : Reuss Voigt Hill
#
# Bulk Modulus (GPa) = 40.60328 69.84595 55.22461
# Shear Modulus (GPa) = 50.37584 17.76771 34.07177
#
# Velocity S-wave (km/s) = 5.11745 3.03919 4.20862
# Velocity P-wave (km/s) = 7.48503 6.97320 7.23365
#
# Compressibility (1/GPa) = 0.02462855
#
# Stress axis : x y z
#
# Youngs Moduli (GPa) = 97.83981 35.87641 114.91966
#
# Poissons Ratio (x) = 0.04290 0.47283
# Poissons Ratio (y) = 0.11699 0.66350
# Poissons Ratio (z) = 0.40255 0.20714
#
# Static dielectric constant tensor:
#      x y z
#    x 3.789150 0.000000 0.000000 
#    y 0.000000 3.162870 0.000000 
#    z 0.000000 0.000000 3.521810 
# 
# 
# High freq. dielectric constant tensor:
#      x y z
#    x 1.756840 0.000000 0.000000 
#    y 0.000000 1.707570 0.000000 
#    z 0.000000 0.000000 1.744780 
# 
# From -- ./inp_files/5158.got.cif
#   From: 2010.03.12/outbox.cif.g09.slc.cpg/sg25_3_cif.got.tgz:5158.got - 2010.04.14 03:30:10.
