data_PCOD8166763
_publ_section_title
;
Structure prediction by ZEFSAII (Michael W. Deem and Ramdas Pophale) SiO2 
 PCOD8166763
Probable space group: P M M 2
;
_chemical_formula_sum "Si O2"
_cell_formula_units_Z 32
_cell_length_a 9.068956
_cell_length_b 28.246376
_cell_length_c 6.953651
_cell_angle_alpha 90.000000
_cell_angle_beta 90.000000
_cell_angle_gamma 90.000000
_cell_volume 1781.282990
_symmetry_space_group_name_H-M "P M M 2"
_symmetry_group_IT_number 25
_symmetry_cell_setting 'orthorhombic'
loop_
_space_group_symop_operation_xyz
x,y,z
-x,-y,z
-x,y,z
x,-y,z
loop_
_atom_site_type_symbol
_atom_site_label
_atom_site_fract_x
_atom_site_fract_y
_atom_site_fract_z
Si Si1 0.829599 0.054128 0.778430
Si Si2 0.328254 0.881338 0.062381
Si Si3 0.670819 0.804564 0.748190
Si Si4 0.670771 0.303629 0.774575
Si Si5 0.331293 0.374399 0.106571
Si Si6 0.328895 0.445836 0.775264
Si Si7 0.825674 0.625230 0.505118
Si Si8 0.828027 0.130522 0.464249
O O1 0.792121 0.083773 0.587842
O O2 0.000000 0.060151 0.835986
O O3 0.788521 0.000000 0.734879
O O4 0.732919 0.072185 0.956349
O O5 0.500000 0.888443 0.098500
O O6 0.248845 0.875403 0.262488
O O7 0.293323 0.834751 0.937746
O O8 0.500000 0.809019 0.691350
O O9 0.716864 0.750901 0.792016
O O10 0.765464 0.823061 0.569253
O O11 0.500000 0.309965 0.718025
O O12 0.765320 0.327662 0.607058
O O13 0.701862 0.327834 0.979742
O O14 0.500000 0.374359 0.179987
O O15 0.298542 0.420775 0.978806
O O16 0.221095 0.374535 0.283807
O O17 0.500000 0.440869 0.719161
O O18 0.279087 0.500000 0.794325
O O19 0.236123 0.421827 0.606006
O O20 0.000000 0.624910 0.519131
O O21 0.000000 0.137815 0.431603
#
# Coordination Sequence:
#
# PCOD8166763 Si02
#       8
#     4   4   4   4   4   4   4   4
#     4   9  19  36  55  74 100 137 178 216 255 304
#     4  10  20  34  53  79 108 136 170 215 264 309
#     4   9  19  36  56  77 102 134 174 219 262 304
#     4   9  19  37  58  76  98 135 180 219 255 301
#     4   9  18  34  55  78 103 135 176 216 254 302
#     4   9  19  37  59  79 100 133 178 220 254 297
#     4  11  22  34  51  79 112 140 167 208 263 314
#     4  10  20  34  53  78 107 139 173 210 257 313
#
# _framework density 17.964579000000001
#
# number of rings (size 3 to 8) (size 9 to 14) (size 15 to 20)
#    0.000    2.500    0.000    2.625    0.000    6.000 
#    0.000    5.000    0.000    0.000    0.000    0.000 
#    0.000    0.000    0.000    0.000    0.000    0.000 
#
# Total GULP energy -396903.366724 kJ/mol
# GULP energy per Si atom -12403.230210 kJ/mol
# Density = 1.792369 g / cm^3
# Si number density = 17.964579 Si / 1000 Ang^3
#
#
#
# Elastic Constant Matrix: (Units=GPa)
#
#
# Indices 1 2 3 4 5 6 
#
# 1 97.2556 53.0011 72.1846 0.0000 0.0000 0.0000
# 2 53.0011 148.2615 58.4908 0.0000 0.0000 0.0000
# 3 72.1846 58.4908 131.8295 0.0000 0.0000 0.0000
# 4 0.0000 0.0000 0.0000 13.4790 0.0000 0.0000
# 5 0.0000 0.0000 0.0000 0.0000 29.3123 0.0000
# 6 0.0000 0.0000 0.0000 0.0000 0.0000 22.0622
#
#
#
# Elastic Compliance Matrix: (Units=1/GPa)
#
#
# Indices 1 2 3 4 5 6 
#
# 1 0.018473 -0.003168 -0.008710 0.000000 0.000000 0.000000
# 2 -0.003168 0.008719 -0.002134 0.000000 0.000000 0.000000
# 3 -0.008710 -0.002134 0.013301 0.000000 0.000000 0.000000
# 4 0.000000 0.000000 0.000000 0.074189 0.000000 0.000000
# 5 0.000000 0.000000 0.000000 0.000000 0.034115 0.000000
# 6 0.000000 0.000000 0.000000 0.000000 0.000000 0.045326
#
#
# Mechanical properties :
#
#
# Convention : Reuss Voigt Hill
#
# Bulk Modulus (GPa) = 80.18733 82.74441 81.46587
# Shear Modulus (GPa) = 22.09418 25.88205 23.98811
#
# Velocity S-wave (km/s) = 3.51076 3.79981 3.65814
# Velocity P-wave (km/s) = 7.82095 8.08772 7.95545
#
# Compressibility (1/GPa) = 0.01247080
#
# Stress axis : x y z
#
# Youngs Moduli (GPa) = 54.13349 114.69002 75.18012
#
# Poissons Ratio (x) = 0.36331 0.65478
# Poissons Ratio (y) = 0.17148 0.16044
# Poissons Ratio (z) = 0.47148 0.24475
#
# Static dielectric constant tensor:
#      x y z
#    x 3.309770 0.000000 0.000000 
#    y 0.000000 3.563550 0.000000 
#    z 0.000000 0.000000 3.244610 
# 
# 
# High freq. dielectric constant tensor:
#      x y z
#    x 1.694260 0.000000 0.000000 
#    y 0.000000 1.699680 0.000000 
#    z 0.000000 0.000000 1.694930 
# 
# From -- ./inp_files/366.got.cif
#   From: 2010.03.12/outbox.cif.g09.slc.cpg/sg25_1_cif.got.tgz:366.got - 2010.04.14 03:30:10.
