data_PCOD8166422
_publ_section_title
;
Structure prediction by ZEFSAII (Michael W. Deem and Ramdas Pophale) SiO2 
 PCOD8166422
Probable space group: P M M 2
;
_chemical_formula_sum "Si O2"
_cell_formula_units_Z 28
_cell_length_a 9.245001
_cell_length_b 13.778935
_cell_length_c 15.563465
_cell_angle_alpha 90.000000
_cell_angle_beta 90.000000
_cell_angle_gamma 90.000000
_cell_volume 1982.571721
_symmetry_space_group_name_H-M "P M M 2"
_symmetry_group_IT_number 25
_symmetry_cell_setting 'orthorhombic'
loop_
_space_group_symop_operation_xyz
x,y,z
-x,-y,z
-x,y,z
x,-y,z
loop_
_atom_site_type_symbol
_atom_site_label
_atom_site_fract_x
_atom_site_fract_y
_atom_site_fract_z
Si Si1 0.168491 0.387409 0.065130
Si Si2 0.328138 0.275427 0.401223
Si Si3 0.164299 0.290970 0.238332
Si Si4 0.661932 0.384321 0.898943
Si Si5 0.167526 0.613497 0.546947
Si Si6 0.835851 0.891158 0.332564
Si Si7 0.160074 0.615265 0.739627
O O1 0.202518 0.500000 0.082053
O O2 0.225639 0.327324 0.147423
O O3 0.000000 0.369607 0.048558
O O4 0.251644 0.347048 0.982106
O O5 0.500000 0.275503 0.397404
O O6 0.262737 0.331473 0.317171
O O7 0.274909 0.328106 0.486368
O O8 0.266984 0.164198 0.401554
O O9 0.168121 0.172448 0.243884
O O10 0.000000 0.329945 0.250417
O O11 0.500000 0.343769 0.904467
O O12 0.664967 0.500000 0.896677
O O13 0.732686 0.341918 0.811756
O O14 0.195562 0.500000 0.533494
O O15 0.209015 0.645486 0.643950
O O16 0.000000 0.638470 0.527312
O O17 0.000000 0.893457 0.368482
O O18 0.778425 0.000000 0.315268
O O19 0.155769 0.500000 0.745214
O O20 0.000000 0.656288 0.758672
#
# Coordination Sequence:
#
# PCOD8166422 Si02
#       7
#     4   4   4   4   4   4   4
#     4   9  16  26  40  55  75 106 140 171 199 232
#     4  10  19  28  40  61  86 108 132 167 206 248
#     4   8  16  29  41  57  78 104 140 171 197 237
#     4   9  16  24  35  53  77 103 131 165 203 240
#     4   9  17  29  43  57  78 111 146 174 199 234
#     4   8  15  30  48  61  77 103 134 169 206 242
#     4   8  14  25  40  55  71  98 138 175 201 228
#
# _framework density 14.12307
#
# number of rings (size 3 to 8) (size 9 to 14) (size 15 to 20)
#    0.857    2.429    0.000    2.143    0.000    4.000 
#    0.000    2.857    0.000    0.000    0.000    0.000 
#    0.000    1.143    0.000    8.857    0.000    2.429 
#
# Total GULP energy -346874.856600 kJ/mol
# GULP energy per Si atom -12388.387736 kJ/mol
# Density = 1.409093 g / cm^3
# Si number density = 14.123070 Si / 1000 Ang^3
#
#
#
# Elastic Constant Matrix: (Units=GPa)
#
#
# Indices 1 2 3 4 5 6 
#
# 1 92.7319 30.1235 67.3080 0.0000 0.0000 0.0000
# 2 30.1235 42.8869 37.7187 0.0000 0.0000 0.0000
# 3 67.3080 37.7187 124.5612 0.0000 0.0000 0.0000
# 4 0.0000 0.0000 0.0000 0.5907 0.0000 0.0000
# 5 0.0000 0.0000 0.0000 0.0000 15.4306 0.0000
# 6 0.0000 0.0000 0.0000 0.0000 0.0000 11.1111
#
#
#
# Elastic Compliance Matrix: (Units=1/GPa)
#
#
# Indices 1 2 3 4 5 6 
#
# 1 0.018746 -0.005804 -0.008372 0.000000 0.000000 0.000000
# 2 -0.005804 0.033578 -0.007032 0.000000 0.000000 0.000000
# 3 -0.008372 -0.007032 0.014681 0.000000 0.000000 0.000000
# 4 0.000000 0.000000 0.000000 1.692969 0.000000 0.000000
# 5 0.000000 0.000000 0.000000 0.000000 0.064806 0.000000
# 6 0.000000 0.000000 0.000000 0.000000 0.000000 0.090000
#
#
# Mechanical properties :
#
#
# Convention : Reuss Voigt Hill
#
# Bulk Modulus (GPa) = 40.66671 58.94226 49.80448
# Shear Modulus (GPa) = 2.54402 13.76178 8.15290
#
# Velocity S-wave (km/s) = 1.34359 3.12495 2.40526
# Velocity P-wave (km/s) = 5.59142 7.40579 6.56162
#
# Compressibility (1/GPa) = 0.02459014
#
# Stress axis : x y z
#
# Youngs Moduli (GPa) = 53.34518 29.78138 68.11354
#
# Poissons Ratio (x) = 0.17285 0.57025
# Poissons Ratio (y) = 0.30961 0.47895
# Poissons Ratio (z) = 0.44661 0.20941
#
# Static dielectric constant tensor:
#      x y z
#    x 2.795050 0.000000 0.000000 
#    y 0.000000 2.405650 0.000000 
#    z 0.000000 0.000000 2.831330 
# 
# 
# High freq. dielectric constant tensor:
#      x y z
#    x 1.540620 0.000000 0.000000 
#    y 0.000000 1.483490 0.000000 
#    z 0.000000 0.000000 1.536900 
# 
# From -- ./inp_files/5606.got.cif
#   From: 2010.03.12/outbox.cif.g09.slc.cpg/sg25_3_cif.got.tgz:5606.got - 2010.04.14 03:30:10.
