data_PCOD8166496
_publ_section_title
;
Structure prediction by ZEFSAII (Michael W. Deem and Ramdas Pophale) SiO2 
 PCOD8166496
Probable space group: P M M 2
;
_chemical_formula_sum "Si O2"
_cell_formula_units_Z 32
_cell_length_a 8.949637
_cell_length_b 14.443783
_cell_length_c 12.444290
_cell_angle_alpha 90.000000
_cell_angle_beta 90.000000
_cell_angle_gamma 90.000000
_cell_volume 1608.631241
_symmetry_space_group_name_H-M "P M M 2"
_symmetry_group_IT_number 25
_symmetry_cell_setting 'orthorhombic'
loop_
_space_group_symop_operation_xyz
x,y,z
-x,-y,z
-x,y,z
x,-y,z
loop_
_atom_site_type_symbol
_atom_site_label
_atom_site_fract_x
_atom_site_fract_y
_atom_site_fract_z
Si Si1 0.324600 0.107785 0.697740
Si Si2 0.173603 0.395675 0.409468
Si Si3 0.675926 0.221871 0.488386
Si Si4 0.823841 0.202902 0.899249
Si Si5 0.170876 0.599933 0.974336
Si Si6 0.669169 0.152880 0.114132
Si Si7 0.331718 0.639298 0.186928
Si Si8 0.831049 0.898132 0.313739
O O1 0.500000 0.118532 0.719274
O O2 0.275087 0.161353 0.590397
O O3 0.235087 0.156325 0.792141
O O4 0.279685 0.000000 0.687422
O O5 0.200985 0.500000 0.452225
O O6 0.253540 0.324620 0.491706
O O7 0.234958 0.387441 0.289325
O O8 0.000000 0.370995 0.406902
O O9 0.500000 0.232763 0.480892
O O10 0.730868 0.171180 0.381739
O O11 0.779682 0.312837 0.900380
O O12 0.000000 0.188299 0.906487
O O13 0.746894 0.151165 0.998435
O O14 0.188992 0.500000 0.913359
O O15 0.000000 0.616281 0.009273
O O16 0.266958 0.590730 0.081740
O O17 0.500000 0.116011 0.100727
O O18 0.672466 0.252193 0.168926
O O19 0.763374 0.089135 0.194480
O O20 0.500000 0.603916 0.205719
O O21 0.000000 0.859432 0.307418
O O22 0.828986 0.000000 0.367227
#
# Coordination Sequence:
#
# PCOD8166496 Si02
#       8
#     4   4   4   4   4   4   4   4
#     4  10  23  44  67  88 112 147 193 245 302 363
#     4  11  23  37  56  84 120 161 199 239 292 352
#     4  11  23  41  64  88 116 152 196 249 302 355
#     4  10  21  37  60  88 118 152 195 247 296 348
#     4   9  18  33  53  80 117 159 197 234 284 344
#     4  10  20  35  56  83 119 161 198 239 294 351
#     4  10  19  31  51  82 117 156 200 243 285 337
#     4  11  23  37  57  87 121 156 194 240 297 361
#
# _framework density 19.892689000000001
#
# number of rings (size 3 to 8) (size 9 to 14) (size 15 to 20)
#    0.000    1.750    1.250    3.000    0.000    7.500 
#    0.000    0.625    0.000    2.250    0.000    0.000 
#    0.000    0.000    0.000    0.000    0.000    0.000 
#
# Total GULP energy -396757.648849 kJ/mol
# GULP energy per Si atom -12398.676527 kJ/mol
# Density = 1.984741 g / cm^3
# Si number density = 19.892689 Si / 1000 Ang^3
#
#
#
# Elastic Constant Matrix: (Units=GPa)
#
#
# Indices 1 2 3 4 5 6 
#
# 1 108.1904 55.0319 61.1642 0.0000 0.0000 0.0000
# 2 55.0319 126.0072 54.7163 0.0000 0.0000 0.0000
# 3 61.1642 54.7163 108.8900 0.0000 0.0000 0.0000
# 4 0.0000 0.0000 0.0000 16.9828 0.0000 0.0000
# 5 0.0000 0.0000 0.0000 0.0000 21.0129 0.0000
# 6 0.0000 0.0000 0.0000 0.0000 0.0000 25.5789
#
#
#
# Elastic Compliance Matrix: (Units=1/GPa)
#
#
# Indices 1 2 3 4 5 6 
#
# 1 0.014740 -0.003636 -0.006453 0.000000 0.000000 0.000000
# 2 -0.003636 0.011048 -0.003509 0.000000 0.000000 0.000000
# 3 -0.006453 -0.003509 0.014572 0.000000 0.000000 0.000000
# 4 0.000000 0.000000 0.000000 0.058883 0.000000 0.000000
# 5 0.000000 0.000000 0.000000 0.000000 0.047590 0.000000
# 6 0.000000 0.000000 0.000000 0.000000 0.000000 0.039095
#
#
# Mechanical properties :
#
#
# Convention : Reuss Voigt Hill
#
# Bulk Modulus (GPa) = 75.96385 76.10137 76.03261
# Shear Modulus (GPa) = 22.98739 24.19327 23.59033
#
# Velocity S-wave (km/s) = 3.40306 3.49117 3.44740
# Velocity P-wave (km/s) = 7.32876 7.38851 7.35870
#
# Compressibility (1/GPa) = 0.01316416
#
# Stress axis : x y z
#
# Youngs Moduli (GPa) = 67.84139 90.51693 68.62694
#
# Poissons Ratio (x) = 0.32908 0.44284
# Poissons Ratio (y) = 0.24664 0.24083
# Poissons Ratio (z) = 0.43777 0.31764
#
# Static dielectric constant tensor:
#      x y z
#    x 3.735800 0.000000 0.000000 
#    y 0.000000 3.961060 0.000000 
#    z 0.000000 0.000000 3.421530 
# 
# 
# High freq. dielectric constant tensor:
#      x y z
#    x 1.785920 0.000000 0.000000 
#    y 0.000000 1.792020 0.000000 
#    z 0.000000 0.000000 1.747870 
# 
# From -- ./inp_files/4236.got.cif
#   From: 2010.03.12/outbox.cif.g09.slc.cpg/sg25_3_cif.got.tgz:4236.got - 2010.04.14 03:30:10.
