data_PCOD8166455
_publ_section_title
;
Structure prediction by ZEFSAII (Michael W. Deem and Ramdas Pophale) SiO2 
 PCOD8166455
Probable space group: P M M 2
;
_chemical_formula_sum "Si O2"
_cell_formula_units_Z 24
_cell_length_a 15.215749
_cell_length_b 9.301046
_cell_length_c 9.760022
_cell_angle_alpha 90.000000
_cell_angle_beta 90.000000
_cell_angle_gamma 90.000000
_cell_volume 1381.261556
_symmetry_space_group_name_H-M "P M M 2"
_symmetry_group_IT_number 25
_symmetry_cell_setting 'orthorhombic'
loop_
_space_group_symop_operation_xyz
x,y,z
-x,-y,z
-x,y,z
x,-y,z
loop_
_atom_site_type_symbol
_atom_site_label
_atom_site_fract_x
_atom_site_fract_y
_atom_site_fract_z
Si Si1 0.897142 0.832587 0.801020
Si Si2 0.402754 0.162101 0.613563
Si Si3 0.240321 0.333903 0.294060
Si Si4 0.899251 0.334365 0.071736
Si Si5 0.595578 0.838558 0.288041
Si Si6 0.234181 0.330225 0.610121
O O1 0.845946 0.748062 0.683733
O O2 0.000000 0.808869 0.773225
O O3 0.871672 0.000000 0.799156
O O4 0.869966 0.766534 0.947042
O O5 0.500000 0.209328 0.667387
O O6 0.403326 0.166482 0.450922
O O7 0.327378 0.270102 0.667922
O O8 0.381786 0.000000 0.664136
O O9 0.261793 0.500000 0.283784
O O10 0.155962 0.290059 0.205220
O O11 0.325729 0.257233 0.229432
O O12 0.222407 0.290053 0.450648
O O13 0.882736 0.500000 0.029539
O O14 0.000000 0.307686 0.111667
O O15 0.500000 0.782028 0.236410
O O16 0.610259 0.000000 0.235210
O O17 0.230395 0.500000 0.637198
#
# Coordination Sequence:
#
# PCOD8166455 Si02
#       6
#     4   4   4   4   4   4
#     4  10  21  36  52  70  93 124 163 202 240 287
#     4   8  14  26  44  66  95 130 163 195 233 277
#     4   9  18  30  47  74 101 125 156 194 236 280
#     4   9  18  34  53  70  92 124 159 195 238 288
#     4   8  14  25  42  65  94 128 161 191 228 275
#     4  10  19  30  48  75 103 129 158 195 239 285
#
# _framework density 17.375419000000001
#
# number of rings (size 3 to 8) (size 9 to 14) (size 15 to 20)
#    0.000    3.000    0.000    2.000    0.000    3.667 
#    0.000    5.000    0.000    3.000    0.000    4.667 
#    0.000    0.000    0.000    0.000    0.000    0.000 
#
# Total GULP energy -297501.075861 kJ/mol
# GULP energy per Si atom -12395.878161 kJ/mol
# Density = 1.733587 g / cm^3
# Si number density = 17.375419 Si / 1000 Ang^3
#
#
#
# Elastic Constant Matrix: (Units=GPa)
#
#
# Indices 1 2 3 4 5 6 
#
# 1 120.8001 68.8598 58.8512 0.0000 0.0000 0.0000
# 2 68.8598 95.5087 48.2484 0.0000 0.0000 0.0000
# 3 58.8512 48.2484 62.1724 0.0000 0.0000 0.0000
# 4 0.0000 0.0000 0.0000 19.9886 0.0000 0.0000
# 5 0.0000 0.0000 0.0000 0.0000 4.1270 0.0000
# 6 0.0000 0.0000 0.0000 0.0000 0.0000 35.8460
#
#
#
# Elastic Compliance Matrix: (Units=1/GPa)
#
#
# Indices 1 2 3 4 5 6 
#
# 1 0.017911 -0.007153 -0.011403 0.000000 0.000000 0.000000
# 2 -0.007153 0.020078 -0.008811 0.000000 0.000000 0.000000
# 3 -0.011403 -0.008811 0.033716 0.000000 0.000000 0.000000
# 4 0.000000 0.000000 0.000000 0.050029 0.000000 0.000000
# 5 0.000000 0.000000 0.000000 0.000000 0.242306 0.000000
# 6 0.000000 0.000000 0.000000 0.000000 0.000000 0.027897
#
#
# Mechanical properties :
#
#
# Convention : Reuss Voigt Hill
#
# Bulk Modulus (GPa) = 58.92284 70.04444 64.48364
# Shear Modulus (GPa) = 11.05394 18.82712 14.94053
#
# Velocity S-wave (km/s) = 2.52500 3.29530 2.93553
# Velocity P-wave (km/s) = 6.51813 7.40801 6.97727
#
# Compressibility (1/GPa) = 0.01697135
#
# Stress axis : x y z
#
# Youngs Moduli (GPa) = 55.83221 49.80511 29.65948
#
# Poissons Ratio (x) = 0.35624 0.33821
# Poissons Ratio (y) = 0.39935 0.26133
# Poissons Ratio (z) = 0.63667 0.43883
#
# Static dielectric constant tensor:
#      x y z
#    x 3.583460 0.000000 0.000000 
#    y 0.000000 3.337610 0.000000 
#    z 0.000000 0.000000 2.935560 
# 
# 
# High freq. dielectric constant tensor:
#      x y z
#    x 1.683200 0.000000 0.000000 
#    y 0.000000 1.673440 0.000000 
#    z 0.000000 0.000000 1.628860 
# 
# From -- ./inp_files/3339.got.cif
#   From: 2010.03.12/outbox.cif.g09.slc.cpg/sg25_2_cif.got.tgz:3339.got - 2010.04.14 03:30:10.
