data_PCOD8166247
_publ_section_title
;
Structure prediction by ZEFSAII (Michael W. Deem and Ramdas Pophale) SiO2 
 PCOD8166247
Probable space group: I 21 21 21
;
_chemical_formula_sum "Si O2"
_cell_formula_units_Z 40
_cell_length_a 12.261088
_cell_length_b 8.210722
_cell_length_c 17.348486
_cell_angle_alpha 90.000000
_cell_angle_beta 90.000000
_cell_angle_gamma 90.000000
_cell_volume 1746.513462
_symmetry_space_group_name_H-M "I 21 21 21"
_symmetry_group_IT_number 24
_symmetry_cell_setting 'orthorhombic'
loop_
_space_group_symop_operation_xyz
x,y,z
-x,1/2-y,z
x,-y,1/2-z
1/2-x,y,-z
1/2+x,1/2+y,1/2+z
1/2-x,-y,1/2+z
1/2+x,1/2-y,-z
-x,1/2+y,1/2-z
loop_
_atom_site_type_symbol
_atom_site_label
_atom_site_fract_x
_atom_site_fract_y
_atom_site_fract_z
Si Si1 0.704980 0.451372 0.663667
Si Si2 0.882100 0.791627 0.847234
Si Si3 0.122796 0.286868 0.117667
Si Si4 0.229875 0.500000 0.250000
Si Si5 0.500000 0.750000 0.882982
Si Si6 0.869590 0.957797 0.000304
O O1 0.734195 0.500000 0.750000
O O2 0.810581 0.364112 0.624101
O O3 0.688077 0.617786 0.616792
O O4 0.597258 0.332665 0.666684
O O5 0.807541 0.858519 0.779540
O O6 0.000000 0.750000 0.811933
O O7 0.910714 0.925585 0.913652
O O8 0.160145 0.423948 0.180062
O O9 0.137867 0.355170 0.029930
O O10 0.000000 0.250000 0.140265
O O11 0.548691 0.885154 0.938114
O O12 0.750000 0.875988 0.000000
#
# Coordination Sequence:
#
# PCOD8166247 Si02
#       6
#     8   8   8   4   4   8
#     4  12  27  45  76 115 146 190 250 309 378 443
#     4  12  28  50  73 101 153 204 248 296 370 441
#     4  12  27  44  75 117 148 186 247 311 377 440
#     4  12  26  46  74 108 152 190 242 314 370 448
#     4  12  24  44  76 106 148 194 240 306 378 432
#     4  12  24  48  68 104 149 196 236 295 365 439
#
# _framework density 22.902771999999999
#
# number of rings (size 3 to 8) (size 9 to 14) (size 15 to 20)
#    0.000    0.000    9.000    0.000    4.200    0.000 
#    7.200    1.000    0.000    0.000    0.000    0.000 
#    0.000    0.000    0.000    0.000    0.000    0.000 
#
# Total GULP energy -247860.228782 kJ/mol
# GULP energy per Si atom -12393.011439 kJ/mol
# Density = 2.285064 g / cm^3
# Si number density = 22.902772 Si / 1000 Ang^3
#
#
#
# Elastic Constant Matrix: (Units=GPa)
#
#
# Indices 1 2 3 4 5 6 
#
# 1 163.1603 43.2200 26.7865 0.0000 0.0000 0.0000
# 2 43.2200 122.0296 32.9361 0.0000 0.0000 0.0000
# 3 26.7865 32.9361 87.0203 0.0000 0.0000 0.0000
# 4 0.0000 0.0000 0.0000 26.2700 0.0000 0.0000
# 5 0.0000 0.0000 0.0000 0.0000 18.1614 0.0000
# 6 0.0000 0.0000 0.0000 0.0000 0.0000 27.5783
#
#
#
# Elastic Compliance Matrix: (Units=1/GPa)
#
#
# Indices 1 2 3 4 5 6 
#
# 1 0.006900 -0.002083 -0.001335 0.000000 0.000000 0.000000
# 2 -0.002083 0.009756 -0.003051 0.000000 0.000000 0.000000
# 3 -0.001335 -0.003051 0.013058 0.000000 0.000000 0.000000
# 4 0.000000 0.000000 0.000000 0.038066 0.000000 0.000000
# 5 0.000000 0.000000 0.000000 0.000000 0.055062 0.000000
# 6 0.000000 0.000000 0.000000 0.000000 0.000000 0.036260
#
#
# Mechanical properties :
#
#
# Convention : Reuss Voigt Hill
#
# Bulk Modulus (GPa) = 59.61774 64.23282 61.92528
# Shear Modulus (GPa) = 28.14785 32.35312 30.25048
#
# Velocity S-wave (km/s) = 3.50953 3.76257 3.63825
# Velocity P-wave (km/s) = 6.51995 6.85439 6.68926
#
# Compressibility (1/GPa) = 0.01677353
#
# Stress axis : x y z
#
# Youngs Moduli (GPa) = 144.92622 102.49924 76.58423
#
# Poissons Ratio (x) = 0.21355 0.10227
# Poissons Ratio (y) = 0.30194 0.23368
# Poissons Ratio (z) = 0.19354 0.31275
#
# Static dielectric constant tensor:
#      x y z
#    x 4.232710 0.000000 0.000000 
#    y 0.000000 4.886100 0.000000 
#    z 0.000000 0.000000 3.933400 
# 
# 
# High freq. dielectric constant tensor:
#      x y z
#    x 1.912420 0.000000 0.000000 
#    y 0.000000 1.912030 0.000000 
#    z 0.000000 0.000000 1.887010 
# 
# From -- ./inp_files/10733.got.cif
#   From: 2010.03.12/outbox.cif.g09.slc.cpg/sg24_6_cif.got.tgz:10733.got - 2010.04.14 03:06:53.
