data_PCOD8166957
_publ_section_title
;
Structure prediction by ZEFSAII (Michael W. Deem and Ramdas Pophale) SiO2 
 PCOD8166957
Probable space group: P M M 2
;
_chemical_formula_sum "Si O2"
_cell_formula_units_Z 32
_cell_length_a 14.060952
_cell_length_b 8.843697
_cell_length_c 13.017209
_cell_angle_alpha 90.000000
_cell_angle_beta 90.000000
_cell_angle_gamma 90.000000
_cell_volume 1618.700340
_symmetry_space_group_name_H-M "P M M 2"
_symmetry_group_IT_number 25
_symmetry_cell_setting 'orthorhombic'
loop_
_space_group_symop_operation_xyz
x,y,z
-x,-y,z
-x,y,z
x,-y,z
loop_
_atom_site_type_symbol
_atom_site_label
_atom_site_fract_x
_atom_site_fract_y
_atom_site_fract_z
Si Si1 0.389231 0.321603 0.921140
Si Si2 0.605497 0.679933 0.522036
Si Si3 0.613179 0.327167 0.295810
Si Si4 0.284450 0.177285 0.111466
Si Si5 0.112923 0.830031 0.404947
Si Si6 0.287862 0.676948 0.718860
Si Si7 0.891610 0.678588 0.195638
Si Si8 0.893964 0.323542 0.611460
O O1 0.500000 0.281009 0.908986
O O2 0.374258 0.500000 0.933678
O O3 0.332700 0.254360 0.822333
O O4 0.347257 0.241413 0.019851
O O5 0.500000 0.746620 0.534157
O O6 0.602427 0.500000 0.526813
O O7 0.647137 0.724964 0.409943
O O8 0.665849 0.748225 0.616121
O O9 0.500000 0.313969 0.287398
O O10 0.644535 0.500000 0.272148
O O11 0.662077 0.214821 0.216731
O O12 0.178479 0.249805 0.110597
O O13 0.273548 0.000000 0.098399
O O14 0.146015 0.732049 0.307256
O O15 0.149669 0.757528 0.511081
O O16 0.000000 0.828663 0.409556
O O17 0.152582 0.000000 0.393436
O O18 0.310153 0.500000 0.721065
O O19 0.174490 0.709623 0.709256
O O20 0.885093 0.500000 0.189958
O O21 0.000000 0.733557 0.174868
O O22 0.894491 0.500000 0.584708
O O23 0.000000 0.266294 0.639909
#
# Coordination Sequence:
#
# PCOD8166957 Si02
#       8
#     4   4   4   4   4   4   4   4
#     4  10  21  39  62  84 107 141 194 253 298 343
#     4   8  14  26  47  77 108 135 170 224 286 337
#     4   9  18  33  54  81 113 148 188 234 285 344
#     4  12  25  38  56  82 114 151 190 232 286 351
#     4   9  17  30  49  76 113 153 188 225 271 325
#     4   9  17  30  52  80 107 140 187 241 292 336
#     4  10  21  38  60  84 111 146 190 237 283 334
#     4   9  17  29  47  76 113 150 188 229 277 336
#
# _framework density 19.768947000000001
#
# number of rings (size 3 to 8) (size 9 to 14) (size 15 to 20)
#    0.000    2.500    0.000    3.375    1.750    5.750 
#    0.000    1.250    0.000    3.000    0.000    1.750 
#    0.000    0.000    0.000    0.000    0.000    0.000 
#
# Total GULP energy -396687.171132 kJ/mol
# GULP energy per Si atom -12396.474098 kJ/mol
# Density = 1.972395 g / cm^3
# Si number density = 19.768947 Si / 1000 Ang^3
#
#
#
# Elastic Constant Matrix: (Units=GPa)
#
#
# Indices 1 2 3 4 5 6 
#
# 1 92.0315 34.2752 62.0485 0.0000 0.0000 0.0000
# 2 34.2752 62.9454 33.3678 0.0000 0.0000 0.0000
# 3 62.0485 33.3678 116.3027 0.0000 0.0000 0.0000
# 4 0.0000 0.0000 0.0000 3.0075 0.0000 0.0000
# 5 0.0000 0.0000 0.0000 0.0000 37.5990 0.0000
# 6 0.0000 0.0000 0.0000 0.0000 0.0000 16.3804
#
#
#
# Elastic Compliance Matrix: (Units=1/GPa)
#
#
# Indices 1 2 3 4 5 6 
#
# 1 0.018572 -0.005732 -0.008264 0.000000 0.000000 0.000000
# 2 -0.005732 0.020506 -0.002825 0.000000 0.000000 0.000000
# 3 -0.008264 -0.002825 0.013818 0.000000 0.000000 0.000000
# 4 0.000000 0.000000 0.000000 0.332502 0.000000 0.000000
# 5 0.000000 0.000000 0.000000 0.000000 0.026596 0.000000
# 6 0.000000 0.000000 0.000000 0.000000 0.000000 0.061048
#
#
# Mechanical properties :
#
#
# Convention : Reuss Voigt Hill
#
# Bulk Modulus (GPa) = 51.93903 58.96252 55.45078
# Shear Modulus (GPa) = 9.74465 20.83659 15.29062
#
# Velocity S-wave (km/s) = 2.22260 3.25007 2.78414
# Velocity P-wave (km/s) = 5.73731 6.63133 6.20045
#
# Compressibility (1/GPa) = 0.01925334
#
# Stress axis : x y z
#
# Youngs Moduli (GPa) = 53.84366 48.76695 72.37155
#
# Poissons Ratio (x) = 0.27955 0.59807
# Poissons Ratio (y) = 0.30865 0.20445
# Poissons Ratio (z) = 0.44496 0.13776
#
# Static dielectric constant tensor:
#      x y z
#    x 3.814210 0.000000 0.000000 
#    y 0.000000 3.270460 0.000000 
#    z 0.000000 0.000000 3.665380 
# 
# 
# High freq. dielectric constant tensor:
#      x y z
#    x 1.783340 0.000000 0.000000 
#    y 0.000000 1.733560 0.000000 
#    z 0.000000 0.000000 1.757600 
# 
# From -- ./inp_files/4920.got.cif
#   From: 2010.03.12/outbox.cif.g09.slc.cpg/sg25_3_cif.got.tgz:4920.got - 2010.04.14 03:30:10.
