data_PCOD8166877
_publ_section_title
;
Structure prediction by ZEFSAII (Michael W. Deem and Ramdas Pophale) SiO2 
 PCOD8166877
Probable space group: P M M 2
;
_chemical_formula_sum "Si O2"
_cell_formula_units_Z 32
_cell_length_a 9.311222
_cell_length_b 9.690086
_cell_length_c 20.364484
_cell_angle_alpha 90.000000
_cell_angle_beta 90.000000
_cell_angle_gamma 90.000000
_cell_volume 1837.416970
_symmetry_space_group_name_H-M "P M M 2"
_symmetry_group_IT_number 25
_symmetry_cell_setting 'orthorhombic'
loop_
_space_group_symop_operation_xyz
x,y,z
-x,-y,z
-x,y,z
x,-y,z
loop_
_atom_site_type_symbol
_atom_site_label
_atom_site_fract_x
_atom_site_fract_y
_atom_site_fract_z
Si Si1 0.666107 0.840702 0.079030
Si Si2 0.832683 0.840734 0.451766
Si Si3 0.167413 0.658740 0.330092
Si Si4 0.329584 0.652320 0.697297
Si Si5 0.831911 0.159703 0.948644
Si Si6 0.331888 0.841101 0.580759
Si Si7 0.334468 0.661970 0.844600
Si Si8 0.332888 0.658760 0.200983
O O1 0.500000 0.810442 0.062786
O O2 0.720163 0.750083 0.140066
O O3 0.691333 0.000000 0.097174
O O4 0.758729 0.795509 0.016609
O O5 0.778008 0.750709 0.390621
O O6 0.747872 0.788952 0.515665
O O7 0.000000 0.816411 0.465174
O O8 0.798268 0.000000 0.436265
O O9 0.203363 0.500000 0.346300
O O10 0.249282 0.709143 0.265319
O O11 0.000000 0.681765 0.317241
O O12 0.500000 0.647399 0.694469
O O13 0.267533 0.500000 0.681926
O O14 0.269493 0.757871 0.643086
O O15 0.284815 0.698627 0.770472
O O16 0.767856 0.251369 0.891087
O O17 0.000000 0.188799 0.954569
O O18 0.799019 0.000000 0.933144
O O19 0.500000 0.814803 0.570547
O O20 0.297026 0.000000 0.594673
O O21 0.500000 0.704641 0.856313
O O22 0.314329 0.500000 0.858407
O O23 0.500000 0.681999 0.214721
O O24 0.297552 0.500000 0.184683
#
# Coordination Sequence:
#
# PCOD8166877 Si02
#       8
#     4   4   4   4   4   4   4   4
#     4   9  18  33  51  70  94 125 159 194 234 281
#     4   9  18  32  47  64  90 123 155 187 226 272
#     4   9  18  32  48  66  90 120 153 188 226 272
#     4   8  15  29  48  70  95 121 152 192 235 279
#     4  10  21  35  50  72 102 132 163 201 243 287
#     4   9  17  29  46  69  94 119 151 191 231 272
#     4   9  18  33  53  75  98 127 164 203 243 290
#     4   9  18  32  49  70  95 120 149 189 234 278
#
# _framework density 17.415752999999999
#
# number of rings (size 3 to 8) (size 9 to 14) (size 15 to 20)
#    0.000    3.000    0.000    1.125    0.000    4.000 
#    0.000    3.125    0.000    2.250    0.000    0.000 
#    0.000    0.000    0.000    0.000    0.000    0.000 
#
# Total GULP energy -396818.377570 kJ/mol
# GULP energy per Si atom -12400.574299 kJ/mol
# Density = 1.737611 g / cm^3
# Si number density = 17.415753 Si / 1000 Ang^3
#
#
#
# Elastic Constant Matrix: (Units=GPa)
#
#
# Indices 1 2 3 4 5 6 
#
# 1 54.5993 39.9002 65.3781 0.0000 0.0000 0.0000
# 2 39.9002 77.7190 91.0890 0.0000 0.0000 0.0000
# 3 65.3781 91.0890 182.9292 0.0000 0.0000 0.0000
# 4 0.0000 0.0000 0.0000 39.6123 0.0000 0.0000
# 5 0.0000 0.0000 0.0000 0.0000 1.8390 0.0000
# 6 0.0000 0.0000 0.0000 0.0000 0.0000 20.9383
#
#
#
# Elastic Compliance Matrix: (Units=1/GPa)
#
#
# Indices 1 2 3 4 5 6 
#
# 1 0.033822 -0.007677 -0.008265 0.000000 0.000000 0.000000
# 2 -0.007677 0.032643 -0.013511 0.000000 0.000000 0.000000
# 3 -0.008265 -0.013511 0.015148 0.000000 0.000000 0.000000
# 4 0.000000 0.000000 0.000000 0.025245 0.000000 0.000000
# 5 0.000000 0.000000 0.000000 0.000000 0.543764 0.000000
# 6 0.000000 0.000000 0.000000 0.000000 0.000000 0.047759
#
#
# Mechanical properties :
#
#
# Convention : Reuss Voigt Hill
#
# Bulk Modulus (GPa) = 44.03791 78.66468 61.35129
# Shear Modulus (GPa) = 6.53716 20.40327 13.47021
#
# Velocity S-wave (km/s) = 1.93952 3.42649 2.78411
# Velocity P-wave (km/s) = 5.50970 7.80520 6.75566
#
# Compressibility (1/GPa) = 0.02270771
#
# Stress axis : x y z
#
# Youngs Moduli (GPa) = 29.56627 30.63411 66.01405
#
# Poissons Ratio (x) = 0.23518 0.54562
# Poissons Ratio (y) = 0.22698 0.89191
# Poissons Ratio (z) = 0.24437 0.41390
#
# Static dielectric constant tensor:
#      x y z
#    x 3.066100 0.000000 0.000000 
#    y 0.000000 3.340510 0.000000 
#    z 0.000000 0.000000 3.396100 
# 
# 
# High freq. dielectric constant tensor:
#      x y z
#    x 1.654980 0.000000 0.000000 
#    y 0.000000 1.670710 0.000000 
#    z 0.000000 0.000000 1.680040 
# 
# From -- ./inp_files/5571.got.cif
#   From: 2010.03.12/outbox.cif.g09.slc.cpg/sg25_3_cif.got.tgz:5571.got - 2010.04.14 03:30:10.
