data_PCOD8166134
_publ_section_title
;
Structure prediction by ZEFSAII (Michael W. Deem and Ramdas Pophale) SiO2 
 PCOD8166134
Probable space group: I 21 21 21
;
_chemical_formula_sum "Si O2"
_cell_formula_units_Z 64
_cell_length_a 14.630080
_cell_length_b 11.519944
_cell_length_c 16.894925
_cell_angle_alpha 90.000000
_cell_angle_beta 90.000000
_cell_angle_gamma 90.000000
_cell_volume 2847.431840
_symmetry_space_group_name_H-M "I 21 21 21"
_symmetry_group_IT_number 24
_symmetry_cell_setting 'orthorhombic'
loop_
_space_group_symop_operation_xyz
x,y,z
-x,1/2-y,z
x,-y,1/2-z
1/2-x,y,-z
1/2+x,1/2+y,1/2+z
1/2-x,-y,1/2+z
1/2+x,1/2-y,-z
-x,1/2+y,1/2-z
loop_
_atom_site_type_symbol
_atom_site_label
_atom_site_fract_x
_atom_site_fract_y
_atom_site_fract_z
Si Si1 0.579656 0.825883 0.164345
Si Si2 0.729166 0.192072 0.584557
Si Si3 0.915663 0.670985 0.177118
Si Si4 0.053889 0.086003 0.148177
Si Si5 0.800165 0.272471 0.073507
Si Si6 0.127760 0.227686 0.835017
Si Si7 0.025046 0.561867 0.608352
Si Si8 0.387592 0.462212 0.945158
O O1 0.500000 0.750000 0.121047
O O2 0.671895 0.839948 0.116260
O O3 0.599925 0.757838 0.245705
O O4 0.541742 0.957250 0.170805
O O5 0.750000 0.254383 0.500000
O O6 0.678848 0.270876 0.649543
O O7 0.669273 0.077949 0.569759
O O8 0.909473 0.544169 0.139807
O O9 0.926603 0.652879 0.270465
O O10 0.000000 0.750000 0.145494
O O11 0.103345 0.163539 0.082528
O O12 0.945778 0.075986 0.132535
O O13 0.736635 0.288868 0.152327
O O14 0.814854 0.140067 0.046785
O O15 0.750000 0.334335 0.000000
O O16 0.101655 0.339310 0.886298
O O17 0.073807 0.115092 0.868570
O O18 0.039834 0.518908 0.517571
#
# Coordination Sequence:
#
# PCOD8166134 Si02
#       8
#     8   8   8   8   8   8   8   8
#     4  12  26  44  70 105 143 196 240 299 368 437
#     4  12  26  46  76 110 147 194 250 303 373 450
#     4  11  24  50  71 104 147 189 244 306 372 449
#     4  11  26  43  75 104 142 195 240 308 377 436
#     4  12  23  40  68 107 142 180 244 299 373 439
#     4  11  24  42  68 101 144 193 234 309 362 447
#     4  11  23  44  70  98 143 189 244 296 369 431
#     4  12  23  45  73 107 144 190 246 315 365 439
#
# _framework density 22.476395
#
# number of rings (size 3 to 8) (size 9 to 14) (size 15 to 20)
#    0.000    0.500    5.000    4.125    1.750    3.000 
#    0.000    0.000    0.000    0.000    0.000    0.000 
#    0.000    0.000    0.000    0.000    0.000    0.000 
#
# Total GULP energy -396560.697864 kJ/mol
# GULP energy per Si atom -12392.521808 kJ/mol
# Density = 2.242524 g / cm^3
# Si number density = 22.476395 Si / 1000 Ang^3
#
#
#
# Elastic Constant Matrix: (Units=GPa)
#
#
# Indices 1 2 3 4 5 6 
#
# 1 119.7901 44.2482 41.6753 0.0000 0.0000 0.0000
# 2 44.2482 114.4968 38.1457 0.0000 0.0000 0.0000
# 3 41.6753 38.1457 104.7154 0.0000 0.0000 0.0000
# 4 0.0000 0.0000 0.0000 21.5460 0.0000 0.0000
# 5 0.0000 0.0000 0.0000 0.0000 37.7238 0.0000
# 6 0.0000 0.0000 0.0000 0.0000 0.0000 36.0571
#
#
#
# Elastic Compliance Matrix: (Units=1/GPa)
#
#
# Indices 1 2 3 4 5 6 
#
# 1 0.010548 -0.003048 -0.003088 0.000000 0.000000 0.000000
# 2 -0.003048 0.010821 -0.002729 0.000000 0.000000 0.000000
# 3 -0.003088 -0.002729 0.011773 0.000000 0.000000 0.000000
# 4 0.000000 0.000000 0.000000 0.046412 0.000000 0.000000
# 5 0.000000 0.000000 0.000000 0.000000 0.026508 0.000000
# 6 0.000000 0.000000 0.000000 0.000000 0.000000 0.027734
#
#
# Mechanical properties :
#
#
# Convention : Reuss Voigt Hill
#
# Bulk Modulus (GPa) = 64.88083 65.23785 65.05934
# Shear Modulus (GPa) = 31.91585 33.39427 32.65506
#
# Velocity S-wave (km/s) = 3.77234 3.85872 3.81578
# Velocity P-wave (km/s) = 6.92119 6.99579 6.95859
#
# Compressibility (1/GPa) = 0.01541287
#
# Stress axis : x y z
#
# Youngs Moduli (GPa) = 94.80569 92.41465 84.94260
#
# Poissons Ratio (x) = 0.28164 0.26228
# Poissons Ratio (y) = 0.28893 0.23180
# Poissons Ratio (z) = 0.29273 0.25219
#
# Static dielectric constant tensor:
#      x y z
#    x 2.903390 0.000000 0.000000 
#    y 0.000000 4.051570 0.000000 
#    z 0.000000 0.000000 4.052640 
# 
# 
# High freq. dielectric constant tensor:
#      x y z
#    x 1.894890 0.000000 0.000000 
#    y 0.000000 1.884860 0.000000 
#    z 0.000000 0.000000 1.883680 
# 
# From -- ./inp_files/30898.got.cif
#   From: 2010.03.12/outbox.cif.g09.slc.cpg/sg24_16_cif.got.tgz:30898.got - 2010.04.14 03:06:53.
