data_PCOD8166122
_publ_section_title
;
Structure prediction by ZEFSAII (Michael W. Deem and Ramdas Pophale) SiO2 
 PCOD8166122
Probable space group: I 21 21 21
;
_chemical_formula_sum "Si O2"
_cell_formula_units_Z 48
_cell_length_a 20.166161
_cell_length_b 8.301649
_cell_length_c 14.391587
_cell_angle_alpha 90.000000
_cell_angle_beta 90.000000
_cell_angle_gamma 90.000000
_cell_volume 2409.329980
_symmetry_space_group_name_H-M "I 21 21 21"
_symmetry_group_IT_number 24
_symmetry_cell_setting 'orthorhombic'
loop_
_space_group_symop_operation_xyz
x,y,z
-x,1/2-y,z
x,-y,1/2-z
1/2-x,y,-z
1/2+x,1/2+y,1/2+z
1/2-x,-y,1/2+z
1/2+x,1/2-y,-z
-x,1/2+y,1/2-z
loop_
_atom_site_type_symbol
_atom_site_label
_atom_site_fract_x
_atom_site_fract_y
_atom_site_fract_z
Si Si1 0.722132 0.686759 0.750000
Si Si2 0.570652 0.313544 0.431249
Si Si3 0.429349 0.813544 0.431248
Si Si4 0.134676 0.315953 0.750000
Si Si5 0.684039 0.187910 0.553742
Si Si6 0.684038 0.812090 0.553742
O O1 0.703067 0.500000 0.750000
O O2 0.801465 0.701746 0.750000
O O3 0.690567 0.773765 0.838277
O O4 0.690567 0.773765 0.661723
O O5 0.500000 0.250000 0.466730
O O6 0.566914 0.500000 0.404988
O O7 0.590690 0.214055 0.340291
O O8 0.622588 0.287409 0.513908
O O9 0.500000 0.750000 0.466730
O O10 0.409310 0.714055 0.340291
O O11 0.377412 0.787409 0.513908
O O12 0.159688 0.500000 0.750000
O O13 0.750000 0.244401 0.500000
O O14 0.671038 0.000000 0.537652
O O15 0.750000 0.755599 0.500000
#
# Coordination Sequence:
#
# PCOD8166122 Si02
#       6
#     8   8   8   8   8   8
#     4  12  24  39  64  97 128 163 211 261 313 369
#     4  12  25  42  64  93 129 168 211 259 316 377
#     4  12  25  42  64  93 129 168 211 259 316 377
#     4  12  23  39  62  93 130 167 208 259 317 373
#     4  11  23  41  66  93 127 167 210 258 312 371
#     4  11  23  41  66  93 127 167 210 258 312 371
#
# _framework density 19.922550999999999
#
# number of rings (size 3 to 8) (size 9 to 14) (size 15 to 20)
#    0.000    0.333    3.333    7.500    0.000    1.333 
#    0.000    0.833    0.000    0.000    0.000    0.000 
#    0.000    0.000    0.000    0.000    0.000    0.000 
#
# Total GULP energy -297845.836446 kJ/mol
# GULP energy per Si atom -12410.243185 kJ/mol
# Density = 1.987721 g / cm^3
# Si number density = 19.922551 Si / 1000 Ang^3
#
#
#
# Elastic Constant Matrix: (Units=GPa)
#
#
# Indices 1 2 3 4 5 6 
#
# 1 125.1434 19.4962 51.2785 0.0000 0.0000 0.0000
# 2 19.4962 88.9258 14.3754 0.0000 0.0000 0.0000
# 3 51.2785 14.3754 138.5676 0.0000 0.0000 0.0000
# 4 0.0000 0.0000 0.0000 32.7747 0.0000 0.0000
# 5 0.0000 0.0000 0.0000 0.0000 -92.6534 0.0000
# 6 0.0000 0.0000 0.0000 0.0000 0.0000 30.5540
#
#
#
# Elastic Compliance Matrix: (Units=1/GPa)
#
#
# Indices 1 2 3 4 5 6 
#
# 1 0.009628 -0.001561 -0.003401 0.000000 0.000000 0.000000
# 2 -0.001561 0.011690 -0.000635 0.000000 0.000000 0.000000
# 3 -0.003401 -0.000635 0.008541 0.000000 0.000000 0.000000
# 4 0.000000 0.000000 0.000000 0.030511 0.000000 0.000000
# 5 0.000000 0.000000 0.000000 0.000000 -0.010793 0.000000
# 6 0.000000 0.000000 0.000000 0.000000 0.000000 0.032729
#
#
# Mechanical properties :
#
#
# Convention : Reuss Voigt Hill
#
# Bulk Modulus (GPa) = 53.57624 58.10412 55.84018
# Shear Modulus (GPa) = 50.13949 11.96750 31.05350
#
# Velocity S-wave (km/s) = 5.02213 2.45358 3.95233
# Velocity P-wave (km/s) = 7.78330 6.10369 6.99410
#
# Compressibility (1/GPa) = 0.01866499
#
# Stress axis : x y z
#
# Youngs Moduli (GPa) = 103.86870 85.54146 117.08085
#
# Poissons Ratio (x) = 0.13353 0.39817
# Poissons Ratio (y) = 0.16214 0.07436
# Poissons Ratio (z) = 0.35324 0.05433
#
# Static dielectric constant tensor:
#      x y z
#    x 3.618770 0.000000 0.000000 
#    y 0.000000 3.667700 0.000000 
#    z 0.000000 0.000000 3.615000 
# 
# 
# High freq. dielectric constant tensor:
#      x y z
#    x 1.773400 0.000000 0.000000 
#    y 0.000000 1.794090 0.000000 
#    z 0.000000 0.000000 1.779680 
# 
# From -- ./inp_files/27052.got.cif
#   From: 2010.03.12/outbox.cif.g09.slc.cpg/sg24_14_cif.got.tgz:27052.got - 2010.04.14 03:06:53.
