data_PCOD8166872
_publ_section_title
;
Structure prediction by ZEFSAII (Michael W. Deem and Ramdas Pophale) SiO2 
 PCOD8166872
Probable space group: P M M 2
;
_chemical_formula_sum "Si O2"
_cell_formula_units_Z 32
_cell_length_a 9.509226
_cell_length_b 9.248015
_cell_length_c 20.616110
_cell_angle_alpha 90.000000
_cell_angle_beta 90.000000
_cell_angle_gamma 90.000000
_cell_volume 1813.010910
_symmetry_space_group_name_H-M "P M M 2"
_symmetry_group_IT_number 25
_symmetry_cell_setting 'orthorhombic'
loop_
_space_group_symop_operation_xyz
x,y,z
-x,-y,z
-x,y,z
x,-y,z
loop_
_atom_site_type_symbol
_atom_site_label
_atom_site_fract_x
_atom_site_fract_y
_atom_site_fract_z
Si Si1 0.166920 0.339838 0.488070
Si Si2 0.163405 0.667694 0.992619
Si Si3 0.662574 0.667576 0.868266
Si Si4 0.336512 0.831510 0.740290
Si Si5 0.167796 0.162445 0.367237
Si Si6 0.836499 0.668213 0.633427
Si Si7 0.832613 0.836604 0.118773
Si Si8 0.832293 0.336384 0.242889
O O1 0.227524 0.500000 0.473852
O O2 0.226914 0.230024 0.434237
O O3 0.209927 0.289622 0.560260
O O4 0.000000 0.346853 0.483785
O O5 0.191453 0.500000 0.008153
O O6 0.248421 0.719910 0.929853
O O7 0.000000 0.697367 0.979181
O O8 0.220014 0.759316 0.053386
O O9 0.500000 0.698474 0.883544
O O10 0.690412 0.500000 0.853073
O O11 0.715542 0.757366 0.806508
O O12 0.500000 0.798805 0.728825
O O13 0.252899 0.767269 0.680372
O O14 0.304216 0.000000 0.745716
O O15 0.224404 0.256542 0.307107
O O16 0.000000 0.161856 0.367399
O O17 0.226402 0.000000 0.360843
O O18 0.804940 0.500000 0.646732
O O19 0.000000 0.701850 0.644597
O O20 0.773281 0.748740 0.180381
O O21 0.000000 0.836348 0.120916
O O22 0.774080 0.000000 0.120898
O O23 0.774234 0.500000 0.241919
O O24 0.000000 0.337123 0.242218
#
# Coordination Sequence:
#
# PCOD8166872 Si02
#       8
#     4   4   4   4   4   4   4   4
#     4   8  14  25  39  56  81 112 145 182 224 268
#     4   9  17  29  45  65  88 114 145 181 221 266
#     4   9  18  33  51  68  88 117 151 186 225 269
#     4  10  21  35  50  70  96 124 154 190 233 280
#     4   9  15  21  31  50  77 110 147 183 219 262
#     4   9  18  32  50  71  94 122 157 195 234 278
#     4   9  16  25  37  55  81 111 142 178 220 264
#     4   9  15  22  33  49  73 109 149 184 218 258
#
# _framework density 17.650196000000001
#
# number of rings (size 3 to 8) (size 9 to 14) (size 15 to 20)
#    0.000    3.000    0.000    2.250    0.000    7.000 
#    0.000    2.500    0.000    0.000    0.000    0.000 
#    0.000    1.000    0.000    5.250    0.000    8.500 
#
# Total GULP energy -396753.988747 kJ/mol
# GULP energy per Si atom -12398.562148 kJ/mol
# Density = 1.761002 g / cm^3
# Si number density = 17.650196 Si / 1000 Ang^3
#
#
#
# Elastic Constant Matrix: (Units=GPa)
#
#
# Indices 1 2 3 4 5 6 
#
# 1 22.3810 27.1479 37.7540 0.0000 0.0000 0.0000
# 2 27.1479 134.3445 101.4317 0.0000 0.0000 0.0000
# 3 37.7540 101.4317 183.1275 0.0000 0.0000 0.0000
# 4 0.0000 0.0000 0.0000 24.2744 0.0000 0.0000
# 5 0.0000 0.0000 0.0000 0.0000 -1.9601 0.0000
# 6 0.0000 0.0000 0.0000 0.0000 0.0000 14.2749
#
#
#
# Elastic Compliance Matrix: (Units=1/GPa)
#
#
# Indices 1 2 3 4 5 6 
#
# 1 0.070922 -0.005659 -0.011487 0.000000 0.000000 0.000000
# 2 -0.005659 0.013245 -0.006170 0.000000 0.000000 0.000000
# 3 -0.011487 -0.006170 0.011246 0.000000 0.000000 0.000000
# 4 0.000000 0.000000 0.000000 0.041196 0.000000 0.000000
# 5 0.000000 0.000000 0.000000 0.000000 -0.510165 0.000000
# 6 0.000000 0.000000 0.000000 0.000000 0.000000 0.070053
#
#
# Mechanical properties :
#
#
# Convention : Reuss Voigt Hill
#
# Bulk Modulus (GPa) = 20.49921 74.72448 47.61185
# Shear Modulus (GPa) = -20.78045 18.88580 -0.94732
#
# Velocity S-wave (km/s) = -3.43498 3.27464 -0.73341
# Velocity P-wave (km/s) = 2.02304 7.53166 5.12997
#
# Compressibility (1/GPa) = 0.04878237
#
# Stress axis : x y z
#
# Youngs Moduli (GPa) = 14.09994 75.49848 88.91859
#
# Poissons Ratio (x) = 0.42723 1.02142
# Poissons Ratio (y) = 0.07979 0.54861
# Poissons Ratio (z) = 0.16197 0.46581
#
# Static dielectric constant tensor:
#      x y z
#    x 2.692330 0.000000 0.000000 
#    y 0.000000 3.425180 0.000000 
#    z 0.000000 0.000000 3.501180 
# 
# 
# High freq. dielectric constant tensor:
#      x y z
#    x 1.614190 0.000000 0.000000 
#    y 0.000000 1.689270 0.000000 
#    z 0.000000 0.000000 1.699060 
# 
# From -- ./inp_files/6267.got.cif
#   From: 2010.03.12/outbox.cif.g09.slc.cpg/sg25_4_cif.got.tgz:6267.got - 2010.04.14 03:30:10.
