data_PCOD8166370
_publ_section_title
;
Structure prediction by ZEFSAII (Michael W. Deem and Ramdas Pophale) SiO2 
 PCOD8166370
Probable space group: P M M 2
;
_chemical_formula_sum "Si O2"
_cell_formula_units_Z 32
_cell_length_a 14.233320
_cell_length_b 9.126243
_cell_length_c 15.385849
_cell_angle_alpha 90.000000
_cell_angle_beta 90.000000
_cell_angle_gamma 90.000000
_cell_volume 1998.571581
_symmetry_space_group_name_H-M "P M M 2"
_symmetry_group_IT_number 25
_symmetry_cell_setting 'orthorhombic'
loop_
_space_group_symop_operation_xyz
x,y,z
-x,-y,z
-x,y,z
x,-y,z
loop_
_atom_site_type_symbol
_atom_site_label
_atom_site_fract_x
_atom_site_fract_y
_atom_site_fract_z
Si Si1 0.717741 0.173621 0.858050
Si Si2 0.390640 0.330330 0.705543
Si Si3 0.391621 0.828294 0.369173
Si Si4 0.390493 0.329407 0.008344
Si Si5 0.102108 0.326110 0.604569
Si Si6 0.611405 0.661792 0.201789
Si Si7 0.706707 0.328221 0.526257
Si Si8 0.893423 0.670245 0.801799
O O1 0.665035 0.232043 0.773107
O O2 0.666292 0.226323 0.944334
O O3 0.824010 0.234470 0.861131
O O4 0.718881 0.000000 0.855626
O O5 0.500000 0.294482 0.713939
O O6 0.368984 0.500000 0.726092
O O7 0.358100 0.290586 0.608579
O O8 0.500000 0.781993 0.382371
O O9 0.353595 0.773660 0.275617
O O10 0.330070 0.756967 0.443625
O O11 0.378137 0.000000 0.373085
O O12 0.500000 0.293496 0.996795
O O13 0.371766 0.500000 0.987415
O O14 0.354642 0.290375 0.105772
O O15 0.101839 0.500000 0.606730
O O16 0.186929 0.271048 0.543859
O O17 0.118304 0.272783 0.703001
O O18 0.000000 0.269068 0.570360
O O19 0.500000 0.656024 0.198740
O O20 0.650616 0.500000 0.224416
O O21 0.704182 0.500000 0.505714
O O22 0.865641 0.500000 0.809204
O O23 0.000000 0.695385 0.833998
#
# Coordination Sequence:
#
# PCOD8166370 Si02
#       8
#     4   4   4   4   4   4   4   4
#     4  12  23  31  44  69 101 131 157 191 238 292
#     4  10  20  33  47  63  89 128 171 205 230 267
#     4  10  20  31  44  66  98 130 156 188 233 285
#     4   9  18  33  52  71  93 124 163 203 236 275
#     4   8  14  27  49  72  89 110 149 201 245 276
#     4   8  15  30  51  71  89 115 156 202 240 272
#     4  10  18  30  49  69  90 120 160 200 234 273
#     4   9  17  33  55  71  87 118 161 205 243 280
#
# _framework density 16.011434999999999
#
# number of rings (size 3 to 8) (size 9 to 14) (size 15 to 20)
#    0.000    2.500    1.250    3.750    0.000    4.500 
#    0.000    1.250    0.000    0.375    0.000    0.875 
#    0.000    3.000    0.000    0.000    0.000    0.000 
#
# Total GULP energy -396708.164812 kJ/mol
# GULP energy per Si atom -12397.130150 kJ/mol
# Density = 1.597499 g / cm^3
# Si number density = 16.011435 Si / 1000 Ang^3
#
#
#
# Elastic Constant Matrix: (Units=GPa)
#
#
# Indices 1 2 3 4 5 6 
#
# 1 94.1667 48.7625 47.3397 0.0000 0.0000 0.0000
# 2 48.7625 74.7630 51.2730 0.0000 0.0000 0.0000
# 3 47.3397 51.2730 96.7990 0.0000 0.0000 0.0000
# 4 0.0000 0.0000 0.0000 2.5780 0.0000 0.0000
# 5 0.0000 0.0000 0.0000 0.0000 6.2786 0.0000
# 6 0.0000 0.0000 0.0000 0.0000 0.0000 15.3160
#
#
#
# Elastic Compliance Matrix: (Units=1/GPa)
#
#
# Indices 1 2 3 4 5 6 
#
# 1 0.016884 -0.008401 -0.003807 0.000000 0.000000 0.000000
# 2 -0.008401 0.025187 -0.009232 0.000000 0.000000 0.000000
# 3 -0.003807 -0.009232 0.017083 0.000000 0.000000 0.000000
# 4 0.000000 0.000000 0.000000 0.387896 0.000000 0.000000
# 5 0.000000 0.000000 0.000000 0.000000 0.159271 0.000000
# 6 0.000000 0.000000 0.000000 0.000000 0.000000 0.065291
#
#
# Mechanical properties :
#
#
# Convention : Reuss Voigt Hill
#
# Bulk Modulus (GPa) = 61.45526 62.27547 61.86536
# Shear Modulus (GPa) = 6.94525 12.72476 9.83500
#
# Velocity S-wave (km/s) = 2.08497 2.82215 2.48109
# Velocity P-wave (km/s) = 6.65294 7.04260 6.85054
#
# Compressibility (1/GPa) = 0.01627200
#
# Stress axis : x y z
#
# Youngs Moduli (GPa) = 59.22856 39.70343 58.53826
#
# Poissons Ratio (x) = 0.33355 0.22286
# Poissons Ratio (y) = 0.49759 0.54045
# Poissons Ratio (z) = 0.22549 0.36656
#
# Static dielectric constant tensor:
#      x y z
#    x 3.220270 0.000000 0.000000 
#    y 0.000000 2.914510 0.000000 
#    z 0.000000 0.000000 3.057100 
# 
# 
# High freq. dielectric constant tensor:
#      x y z
#    x 1.602040 0.000000 0.000000 
#    y 0.000000 1.600010 0.000000 
#    z 0.000000 0.000000 1.605290 
# 
# From -- ./inp_files/5722.got.cif
#   From: 2010.03.12/outbox.cif.g09.slc.cpg/sg25_3_cif.got.tgz:5722.got - 2010.04.14 03:30:10.
