data_PCOD8166495
_publ_section_title
;
Structure prediction by ZEFSAII (Michael W. Deem and Ramdas Pophale) SiO2 
 PCOD8166495
Probable space group: P M M 2
;
_chemical_formula_sum "Si O2"
_cell_formula_units_Z 32
_cell_length_a 14.640829
_cell_length_b 9.091400
_cell_length_c 12.372430
_cell_angle_alpha 90.000000
_cell_angle_beta 90.000000
_cell_angle_gamma 90.000000
_cell_volume 1646.840124
_symmetry_space_group_name_H-M "P M M 2"
_symmetry_group_IT_number 25
_symmetry_cell_setting 'orthorhombic'
loop_
_space_group_symop_operation_xyz
x,y,z
-x,-y,z
-x,y,z
x,-y,z
loop_
_atom_site_type_symbol
_atom_site_label
_atom_site_fract_x
_atom_site_fract_y
_atom_site_fract_z
Si Si1 0.721331 0.174393 0.331140
Si Si2 0.281058 0.826985 0.924176
Si Si3 0.157280 0.667238 0.632284
Si Si4 0.899739 0.330894 0.868503
Si Si5 0.600415 0.667282 0.501261
Si Si6 0.666906 0.828692 0.687549
Si Si7 0.101540 0.669331 0.394133
Si Si8 0.603888 0.825066 0.127098
O O1 0.672122 0.235350 0.436801
O O2 0.824901 0.233851 0.328595
O O3 0.663485 0.231022 0.228336
O O4 0.723764 0.000000 0.335753
O O5 0.179642 0.759360 0.928222
O O6 0.332993 0.784515 0.813607
O O7 0.267014 0.000000 0.933893
O O8 0.344746 0.765947 0.020189
O O9 0.196385 0.500000 0.632757
O O10 0.096928 0.692976 0.739017
O O11 0.237110 0.786758 0.633576
O O12 0.100990 0.696963 0.523285
O O13 0.881564 0.500000 0.896733
O O14 0.000000 0.281586 0.911707
O O15 0.500000 0.676680 0.448264
O O16 0.635658 0.500000 0.503785
O O17 0.592319 0.732714 0.622973
O O18 0.646254 0.000000 0.671975
O O19 0.123738 0.500000 0.368790
O O20 0.000000 0.711334 0.352569
O O21 0.500000 0.762185 0.132357
O O22 0.599601 0.000000 0.125643
#
# Coordination Sequence:
#
# PCOD8166495 Si02
#       8
#     4   4   4   4   4   4   4   4
#     4  11  22  37  59  84 110 140 183 237 283 325
#     4   9  19  35  56  82 110 140 180 228 277 325
#     4   9  16  29  50  74 107 149 188 221 260 317
#     4   9  17  30  50  78 112 150 188 222 262 316
#     4  11  23  37  54  78 111 150 184 219 274 340
#     4  10  19  31  51  81 114 144 177 222 276 327
#     4  10  20  34  54  80 112 152 190 222 267 328
#     4   9  19  38  62  83 104 138 184 231 281 334
#
# _framework density 19.431151
#
# number of rings (size 3 to 8) (size 9 to 14) (size 15 to 20)
#    0.000    2.250    1.250    1.875    0.000    4.500 
#    0.000    3.125    0.000    7.875    0.000    0.000 
#    0.000    0.000    0.000    0.000    0.000    0.000 
#
# Total GULP energy -396656.706001 kJ/mol
# GULP energy per Si atom -12395.522063 kJ/mol
# Density = 1.938692 g / cm^3
# Si number density = 19.431151 Si / 1000 Ang^3
#
#
#
# Elastic Constant Matrix: (Units=GPa)
#
#
# Indices 1 2 3 4 5 6 
#
# 1 145.2065 43.3787 64.0642 0.0000 0.0000 0.0000
# 2 43.3787 60.2427 37.4804 0.0000 0.0000 0.0000
# 3 64.0642 37.4804 103.8781 0.0000 0.0000 0.0000
# 4 0.0000 0.0000 0.0000 17.4771 0.0000 0.0000
# 5 0.0000 0.0000 0.0000 0.0000 26.8367 0.0000
# 6 0.0000 0.0000 0.0000 0.0000 0.0000 25.0819
#
#
#
# Elastic Compliance Matrix: (Units=1/GPa)
#
#
# Indices 1 2 3 4 5 6 
#
# 1 0.010319 -0.004476 -0.004749 0.000000 0.000000 0.000000
# 2 -0.004476 0.023346 -0.005663 0.000000 0.000000 0.000000
# 3 -0.004749 -0.005663 0.014599 0.000000 0.000000 0.000000
# 4 0.000000 0.000000 0.000000 0.057218 0.000000 0.000000
# 5 0.000000 0.000000 0.000000 0.000000 0.037262 0.000000
# 6 0.000000 0.000000 0.000000 0.000000 0.000000 0.039869
#
#
# Mechanical properties :
#
#
# Convention : Reuss Voigt Hill
#
# Bulk Modulus (GPa) = 54.08992 66.57487 60.33239
# Shear Modulus (GPa) = 22.87787 24.83940 23.85864
#
# Velocity S-wave (km/s) = 3.43502 3.57925 3.50788
# Velocity P-wave (km/s) = 6.60527 7.17061 6.89374
#
# Compressibility (1/GPa) = 0.01848773
#
# Stress axis : x y z
#
# Youngs Moduli (GPa) = 96.90756 42.83448 68.49831
#
# Poissons Ratio (x) = 0.19172 0.32531
# Poissons Ratio (y) = 0.43373 0.38791
# Poissons Ratio (z) = 0.46023 0.24258
#
# Static dielectric constant tensor:
#      x y z
#    x 3.667200 0.000000 0.000000 
#    y 0.000000 3.358700 0.000000 
#    z 0.000000 0.000000 3.577520 
# 
# 
# High freq. dielectric constant tensor:
#      x y z
#    x 1.761700 0.000000 0.000000 
#    y 0.000000 1.738250 0.000000 
#    z 0.000000 0.000000 1.741000 
# 
# From -- ./inp_files/4179.got.cif
#   From: 2010.03.12/outbox.cif.g09.slc.cpg/sg25_3_cif.got.tgz:4179.got - 2010.04.14 03:30:10.
