data_PCOD8166745
_publ_section_title
;
Structure prediction by ZEFSAII (Michael W. Deem and Ramdas Pophale) SiO2 
 PCOD8166745
Probable space group: P M M 2
;
_chemical_formula_sum "Si O2"
_cell_formula_units_Z 32
_cell_length_a 9.413239
_cell_length_b 14.101762
_cell_length_c 12.929232
_cell_angle_alpha 90.000000
_cell_angle_beta 90.000000
_cell_angle_gamma 90.000000
_cell_volume 1716.268354
_symmetry_space_group_name_H-M "P M M 2"
_symmetry_group_IT_number 25
_symmetry_cell_setting 'orthorhombic'
loop_
_space_group_symop_operation_xyz
x,y,z
-x,-y,z
-x,y,z
x,-y,z
loop_
_atom_site_type_symbol
_atom_site_label
_atom_site_fract_x
_atom_site_fract_y
_atom_site_fract_z
Si Si1 0.666423 0.108989 0.998500
Si Si2 0.168983 0.395485 0.275936
Si Si3 0.334729 0.890097 0.590754
Si Si4 0.166352 0.794032 0.181889
Si Si5 0.153909 0.611620 0.497553
Si Si6 0.666239 0.222652 0.794665
Si Si7 0.169375 0.608308 0.721759
Si Si8 0.164966 0.109268 0.394914
O O1 0.500000 0.117222 0.019912
O O2 0.709756 0.159545 0.892451
O O3 0.714704 0.000000 0.991498
O O4 0.746649 0.159543 0.091035
O O5 0.225866 0.500000 0.242375
O O6 0.207467 0.317919 0.189017
O O7 0.233668 0.363345 0.388992
O O8 0.000000 0.399272 0.291120
O O9 0.500000 0.876652 0.567575
O O10 0.287683 0.835500 0.693524
O O11 0.249192 0.847160 0.492884
O O12 0.295672 0.000000 0.607711
O O13 0.212313 0.839879 0.290157
O O14 0.000000 0.809566 0.160340
O O15 0.129338 0.500000 0.498278
O O16 0.230566 0.636351 0.606555
O O17 0.000000 0.662797 0.497894
O O18 0.500000 0.246095 0.794855
O O19 0.753003 0.321273 0.801389
O O20 0.209305 0.500000 0.750583
O O21 0.000000 0.621718 0.726557
O O22 0.000000 0.124120 0.417167
O O23 0.206158 0.000000 0.381243
#
# Coordination Sequence:
#
# PCOD8166745 Si02
#       8
#     4   4   4   4   4   4   4   4
#     4  10  22  41  61  77  98 135 182 227 270 321
#     4   8  14  26  46  74 107 141 175 208 249 305
#     4   9  18  33  52  74 102 136 174 217 265 321
#     4  10  20  33  54  82 108 136 175 222 268 311
#     4   7  11  22  42  69 101 136 171 204 239 288
#     4  10  21  36  55  78 103 136 180 225 270 315
#     4   9  18  32  52  80 111 142 178 217 256 308
#     4   9  18  31  47  73 108 138 166 210 270 328
#
# _framework density 18.645102999999999
#
# number of rings (size 3 to 8) (size 9 to 14) (size 15 to 20)
#    0.000    3.000    0.000    2.250    1.750    4.000 
#    0.000    1.875    0.000    4.875    0.000    0.000 
#    0.000    0.000    0.000    0.000    0.000    0.000 
#
# Total GULP energy -396549.330515 kJ/mol
# GULP energy per Si atom -12392.166579 kJ/mol
# Density = 1.860267 g / cm^3
# Si number density = 18.645103 Si / 1000 Ang^3
#
#
#
# Elastic Constant Matrix: (Units=GPa)
#
#
# Indices 1 2 3 4 5 6 
#
# 1 35.7613 42.0375 50.1083 0.0000 0.0000 0.0000
# 2 42.0375 121.6567 84.0258 0.0000 0.0000 0.0000
# 3 50.1083 84.0258 136.7860 0.0000 0.0000 0.0000
# 4 0.0000 0.0000 0.0000 33.6717 0.0000 0.0000
# 5 0.0000 0.0000 0.0000 0.0000 104.3754 0.0000
# 6 0.0000 0.0000 0.0000 0.0000 0.0000 23.6056
#
#
#
# Elastic Compliance Matrix: (Units=1/GPa)
#
#
# Indices 1 2 3 4 5 6 
#
# 1 0.064118 -0.010305 -0.017158 0.000000 0.000000 0.000000
# 2 -0.010305 0.015934 -0.006013 0.000000 0.000000 0.000000
# 3 -0.017158 -0.006013 0.017290 0.000000 0.000000 0.000000
# 4 0.000000 0.000000 0.000000 0.029699 0.000000 0.000000
# 5 0.000000 0.000000 0.000000 0.000000 0.009581 0.000000
# 6 0.000000 0.000000 0.000000 0.000000 0.000000 0.042363
#
#
# Mechanical properties :
#
#
# Convention : Reuss Voigt Hill
#
# Bulk Modulus (GPa) = 32.90555 71.83858 52.37206
# Shear Modulus (GPa) = 19.52630 40.19938 29.86284
#
# Velocity S-wave (km/s) = 3.23965 4.64834 4.00640
# Velocity P-wave (km/s) = 5.62854 8.21112 7.03928
#
# Compressibility (1/GPa) = 0.03039001
#
# Stress axis : x y z
#
# Youngs Moduli (GPa) = 15.59621 62.76063 57.83778
#
# Poissons Ratio (x) = 0.64674 0.99238
# Poissons Ratio (y) = 0.16072 0.34777
# Poissons Ratio (z) = 0.26760 0.37737
#
# Static dielectric constant tensor:
#      x y z
#    x 2.951630 0.000000 0.000000 
#    y 0.000000 3.604840 0.000000 
#    z 0.000000 0.000000 3.620360 
# 
# 
# High freq. dielectric constant tensor:
#      x y z
#    x 1.680640 0.000000 0.000000 
#    y 0.000000 1.736110 0.000000 
#    z 0.000000 0.000000 1.716500 
# 
# From -- ./inp_files/4212.got.cif
#   From: 2010.03.12/outbox.cif.g09.slc.cpg/sg25_3_cif.got.tgz:4212.got - 2010.04.14 03:30:10.
