data_PCOD8166936
_publ_section_title
;
Structure prediction by ZEFSAII (Michael W. Deem and Ramdas Pophale) SiO2 
 PCOD8166936
Probable space group: P M M 2
;
_chemical_formula_sum "Si O2"
_cell_formula_units_Z 28
_cell_length_a 9.472136
_cell_length_b 9.040344
_cell_length_c 17.954434
_cell_angle_alpha 90.000000
_cell_angle_beta 90.000000
_cell_angle_gamma 90.000000
_cell_volume 1537.462742
_symmetry_space_group_name_H-M "P M M 2"
_symmetry_group_IT_number 25
_symmetry_cell_setting 'orthorhombic'
loop_
_space_group_symop_operation_xyz
x,y,z
-x,-y,z
-x,y,z
x,-y,z
loop_
_atom_site_type_symbol
_atom_site_label
_atom_site_fract_x
_atom_site_fract_y
_atom_site_fract_z
Si Si1 0.835647 0.173959 0.626590
Si Si2 0.838520 0.325641 0.055987
Si Si3 0.662387 0.674210 0.497543
Si Si4 0.663237 0.170283 0.345770
Si Si5 0.344249 0.324506 0.920587
Si Si6 0.334725 0.671994 0.753624
Si Si7 0.837189 0.172943 0.204331
O O1 0.764667 0.251943 0.556602
O O2 0.760999 0.227822 0.701501
O O3 0.000000 0.217197 0.629432
O O4 0.813927 0.000000 0.618538
O O5 0.818775 0.500000 0.062508
O O6 0.776801 0.253826 0.131111
O O7 0.000000 0.278935 0.045652
O O8 0.758547 0.260153 0.983876
O O9 0.500000 0.717018 0.515448
O O10 0.684437 0.500000 0.500104
O O11 0.706427 0.732526 0.416537
O O12 0.500000 0.190053 0.325568
O O13 0.751657 0.230136 0.275776
O O14 0.700260 0.000000 0.363539
O O15 0.500000 0.259218 0.935212
O O16 0.349592 0.500000 0.925321
O O17 0.293278 0.280988 0.837773
O O18 0.500000 0.702187 0.738483
O O19 0.301013 0.500000 0.738636
O O20 0.000000 0.214316 0.217416
O O21 0.814217 0.000000 0.192435
#
# Coordination Sequence:
#
# PCOD8166936 Si02
#       7
#     4   4   4   4   4   4   4
#     4  11  24  38  52  75 106 137 170 207 248 297
#     4   9  17  29  46  69  96 127 164 202 241 289
#     4  10  21  37  57  80 104 131 166 207 252 303
#     4   9  18  33  52  73  98 129 164 202 246 296
#     4   8  15  29  49  73  99 126 159 201 247 293
#     4   9  18  34  56  79 102 131 169 211 255 304
#     4   9  18  32  48  67  95 131 166 200 243 293
#
# _framework density 18.211822999999999
#
# number of rings (size 3 to 8) (size 9 to 14) (size 15 to 20)
#    0.000    2.714    0.000    2.143    0.000    6.286 
#    0.000    3.571    0.000    2.571    0.000    0.000 
#    0.000    0.000    0.000    0.000    0.000    0.000 
#
# Total GULP energy -347200.760938 kJ/mol
# GULP energy per Si atom -12400.027176 kJ/mol
# Density = 1.817037 g / cm^3
# Si number density = 18.211823 Si / 1000 Ang^3
#
#
#
# Elastic Constant Matrix: (Units=GPa)
#
#
# Indices 1 2 3 4 5 6 
#
# 1 89.9082 42.1882 90.0726 0.0000 0.0000 0.0000
# 2 42.1882 51.9408 54.0408 0.0000 0.0000 0.0000
# 3 90.0726 54.0408 177.3660 0.0000 0.0000 0.0000
# 4 0.0000 0.0000 0.0000 -103.6663 0.0000 0.0000
# 5 0.0000 0.0000 0.0000 0.0000 22.8706 0.0000
# 6 0.0000 0.0000 0.0000 0.0000 0.0000 22.7431
#
#
#
# Elastic Compliance Matrix: (Units=1/GPa)
#
#
# Indices 1 2 3 4 5 6 
#
# 1 0.026289 -0.010927 -0.010022 0.000000 0.000000 0.000000
# 2 -0.010927 0.032730 -0.004423 0.000000 0.000000 0.000000
# 3 -0.010022 -0.004423 0.012075 0.000000 0.000000 0.000000
# 4 0.000000 0.000000 0.000000 -0.009646 0.000000 0.000000
# 5 0.000000 0.000000 0.000000 0.000000 0.043724 0.000000
# 6 0.000000 0.000000 0.000000 0.000000 0.000000 0.043969
#
#
# Mechanical properties :
#
#
# Convention : Reuss Voigt Hill
#
# Bulk Modulus (GPa) = 49.13658 76.86867 63.00263
# Shear Modulus (GPa) = 24.19331 -2.74964 10.72183
#
# Velocity S-wave (km/s) = 3.64873 -1.23008 2.42901
# Velocity P-wave (km/s) = 6.69254 6.34683 6.52198
#
# Compressibility (1/GPa) = 0.02035144
#
# Stress axis : x y z
#
# Youngs Moduli (GPa) = 38.03809 30.55309 82.81496
#
# Poissons Ratio (x) = 0.33384 0.82993
# Poissons Ratio (y) = 0.41562 0.36633
# Poissons Ratio (z) = 0.38120 0.13515
#
# Static dielectric constant tensor:
#      x y z
#    x 3.454110 0.000000 0.000000 
#    y 0.000000 3.206820 0.000000 
#    z 0.000000 0.000000 3.618160 
# 
# 
# High freq. dielectric constant tensor:
#      x y z
#    x 1.700710 0.000000 0.000000 
#    y 0.000000 1.686890 0.000000 
#    z 0.000000 0.000000 1.720340 
# 
# From -- ./inp_files/6403.got.cif
#   From: 2010.03.12/outbox.cif.g09.slc.cpg/sg25_4_cif.got.tgz:6403.got - 2010.04.14 03:30:10.
