data_PCOD8166959
_publ_section_title
;
Structure prediction by ZEFSAII (Michael W. Deem and Ramdas Pophale) SiO2 
 PCOD8166959
Probable space group: P M M 2
;
_chemical_formula_sum "Si O2"
_cell_formula_units_Z 32
_cell_length_a 8.713015
_cell_length_b 13.995426
_cell_length_c 12.736734
_cell_angle_alpha 90.000000
_cell_angle_beta 90.000000
_cell_angle_gamma 90.000000
_cell_volume 1553.147360
_symmetry_space_group_name_H-M "P M M 2"
_symmetry_group_IT_number 25
_symmetry_cell_setting 'orthorhombic'
loop_
_space_group_symop_operation_xyz
x,y,z
-x,-y,z
-x,y,z
x,-y,z
loop_
_atom_site_type_symbol
_atom_site_label
_atom_site_fract_x
_atom_site_fract_y
_atom_site_fract_z
Si Si1 0.821516 0.713325 0.344820
Si Si2 0.319313 0.107855 0.829240
Si Si3 0.821879 0.720849 0.732303
Si Si4 0.676264 0.612027 0.155192
Si Si5 0.679771 0.389592 0.539867
Si Si6 0.674105 0.612686 0.917612
Si Si7 0.172526 0.886706 0.043755
Si Si8 0.319559 0.890765 0.259499
O O1 0.790307 0.667810 0.231285
O O2 0.723955 0.655562 0.429179
O O3 0.767040 0.824014 0.343763
O O4 0.000000 0.707912 0.373041
O O5 0.500000 0.109878 0.840499
O O6 0.264046 0.176604 0.735451
O O7 0.261643 0.000000 0.806354
O O8 0.248860 0.151302 0.936732
O O9 0.768743 0.663061 0.631661
O O10 0.789524 0.661391 0.837334
O O11 0.000000 0.741883 0.722728
O O12 0.500000 0.638660 0.181267
O O13 0.702236 0.500000 0.170488
O O14 0.717454 0.642695 0.036276
O O15 0.500000 0.377957 0.559230
O O16 0.729013 0.500000 0.539481
O O17 0.500000 0.644902 0.891387
O O18 0.688771 0.500000 0.904670
O O19 0.273810 0.854760 0.143103
O O20 0.000000 0.846089 0.055252
O O21 0.170799 0.000000 0.037813
O O22 0.500000 0.879281 0.273450
O O23 0.266992 0.000000 0.278783
#
# Coordination Sequence:
#
# PCOD8166959 Si02
#       8
#     4   4   4   4   4   4   4   4
#     4  12  25  39  61  92 126 160 200 254 315 369
#     4  10  21  38  60  86 120 165 213 255 299 360
#     4  12  25  39  61  92 126 160 200 254 315 369
#     4   9  19  37  60  86 119 160 204 249 300 363
#     4  11  25  47  72  93 118 157 207 258 306 365
#     4   9  19  37  60  86 119 160 204 249 300 363
#     4   9  17  31  53  83 120 159 200 251 307 357
#     4  10  21  38  60  86 120 165 213 255 299 360
#
# _framework density 20.603325000000002
#
# number of rings (size 3 to 8) (size 9 to 14) (size 15 to 20)
#    0.000    1.750    0.000    5.250    1.750    8.000 
#    0.000    1.875    0.000    3.750    0.000    0.000 
#    0.000    0.000    0.000    0.000    0.000    0.000 
#
# Total GULP energy -396911.539402 kJ/mol
# GULP energy per Si atom -12403.485606 kJ/mol
# Density = 2.055643 g / cm^3
# Si number density = 20.603325 Si / 1000 Ang^3
#
#
#
# Elastic Constant Matrix: (Units=GPa)
#
#
# Indices 1 2 3 4 5 6 
#
# 1 69.2092 11.9233 12.8175 0.0000 0.0000 0.0000
# 2 11.9233 76.2376 37.9908 0.0000 0.0000 0.0000
# 3 12.8175 37.9908 73.4812 0.0000 0.0000 0.0000
# 4 0.0000 0.0000 0.0000 36.8644 0.0000 0.0000
# 5 0.0000 0.0000 0.0000 0.0000 20.8385 0.0000
# 6 0.0000 0.0000 0.0000 0.0000 0.0000 26.7171
#
#
#
# Elastic Compliance Matrix: (Units=1/GPa)
#
#
# Indices 1 2 3 4 5 6 
#
# 1 0.015043 -0.001408 -0.001896 0.000000 0.000000 0.000000
# 2 -0.001408 0.017801 -0.008958 0.000000 0.000000 0.000000
# 3 -0.001896 -0.008958 0.018571 0.000000 0.000000 0.000000
# 4 0.000000 0.000000 0.000000 0.027126 0.000000 0.000000
# 5 0.000000 0.000000 0.000000 0.000000 0.047988 0.000000
# 6 0.000000 0.000000 0.000000 0.000000 0.000000 0.037429
#
#
# Mechanical properties :
#
#
# Convention : Reuss Voigt Hill
#
# Bulk Modulus (GPa) = 37.18679 38.26569 37.72624
# Shear Modulus (GPa) = 25.32349 27.29709 26.31029
#
# Velocity S-wave (km/s) = 3.50965 3.64385 3.57738
# Velocity P-wave (km/s) = 5.87466 6.02631 5.95097
#
# Compressibility (1/GPa) = 0.02689127
#
# Stress axis : x y z
#
# Youngs Moduli (GPa) = 66.47778 56.17697 53.84751
#
# Poissons Ratio (x) = 0.07908 0.10210
# Poissons Ratio (y) = 0.09358 0.48235
# Poissons Ratio (z) = 0.12605 0.50322
#
# Static dielectric constant tensor:
#      x y z
#    x 3.672510 0.000000 0.000000 
#    y 0.000000 3.919630 0.000000 
#    z 0.000000 0.000000 3.679570 
# 
# 
# High freq. dielectric constant tensor:
#      x y z
#    x 1.806250 0.000000 0.000000 
#    y 0.000000 1.820430 0.000000 
#    z 0.000000 0.000000 1.789160 
# 
# From -- ./inp_files/4286.got.cif
#   From: 2010.03.12/outbox.cif.g09.slc.cpg/sg25_3_cif.got.tgz:4286.got - 2010.04.14 03:30:10.
