data_PCOD8166343
_publ_section_title
;
Structure prediction by ZEFSAII (Michael W. Deem and Ramdas Pophale) SiO2 
 PCOD8166343
Probable space group: P M M 2
;
_chemical_formula_sum "Si O2"
_cell_formula_units_Z 32
_cell_length_a 9.004221
_cell_length_b 14.248029
_cell_length_c 15.708434
_cell_angle_alpha 90.000000
_cell_angle_beta 90.000000
_cell_angle_gamma 90.000000
_cell_volume 2015.272728
_symmetry_space_group_name_H-M "P M M 2"
_symmetry_group_IT_number 25
_symmetry_cell_setting 'orthorhombic'
loop_
_space_group_symop_operation_xyz
x,y,z
-x,-y,z
-x,y,z
x,-y,z
loop_
_atom_site_type_symbol
_atom_site_label
_atom_site_fract_x
_atom_site_fract_y
_atom_site_fract_z
Si Si1 0.676941 0.892203 0.899340
Si Si2 0.176442 0.894619 0.211810
Si Si3 0.661573 0.110751 0.714884
Si Si4 0.322798 0.106050 0.531705
Si Si5 0.172240 0.209102 0.380901
Si Si6 0.672784 0.607037 0.118491
Si Si7 0.169199 0.395236 0.293463
Si Si8 0.823756 0.220405 0.048661
O O1 0.500000 0.877983 0.903987
O O2 0.739660 0.862923 0.804788
O O3 0.718051 0.000000 0.920005
O O4 0.759854 0.825661 0.964365
O O5 0.233135 0.845791 0.298114
O O6 0.235468 0.837447 0.130420
O O7 0.000000 0.895501 0.210407
O O8 0.240960 0.000000 0.207857
O O9 0.500000 0.159500 0.715079
O O10 0.742192 0.137352 0.625316
O O11 0.638625 0.000000 0.714298
O O12 0.500000 0.110456 0.533974
O O13 0.262335 0.178324 0.463097
O O14 0.270486 0.000000 0.509183
O O15 0.200821 0.320266 0.367851
O O16 0.000000 0.186250 0.395973
O O17 0.500000 0.630927 0.112194
O O18 0.706220 0.500000 0.091616
O O19 0.723579 0.625077 0.214951
O O20 0.763123 0.673667 0.054609
O O21 0.194729 0.500000 0.330455
O O22 0.000000 0.382412 0.260236
O O23 0.000000 0.221553 0.043681
#
# Coordination Sequence:
#
# PCOD8166343 Si02
#       8
#     4   4   4   4   4   4   4   4
#     4   9  17  30  48  69  93 122 155 191 230 273
#     4   9  17  28  40  57  87 124 154 176 208 258
#     4   7  12  26  46  64  86 118 152 186 228 272
#     4   9  17  29  45  66  91 120 154 189 224 265
#     4  10  18  29  44  64  89 120 152 184 225 270
#     4  10  20  33  49  68  89 114 149 196 240 272
#     4   9  17  31  49  66  86 115 152 190 230 277
#     4  11  20  31  46  66  93 126 157 186 224 272
#
# _framework density 15.878743999999999
#
# number of rings (size 3 to 8) (size 9 to 14) (size 15 to 20)
#    0.000    2.750    1.250    3.000    0.000    2.750 
#    0.000    0.625    0.000    4.500    0.000    0.875 
#    0.000    5.000    0.000    0.000    0.000    0.000 
#
# Total GULP energy -396559.562659 kJ/mol
# GULP energy per Si atom -12392.486333 kJ/mol
# Density = 1.584260 g / cm^3
# Si number density = 15.878744 Si / 1000 Ang^3
#
#
#
# Elastic Constant Matrix: (Units=GPa)
#
#
# Indices 1 2 3 4 5 6 
#
# 1 39.1561 33.6500 37.2881 0.0000 0.0000 0.0000
# 2 33.6500 102.1047 63.4844 0.0000 0.0000 0.0000
# 3 37.2881 63.4844 137.5635 0.0000 0.0000 0.0000
# 4 0.0000 0.0000 0.0000 13.2570 0.0000 0.0000
# 5 0.0000 0.0000 0.0000 0.0000 12.6608 0.0000
# 6 0.0000 0.0000 0.0000 0.0000 0.0000 20.8265
#
#
#
# Elastic Compliance Matrix: (Units=1/GPa)
#
#
# Indices 1 2 3 4 5 6 
#
# 1 0.039470 -0.008913 -0.006585 0.000000 0.000000 0.000000
# 2 -0.008913 0.015748 -0.004851 0.000000 0.000000 0.000000
# 3 -0.006585 -0.004851 0.011293 0.000000 0.000000 0.000000
# 4 0.000000 0.000000 0.000000 0.075432 0.000000 0.000000
# 5 0.000000 0.000000 0.000000 0.000000 0.078984 0.000000
# 6 0.000000 0.000000 0.000000 0.000000 0.000000 0.048016
#
#
# Mechanical properties :
#
#
# Convention : Reuss Voigt Hill
#
# Bulk Modulus (GPa) = 38.74345 60.85215 49.79780
# Shear Modulus (GPa) = 15.71110 18.97564 17.34337
#
# Velocity S-wave (km/s) = 3.14895 3.46068 3.30849
# Velocity P-wave (km/s) = 6.13789 7.37391 6.78411
#
# Compressibility (1/GPa) = 0.02581082
#
# Stress axis : x y z
#
# Youngs Moduli (GPa) = 25.33571 63.50088 88.54826
#
# Poissons Ratio (x) = 0.56601 0.58312
# Poissons Ratio (y) = 0.22583 0.42958
# Poissons Ratio (z) = 0.16684 0.30807
#
# Static dielectric constant tensor:
#      x y z
#    x 2.792530 0.000000 0.000000 
#    y 0.000000 3.046990 0.000000 
#    z 0.000000 0.000000 3.182130 
# 
# 
# High freq. dielectric constant tensor:
#      x y z
#    x 1.588700 0.000000 0.000000 
#    y 0.000000 1.594870 0.000000 
#    z 0.000000 0.000000 1.602740 
# 
# From -- ./inp_files/5685.got.cif
#   From: 2010.03.12/outbox.cif.g09.slc.cpg/sg25_3_cif.got.tgz:5685.got - 2010.04.14 03:30:10.
