data_PCOD8166331
_publ_section_title
;
Structure prediction by ZEFSAII (Michael W. Deem and Ramdas Pophale) SiO2 
 PCOD8166331
Probable space group: P M M 2
;
_chemical_formula_sum "Si O2"
_cell_formula_units_Z 32
_cell_length_a 14.222289
_cell_length_b 9.167777
_cell_length_c 15.768494
_cell_angle_alpha 90.000000
_cell_angle_beta 90.000000
_cell_angle_gamma 90.000000
_cell_volume 2056.003063
_symmetry_space_group_name_H-M "P M M 2"
_symmetry_group_IT_number 25
_symmetry_cell_setting 'orthorhombic'
loop_
_space_group_symop_operation_xyz
x,y,z
-x,-y,z
-x,y,z
x,-y,z
loop_
_atom_site_type_symbol
_atom_site_label
_atom_site_fract_x
_atom_site_fract_y
_atom_site_fract_z
Si Si1 0.102083 0.827019 0.581060
Si Si2 0.609352 0.331724 0.494104
Si Si3 0.106485 0.168347 0.389669
Si Si4 0.722024 0.672575 0.327796
Si Si5 0.388193 0.331276 0.803579
Si Si6 0.606755 0.326731 0.169518
Si Si7 0.297682 0.173226 0.648888
Si Si8 0.603766 0.327446 0.987079
O O1 0.117460 0.770431 0.485310
O O2 0.189040 0.773604 0.638612
O O3 0.000000 0.769503 0.615368
O O4 0.098772 0.000000 0.577825
O O5 0.500000 0.308062 0.475448
O O6 0.631340 0.500000 0.515212
O O7 0.664836 0.278516 0.411068
O O8 0.638746 0.235486 0.573869
O O9 0.174079 0.260162 0.328795
O O10 0.000000 0.190059 0.357617
O O11 0.136256 0.000000 0.385504
O O12 0.730243 0.500000 0.322417
O O13 0.669971 0.738071 0.244958
O O14 0.500000 0.306151 0.797216
O O15 0.364543 0.500000 0.784620
O O16 0.334147 0.230252 0.738115
O O17 0.349002 0.281687 0.897282
O O18 0.500000 0.267897 0.178425
O O19 0.604941 0.500000 0.177293
O O20 0.651548 0.280184 0.076934
O O21 0.305502 0.000000 0.646518
O O22 0.500000 0.258745 0.988772
O O23 0.594595 0.500000 0.984627
#
# Coordination Sequence:
#
# PCOD8166331 Si02
#       8
#     4   4   4   4   4   4   4   4
#     4   8  15  29  46  60  76 103 140 179 215 251
#     4  10  20  31  40  55  87 125 148 163 197 250
#     4   9  17  31  48  61  79 112 148 179 215 258
#     4  10  18  27  43  67  90 111 140 180 217 244
#     4   9  17  29  44  62  87 117 144 172 210 255
#     4   8  13  23  41  65  90 114 143 176 208 248
#     4  11  20  29  44  64  83 108 145 183 213 246
#     4   7  11  22  41  62  82 109 145 177 204 244
#
# _framework density 15.564178999999999
#
# number of rings (size 3 to 8) (size 9 to 14) (size 15 to 20)
#    0.000    3.000    1.250    3.375    0.000    3.750 
#    0.000    0.000    0.000    3.375    0.000    2.625 
#    0.000    5.000    0.000    0.000    0.000    0.000 
#
# Total GULP energy -396447.371570 kJ/mol
# GULP energy per Si atom -12388.980362 kJ/mol
# Density = 1.552875 g / cm^3
# Si number density = 15.564179 Si / 1000 Ang^3
#
#
#
# Elastic Constant Matrix: (Units=GPa)
#
#
# Indices 1 2 3 4 5 6 
#
# 1 84.7048 24.8083 51.8265 0.0000 0.0000 0.0000
# 2 24.8083 28.7067 29.7710 0.0000 0.0000 0.0000
# 3 51.8265 29.7710 130.5085 0.0000 0.0000 0.0000
# 4 0.0000 0.0000 0.0000 8.8988 0.0000 0.0000
# 5 0.0000 0.0000 0.0000 0.0000 11.2214 0.0000
# 6 0.0000 0.0000 0.0000 0.0000 0.0000 20.9308
#
#
#
# Elastic Compliance Matrix: (Units=1/GPa)
#
#
# Indices 1 2 3 4 5 6 
#
# 1 0.017721 -0.010501 -0.004642 0.000000 0.000000 0.000000
# 2 -0.010501 0.051852 -0.007658 0.000000 0.000000 0.000000
# 3 -0.004642 -0.007658 0.011253 0.000000 0.000000 0.000000
# 4 0.000000 0.000000 0.000000 0.112375 0.000000 0.000000
# 5 0.000000 0.000000 0.000000 0.000000 0.089115 0.000000
# 6 0.000000 0.000000 0.000000 0.000000 0.000000 0.047776
#
#
# Mechanical properties :
#
#
# Convention : Reuss Voigt Hill
#
# Bulk Modulus (GPa) = 28.38963 50.74795 39.56879
# Shear Modulus (GPa) = 12.90536 17.37782 15.14159
#
# Velocity S-wave (km/s) = 2.88266 3.34507 3.12244
# Velocity P-wave (km/s) = 5.41845 6.89897 6.20304
#
# Compressibility (1/GPa) = 0.03522413
#
# Stress axis : x y z
#
# Youngs Moduli (GPa) = 56.42915 19.28563 88.86762
#
# Poissons Ratio (x) = 0.20251 0.41252
# Poissons Ratio (y) = 0.59255 0.68057
# Poissons Ratio (z) = 0.26194 0.14770
#
# Static dielectric constant tensor:
#      x y z
#    x 3.030760 0.000000 0.000000 
#    y 0.000000 2.636070 0.000000 
#    z 0.000000 0.000000 3.249070 
# 
# 
# High freq. dielectric constant tensor:
#      x y z
#    x 1.579000 0.000000 0.000000 
#    y 0.000000 1.564080 0.000000 
#    z 0.000000 0.000000 1.594850 
# 
# From -- ./inp_files/5725.got.cif
#   From: 2010.03.12/outbox.cif.g09.slc.cpg/sg25_3_cif.got.tgz:5725.got - 2010.04.14 03:30:10.
