data_PCOD8166782
_publ_section_title
;
Structure prediction by ZEFSAII (Michael W. Deem and Ramdas Pophale) SiO2 
 PCOD8166782
Probable space group: P M M 2
;
_chemical_formula_sum "Si O2"
_cell_formula_units_Z 28
_cell_length_a 9.048990
_cell_length_b 9.011411
_cell_length_c 17.970997
_cell_angle_alpha 90.000000
_cell_angle_beta 90.000000
_cell_angle_gamma 90.000000
_cell_volume 1465.429999
_symmetry_space_group_name_H-M "P M M 2"
_symmetry_group_IT_number 25
_symmetry_cell_setting 'orthorhombic'
loop_
_space_group_symop_operation_xyz
x,y,z
-x,-y,z
-x,y,z
x,-y,z
loop_
_atom_site_type_symbol
_atom_site_label
_atom_site_fract_x
_atom_site_fract_y
_atom_site_fract_z
Si Si1 0.675571 0.168241 0.377080
Si Si2 0.826612 0.329690 0.948839
Si Si3 0.675782 0.667317 0.230962
Si Si4 0.327009 0.670268 0.796897
Si Si5 0.171011 0.673433 0.512225
Si Si6 0.169602 0.826457 0.664120
Si Si7 0.329777 0.826055 0.082383
O O1 0.500000 0.172880 0.378093
O O2 0.737942 0.244634 0.302248
O O3 0.732912 0.257161 0.447398
O O4 0.734344 0.000000 0.379623
O O5 0.785595 0.500000 0.967164
O O6 0.752038 0.278353 0.872297
O O7 0.000000 0.306593 0.940490
O O8 0.767305 0.225186 0.013431
O O9 0.500000 0.668646 0.232611
O O10 0.737804 0.500000 0.233087
O O11 0.732237 0.746076 0.156083
O O12 0.500000 0.693459 0.807894
O O13 0.287182 0.500000 0.778155
O O14 0.271683 0.773981 0.731065
O O15 0.203415 0.500000 0.516044
O O16 0.222631 0.744274 0.589752
O O17 0.000000 0.708764 0.496822
O O18 0.000000 0.786230 0.682581
O O19 0.191605 0.000000 0.651480
O O20 0.500000 0.782721 0.067526
O O21 0.311242 0.000000 0.094508
#
# Coordination Sequence:
#
# PCOD8166782 Si02
#       7
#     4   4   4   4   4   4   4
#     4  10  20  34  54  81 112 144 179 221 269 320
#     4  10  21  37  57  80 107 141 180 221 266 317
#     4   9  17  31  53  79 107 141 180 222 268 317
#     4  10  21  37  58  83 109 139 177 220 266 317
#     4  10  21  37  57  80 107 142 183 224 267 317
#     4  10  21  37  57  80 107 141 179 219 267 321
#     4  10  20  34  54  80 109 141 178 221 269 320
#
# _framework density 19.107019999999999
#
# number of rings (size 3 to 8) (size 9 to 14) (size 15 to 20)
#    0.000    2.143    0.000    3.000    0.000    8.000 
#    0.000    0.714    0.000    4.286    0.000    0.000 
#    0.000    0.000    0.000    0.000    0.000    0.000 
#
# Total GULP energy -347330.618789 kJ/mol
# GULP energy per Si atom -12404.664957 kJ/mol
# Density = 1.906353 g / cm^3
# Si number density = 19.107020 Si / 1000 Ang^3
#
#
#
# Elastic Constant Matrix: (Units=GPa)
#
#
# Indices 1 2 3 4 5 6 
#
# 1 50.8018 32.4660 43.8521 0.0000 0.0000 0.0000
# 2 32.4660 107.6421 68.5321 0.0000 0.0000 0.0000
# 3 43.8521 68.5321 154.9370 0.0000 0.0000 0.0000
# 4 0.0000 0.0000 0.0000 16.8035 0.0000 0.0000
# 5 0.0000 0.0000 0.0000 0.0000 277.5253 0.0000
# 6 0.0000 0.0000 0.0000 0.0000 0.0000 27.0649
#
#
#
# Elastic Compliance Matrix: (Units=1/GPa)
#
#
# Indices 1 2 3 4 5 6 
#
# 1 0.027638 -0.004671 -0.005756 0.000000 0.000000 0.000000
# 2 -0.004671 0.013721 -0.004747 0.000000 0.000000 0.000000
# 3 -0.005756 -0.004747 0.010183 0.000000 0.000000 0.000000
# 4 0.000000 0.000000 0.000000 0.059511 0.000000 0.000000
# 5 0.000000 0.000000 0.000000 0.000000 0.003603 0.000000
# 6 0.000000 0.000000 0.000000 0.000000 0.000000 0.036948
#
#
# Mechanical properties :
#
#
# Convention : Reuss Voigt Hill
#
# Bulk Modulus (GPa) = 47.18411 67.00905 57.09658
# Shear Modulus (GPa) = 26.45227 75.51413 50.98320
#
# Velocity S-wave (km/s) = 3.72483 6.29345 5.17116
# Velocity P-wave (km/s) = 6.57627 9.37851 8.09950
#
# Compressibility (1/GPa) = 0.02119357
#
# Stress axis : x y z
#
# Youngs Moduli (GPa) = 36.18146 72.87965 98.20041
#
# Poissons Ratio (x) = 0.34043 0.56528
# Poissons Ratio (y) = 0.16901 0.46617
# Poissons Ratio (z) = 0.20828 0.34597
#
# Static dielectric constant tensor:
#      x y z
#    x 3.234080 0.000000 0.000000 
#    y 0.000000 3.643630 0.000000 
#    z 0.000000 0.000000 3.625390 
# 
# 
# High freq. dielectric constant tensor:
#      x y z
#    x 1.721700 0.000000 0.000000 
#    y 0.000000 1.753220 0.000000 
#    z 0.000000 0.000000 1.757480 
# 
# From -- ./inp_files/6028.got.cif
#   From: 2010.03.12/outbox.cif.g09.slc.cpg/sg25_4_cif.got.tgz:6028.got - 2010.04.14 03:30:10.
