data_PCOD8166418
_publ_section_title
;
Structure prediction by ZEFSAII (Michael W. Deem and Ramdas Pophale) SiO2 
 PCOD8166418
Probable space group: P M M 2
;
_chemical_formula_sum "Si O2"
_cell_formula_units_Z 32
_cell_length_a 15.392245
_cell_length_b 8.873428
_cell_length_c 11.895059
_cell_angle_alpha 90.000000
_cell_angle_beta 90.000000
_cell_angle_gamma 90.000000
_cell_volume 1624.650684
_symmetry_space_group_name_H-M "P M M 2"
_symmetry_group_IT_number 25
_symmetry_cell_setting 'orthorhombic'
loop_
_space_group_symop_operation_xyz
x,y,z
-x,-y,z
-x,y,z
x,-y,z
loop_
_atom_site_type_symbol
_atom_site_label
_atom_site_fract_x
_atom_site_fract_y
_atom_site_fract_z
Si Si1 0.598314 0.827886 0.766530
Si Si2 0.649775 0.323229 0.539507
Si Si3 0.904385 0.178687 0.779096
Si Si4 0.597257 0.172419 0.319568
Si Si5 0.097890 0.827679 0.302532
Si Si6 0.250884 0.822476 0.935210
Si Si7 0.168313 0.826515 0.542966
Si Si8 0.253411 0.677311 0.176645
O O1 0.500000 0.808371 0.810679
O O2 0.613458 0.722134 0.660396
O O3 0.662553 0.780452 0.866399
O O4 0.617460 0.000000 0.730128
O O5 0.639273 0.500000 0.523554
O O6 0.594277 0.241035 0.444052
O O7 0.749303 0.278229 0.523850
O O8 0.832836 0.238280 0.866675
O O9 0.881492 0.232157 0.653259
O O10 0.000000 0.242194 0.811283
O O11 0.905401 0.000000 0.782048
O O12 0.500000 0.183878 0.268914
O O13 0.663167 0.259108 0.240012
O O14 0.628527 0.000000 0.327134
O O15 0.105652 0.807892 0.436566
O O16 0.164232 0.722464 0.236858
O O17 0.000000 0.782578 0.267899
O O18 0.117510 0.000000 0.268360
O O19 0.244876 0.000000 0.958607
O O20 0.253861 0.735214 0.050629
O O21 0.198503 0.000000 0.558301
O O22 0.260901 0.500000 0.177243
#
# Coordination Sequence:
#
# PCOD8166418 Si02
#       8
#     4   4   4   4   4   4   4   4
#     4  10  21  39  63  89 117 154 201 248 293 347
#     4  12  23  35  58  92 129 162 192 235 300 368
#     4   9  17  32  59  92 119 147 193 249 295 339
#     4  11  24  43  67  91 117 155 204 254 302 359
#     4  10  21  38  64  94 122 159 207 253 297 355
#     4  10  21  39  61  86 116 156 207 254 293 347
#     4  10  18  34  61  90 122 157 196 243 297 356
#     4  12  26  42  61  88 124 163 200 250 313 370
#
# _framework density 19.696542000000001
#
# number of rings (size 3 to 8) (size 9 to 14) (size 15 to 20)
#    0.000    1.500    2.500    3.375    0.000    6.000 
#    0.000    2.500    0.000    1.875    0.000    0.000 
#    0.000    0.000    0.000    0.000    0.000    0.000 
#
# Total GULP energy -396892.185789 kJ/mol
# GULP energy per Si atom -12402.880806 kJ/mol
# Density = 1.965171 g / cm^3
# Si number density = 19.696542 Si / 1000 Ang^3
#
#
#
# Elastic Constant Matrix: (Units=GPa)
#
#
# Indices 1 2 3 4 5 6 
#
# 1 148.5504 52.0487 65.1933 0.0000 0.0000 0.0000
# 2 52.0487 103.3190 68.1626 0.0000 0.0000 0.0000
# 3 65.1933 68.1626 137.1452 0.0000 0.0000 0.0000
# 4 0.0000 0.0000 0.0000 2.0154 0.0000 0.0000
# 5 0.0000 0.0000 0.0000 0.0000 2.4192 0.0000
# 6 0.0000 0.0000 0.0000 0.0000 0.0000 5.6307
#
#
#
# Elastic Compliance Matrix: (Units=1/GPa)
#
#
# Indices 1 2 3 4 5 6 
#
# 1 0.008928 -0.002526 -0.002989 0.000000 0.000000 0.000000
# 2 -0.002526 0.015115 -0.006312 0.000000 0.000000 0.000000
# 3 -0.002989 -0.006312 0.011849 0.000000 0.000000 0.000000
# 4 0.000000 0.000000 0.000000 0.496175 0.000000 0.000000
# 5 0.000000 0.000000 0.000000 0.000000 0.413353 0.000000
# 6 0.000000 0.000000 0.000000 0.000000 0.000000 0.177598
#
#
# Mechanical properties :
#
#
# Convention : Reuss Voigt Hill
#
# Bulk Modulus (GPa) = 81.69932 84.42489 83.06210
# Shear Modulus (GPa) = 4.34498 15.58706 9.96602
#
# Velocity S-wave (km/s) = 1.48686 2.81616 2.25184
# Velocity P-wave (km/s) = 6.67209 7.31644 7.00168
#
# Compressibility (1/GPa) = 0.01224000
#
# Stress axis : x y z
#
# Youngs Moduli (GPa) = 112.00142 66.15802 84.39367
#
# Poissons Ratio (x) = 0.16712 0.25223
# Poissons Ratio (y) = 0.28293 0.53266
# Poissons Ratio (z) = 0.33474 0.41757
#
# Static dielectric constant tensor:
#      x y z
#    x 3.879360 0.000000 0.000000 
#    y 0.000000 3.383760 0.000000 
#    z 0.000000 0.000000 3.607960 
# 
# 
# High freq. dielectric constant tensor:
#      x y z
#    x 1.784260 0.000000 0.000000 
#    y 0.000000 1.744370 0.000000 
#    z 0.000000 0.000000 1.766940 
# 
# From -- ./inp_files/4197.got.cif
#   From: 2010.03.12/outbox.cif.g09.slc.cpg/sg25_3_cif.got.tgz:4197.got - 2010.04.14 03:30:10.
