data_PCOD8166146
_publ_section_title
;
Structure prediction by ZEFSAII (Michael W. Deem and Ramdas Pophale) SiO2 
 PCOD8166146
Probable space group: I 21 21 21
;
_chemical_formula_sum "Si O2"
_cell_formula_units_Z 40
_cell_length_a 8.588387
_cell_length_b 16.456311
_cell_length_c 11.712966
_cell_angle_alpha 90.000000
_cell_angle_beta 90.000000
_cell_angle_gamma 90.000000
_cell_volume 1655.430585
_symmetry_space_group_name_H-M "I 21 21 21"
_symmetry_group_IT_number 24
_symmetry_cell_setting 'orthorhombic'
loop_
_space_group_symop_operation_xyz
x,y,z
-x,1/2-y,z
x,-y,1/2-z
1/2-x,y,-z
1/2+x,1/2+y,1/2+z
1/2-x,-y,1/2+z
1/2+x,1/2-y,-z
-x,1/2+y,1/2-z
loop_
_atom_site_type_symbol
_atom_site_label
_atom_site_fract_x
_atom_site_fract_y
_atom_site_fract_z
Si Si1 0.947828 0.089180 0.204546
Si Si2 0.408666 0.667072 0.943732
Si Si3 0.197031 0.888745 0.674098
Si Si4 0.750000 0.134456 0.000000
Si Si5 0.385835 0.948766 0.078244
Si Si6 0.500000 0.750000 0.411164
O O1 0.896570 0.146356 0.309373
O O2 0.116487 0.116999 0.154717
O O3 0.979226 0.000000 0.250000
O O4 0.804404 0.083909 0.112431
O O5 0.500000 0.750000 0.959958
O O6 0.250000 0.691961 0.000000
O O7 0.462208 0.588165 0.018441
O O8 0.148818 0.915001 0.798551
O O9 0.126418 0.799258 0.662071
O O10 0.115479 0.952290 0.584686
O O11 0.903525 0.188081 0.986841
O O12 0.250000 0.914956 0.000000
#
# Coordination Sequence:
#
# PCOD8166146 Si02
#       6
#     8   8   8   4   8   4
#     4  12  28  54  79 112 160 207 261 325 392 468
#     4  12  30  48  81 115 161 205 261 325 392 465
#     4  11  26  47  81 112 154 205 258 318 390 464
#     4  12  32  50  78 114 156 204 260 322 394 462
#     4  11  23  48  78 111 147 207 258 313 390 460
#     4  12  30  48  78 112 160 196 262 316 386 468
#
# _framework density 24.162897000000001
#
# number of rings (size 3 to 8) (size 9 to 14) (size 15 to 20)
#    0.000    0.400    4.000    1.800   16.800    0.000 
#    0.000    0.000    0.000    0.000    0.000    0.000 
#    0.000    0.000    0.000    0.000    0.000    0.000 
#
# Total GULP energy -247884.938851 kJ/mol
# GULP energy per Si atom -12394.246943 kJ/mol
# Density = 2.410790 g / cm^3
# Si number density = 24.162897 Si / 1000 Ang^3
#
#
#
# Elastic Constant Matrix: (Units=GPa)
#
#
# Indices 1 2 3 4 5 6 
#
# 1 138.5484 54.5891 59.4018 0.0000 0.0000 0.0000
# 2 54.5891 102.1540 41.1875 0.0000 0.0000 0.0000
# 3 59.4018 41.1875 123.8310 0.0001 0.0000 0.0000
# 4 0.0000 0.0000 0.0001 22.3260 0.0000 0.0000
# 5 0.0000 0.0000 0.0000 0.0000 39.5129 0.0000
# 6 0.0000 0.0000 0.0000 0.0000 0.0000 32.8903
#
#
#
# Elastic Compliance Matrix: (Units=1/GPa)
#
#
# Indices 1 2 3 4 5 6 
#
# 1 0.010380 -0.004087 -0.003620 0.000000 0.000000 0.000000
# 2 -0.004087 0.012915 -0.002335 0.000000 0.000000 0.000000
# 3 -0.003620 -0.002335 0.010589 0.000000 0.000000 0.000000
# 4 0.000000 0.000000 0.000000 0.044791 0.000000 0.000000
# 5 0.000000 0.000000 0.000000 0.000000 0.025308 0.000000
# 6 0.000000 0.000000 0.000000 0.000000 0.000000 0.030404
#
#
# Mechanical properties :
#
#
# Convention : Reuss Voigt Hill
#
# Bulk Modulus (GPa) = 72.46784 74.98779 73.72782
# Shear Modulus (GPa) = 31.43258 32.90285 32.16771
#
# Velocity S-wave (km/s) = 3.61066 3.69414 3.65264
# Velocity P-wave (km/s) = 6.88759 7.02120 6.95472
#
# Compressibility (1/GPa) = 0.01379922
#
# Stress axis : x y z
#
# Youngs Moduli (GPa) = 96.33755 77.43060 94.44173
#
# Poissons Ratio (x) = 0.31650 0.34186
# Poissons Ratio (y) = 0.39378 0.22051
# Poissons Ratio (z) = 0.34873 0.18079
#
# Static dielectric constant tensor:
#      x y z
#    x 4.410870 0.000000 0.000000 
#    y 0.000000 4.695950 0.000000 
#    z 0.000000 0.000000 5.222890 
# 
# 
# High freq. dielectric constant tensor:
#      x y z
#    x 1.961430 0.000000 0.000000 
#    y 0.000000 1.966660 0.000000 
#    z 0.000000 0.000000 1.972160 
# 
# From -- ./inp_files/18250.got.cif
#   From: 2010.03.12/outbox.cif.g09.slc.cpg/sg24_10_cif.got.tgz:18250.got - 2010.04.14 03:06:53.
