data_PCOD8166783
_publ_section_title
;
Structure prediction by ZEFSAII (Michael W. Deem and Ramdas Pophale) SiO2 
 PCOD8166783
Probable space group: P M M 2
;
_chemical_formula_sum "Si O2"
_cell_formula_units_Z 28
_cell_length_a 8.971509
_cell_length_b 9.141233
_cell_length_c 17.939512
_cell_angle_alpha 90.000000
_cell_angle_beta 90.000000
_cell_angle_gamma 90.000000
_cell_volume 1471.231114
_symmetry_space_group_name_H-M "P M M 2"
_symmetry_group_IT_number 25
_symmetry_cell_setting 'orthorhombic'
loop_
_space_group_symop_operation_xyz
x,y,z
-x,-y,z
-x,y,z
x,-y,z
loop_
_atom_site_type_symbol
_atom_site_label
_atom_site_fract_x
_atom_site_fract_y
_atom_site_fract_z
Si Si1 0.828837 0.828156 0.521070
Si Si2 0.170915 0.331489 0.371909
Si Si3 0.325268 0.668090 0.654135
Si Si4 0.327243 0.670508 0.220232
Si Si5 0.172042 0.172240 0.086622
Si Si6 0.675181 0.330999 0.951201
Si Si7 0.831950 0.326108 0.802439
O O1 0.777550 0.764866 0.441742
O O2 0.724904 0.761775 0.584102
O O3 0.000000 0.784885 0.537408
O O4 0.805320 0.000000 0.519202
O O5 0.192474 0.500000 0.394267
O O6 0.275740 0.288096 0.303215
O O7 0.000000 0.298671 0.349773
O O8 0.500000 0.683822 0.665638
O O9 0.278424 0.500000 0.640770
O O10 0.247792 0.733074 0.728163
O O11 0.500000 0.711048 0.210845
O O12 0.298708 0.500000 0.203884
O O13 0.229479 0.764208 0.164099
O O14 0.000000 0.215235 0.075976
O O15 0.195842 0.000000 0.087631
O O16 0.266760 0.238498 0.019914
O O17 0.500000 0.311005 0.944071
O O18 0.718735 0.500000 0.964141
O O19 0.748165 0.267783 0.875754
O O20 0.826141 0.500000 0.802161
O O21 0.000000 0.266155 0.803717
#
# Coordination Sequence:
#
# PCOD8166783 Si02
#       7
#     4   4   4   4   4   4   4
#     4  10  21  36  54  78 109 144 181 221 266 318
#     4   9  18  34  56  80 107 141 180 221 265 315
#     4  10  20  34  54  80 109 141 179 224 271 318
#     4  10  21  37  58  84 111 139 175 220 269 320
#     4  11  24  39  55  78 109 145 184 223 264 314
#     4  10  20  35  57  84 112 141 176 220 269 320
#     4   9  17  31  54  82 109 139 177 221 268 317
#
# _framework density 19.031680000000001
#
# number of rings (size 3 to 8) (size 9 to 14) (size 15 to 20)
#    0.000    2.143    0.000    3.000    0.000    9.143 
#    0.000    3.571    0.000    4.286    0.000    0.000 
#    0.000    0.000    0.000    0.000    0.000    0.000 
#
# Total GULP energy -347318.526306 kJ/mol
# GULP energy per Si atom -12404.233082 kJ/mol
# Density = 1.898836 g / cm^3
# Si number density = 19.031680 Si / 1000 Ang^3
#
#
#
# Elastic Constant Matrix: (Units=GPa)
#
#
# Indices 1 2 3 4 5 6 
#
# 1 83.6692 37.1294 49.3496 0.0000 0.0000 0.0000
# 2 37.1294 58.7694 48.9630 0.0000 0.0000 0.0000
# 3 49.3496 48.9630 128.0974 0.0000 0.0000 0.0000
# 4 0.0000 0.0000 0.0000 -13.5321 0.0000 0.0000
# 5 0.0000 0.0000 0.0000 0.0000 31.6954 0.0000
# 6 0.0000 0.0000 0.0000 0.0000 0.0000 24.2695
#
#
#
# Elastic Compliance Matrix: (Units=1/GPa)
#
#
# Indices 1 2 3 4 5 6 
#
# 1 0.017753 -0.008096 -0.003745 0.000000 0.000000 0.000000
# 2 -0.008096 0.028658 -0.007835 0.000000 0.000000 0.000000
# 3 -0.003745 -0.007835 0.012244 0.000000 0.000000 0.000000
# 4 0.000000 0.000000 0.000000 -0.073899 0.000000 0.000000
# 5 0.000000 0.000000 0.000000 0.000000 0.031550 0.000000
# 6 0.000000 0.000000 0.000000 0.000000 0.000000 0.041204
#
#
# Mechanical properties :
#
#
# Convention : Reuss Voigt Hill
#
# Bulk Modulus (GPa) = 51.80407 60.15775 55.98091
# Shear Modulus (GPa) = 48.40330 17.49284 32.94807
#
# Velocity S-wave (km/s) = 5.04859 3.03503 4.16531
# Velocity P-wave (km/s) = 7.82709 6.63021 7.25338
#
# Compressibility (1/GPa) = 0.01930350
#
# Stress axis : x y z
#
# Youngs Moduli (GPa) = 56.32706 34.89371 81.67204
#
# Poissons Ratio (x) = 0.28251 0.30585
# Poissons Ratio (y) = 0.45604 0.63991
# Poissons Ratio (z) = 0.21094 0.27340
#
# Static dielectric constant tensor:
#      x y z
#    x 3.573660 0.000000 0.000000 
#    y 0.000000 3.293970 0.000000 
#    z 0.000000 0.000000 3.612280 
# 
# 
# High freq. dielectric constant tensor:
#      x y z
#    x 1.748700 0.000000 0.000000 
#    y 0.000000 1.716510 0.000000 
#    z 0.000000 0.000000 1.755270 
# 
# From -- ./inp_files/6055.got.cif
#   From: 2010.03.12/outbox.cif.g09.slc.cpg/sg25_4_cif.got.tgz:6055.got - 2010.04.14 03:30:10.
