data_PCOD8166540
_publ_section_title
;
Structure prediction by ZEFSAII (Michael W. Deem and Ramdas Pophale) SiO2 
 PCOD8166540
Probable space group: P M M 2
;
_chemical_formula_sum "Si O2"
_cell_formula_units_Z 32
_cell_length_a 14.502647
_cell_length_b 8.921390
_cell_length_c 12.438560
_cell_angle_alpha 90.000000
_cell_angle_beta 90.000000
_cell_angle_gamma 90.000000
_cell_volume 1609.347785
_symmetry_space_group_name_H-M "P M M 2"
_symmetry_group_IT_number 25
_symmetry_cell_setting 'orthorhombic'
loop_
_space_group_symop_operation_xyz
x,y,z
-x,-y,z
-x,y,z
x,-y,z
loop_
_atom_site_type_symbol
_atom_site_label
_atom_site_fract_x
_atom_site_fract_y
_atom_site_fract_z
Si Si1 0.603971 0.325063 0.839030
Si Si2 0.363221 0.332334 0.077591
Si Si3 0.795915 0.822535 0.363709
Si Si4 0.157528 0.331568 0.150345
Si Si5 0.899276 0.167871 0.953062
Si Si6 0.778435 0.177867 0.756615
Si Si7 0.599612 0.173689 0.291253
Si Si8 0.107159 0.322408 0.565512
O O1 0.500000 0.298013 0.796741
O O2 0.630602 0.500000 0.836163
O O3 0.673109 0.235933 0.760201
O O4 0.611734 0.263165 0.961309
O O5 0.403113 0.500000 0.083931
O O6 0.254769 0.329679 0.091719
O O7 0.409843 0.240490 0.172632
O O8 0.845293 0.776998 0.252901
O O9 0.687978 0.766108 0.358844
O O10 0.848699 0.735151 0.455699
O O11 0.803922 0.000000 0.382687
O O12 0.128743 0.500000 0.184875
O O13 0.090211 0.268509 0.059416
O O14 0.826876 0.231160 0.866823
O O15 0.000000 0.167252 0.897591
O O16 0.869531 0.000000 0.987112
O O17 0.834258 0.250655 0.660221
O O18 0.780046 0.000000 0.741433
O O19 0.500000 0.204308 0.349685
O O20 0.617588 0.000000 0.274488
O O21 0.116296 0.500000 0.570861
O O22 0.000000 0.272848 0.572518
#
# Coordination Sequence:
#
# PCOD8166540 Si02
#       8
#     4   4   4   4   4   4   4   4
#     4  10  20  35  56  84 121 162 202 244 292 347
#     4   9  17  30  50  78 115 158 199 237 279 332
#     4  10  21  38  61  87 118 154 194 241 296 351
#     4  10  19  33  55  83 118 156 194 239 289 344
#     4  10  21  36  55  82 116 153 191 234 291 357
#     4  11  23  40  63  88 119 154 195 247 300 357
#     4   9  18  32  52  82 119 156 194 235 281 337
#     4  11  25  45  68  90 112 145 195 251 304 361
#
# _framework density 19.883832000000002
#
# number of rings (size 3 to 8) (size 9 to 14) (size 15 to 20)
#    0.000    2.000    1.250    2.250    0.000    5.250 
#    0.000    0.625    0.000    2.250    0.000    0.000 
#    0.000    0.000    0.000    0.000    0.000    0.000 
#
# Total GULP energy -396679.791543 kJ/mol
# GULP energy per Si atom -12396.243486 kJ/mol
# Density = 1.983858 g / cm^3
# Si number density = 19.883832 Si / 1000 Ang^3
#
#
#
# Elastic Constant Matrix: (Units=GPa)
#
#
# Indices 1 2 3 4 5 6 
#
# 1 130.1911 43.3690 62.4483 0.0000 0.0000 0.0000
# 2 43.3690 63.5086 36.8814 0.0000 0.0000 0.0000
# 3 62.4483 36.8814 102.1860 0.0000 0.0000 0.0000
# 4 0.0000 0.0000 0.0000 34.2572 0.0000 0.0000
# 5 0.0000 0.0000 0.0000 0.0000 19.5486 0.0000
# 6 0.0000 0.0000 0.0000 0.0000 0.0000 23.0540
#
#
#
# Elastic Compliance Matrix: (Units=1/GPa)
#
#
# Indices 1 2 3 4 5 6 
#
# 1 0.011993 -0.004977 -0.005533 0.000000 0.000000 0.000000
# 2 -0.004977 0.021986 -0.004894 0.000000 0.000000 0.000000
# 3 -0.005533 -0.004894 0.014934 0.000000 0.000000 0.000000
# 4 0.000000 0.000000 0.000000 0.029191 0.000000 0.000000
# 5 0.000000 0.000000 0.000000 0.000000 0.051154 0.000000
# 6 0.000000 0.000000 0.000000 0.000000 0.000000 0.043376
#
#
# Mechanical properties :
#
#
# Convention : Reuss Voigt Hill
#
# Bulk Modulus (GPa) = 55.23091 64.58700 59.90896
# Shear Modulus (GPa) = 23.86893 25.58444 24.72668
#
# Velocity S-wave (km/s) = 3.46847 3.59095 3.53024
# Velocity P-wave (km/s) = 6.62400 7.05308 6.84190
#
# Compressibility (1/GPa) = 0.01810580
#
# Stress axis : x y z
#
# Youngs Moduli (GPa) = 83.38389 45.48251 66.96219
#
# Poissons Ratio (x) = 0.22634 0.37050
# Poissons Ratio (y) = 0.41496 0.32773
# Poissons Ratio (z) = 0.46135 0.22260
#
# Static dielectric constant tensor:
#      x y z
#    x 3.865310 0.000000 0.000000 
#    y 0.000000 3.625060 0.000000 
#    z 0.000000 0.000000 3.445650 
# 
# 
# High freq. dielectric constant tensor:
#      x y z
#    x 1.790650 0.000000 0.000000 
#    y 0.000000 1.772810 0.000000 
#    z 0.000000 0.000000 1.751730 
# 
# From -- ./inp_files/4203.got.cif
#   From: 2010.03.12/outbox.cif.g09.slc.cpg/sg25_3_cif.got.tgz:4203.got - 2010.04.14 03:30:10.
