data_PCOD8166977
_publ_section_title
;
Structure prediction by ZEFSAII (Michael W. Deem and Ramdas Pophale) SiO2 
 PCOD8166977
Probable space group: P M M 2
;
_chemical_formula_sum "Si O2"
_cell_formula_units_Z 32
_cell_length_a 15.346295
_cell_length_b 8.555026
_cell_length_c 11.822546
_cell_angle_alpha 90.000000
_cell_angle_beta 90.000000
_cell_angle_gamma 90.000000
_cell_volume 1552.157860
_symmetry_space_group_name_H-M "P M M 2"
_symmetry_group_IT_number 25
_symmetry_cell_setting 'orthorhombic'
loop_
_space_group_symop_operation_xyz
x,y,z
-x,-y,z
-x,y,z
x,-y,z
loop_
_atom_site_type_symbol
_atom_site_label
_atom_site_fract_x
_atom_site_fract_y
_atom_site_fract_z
Si Si1 0.598455 0.320837 0.574380
Si Si2 0.901413 0.179024 0.039020
Si Si3 0.147999 0.679858 0.809851
Si Si4 0.597475 0.679902 0.017821
Si Si5 0.665495 0.819935 0.798007
Si Si6 0.096995 0.179468 0.579249
Si Si7 0.255670 0.818034 0.424581
Si Si8 0.751156 0.318681 0.181530
O O1 0.500000 0.295048 0.530941
O O2 0.614718 0.500000 0.608965
O O3 0.613369 0.213647 0.683534
O O4 0.662283 0.276037 0.472485
O O5 0.837568 0.291173 0.108234
O O6 0.000000 0.207252 0.081182
O O7 0.873399 0.000000 0.058804
O O8 0.896069 0.215939 0.906286
O O9 0.132271 0.500000 0.840235
O O10 0.250270 0.711578 0.802708
O O11 0.103345 0.717161 0.691069
O O12 0.500000 0.702317 0.066883
O O13 0.615523 0.500000 0.985608
O O14 0.605193 0.783098 0.905188
O O15 0.666470 0.736474 0.111310
O O16 0.694051 0.000000 0.799418
O O17 0.167345 0.236770 0.487495
O O18 0.000000 0.200048 0.527369
O O19 0.115106 0.000000 0.612553
O O20 0.244190 0.784425 0.293138
O O21 0.272664 0.000000 0.443918
O O22 0.744699 0.500000 0.214206
#
# Coordination Sequence:
#
# PCOD8166977 Si02
#       8
#     4   4   4   4   4   4   4   4
#     4  11  24  42  65  93 127 166 207 256 314 371
#     4  11  24  42  65  93 127 166 207 256 314 371
#     4  12  23  37  62  94 128 164 203 251 311 373
#     4  10  22  41  64  91 124 163 205 251 309 372
#     4  12  23  37  62  94 128 164 203 251 311 373
#     4  10  22  41  64  91 124 163 205 251 309 372
#     4  11  24  42  65  91 124 167 211 261 311 365
#     4  11  24  42  65  91 124 167 211 261 311 365
#
# _framework density 20.61646
#
# number of rings (size 3 to 8) (size 9 to 14) (size 15 to 20)
#    0.000    1.000    2.500    4.500    0.000    7.500 
#    0.000    2.500    0.000    0.000    0.000    0.000 
#    0.000    0.000    0.000    0.000    0.000    0.000 
#
# Total GULP energy -397016.587928 kJ/mol
# GULP energy per Si atom -12406.768373 kJ/mol
# Density = 2.056954 g / cm^3
# Si number density = 20.616460 Si / 1000 Ang^3
#
#
#
# Elastic Constant Matrix: (Units=GPa)
#
#
# Indices 1 2 3 4 5 6 
#
# 1 141.3474 30.1351 45.7717 0.0000 0.0000 0.0000
# 2 30.1351 61.6914 16.7038 0.0000 0.0000 0.0000
# 3 45.7717 16.7038 112.3408 0.0000 0.0000 0.0000
# 4 0.0000 0.0000 0.0000 35.1175 0.0000 0.0000
# 5 0.0000 0.0000 0.0000 0.0000 12.4880 0.0000
# 6 0.0000 0.0000 0.0000 0.0000 0.0000 26.9479
#
#
#
# Elastic Compliance Matrix: (Units=1/GPa)
#
#
# Indices 1 2 3 4 5 6 
#
# 1 0.008810 -0.003471 -0.003073 0.000000 0.000000 0.000000
# 2 -0.003471 0.018258 -0.001300 0.000000 0.000000 0.000000
# 3 -0.003073 -0.001300 0.010347 0.000000 0.000000 0.000000
# 4 0.000000 0.000000 0.000000 0.028476 0.000000 0.000000
# 5 0.000000 0.000000 0.000000 0.000000 0.080077 0.000000
# 6 0.000000 0.000000 0.000000 0.000000 0.000000 0.037109
#
#
# Mechanical properties :
#
#
# Convention : Reuss Voigt Hill
#
# Bulk Modulus (GPa) = 46.03113 55.62233 50.82673
# Shear Modulus (GPa) = 24.27095 29.76195 27.01645
#
# Velocity S-wave (km/s) = 3.43485 3.80360 3.62391
# Velocity P-wave (km/s) = 6.17306 6.80646 6.49749
#
# Compressibility (1/GPa) = 0.02172443
#
# Stress axis : x y z
#
# Youngs Moduli (GPa) = 113.50599 54.77196 96.64602
#
# Poissons Ratio (x) = 0.19014 0.29703
# Poissons Ratio (y) = 0.39403 0.12567
# Poissons Ratio (z) = 0.34885 0.07122
#
# Static dielectric constant tensor:
#      x y z
#    x 3.877450 0.000000 0.000000 
#    y 0.000000 3.673690 0.000000 
#    z 0.000000 0.000000 3.567560 
# 
# 
# High freq. dielectric constant tensor:
#      x y z
#    x 1.820400 0.000000 0.000000 
#    y 0.000000 1.809040 0.000000 
#    z 0.000000 0.000000 1.796060 
# 
# From -- ./inp_files/4931.got.cif
#   From: 2010.03.12/outbox.cif.g09.slc.cpg/sg25_3_cif.got.tgz:4931.got - 2010.04.14 03:30:10.
