data_PCOD8166967
_publ_section_title
;
Structure prediction by ZEFSAII (Michael W. Deem and Ramdas Pophale) SiO2 
 PCOD8166967
Probable space group: P M M 2
;
_chemical_formula_sum "Si O2"
_cell_formula_units_Z 24
_cell_length_a 12.686991
_cell_length_b 8.684701
_cell_length_c 11.712776
_cell_angle_alpha 90.000000
_cell_angle_beta 90.000000
_cell_angle_gamma 90.000000
_cell_volume 1290.545559
_symmetry_space_group_name_H-M "P M M 2"
_symmetry_group_IT_number 25
_symmetry_cell_setting 'orthorhombic'
loop_
_space_group_symop_operation_xyz
x,y,z
-x,-y,z
-x,y,z
x,-y,z
loop_
_atom_site_type_symbol
_atom_site_label
_atom_site_fract_x
_atom_site_fract_y
_atom_site_fract_z
Si Si1 0.311782 0.181196 0.105500
Si Si2 0.623165 0.680111 0.332366
Si Si3 0.311537 0.680377 0.582693
Si Si4 0.500000 0.180080 0.722725
Si Si5 0.121755 0.820902 0.704781
Si Si6 0.500000 0.320578 0.968117
Si Si7 0.884729 0.182282 0.960751
O O1 0.313177 0.221589 0.239033
O O2 0.331697 0.000000 0.086394
O O3 0.398983 0.281251 0.042849
O O4 0.200025 0.235797 0.053823
O O5 0.500000 0.719745 0.324708
O O6 0.643368 0.500000 0.311923
O O7 0.667130 0.735745 0.453984
O O8 0.328529 0.500000 0.591712
O O9 0.394391 0.756409 0.667203
O O10 0.193274 0.725680 0.617210
O O11 0.500000 0.219760 0.855257
O O12 0.500000 0.000000 0.707258
O O13 0.146060 0.761388 0.833359
O O14 0.000000 0.790479 0.673520
O O15 0.149974 0.000000 0.692636
O O16 0.500000 0.500000 0.936758
O O17 0.000000 0.248949 0.995073
O O18 0.891880 0.000000 0.955649
#
# Coordination Sequence:
#
# PCOD8166967 Si02
#       7
#     4   4   4   2   4   2   4
#     4  11  21  34  57  86 111 140 189 236 275 328
#     4  10  21  39  57  74 108 155 191 225 278 341
#     4  11  22  38  58  81 111 148 192 234 285 346
#     4  12  24  37  56  83 114 143 181 235 289 340
#     4   9  18  35  59  85 114 149 187 229 284 343
#     4  12  24  37  54  79 116 151 179 221 281 342
#     4   8  16  33  56  81 111 144 175 218 276 331
#
# _framework density 18.596786000000002
#
# number of rings (size 3 to 8) (size 9 to 14) (size 15 to 20)
#    0.000    1.833    1.667    4.500    0.000    3.000 
#    0.000    1.667    0.000    7.000    0.000    0.000 
#    0.000    0.000    0.000    0.000    0.000    0.000 
#
# Total GULP energy -297649.119618 kJ/mol
# GULP energy per Si atom -12402.046651 kJ/mol
# Density = 1.855446 g / cm^3
# Si number density = 18.596786 Si / 1000 Ang^3
#
#
#
# Elastic Constant Matrix: (Units=GPa)
#
#
# Indices 1 2 3 4 5 6 
#
# 1 109.0244 16.9306 54.8077 0.0000 0.0000 0.0000
# 2 16.9306 40.0899 13.2721 0.0000 0.0000 0.0000
# 3 54.8077 13.2721 113.8775 0.0000 0.0000 0.0000
# 4 0.0000 0.0000 0.0000 31.2108 0.0000 0.0000
# 5 0.0000 0.0000 0.0000 0.0000 153.6352 0.0000
# 6 0.0000 0.0000 0.0000 0.0000 0.0000 16.7918
#
#
#
# Elastic Compliance Matrix: (Units=1/GPa)
#
#
# Indices 1 2 3 4 5 6 
#
# 1 0.012537 -0.003429 -0.005634 0.000000 0.000000 0.000000
# 2 -0.003429 0.026883 -0.001483 0.000000 0.000000 0.000000
# 3 -0.005634 -0.001483 0.011666 0.000000 0.000000 0.000000
# 4 0.000000 0.000000 0.000000 0.032040 0.000000 0.000000
# 5 0.000000 0.000000 0.000000 0.000000 0.006509 0.000000
# 6 0.000000 0.000000 0.000000 0.000000 0.000000 0.059553
#
#
# Mechanical properties :
#
#
# Convention : Reuss Voigt Hill
#
# Bulk Modulus (GPa) = 33.34053 48.11250 40.72651
# Shear Modulus (GPa) = 27.73483 52.19298 39.96390
#
# Velocity S-wave (km/s) = 3.86603 5.30344 4.64073
# Velocity P-wave (km/s) = 6.15591 7.96427 7.11775
#
# Compressibility (1/GPa) = 0.02999353
#
# Stress axis : x y z
#
# Youngs Moduli (GPa) = 79.76230 37.19813 85.72001
#
# Poissons Ratio (x) = 0.12757 0.48297
# Poissons Ratio (y) = 0.27354 0.12709
# Poissons Ratio (z) = 0.44941 0.05515
#
# Static dielectric constant tensor:
#      x y z
#    x -0.246300 0.000000 0.000000 
#    y 0.000000 3.253350 0.000000 
#    z 0.000000 0.000000 3.529830 
# 
# 
# High freq. dielectric constant tensor:
#      x y z
#    x 1.724770 0.000000 0.000000 
#    y 0.000000 1.709910 0.000000 
#    z 0.000000 0.000000 1.724460 
# 
# From -- ./inp_files/4558.got.cif
#   From: 2010.03.12/outbox.cif.g09.slc.cpg/sg25_3_cif.got.tgz:4558.got - 2010.04.14 03:30:10.
