data_PCOD8166924
_publ_section_title
;
Structure prediction by ZEFSAII (Michael W. Deem and Ramdas Pophale) SiO2 
 PCOD8166924
Probable space group: P M M 2
;
_chemical_formula_sum "Si O2"
_cell_formula_units_Z 32
_cell_length_a 8.976856
_cell_length_b 13.627236
_cell_length_c 12.947575
_cell_angle_alpha 90.000000
_cell_angle_beta 90.000000
_cell_angle_gamma 90.000000
_cell_volume 1583.873422
_symmetry_space_group_name_H-M "P M M 2"
_symmetry_group_IT_number 25
_symmetry_cell_setting 'orthorhombic'
loop_
_space_group_symop_operation_xyz
x,y,z
-x,-y,z
-x,y,z
x,-y,z
loop_
_atom_site_type_symbol
_atom_site_label
_atom_site_fract_x
_atom_site_fract_y
_atom_site_fract_z
Si Si1 0.167943 0.883534 0.419170
Si Si2 0.825402 0.790254 0.816298
Si Si3 0.324392 0.208735 0.225354
Si Si4 0.171203 0.885040 0.033626
Si Si5 0.668761 0.116487 0.622131
Si Si6 0.325825 0.387776 0.737181
Si Si7 0.164750 0.383583 0.534942
Si Si8 0.825484 0.611132 0.305764
O O1 0.257134 0.854713 0.317611
O O2 0.244203 0.839306 0.522699
O O3 0.000000 0.841761 0.412013
O O4 0.166315 0.000000 0.425929
O O5 0.747700 0.851623 0.726706
O O6 0.762171 0.678989 0.818928
O O7 0.000000 0.789384 0.795827
O O8 0.784678 0.839442 0.924185
O O9 0.500000 0.209259 0.235918
O O10 0.279233 0.160843 0.117756
O O11 0.263487 0.320290 0.226628
O O12 0.000000 0.861831 0.062472
O O13 0.200041 0.000000 0.027251
O O14 0.500000 0.156678 0.621169
O O15 0.670648 0.000000 0.616494
O O16 0.500000 0.375155 0.753433
O O17 0.274768 0.500000 0.753424
O O18 0.283274 0.350248 0.621531
O O19 0.163442 0.500000 0.522978
O O20 0.206078 0.343932 0.420724
O O21 0.000000 0.347372 0.568844
O O22 0.765725 0.500000 0.294143
O O23 0.000000 0.614648 0.280945
#
# Coordination Sequence:
#
# PCOD8166924 Si02
#       8
#     4   4   4   4   4   4   4   4
#     4  10  21  38  60  85 117 158 201 245 294 353
#     4  11  23  39  63  90 117 154 201 249 300 359
#     4  12  25  38  59  90 123 158 197 245 306 366
#     4  10  23  45  69  90 114 150 202 257 302 355
#     4  10  21  37  58  87 123 157 191 239 300 363
#     4  10  21  36  55  83 122 163 201 245 297 353
#     4   8  15  30  53  80 111 151 198 244 288 339
#     4   9  19  37  60  85 117 159 206 251 294 348
#
# _framework density 20.203634999999998
#
# number of rings (size 3 to 8) (size 9 to 14) (size 15 to 20)
#    0.000    2.000    0.000    4.125    1.750    6.250 
#    0.000    1.875    0.000    0.750    0.000    0.000 
#    0.000    0.000    0.000    0.000    0.000    0.000 
#
# Total GULP energy -396891.175995 kJ/mol
# GULP energy per Si atom -12402.849250 kJ/mol
# Density = 2.015765 g / cm^3
# Si number density = 20.203635 Si / 1000 Ang^3
#
#
#
# Elastic Constant Matrix: (Units=GPa)
#
#
# Indices 1 2 3 4 5 6 
#
# 1 134.6932 43.3404 74.0088 0.0000 0.0000 0.0000
# 2 43.3404 62.7654 48.8127 0.0000 0.0000 0.0000
# 3 74.0088 48.8127 127.3917 0.0000 0.0000 0.0000
# 4 0.0000 0.0000 0.0000 36.2031 0.0000 0.0000
# 5 0.0000 0.0000 0.0000 0.0000 14.5881 0.0000
# 6 0.0000 0.0000 0.0000 0.0000 0.0000 28.7559
#
#
#
# Elastic Compliance Matrix: (Units=1/GPa)
#
#
# Indices 1 2 3 4 5 6 
#
# 1 0.011547 -0.003926 -0.005204 0.000000 0.000000 0.000000
# 2 -0.003926 0.024030 -0.006927 0.000000 0.000000 0.000000
# 3 -0.005204 -0.006927 0.013527 0.000000 0.000000 0.000000
# 4 0.000000 0.000000 0.000000 0.027622 0.000000 0.000000
# 5 0.000000 0.000000 0.000000 0.000000 0.068549 0.000000
# 6 0.000000 0.000000 0.000000 0.000000 0.000000 0.034775
#
#
# Mechanical properties :
#
#
# Convention : Reuss Voigt Hill
#
# Bulk Modulus (GPa) = 58.85547 73.01934 65.93740
# Shear Modulus (GPa) = 22.95385 26.48864 24.72124
#
# Velocity S-wave (km/s) = 3.37430 3.62482 3.50180
# Velocity P-wave (km/s) = 6.66150 7.33070 7.00410
#
# Compressibility (1/GPa) = 0.01699077
#
# Stress axis : x y z
#
# Youngs Moduli (GPa) = 86.60294 41.61383 73.92577
#
# Poissons Ratio (x) = 0.16339 0.38469
# Poissons Ratio (y) = 0.34003 0.51206
# Poissons Ratio (z) = 0.45066 0.28825
#
# Static dielectric constant tensor:
#      x y z
#    x 3.758690 0.000000 0.000000 
#    y 0.000000 3.839010 0.000000 
#    z 0.000000 0.000000 3.567460 
# 
# 
# High freq. dielectric constant tensor:
#      x y z
#    x 1.788760 0.000000 0.000000 
#    y 0.000000 1.807910 0.000000 
#    z 0.000000 0.000000 1.773030 
# 
# From -- ./inp_files/4271.got.cif
#   From: 2010.03.12/outbox.cif.g09.slc.cpg/sg25_3_cif.got.tgz:4271.got - 2010.04.14 03:30:10.
