data_PCOD8166764
_publ_section_title
;
Structure prediction by ZEFSAII (Michael W. Deem and Ramdas Pophale) SiO2 
 PCOD8166764
Probable space group: P M M 2
;
_chemical_formula_sum "Si O2"
_cell_formula_units_Z 32
_cell_length_a 9.534618
_cell_length_b 14.072096
_cell_length_c 12.976690
_cell_angle_alpha 90.000000
_cell_angle_beta 90.000000
_cell_angle_gamma 90.000000
_cell_volume 1741.109227
_symmetry_space_group_name_H-M "P M M 2"
_symmetry_group_IT_number 25
_symmetry_cell_setting 'orthorhombic'
loop_
_space_group_symop_operation_xyz
x,y,z
-x,-y,z
-x,y,z
x,-y,z
loop_
_atom_site_type_symbol
_atom_site_label
_atom_site_fract_x
_atom_site_fract_y
_atom_site_fract_z
Si Si1 0.839137 0.610781 0.121190
Si Si2 0.336582 0.706559 0.518936
Si Si3 0.164461 0.294873 0.907259
Si Si4 0.335021 0.611208 0.724988
Si Si5 0.337243 0.106556 0.417674
Si Si6 0.155402 0.112555 0.227564
Si Si7 0.338668 0.387771 0.312398
Si Si8 0.166038 0.895539 0.001356
O O1 0.810068 0.500000 0.107763
O O2 0.748488 0.653043 0.215441
O O3 0.000000 0.633227 0.146584
O O4 0.793012 0.658847 0.015293
O O5 0.500000 0.682578 0.522005
O O6 0.272261 0.663167 0.623359
O O7 0.307675 0.820426 0.511877
O O8 0.274482 0.655865 0.417368
O O9 0.255283 0.344152 0.820620
O O10 0.205362 0.182678 0.915039
O O11 0.000000 0.309434 0.883211
O O12 0.500000 0.629763 0.739417
O O13 0.301393 0.500000 0.716676
O O14 0.500000 0.106630 0.388508
O O15 0.258339 0.147919 0.317542
O O16 0.287844 0.000000 0.449632
O O17 0.000000 0.156575 0.244969
O O18 0.145701 0.000000 0.232678
O O19 0.217128 0.140036 0.114702
O O20 0.500000 0.357551 0.296930
O O21 0.321098 0.500000 0.320281
O O22 0.000000 0.904217 0.010618
O O23 0.228800 0.000000 0.972014
#
# Coordination Sequence:
#
# PCOD8166764 Si02
#       8
#     4   4   4   4   4   4   4   4
#     4   9  18  31  46  69 102 132 156 193 250 307
#     4   9  18  33  52  72  96 128 166 205 250 299
#     4  10  20  34  54  77 102 134 171 210 257 306
#     4  10  21  38  58  76  96 128 173 221 263 307
#     4   9  17  29  46  70 100 132 164 198 243 299
#     4   8  14  26  45  69  98 132 167 201 235 279
#     4   9  17  30  49  71  94 123 160 200 242 293
#     4   8  15  29  49  73 102 137 174 206 243 298
#
# _framework density 18.379087999999999
#
# number of rings (size 3 to 8) (size 9 to 14) (size 15 to 20)
#    0.000    3.000    0.000    1.500    1.750    2.750 
#    0.000    3.750    0.000    3.375    0.000    0.000 
#    0.000    0.000    0.000    0.000    0.000    0.000 
#
# Total GULP energy -396610.162572 kJ/mol
# GULP energy per Si atom -12394.067580 kJ/mol
# Density = 1.833726 g / cm^3
# Si number density = 18.379088 Si / 1000 Ang^3
#
#
#
# Elastic Constant Matrix: (Units=GPa)
#
#
# Indices 1 2 3 4 5 6 
#
# 1 43.7599 37.7403 46.0439 0.0000 0.0000 0.0000
# 2 37.7403 91.7886 86.8532 0.0000 0.0000 0.0000
# 3 46.0439 86.8532 119.3594 0.0000 0.0000 0.0000
# 4 0.0000 0.0000 0.0000 33.2586 0.0000 0.0000
# 5 0.0000 0.0000 0.0000 0.0000 0.6060 0.0000
# 6 0.0000 0.0000 0.0000 0.0000 0.0000 15.7273
#
#
#
# Elastic Compliance Matrix: (Units=1/GPa)
#
#
# Indices 1 2 3 4 5 6 
#
# 1 0.039416 -0.005840 -0.010955 0.000000 0.000000 0.000000
# 2 -0.005840 0.035844 -0.023829 0.000000 0.000000 0.000000
# 3 -0.010955 -0.023829 0.029944 0.000000 0.000000 0.000000
# 4 0.000000 0.000000 0.000000 0.030067 0.000000 0.000000
# 5 0.000000 0.000000 0.000000 0.000000 1.650061 0.000000
# 6 0.000000 0.000000 0.000000 0.000000 0.000000 0.063584
#
#
# Mechanical properties :
#
#
# Convention : Reuss Voigt Hill
#
# Bulk Modulus (GPa) = 41.74669 66.24253 53.99461
# Shear Modulus (GPa) = 2.57978 15.53641 9.05809
#
# Velocity S-wave (km/s) = 1.18604 2.91061 2.22243
# Velocity P-wave (km/s) = 4.96378 6.88594 6.00230
#
# Compressibility (1/GPa) = 0.02395399
#
# Stress axis : x y z
#
# Youngs Moduli (GPa) = 25.37040 27.89873 33.39579
#
# Poissons Ratio (x) = 0.16293 0.36586
# Poissons Ratio (y) = 0.14817 0.79580
# Poissons Ratio (z) = 0.27794 0.66481
#
# Static dielectric constant tensor:
#      x y z
#    x 3.282580 0.000000 0.000000 
#    y 0.000000 3.683470 0.000000 
#    z 0.000000 0.000000 3.513460 
# 
# 
# High freq. dielectric constant tensor:
#      x y z
#    x 1.676170 0.000000 0.000000 
#    y 0.000000 1.729800 0.000000 
#    z 0.000000 0.000000 1.697450 
# 
# From -- ./inp_files/4241.got.cif
#   From: 2010.03.12/outbox.cif.g09.slc.cpg/sg25_3_cif.got.tgz:4241.got - 2010.04.14 03:30:10.
