data_PCOD8166398
_publ_section_title
;
Structure prediction by ZEFSAII (Michael W. Deem and Ramdas Pophale) SiO2 
 PCOD8166398
Probable space group: P M M 2
;
_chemical_formula_sum "Si O2"
_cell_formula_units_Z 32
_cell_length_a 8.832499
_cell_length_b 14.673962
_cell_length_c 12.536024
_cell_angle_alpha 90.000000
_cell_angle_beta 90.000000
_cell_angle_gamma 90.000000
_cell_volume 1624.765923
_symmetry_space_group_name_H-M "P M M 2"
_symmetry_group_IT_number 25
_symmetry_cell_setting 'orthorhombic'
loop_
_space_group_symop_operation_xyz
x,y,z
-x,-y,z
-x,y,z
x,-y,z
loop_
_atom_site_type_symbol
_atom_site_label
_atom_site_fract_x
_atom_site_fract_y
_atom_site_fract_z
Si Si1 0.674586 0.898322 0.827900
Si Si2 0.179358 0.273411 0.739153
Si Si3 0.175189 0.096956 0.277618
Si Si4 0.323580 0.667244 0.118114
Si Si5 0.180217 0.603906 0.543968
Si Si6 0.170946 0.598784 0.928897
Si Si7 0.819699 0.293636 0.333185
Si Si8 0.824486 0.152060 0.043005
O O1 0.500000 0.873338 0.847617
O O2 0.745115 0.826463 0.743503
O O3 0.691141 0.000000 0.778698
O O4 0.761706 0.900179 0.940512
O O5 0.241144 0.333494 0.640448
O O6 0.228681 0.325395 0.846407
O O7 0.000000 0.261717 0.729630
O O8 0.246423 0.188932 0.329782
O O9 0.196459 0.093593 0.149976
O O10 0.000000 0.098152 0.307585
O O11 0.245689 0.000000 0.320238
O O12 0.500000 0.666856 0.141318
O O13 0.239474 0.652414 0.230236
O O14 0.271010 0.757062 0.056749
O O15 0.275712 0.589895 0.034030
O O16 0.243595 0.500000 0.551025
O O17 0.239396 0.652706 0.436412
O O18 0.000000 0.600518 0.545358
O O19 0.176598 0.500000 0.871312
O O20 0.000000 0.621964 0.964493
O O21 0.000000 0.291058 0.327786
O O22 0.000000 0.176199 0.023460
#
# Coordination Sequence:
#
# PCOD8166398 Si02
#       8
#     4   4   4   4   4   4   4   4
#     4  11  23  36  52  79 116 155 189 225 277 338
#     4  10  20  36  59  83 109 143 188 240 286 334
#     4   8  14  25  44  72 104 137 176 221 268 319
#     4  11  21  33  51  78 116 153 184 227 282 337
#     4   9  18  35  60  87 110 138 185 243 294 338
#     4  10  20  34  54  80 109 144 185 230 286 348
#     4   9  18  33  54  79 108 144 187 232 283 340
#     4  10  18  31  52  77 106 146 193 235 277 326
#
# _framework density 19.695146000000001
#
# number of rings (size 3 to 8) (size 9 to 14) (size 15 to 20)
#    0.000    2.250    1.250    3.375    0.000    3.750 
#    0.000    2.500    0.000    7.500    0.000    0.000 
#    0.000    0.000    0.000    0.000    0.000    0.000 
#
# Total GULP energy -396562.152349 kJ/mol
# GULP energy per Si atom -12392.567261 kJ/mol
# Density = 1.965032 g / cm^3
# Si number density = 19.695146 Si / 1000 Ang^3
#
#
#
# Elastic Constant Matrix: (Units=GPa)
#
#
# Indices 1 2 3 4 5 6 
#
# 1 42.0008 26.5283 27.0572 0.0000 0.0000 0.0000
# 2 26.5283 138.5530 63.0659 0.0000 0.0000 0.0000
# 3 27.0572 63.0659 120.4319 0.0000 0.0000 0.0000
# 4 0.0000 0.0000 0.0000 23.1763 0.0000 0.0000
# 5 0.0000 0.0000 0.0000 0.0000 9.8509 0.0000
# 6 0.0000 0.0000 0.0000 0.0000 0.0000 13.4684
#
#
#
# Elastic Compliance Matrix: (Units=1/GPa)
#
#
# Indices 1 2 3 4 5 6 
#
# 1 0.029007 -0.003397 -0.004738 0.000000 0.000000 0.000000
# 2 -0.003397 0.009874 -0.004407 0.000000 0.000000 0.000000
# 3 -0.004738 -0.004407 0.011676 0.000000 0.000000 0.000000
# 4 0.000000 0.000000 0.000000 0.043148 0.000000 0.000000
# 5 0.000000 0.000000 0.000000 0.000000 0.101514 0.000000
# 6 0.000000 0.000000 0.000000 0.000000 0.000000 0.074248
#
#
# Mechanical properties :
#
#
# Convention : Reuss Voigt Hill
#
# Bulk Modulus (GPa) = 39.25921 59.36541 49.31231
# Shear Modulus (GPa) = 16.49938 21.58808 19.04373
#
# Velocity S-wave (km/s) = 2.89751 3.31435 3.11292
# Velocity P-wave (km/s) = 5.58308 6.69732 6.16543
#
# Compressibility (1/GPa) = 0.02547173
#
# Stress axis : x y z
#
# Youngs Moduli (GPa) = 34.47441 101.27516 85.64634
#
# Poissons Ratio (x) = 0.34406 0.40578
# Poissons Ratio (y) = 0.11712 0.37748
# Poissons Ratio (z) = 0.16334 0.44636
#
# Static dielectric constant tensor:
#      x y z
#    x 3.222240 0.000000 0.000000 
#    y 0.000000 4.013610 0.000000 
#    z 0.000000 0.000000 3.565380 
# 
# 
# High freq. dielectric constant tensor:
#      x y z
#    x 1.728780 0.000000 0.000000 
#    y 0.000000 1.782950 0.000000 
#    z 0.000000 0.000000 1.746750 
# 
# From -- ./inp_files/4195.got.cif
#   From: 2010.03.12/outbox.cif.g09.slc.cpg/sg25_3_cif.got.tgz:4195.got - 2010.04.14 03:30:10.
