data_PCOD8166939
_publ_section_title
;
Structure prediction by ZEFSAII (Michael W. Deem and Ramdas Pophale) SiO2 
 PCOD8166939
Probable space group: P M M 2
;
_chemical_formula_sum "Si O2"
_cell_formula_units_Z 32
_cell_length_a 14.779464
_cell_length_b 9.133275
_cell_length_c 12.166646
_cell_angle_alpha 90.000000
_cell_angle_beta 90.000000
_cell_angle_gamma 90.000000
_cell_volume 1642.313604
_symmetry_space_group_name_H-M "P M M 2"
_symmetry_group_IT_number 25
_symmetry_cell_setting 'orthorhombic'
loop_
_space_group_symop_operation_xyz
x,y,z
-x,-y,z
-x,y,z
x,-y,z
loop_
_atom_site_type_symbol
_atom_site_label
_atom_site_fract_x
_atom_site_fract_y
_atom_site_fract_z
Si Si1 0.738574 0.674403 0.638450
Si Si2 0.899378 0.325772 0.792644
Si Si3 0.605793 0.330056 0.250975
Si Si4 0.392862 0.661654 0.005563
Si Si5 0.607112 0.167652 0.795138
Si Si6 0.898040 0.170584 0.243105
Si Si7 0.258374 0.827595 0.406138
Si Si8 0.892749 0.338515 0.032629
O O1 0.731825 0.500000 0.633101
O O2 0.828686 0.728888 0.701757
O O3 0.650420 0.736239 0.699006
O O4 0.742608 0.739208 0.518016
O O5 0.903755 0.500000 0.796965
O O6 0.000000 0.264162 0.764391
O O7 0.865900 0.271131 0.913452
O O8 0.500000 0.297572 0.265252
O O9 0.626632 0.500000 0.276794
O O10 0.639054 0.290590 0.127228
O O11 0.657221 0.224398 0.334089
O O12 0.500000 0.654103 0.006753
O O13 0.354435 0.500000 0.976552
O O14 0.358209 0.775038 0.913876
O O15 0.500000 0.185737 0.784092
O O16 0.637417 0.000000 0.783001
O O17 0.835372 0.212135 0.345644
O O18 0.856307 0.241199 0.132724
O O19 0.000000 0.227161 0.268373
O O20 0.898106 0.000000 0.220738
O O21 0.267765 0.000000 0.428736
O O22 0.850289 0.500000 0.047252
O O23 0.000000 0.347395 0.036826
#
# Coordination Sequence:
#
# PCOD8166939 Si02
#       8
#     4   4   4   4   4   4   4   4
#     4  11  23  38  57  79 104 140 185 229 270 316
#     4   8  16  33  56  82 110 137 169 215 269 319
#     4   9  19  37  60  84 110 141 177 219 267 319
#     4   8  15  31  56  84 111 138 172 215 264 320
#     4  10  21  37  57  81 111 145 178 217 266 318
#     4   9  19  36  55  76 107 144 177 213 261 316
#     4  11  24  39  54  76 107 143 184 228 271 317
#     4   8  14  28  53  82 108 134 168 212 262 317
#
# _framework density 19.484708000000001
#
# number of rings (size 3 to 8) (size 9 to 14) (size 15 to 20)
#    0.000    2.750    0.000    2.625    0.000    4.500 
#    0.000    6.250    0.000    2.625    0.000    0.000 
#    0.000    0.000    0.000    0.000    0.000    0.000 
#
# Total GULP energy -396700.017152 kJ/mol
# GULP energy per Si atom -12396.875536 kJ/mol
# Density = 1.944036 g / cm^3
# Si number density = 19.484708 Si / 1000 Ang^3
#
#
#
# Elastic Constant Matrix: (Units=GPa)
#
#
# Indices 1 2 3 4 5 6 
#
# 1 73.8078 43.9589 53.9049 0.0000 0.0000 0.0000
# 2 43.9589 84.9580 72.6262 0.0000 0.0000 0.0000
# 3 53.9049 72.6262 165.7709 0.0000 0.0000 0.0000
# 4 0.0000 0.0000 0.0000 -210.8023 0.0000 0.0000
# 5 0.0000 0.0000 0.0000 0.0000 54.2730 0.0000
# 6 0.0000 0.0000 0.0000 0.0000 0.0000 17.6730
#
#
#
# Elastic Compliance Matrix: (Units=1/GPa)
#
#
# Indices 1 2 3 4 5 6 
#
# 1 0.020622 -0.007894 -0.003247 0.000000 0.000000 0.000000
# 2 -0.007894 0.021840 -0.007001 0.000000 0.000000 0.000000
# 3 -0.003247 -0.007001 0.010156 0.000000 0.000000 0.000000
# 4 0.000000 0.000000 0.000000 -0.004744 0.000000 0.000000
# 5 0.000000 0.000000 0.000000 0.000000 0.018425 0.000000
# 6 0.000000 0.000000 0.000000 0.000000 0.000000 0.056583
#
#
# Mechanical properties :
#
#
# Convention : Reuss Voigt Hill
#
# Bulk Modulus (GPa) = 61.22902 73.94629 67.58766
# Shear Modulus (GPa) = 30.37420 -17.50147 6.43636
#
# Velocity S-wave (km/s) = 3.95254 -3.00028 1.81947
# Velocity P-wave (km/s) = 7.23343 5.10207 6.25914
#
# Compressibility (1/GPa) = 0.01633212
#
# Stress axis : x y z
#
# Youngs Moduli (GPa) = 48.49179 45.78670 98.46629
#
# Poissons Ratio (x) = 0.36146 0.31974
# Poissons Ratio (y) = 0.38281 0.68941
# Poissons Ratio (z) = 0.15746 0.32057
#
# Static dielectric constant tensor:
#      x y z
#    x 3.275970 0.000000 0.000000 
#    y 0.000000 3.516780 0.000000 
#    z 0.000000 0.000000 3.702150 
# 
# 
# High freq. dielectric constant tensor:
#      x y z
#    x 1.756950 0.000000 0.000000 
#    y 0.000000 1.741840 0.000000 
#    z 0.000000 0.000000 1.761600 
# 
# From -- ./inp_files/4892.got.cif
#   From: 2010.03.12/outbox.cif.g09.slc.cpg/sg25_3_cif.got.tgz:4892.got - 2010.04.14 03:30:10.
