data_PCOD8166165
_publ_section_title
;
Structure prediction by ZEFSAII (Michael W. Deem and Ramdas Pophale) SiO2 
 PCOD8166165
Probable space group: I 21 21 21
;
_chemical_formula_sum "Si O2"
_cell_formula_units_Z 24
_cell_length_a 15.016428
_cell_length_b 6.709837
_cell_length_c 10.300238
_cell_angle_alpha 90.000000
_cell_angle_beta 90.000000
_cell_angle_gamma 90.000000
_cell_volume 1037.829158
_symmetry_space_group_name_H-M "I 21 21 21"
_symmetry_group_IT_number 24
_symmetry_cell_setting 'orthorhombic'
loop_
_space_group_symop_operation_xyz
x,y,z
-x,1/2-y,z
x,-y,1/2-z
1/2-x,y,-z
1/2+x,1/2+y,1/2+z
1/2-x,-y,1/2+z
1/2+x,1/2-y,-z
-x,1/2+y,1/2-z
loop_
_atom_site_type_symbol
_atom_site_label
_atom_site_fract_x
_atom_site_fract_y
_atom_site_fract_z
Si Si1 0.250829 0.655681 0.852501
Si Si2 0.366692 0.000000 0.250000
Si Si3 0.500000 0.250000 0.074329
Si Si4 0.053621 0.572047 0.119235
O O1 0.207112 0.500000 0.750000
O O2 0.197529 0.862862 0.838989
O O3 0.355578 0.670288 0.824752
O O4 0.250000 0.575891 0.000000
O O5 0.429091 0.868541 0.340870
O O6 0.439681 0.397166 0.986609
O O7 0.002459 0.500000 0.250000
O O8 0.000000 0.750000 0.049933
#
# Coordination Sequence:
#
# PCOD8166165 Si02
#       4
#     8   4   4   8
#     4  11  26  46  74 111 152 193 256 314 388 455
#     4  12  30  46  78 104 158 206 252 320 386 466
#     4  12  28  48  76 110 152 210 258 308 396 462
#     4  11  24  44  77 108 146 189 248 315 381 451
#
# _framework density 23.125192999999999
#
# number of rings (size 3 to 8) (size 9 to 14) (size 15 to 20)
#    0.000    0.667    1.667    4.000   11.667    6.667 
#    0.000    0.000    0.000    0.000    0.000    0.000 
#    0.000    0.000    0.000    0.000    0.000    0.000 
#
# Total GULP energy -148726.664470 kJ/mol
# GULP energy per Si atom -12393.888706 kJ/mol
# Density = 2.307256 g / cm^3
# Si number density = 23.125193 Si / 1000 Ang^3
#
#
#
# Elastic Constant Matrix: (Units=GPa)
#
#
# Indices 1 2 3 4 5 6 
#
# 1 119.4561 81.3614 41.2521 0.0000 0.0000 0.0000
# 2 81.3614 156.8401 82.6257 0.0000 0.0000 0.0000
# 3 41.2521 82.6257 173.4677 0.0000 0.0000 0.0000
# 4 0.0000 0.0000 0.0000 42.7151 0.0000 0.0000
# 5 0.0000 0.0000 0.0000 0.0000 26.2913 0.0000
# 6 0.0000 0.0000 0.0000 0.0000 0.0000 49.4508
#
#
#
# Elastic Compliance Matrix: (Units=1/GPa)
#
#
# Indices 1 2 3 4 5 6 
#
# 1 0.012948 -0.006802 0.000160 0.000000 0.000000 0.000000
# 2 -0.006802 0.012085 -0.004139 0.000000 0.000000 0.000000
# 3 0.000160 -0.004139 0.007698 0.000000 0.000000 0.000000
# 4 0.000000 0.000000 0.000000 0.023411 0.000000 0.000000
# 5 0.000000 0.000000 0.000000 0.000000 0.038035 0.000000
# 6 0.000000 0.000000 0.000000 0.000000 0.000000 0.020222
#
#
# Mechanical properties :
#
#
# Convention : Reuss Voigt Hill
#
# Bulk Modulus (GPa) = 89.51417 95.58248 92.54832
# Shear Modulus (GPa) = 35.79549 39.99311 37.89430
#
# Velocity S-wave (km/s) = 3.93860 4.16314 4.05243
# Velocity P-wave (km/s) = 7.71207 8.03314 7.87424
#
# Compressibility (1/GPa) = 0.01117142
#
# Stress axis : x y z
#
# Youngs Moduli (GPa) = 77.22964 82.75038 129.90567
#
# Poissons Ratio (x) = 0.56283 -0.02085
# Poissons Ratio (y) = 0.52528 0.53763
# Poissons Ratio (z) = -0.01239 0.34247
#
# Static dielectric constant tensor:
#      x y z
#    x 4.225080 0.000000 0.000000 
#    y 0.000000 4.281460 0.000000 
#    z 0.000000 0.000000 4.293920 
# 
# 
# High freq. dielectric constant tensor:
#      x y z
#    x 1.914440 0.000000 0.000000 
#    y 0.000000 1.915160 0.000000 
#    z 0.000000 0.000000 1.929470 
# 
# From -- ./inp_files/1727.got.cif
#   From: 2010.03.12/outbox.cif.g09.slc.cpg/sg24_1_cif.got.tgz:1727.got - 2010.04.14 03:06:53.
