data_PCOD8166867
_publ_section_title
;
Structure prediction by ZEFSAII (Michael W. Deem and Ramdas Pophale) SiO2 
 PCOD8166867
Probable space group: P M M 2
;
_chemical_formula_sum "Si O2"
_cell_formula_units_Z 32
_cell_length_a 15.019824
_cell_length_b 9.220573
_cell_length_c 12.273277
_cell_angle_alpha 90.000000
_cell_angle_beta 90.000000
_cell_angle_gamma 90.000000
_cell_volume 1699.743114
_symmetry_space_group_name_H-M "P M M 2"
_symmetry_group_IT_number 25
_symmetry_cell_setting 'orthorhombic'
loop_
_space_group_symop_operation_xyz
x,y,z
-x,-y,z
-x,y,z
x,-y,z
loop_
_atom_site_type_symbol
_atom_site_label
_atom_site_fract_x
_atom_site_fract_y
_atom_site_fract_z
Si Si1 0.400355 0.673135 0.598950
Si Si2 0.745471 0.827141 0.209798
Si Si3 0.894309 0.160318 0.814016
Si Si4 0.099092 0.827375 0.052112
Si Si5 0.751902 0.670251 0.436346
Si Si6 0.396645 0.328442 0.068692
Si Si7 0.605259 0.341826 0.832620
Si Si8 0.100639 0.331857 0.608367
O O1 0.500000 0.726667 0.568264
O O2 0.398856 0.500000 0.609928
O O3 0.333143 0.724285 0.505716
O O4 0.369786 0.738389 0.718177
O O5 0.831428 0.772829 0.142080
O O6 0.756862 0.767220 0.330219
O O7 0.656974 0.760037 0.158525
O O8 0.737749 0.000000 0.211817
O O9 0.857170 0.257160 0.715421
O O10 0.000000 0.153264 0.807878
O O11 0.853243 0.000000 0.800325
O O12 0.868601 0.227359 0.932310
O O13 0.000000 0.767037 0.080409
O O14 0.095094 0.000000 0.047570
O O15 0.744395 0.500000 0.407191
O O16 0.841027 0.705230 0.503277
O O17 0.500000 0.298172 0.092042
O O18 0.376666 0.500000 0.077436
O O19 0.368339 0.266425 0.947838
O O20 0.500000 0.362123 0.833613
O O21 0.650759 0.500000 0.832954
O O22 0.103244 0.500000 0.635023
O O23 0.000000 0.278522 0.584219
#
# Coordination Sequence:
#
# PCOD8166867 Si02
#       8
#     4   4   4   4   4   4   4   4
#     4   8  14  27  49  74  96 119 153 199 243 282
#     4  11  23  36  51  73 100 132 174 221 258 290
#     4   8  14  28  52  77  98 124 161 201 243 302
#     4   8  16  33  54  74  99 132 168 208 257 310
#     4  10  21  35  49  68  96 132 172 206 242 296
#     4   9  18  34  56  79 104 134 164 198 246 306
#     4   7  11  23  46  75  99 118 150 195 237 283
#     4   9  18  32  49  72 104 134 158 197 254 305
#
# _framework density 18.826374000000001
#
# number of rings (size 3 to 8) (size 9 to 14) (size 15 to 20)
#    0.000    3.250    0.000    2.625    0.000    2.750 
#    0.000    3.750    0.000    3.375    0.000    1.750 
#    0.000    0.000    0.000    0.000    0.000    0.000 
#
# Total GULP energy -396463.319804 kJ/mol
# GULP energy per Si atom -12389.478744 kJ/mol
# Density = 1.878352 g / cm^3
# Si number density = 18.826374 Si / 1000 Ang^3
#
#
#
# Elastic Constant Matrix: (Units=GPa)
#
#
# Indices 1 2 3 4 5 6 
#
# 1 92.7087 35.5832 71.0059 0.0000 0.0000 0.0000
# 2 35.5832 44.2372 54.3923 0.0000 0.0000 0.0000
# 3 71.0059 54.3923 172.5261 0.0000 0.0000 0.0000
# 4 0.0000 0.0000 0.0000 27.1431 0.0000 0.0000
# 5 0.0000 0.0000 0.0000 0.0000 28.3131 0.0000
# 6 0.0000 0.0000 0.0000 0.0000 0.0000 15.8831
#
#
#
# Elastic Compliance Matrix: (Units=1/GPa)
#
#
# Indices 1 2 3 4 5 6 
#
# 1 0.017527 -0.008539 -0.004521 0.000000 0.000000 0.000000
# 2 -0.008539 0.041075 -0.009436 0.000000 0.000000 0.000000
# 3 -0.004521 -0.009436 0.010632 0.000000 0.000000 0.000000
# 4 0.000000 0.000000 0.000000 0.036842 0.000000 0.000000
# 5 0.000000 0.000000 0.000000 0.000000 0.035319 0.000000
# 6 0.000000 0.000000 0.000000 0.000000 0.000000 0.062960
#
#
# Mechanical properties :
#
#
# Convention : Reuss Voigt Hill
#
# Bulk Modulus (GPa) = 41.24982 70.15943 55.70462
# Shear Modulus (GPa) = 19.42295 24.16723 21.79509
#
# Velocity S-wave (km/s) = 3.21548 3.58675 3.40617
# Velocity P-wave (km/s) = 5.97862 7.38244 6.71731
#
# Compressibility (1/GPa) = 0.02424253
#
# Stress axis : x y z
#
# Youngs Moduli (GPa) = 57.05566 24.34552 94.05710
#
# Poissons Ratio (x) = 0.20788 0.42527
# Poissons Ratio (y) = 0.48718 0.88748
# Poissons Ratio (z) = 0.25797 0.22971
#
# Static dielectric constant tensor:
#      x y z
#    x 3.533070 0.000000 0.000000 
#    y 0.000000 3.067390 0.000000 
#    z 0.000000 0.000000 3.702580 
# 
# 
# High freq. dielectric constant tensor:
#      x y z
#    x 1.724450 0.000000 0.000000 
#    y 0.000000 1.681870 0.000000 
#    z 0.000000 0.000000 1.742330 
# 
# From -- ./inp_files/4925.got.cif
#   From: 2010.03.12/outbox.cif.g09.slc.cpg/sg25_3_cif.got.tgz:4925.got - 2010.04.14 03:30:10.
