data_PCOD8166776
_publ_section_title
;
Structure prediction by ZEFSAII (Michael W. Deem and Ramdas Pophale) SiO2 
 PCOD8166776
Probable space group: P M M 2
;
_chemical_formula_sum "Si O2"
_cell_formula_units_Z 32
_cell_length_a 9.682769
_cell_length_b 14.269422
_cell_length_c 12.403643
_cell_angle_alpha 90.000000
_cell_angle_beta 90.000000
_cell_angle_gamma 90.000000
_cell_volume 1713.780555
_symmetry_space_group_name_H-M "P M M 2"
_symmetry_group_IT_number 25
_symmetry_cell_setting 'orthorhombic'
loop_
_space_group_symop_operation_xyz
x,y,z
-x,-y,z
-x,y,z
x,-y,z
loop_
_atom_site_type_symbol
_atom_site_label
_atom_site_fract_x
_atom_site_fract_y
_atom_site_fract_z
Si Si1 0.837266 0.106084 0.532130
Si Si2 0.745274 0.395987 0.656729
Si Si3 0.339338 0.224137 0.940459
Si Si4 0.154747 0.394216 0.889806
Si Si5 0.352866 0.203829 0.694957
Si Si6 0.835898 0.789586 0.322925
Si Si7 0.838177 0.110400 0.105308
Si Si8 0.840228 0.601375 0.418932
O O1 0.774059 0.160776 0.632083
O O2 0.780329 0.145421 0.419371
O O3 0.000000 0.117711 0.541327
O O4 0.788773 0.000000 0.539902
O O5 0.676610 0.500000 0.654191
O O6 0.846576 0.387339 0.759578
O O7 0.631731 0.315320 0.671764
O O8 0.826843 0.376378 0.545901
O O9 0.500000 0.234636 0.976390
O O10 0.263641 0.325107 0.947702
O O11 0.328209 0.184320 0.820315
O O12 0.258430 0.147319 0.010286
O O13 0.193417 0.500000 0.925753
O O14 0.000000 0.368400 0.928930
O O15 0.500000 0.159233 0.659876
O O16 0.786257 0.832796 0.210568
O O17 0.775886 0.684374 0.344744
O O18 0.000000 0.788410 0.326812
O O19 0.000000 0.129670 0.080814
O O20 0.813253 0.000000 0.123240
O O21 0.770830 0.500000 0.391009
O O22 0.000000 0.595386 0.391561
#
# Coordination Sequence:
#
# PCOD8166776 Si02
#       8
#     4   4   4   4   4   4   4   4
#     4  10  20  34  54  79 106 139 176 216 270 332
#     4   9  16  27  47  76 111 149 183 213 251 308
#     4  10  22  38  55  77 108 146 185 227 277 331
#     4   9  17  30  52  83 115 146 183 225 266 314
#     4  10  21  35  51  76 110 145 177 216 269 324
#     4   9  17  32  54  79 108 139 173 220 275 326
#     4  10  21  38  60  81 101 134 185 241 288 329
#     4   9  15  24  45  79 113 142 172 208 256 312
#
# _framework density 18.672169
#
# number of rings (size 3 to 8) (size 9 to 14) (size 15 to 20)
#    0.000    2.500    1.250    1.125    0.000    7.000 
#    0.000    6.250    0.000    3.750    0.000    0.000 
#    0.000    0.000    0.000    0.000    0.000    0.000 
#
# Total GULP energy -396531.478867 kJ/mol
# GULP energy per Si atom -12391.608715 kJ/mol
# Density = 1.862967 g / cm^3
# Si number density = 18.672169 Si / 1000 Ang^3
#
#
#
# Elastic Constant Matrix: (Units=GPa)
#
#
# Indices 1 2 3 4 5 6 
#
# 1 65.1160 42.6473 33.4467 0.0000 0.0000 0.0000
# 2 42.6473 131.6865 63.8429 0.0000 0.0000 0.0000
# 3 33.4467 63.8429 86.1816 0.0000 0.0000 0.0000
# 4 0.0000 0.0000 0.0000 32.0393 0.0000 0.0000
# 5 0.0000 0.0000 0.0000 0.0000 7.8867 0.0000
# 6 0.0000 0.0000 0.0000 0.0000 0.0000 14.0569
#
#
#
# Elastic Compliance Matrix: (Units=1/GPa)
#
#
# Indices 1 2 3 4 5 6 
#
# 1 0.020682 -0.004379 -0.004782 0.000000 0.000000 0.000000
# 2 -0.004379 0.012777 -0.007765 0.000000 0.000000 0.000000
# 3 -0.004782 -0.007765 0.019212 0.000000 0.000000 0.000000
# 4 0.000000 0.000000 0.000000 0.031212 0.000000 0.000000
# 5 0.000000 0.000000 0.000000 0.000000 0.126795 0.000000
# 6 0.000000 0.000000 0.000000 0.000000 0.000000 0.071140
#
#
# Mechanical properties :
#
#
# Convention : Reuss Voigt Hill
#
# Bulk Modulus (GPa) = 53.14493 62.53976 57.84234
# Shear Modulus (GPa) = 15.53069 20.33307 17.93188
#
# Velocity S-wave (km/s) = 2.88715 3.30351 3.10232
# Velocity P-wave (km/s) = 6.29588 6.93665 6.62402
#
# Compressibility (1/GPa) = 0.01881647
#
# Stress axis : x y z
#
# Youngs Moduli (GPa) = 48.35147 78.26682 52.05102
#
# Poissons Ratio (x) = 0.34276 0.24892
# Poissons Ratio (y) = 0.21175 0.40419
# Poissons Ratio (z) = 0.23123 0.60777
#
# Static dielectric constant tensor:
#      x y z
#    x 3.115160 0.000000 0.000000 
#    y 0.000000 3.779990 0.000000 
#    z 0.000000 0.000000 3.328530 
# 
# 
# High freq. dielectric constant tensor:
#      x y z
#    x 1.690960 0.000000 0.000000 
#    y 0.000000 1.738770 0.000000 
#    z 0.000000 0.000000 1.707820 
# 
# From -- ./inp_files/4190.got.cif
#   From: 2010.03.12/outbox.cif.g09.slc.cpg/sg25_3_cif.got.tgz:4190.got - 2010.04.14 03:30:10.
