data_PCOD8166138
_publ_section_title
;
Structure prediction by ZEFSAII (Michael W. Deem and Ramdas Pophale) SiO2 
 PCOD8166138
Probable space group: I 21 21 21
;
_chemical_formula_sum "Si O2"
_cell_formula_units_Z 56
_cell_length_a 5.774347
_cell_length_b 15.207720
_cell_length_c 26.969801
_cell_angle_alpha 90.000000
_cell_angle_beta 90.000000
_cell_angle_gamma 90.000000
_cell_volume 2368.343699
_symmetry_space_group_name_H-M "I 21 21 21"
_symmetry_group_IT_number 24
_symmetry_cell_setting 'orthorhombic'
loop_
_space_group_symop_operation_xyz
x,y,z
-x,1/2-y,z
x,-y,1/2-z
1/2-x,y,-z
1/2+x,1/2+y,1/2+z
1/2-x,-y,1/2+z
1/2+x,1/2-y,-z
-x,1/2+y,1/2-z
loop_
_atom_site_type_symbol
_atom_site_label
_atom_site_fract_x
_atom_site_fract_y
_atom_site_fract_z
Si Si1 0.988907 0.418413 0.377234
Si Si2 0.759005 0.203520 0.684397
Si Si3 0.036607 0.648318 0.629824
Si Si4 0.128851 0.339567 0.213823
Si Si5 0.253143 0.034316 0.798754
Si Si6 0.863230 0.662713 0.946982
Si Si7 0.180395 0.490321 0.945471
O O1 0.817103 0.455104 0.335339
O O2 0.840123 0.345796 0.406527
O O3 0.223243 0.377613 0.353210
O O4 0.082234 0.491999 0.415240
O O5 0.500000 0.250000 0.683743
O O6 0.809813 0.171781 0.740690
O O7 0.000000 0.250000 0.667278
O O8 0.270965 0.635946 0.660228
O O9 0.040004 0.589244 0.580298
O O10 0.000000 0.750000 0.615126
O O11 0.849055 0.613538 0.668914
O O12 0.000000 0.250000 0.205118
O O13 0.970850 0.421736 0.228898
O O14 0.105888 0.000000 0.750000
O O15 0.000000 0.750000 0.931900
O O16 0.025281 0.577314 0.948614
O O17 0.750000 0.677783 0.000000
O O18 0.250000 0.458099 0.000000
#
# Coordination Sequence:
#
# PCOD8166138 Si02
#       7
#     8   8   8   8   8   8   8
#     4  12  27  46  72 108 153 204 259 328 404 488
#     4  11  28  45  70 112 162 210 265 327 390 480
#     4  12  26  46  80 111 153 208 269 336 413 492
#     4  11  23  45  72 105 153 203 261 323 397 486
#     4  12  25  46  73 114 154 206 265 327 400 490
#     4  12  28  50  78 109 150 208 267 334 410 500
#     4  12  27  49  74 109 152 201 268 340 415 485
#
# _framework density 23.645216999999999
#
# number of rings (size 3 to 8) (size 9 to 14) (size 15 to 20)
#    0.000    0.286    7.143    0.857    6.000    1.714 
#    0.000    3.571    0.000    0.000    0.000    0.000 
#    0.000    0.000    0.000    0.000    0.000    0.000 
#
# Total GULP energy -347027.608365 kJ/mol
# GULP energy per Si atom -12393.843156 kJ/mol
# Density = 2.359140 g / cm^3
# Si number density = 23.645217 Si / 1000 Ang^3
#
#
#
# Elastic Constant Matrix: (Units=GPa)
#
#
# Indices 1 2 3 4 5 6 
#
# 1 84.9038 39.8382 36.6536 0.0000 0.0000 0.0000
# 2 39.8382 140.9729 60.4487 0.0000 0.0000 0.0000
# 3 36.6536 60.4487 157.2563 0.0000 0.0000 0.0000
# 4 0.0000 0.0000 0.0000 33.4398 0.0000 0.0000
# 5 0.0000 0.0000 0.0000 0.0000 29.5976 0.0000
# 6 0.0000 0.0000 0.0000 0.0000 0.0000 37.4207
#
#
#
# Elastic Compliance Matrix: (Units=1/GPa)
#
#
# Indices 1 2 3 4 5 6 
#
# 1 0.014138 -0.003092 -0.002107 0.000000 0.000000 0.000000
# 2 -0.003092 0.009170 -0.002804 0.000000 0.000000 0.000000
# 3 -0.002107 -0.002804 0.007928 0.000000 0.000000 0.000000
# 4 0.000000 0.000000 0.000000 0.029904 0.000000 0.000000
# 5 0.000000 0.000000 0.000000 0.000000 0.033786 0.000000
# 6 0.000000 0.000000 0.000000 0.000000 0.000000 0.026723
#
#
# Mechanical properties :
#
#
# Convention : Reuss Voigt Hill
#
# Bulk Modulus (GPa) = 65.65911 73.00153 69.33032
# Shear Modulus (GPa) = 35.03044 36.50446 35.76745
#
# Velocity S-wave (km/s) = 3.85320 3.93344 3.89353
# Velocity P-wave (km/s) = 6.90109 7.18122 7.04255
#
# Compressibility (1/GPa) = 0.01523018
#
# Stress axis : x y z
#
# Youngs Moduli (GPa) = 70.72931 109.05416 126.13512
#
# Poissons Ratio (x) = 0.33720 0.26575
# Poissons Ratio (y) = 0.21870 0.35370
# Poissons Ratio (z) = 0.14902 0.30580
#
# Static dielectric constant tensor:
#      x y z
#    x 4.184190 0.000000 0.000000 
#    y 0.000000 4.228970 0.000000 
#    z 0.000000 0.000000 4.499450 
# 
# 
# High freq. dielectric constant tensor:
#      x y z
#    x 1.929800 0.000000 0.000000 
#    y 0.000000 1.936250 0.000000 
#    z 0.000000 0.000000 1.953540 
# 
# From -- ./inp_files/37924.got.cif
#   From: 2010.03.12/outbox.cif.g09.slc.cpg/sg24_19_cif.got.tgz:37924.got - 2010.04.14 03:06:53.
