data_PCOD8166010
_publ_section_title
;
Structure prediction by ZEFSAII (Michael W. Deem and Ramdas Pophale) SiO2 
 PCOD8166010
Probable space group: I 21 21 21
;
_chemical_formula_sum "Si O2"
_cell_formula_units_Z 48
_cell_length_a 12.677504
_cell_length_b 11.984348
_cell_length_c 15.898129
_cell_angle_alpha 90.000000
_cell_angle_beta 90.000000
_cell_angle_gamma 90.000000
_cell_volume 2415.428489
_symmetry_space_group_name_H-M "I 21 21 21"
_symmetry_group_IT_number 24
_symmetry_cell_setting 'orthorhombic'
loop_
_space_group_symop_operation_xyz
x,y,z
-x,1/2-y,z
x,-y,1/2-z
1/2-x,y,-z
1/2+x,1/2+y,1/2+z
1/2-x,-y,1/2+z
1/2+x,1/2-y,-z
-x,1/2+y,1/2-z
loop_
_atom_site_type_symbol
_atom_site_label
_atom_site_fract_x
_atom_site_fract_y
_atom_site_fract_z
Si Si1 0.419772 0.972635 0.848615
Si Si2 0.433922 0.642717 0.568419
Si Si3 0.000000 0.250000 0.307871
Si Si4 0.702243 0.190198 0.789100
Si Si5 0.489097 0.374031 0.118597
Si Si6 0.707502 0.571359 0.329191
Si Si7 0.352158 0.500000 0.250000
O O1 0.438535 0.841064 0.864270
O O2 0.429231 0.000000 0.750000
O O3 0.507229 0.031760 0.903622
O O4 0.302912 0.010178 0.878499
O O5 0.500000 0.750000 0.598046
O O6 0.318934 0.648700 0.614046
O O7 0.424515 0.639789 0.467773
O O8 0.913231 0.186828 0.252045
O O9 0.753938 0.311205 0.791116
O O10 0.777167 0.107508 0.735526
O O11 0.500000 0.250000 0.161097
O O12 0.609473 0.416681 0.106600
O O13 0.426080 0.465890 0.172144
O O14 0.667667 0.500000 0.250000
#
# Coordination Sequence:
#
# PCOD8166010 Si02
#       7
#     8   8   4   8   8   8   4
#     4  11  19  34  62  93 126 168 209 265 321 388
#     4  11  21  39  64  99 131 154 208 280 334 373
#     4  12  20  36  62  94 128 168 212 260 330 382
#     4  12  20  37  64  99 125 161 209 267 328 378
#     4  11  25  43  63  92 131 174 216 269 317 383
#     4  11  20  37  65  91 123 171 219 255 313 384
#     4  12  26  40  64  94 124 176 214 258 322 390
#
# _framework density 19.872250000000001
#
# number of rings (size 3 to 8) (size 9 to 14) (size 15 to 20)
#    0.000    0.667   10.000    1.000    0.000    1.333 
#    0.000    0.000    5.500    0.000    0.000    0.000 
#    0.000    0.000    0.000    0.000    0.000    0.000 
#
# Total GULP energy -297455.301302 kJ/mol
# GULP energy per Si atom -12393.970888 kJ/mol
# Density = 1.982702 g / cm^3
# Si number density = 19.872250 Si / 1000 Ang^3
#
#
#
# Elastic Constant Matrix: (Units=GPa)
#
#
# Indices 1 2 3 4 5 6 
#
# 1 114.4160 59.6463 27.9788 0.0000 0.0000 0.0000
# 2 59.6463 138.8617 35.5350 0.0000 0.0000 0.0000
# 3 27.9788 35.5350 57.4308 0.0000 0.0000 0.0000
# 4 0.0000 0.0000 0.0000 24.1161 0.0000 0.0000
# 5 0.0000 0.0000 0.0000 0.0000 12.1286 0.0000
# 6 0.0000 0.0000 0.0000 0.0000 0.0000 38.3117
#
#
#
# Elastic Compliance Matrix: (Units=1/GPa)
#
#
# Indices 1 2 3 4 5 6 
#
# 1 0.011703 -0.004239 -0.003078 0.000000 0.000000 0.000000
# 2 -0.004239 0.010092 -0.004179 0.000000 0.000000 0.000000
# 3 -0.003078 -0.004179 0.021498 0.000000 0.000000 0.000000
# 4 0.000000 0.000000 0.000000 0.041466 0.000000 0.000000
# 5 0.000000 0.000000 0.000000 0.000000 0.082450 0.000000
# 6 0.000000 0.000000 0.000000 0.000000 0.000000 0.026102
#
#
# Mechanical properties :
#
#
# Convention : Reuss Voigt Hill
#
# Bulk Modulus (GPa) = 49.26294 61.89208 55.57751
# Shear Modulus (GPa) = 22.41460 27.41450 24.91455
#
# Velocity S-wave (km/s) = 3.36212 3.71824 3.54465
# Velocity P-wave (km/s) = 6.31786 7.04602 6.69185
#
# Compressibility (1/GPa) = 0.02029924
#
# Stress axis : x y z
#
# Youngs Moduli (GPa) = 85.45101 99.09217 46.51653
#
# Poissons Ratio (x) = 0.42005 0.14320
# Poissons Ratio (y) = 0.36222 0.19439
# Poissons Ratio (z) = 0.26305 0.41411
#
# Static dielectric constant tensor:
#      x y z
#    x 3.845540 0.000000 0.000000 
#    y 0.000000 3.868330 0.000000 
#    z 0.000000 0.000000 3.257010 
# 
# 
# High freq. dielectric constant tensor:
#      x y z
#    x 1.789010 0.000000 0.000000 
#    y 0.000000 1.781550 0.000000 
#    z 0.000000 0.000000 1.726390 
# 
# From -- ./inp_files/19758.got.cif
#   From: 2010.03.12/outbox.cif.g09.slc.cpg/sg24_10_cif.got.tgz:19758.got - 2010.04.14 03:06:53.
