data_PCOD8166183
_publ_section_title
;
Structure prediction by ZEFSAII (Michael W. Deem and Ramdas Pophale) SiO2 
 PCOD8166183
Probable space group: I 21 21 21
;
_chemical_formula_sum "Si O2"
_cell_formula_units_Z 40
_cell_length_a 18.418429
_cell_length_b 8.182235
_cell_length_c 11.430637
_cell_angle_alpha 90.000000
_cell_angle_beta 90.000000
_cell_angle_gamma 90.000000
_cell_volume 1722.641740
_symmetry_space_group_name_H-M "I 21 21 21"
_symmetry_group_IT_number 24
_symmetry_cell_setting 'orthorhombic'
loop_
_space_group_symop_operation_xyz
x,y,z
-x,1/2-y,z
x,-y,1/2-z
1/2-x,y,-z
1/2+x,1/2+y,1/2+z
1/2-x,-y,1/2+z
1/2+x,1/2-y,-z
-x,1/2+y,1/2-z
loop_
_atom_site_type_symbol
_atom_site_label
_atom_site_fract_x
_atom_site_fract_y
_atom_site_fract_z
Si Si1 0.072219 0.339316 0.327739
Si Si2 0.573597 0.294437 0.429455
Si Si3 0.655749 0.187505 0.220629
Si Si4 0.691432 0.325806 0.797672
Si Si5 0.424015 0.833214 0.496061
O O1 0.077862 0.500000 0.250000
O O2 0.073540 0.348227 0.469312
O O3 0.145580 0.239366 0.310189
O O4 0.000000 0.250000 0.282290
O O5 0.500000 0.250000 0.357138
O O6 0.641561 0.285788 0.341910
O O7 0.567255 0.472923 0.485744
O O8 0.737404 0.218116 0.177162
O O9 0.599136 0.247972 0.124088
O O10 0.641997 0.000000 0.250000
O O11 0.717983 0.500000 0.750000
O O12 0.639962 0.310528 0.910283
O O13 0.500000 0.750000 0.538070
#
# Coordination Sequence:
#
# PCOD8166183 Si02
#       5
#     8   8   8   8   8
#     4  11  25  42  71 107 148 190 242 302 365 433
#     4  11  25  47  74 111 142 195 246 306 370 436
#     4  12  28  49  72 105 150 197 247 304 372 445
#     4  12  25  47  72 108 145 193 241 300 375 437
#     4  12  26  48  78 107 147 192 249 308 366 442
#
# _framework density 23.220147999999998
#
# number of rings (size 3 to 8) (size 9 to 14) (size 15 to 20)
#    0.000    0.400    2.000    6.000   11.200    0.800 
#    3.600    0.000    0.000    0.000    0.000    0.000 
#    0.000    0.000    0.000    0.000    0.000    0.000 
#
# Total GULP energy -247882.428684 kJ/mol
# GULP energy per Si atom -12394.121434 kJ/mol
# Density = 2.316730 g / cm^3
# Si number density = 23.220148 Si / 1000 Ang^3
#
#
#
# Elastic Constant Matrix: (Units=GPa)
#
#
# Indices 1 2 3 4 5 6 
#
# 1 127.6478 23.4303 48.3157 0.0000 0.0000 0.0000
# 2 23.4303 85.8598 49.9348 0.0000 0.0000 0.0000
# 3 48.3157 49.9348 129.3147 0.0000 0.0000 0.0000
# 4 0.0000 0.0000 0.0000 40.7379 0.0000 0.0000
# 5 0.0000 0.0000 0.0000 0.0000 47.0197 0.0000
# 6 0.0000 0.0000 0.0000 0.0000 0.0000 41.3874
#
#
#
# Elastic Compliance Matrix: (Units=1/GPa)
#
#
# Indices 1 2 3 4 5 6 
#
# 1 0.009153 -0.000656 -0.003166 0.000000 0.000000 0.000000
# 2 -0.000656 0.015067 -0.005573 0.000000 0.000000 0.000000
# 3 -0.003166 -0.005573 0.011068 0.000000 0.000000 0.000000
# 4 0.000000 0.000000 0.000000 0.024547 0.000000 0.000000
# 5 0.000000 0.000000 0.000000 0.000000 0.021268 0.000000
# 6 0.000000 0.000000 0.000000 0.000000 0.000000 0.024162
#
#
# Mechanical properties :
#
#
# Convention : Reuss Voigt Hill
#
# Bulk Modulus (GPa) = 60.61696 65.13155 62.87426
# Shear Modulus (GPa) = 38.59353 40.57176 39.58265
#
# Velocity S-wave (km/s) = 4.08127 4.18457 4.13324
# Velocity P-wave (km/s) = 6.95493 7.17342 7.06502
#
# Compressibility (1/GPa) = 0.01649703
#
# Stress axis : x y z
#
# Youngs Moduli (GPa) = 109.25342 66.36970 90.34938
#
# Poissons Ratio (x) = 0.04355 0.28609
# Poissons Ratio (y) = 0.07169 0.50351
# Poissons Ratio (z) = 0.34594 0.36988
#
# Static dielectric constant tensor:
#      x y z
#    x 4.212650 0.000000 0.000000 
#    y 0.000000 4.083050 0.000000 
#    z 0.000000 0.000000 4.188050 
# 
# 
# High freq. dielectric constant tensor:
#      x y z
#    x 1.930170 0.000000 0.000000 
#    y 0.000000 1.921930 0.000000 
#    z 0.000000 0.000000 1.924970 
# 
# From -- ./inp_files/21338.got.cif
#   From: 2010.03.12/outbox.cif.g09.slc.cpg/sg24_11_cif.got.tgz:21338.got - 2010.04.14 03:06:53.
