data_PCOD8166802
_publ_section_title
;
Structure prediction by ZEFSAII (Michael W. Deem and Ramdas Pophale) SiO2 
 PCOD8166802
Probable space group: P M M 2
;
_chemical_formula_sum "Si O2"
_cell_formula_units_Z 28
_cell_length_a 9.242510
_cell_length_b 19.406583
_cell_length_c 7.985969
_cell_angle_alpha 90.000000
_cell_angle_beta 90.000000
_cell_angle_gamma 90.000000
_cell_volume 1432.407622
_symmetry_space_group_name_H-M "P M M 2"
_symmetry_group_IT_number 25
_symmetry_cell_setting 'orthorhombic'
loop_
_space_group_symop_operation_xyz
x,y,z
-x,-y,z
-x,y,z
x,-y,z
loop_
_atom_site_type_symbol
_atom_site_label
_atom_site_fract_x
_atom_site_fract_y
_atom_site_fract_z
Si Si1 0.834980 0.424138 0.235010
Si Si2 0.331294 0.168722 0.898810
Si Si3 0.327820 0.077214 0.587540
Si Si4 0.167119 0.704729 0.776228
Si Si5 0.331413 0.421982 0.897078
Si Si6 0.332379 0.837711 0.271980
Si Si7 0.162980 0.285257 0.396936
O O1 0.811530 0.500000 0.316162
O O2 0.799804 0.365971 0.372008
O O3 0.000000 0.417152 0.168527
O O4 0.724611 0.413054 0.084778
O O5 0.500000 0.185457 0.871446
O O6 0.273912 0.117785 0.753232
O O7 0.244472 0.240475 0.896921
O O8 0.305674 0.134189 0.082577
O O9 0.500000 0.074901 0.585011
O O10 0.267911 0.111525 0.415022
O O11 0.264309 0.000000 0.596566
O O12 0.243446 0.630486 0.781180
O O13 0.184796 0.733707 0.589817
O O14 0.000000 0.696885 0.828904
O O15 0.500000 0.403235 0.892331
O O16 0.303925 0.500000 0.833210
O O17 0.500000 0.828326 0.308405
O O18 0.264409 0.762115 0.284557
O O19 0.000000 0.270078 0.339368
#
# Coordination Sequence:
#
# PCOD8166802 Si02
#       7
#     4   4   4   4   4   4   4
#     4   9  18  34  54  75 102 138 181 229 278 328
#     4  10  20  35  57  84 113 147 186 228 275 328
#     4   9  18  34  56  84 117 147 178 223 275 327
#     4  11  22  35  54  79 108 145 187 231 278 329
#     4  10  21  36  53  76 107 142 182 229 280 333
#     4  10  20  34  56  83 110 145 184 224 273 327
#     4  10  21  35  53  78 107 142 184 230 276 325
#
# _framework density 19.547509000000002
#
# number of rings (size 3 to 8) (size 9 to 14) (size 15 to 20)
#    0.000    2.143    1.429    1.714    0.000    6.000 
#    0.000    4.286    0.000    3.429    0.000    2.000 
#    0.000    0.000    0.000    0.000    0.000    0.000 
#
# Total GULP energy -347140.303462 kJ/mol
# GULP energy per Si atom -12397.867981 kJ/mol
# Density = 1.950302 g / cm^3
# Si number density = 19.547509 Si / 1000 Ang^3
#
#
#
# Elastic Constant Matrix: (Units=GPa)
#
#
# Indices 1 2 3 4 5 6 
#
# 1 68.2392 43.0741 34.4437 0.0000 0.0000 0.0000
# 2 43.0741 128.9371 58.1499 0.0000 0.0000 0.0000
# 3 34.4437 58.1499 112.6061 0.0000 0.0000 0.0000
# 4 0.0000 0.0000 0.0000 28.3231 0.0000 0.0000
# 5 0.0000 0.0000 0.0000 0.0000 21.9969 0.0000
# 6 0.0000 0.0000 0.0000 0.0000 0.0000 16.7807
#
#
#
# Elastic Compliance Matrix: (Units=1/GPa)
#
#
# Indices 1 2 3 4 5 6 
#
# 1 0.019517 -0.004990 -0.003393 0.000000 0.000000 0.000000
# 2 -0.004990 0.011386 -0.004354 0.000000 0.000000 0.000000
# 3 -0.003393 -0.004354 0.012167 0.000000 0.000000 0.000000
# 4 0.000000 0.000000 0.000000 0.035307 0.000000 0.000000
# 5 0.000000 0.000000 0.000000 0.000000 0.045461 0.000000
# 6 0.000000 0.000000 0.000000 0.000000 0.000000 0.059592
#
#
# Mechanical properties :
#
#
# Convention : Reuss Voigt Hill
#
# Bulk Modulus (GPa) = 56.82889 64.56865 60.69877
# Shear Modulus (GPa) = 23.28101 25.02778 24.15440
#
# Velocity S-wave (km/s) = 3.45483 3.58209 3.51903
# Velocity P-wave (km/s) = 6.71191 7.08603 6.90151
#
# Compressibility (1/GPa) = 0.01759669
#
# Stress axis : x y z
#
# Youngs Moduli (GPa) = 51.23860 87.82684 82.19274
#
# Poissons Ratio (x) = 0.43823 0.27888
# Poissons Ratio (y) = 0.25566 0.35783
# Poissons Ratio (z) = 0.17385 0.38236
#
# Static dielectric constant tensor:
#      x y z
#    x 3.388200 0.000000 0.000000 
#    y 0.000000 3.657100 0.000000 
#    z 0.000000 0.000000 3.560760 
# 
# 
# High freq. dielectric constant tensor:
#      x y z
#    x 1.741610 0.000000 0.000000 
#    y 0.000000 1.759970 0.000000 
#    z 0.000000 0.000000 1.759360 
# 
# From -- ./inp_files/2310.got.cif
#   From: 2010.03.12/outbox.cif.g09.slc.cpg/sg25_2_cif.got.tgz:2310.got - 2010.04.14 03:30:10.
