data_PCOD8166544
_publ_section_title
;
Structure prediction by ZEFSAII (Michael W. Deem and Ramdas Pophale) SiO2 
 PCOD8166544
Probable space group: P M M 2
;
_chemical_formula_sum "Si O2"
_cell_formula_units_Z 32
_cell_length_a 8.763503
_cell_length_b 14.557223
_cell_length_c 12.410734
_cell_angle_alpha 90.000000
_cell_angle_beta 90.000000
_cell_angle_gamma 90.000000
_cell_volume 1583.265477
_symmetry_space_group_name_H-M "P M M 2"
_symmetry_group_IT_number 25
_symmetry_cell_setting 'orthorhombic'
loop_
_space_group_symop_operation_xyz
x,y,z
-x,-y,z
-x,y,z
x,-y,z
loop_
_atom_site_type_symbol
_atom_site_label
_atom_site_fract_x
_atom_site_fract_y
_atom_site_fract_z
Si Si1 0.678753 0.897203 0.436450
Si Si2 0.319235 0.393880 0.714203
Si Si3 0.171083 0.399423 0.324919
Si Si4 0.820431 0.713458 0.910519
Si Si5 0.819018 0.279217 0.520300
Si Si6 0.320413 0.898621 0.969542
Si Si7 0.669006 0.862935 0.202431
Si Si8 0.330089 0.338250 0.127956
O O1 0.500000 0.871482 0.434317
O O2 0.764349 0.826609 0.515836
O O3 0.749868 0.891989 0.314526
O O4 0.705299 0.000000 0.481714
O O5 0.500000 0.387821 0.712969
O O6 0.265070 0.500000 0.703418
O O7 0.258571 0.351912 0.824755
O O8 0.254135 0.331823 0.619446
O O9 0.172396 0.500000 0.379554
O O10 0.239895 0.328498 0.411359
O O11 0.265214 0.409782 0.214113
O O12 0.000000 0.368199 0.294958
O O13 0.762017 0.819292 0.900565
O O14 0.000000 0.712935 0.892129
O O15 0.779674 0.670539 0.025877
O O16 0.000000 0.283899 0.532687
O O17 0.500000 0.873227 0.973596
O O18 0.293150 0.000000 0.917870
O O19 0.253210 0.900531 0.092228
O O20 0.500000 0.905678 0.206587
O O21 0.666170 0.754030 0.197106
O O22 0.500000 0.366645 0.089386
#
# Coordination Sequence:
#
# PCOD8166544 Si02
#       8
#     4   4   4   4   4   4   4   4
#     4  10  19  33  56  86 121 162 207 250 293 346
#     4  11  25  46  71  93 112 144 199 257 303 358
#     4  10  21  36  55  83 120 159 194 234 296 367
#     4  11  23  39  61  89 124 159 195 244 304 364
#     4  11  23  40  62  88 124 159 193 244 304 364
#     4   9  17  32  56  87 124 165 207 248 291 344
#     4   8  14  27  50  80 115 156 200 243 285 333
#     4  10  19  34  57  84 118 158 201 247 292 345
#
# _framework density 20.211390999999999
#
# number of rings (size 3 to 8) (size 9 to 14) (size 15 to 20)
#    0.000    2.000    1.250    3.750    0.000    4.750 
#    0.000    0.625    0.000    5.250    0.000    0.000 
#    0.000    0.000    0.000    0.000    0.000    0.000 
#
# Total GULP energy -396634.488182 kJ/mol
# GULP energy per Si atom -12394.827756 kJ/mol
# Density = 2.016539 g / cm^3
# Si number density = 20.211391 Si / 1000 Ang^3
#
#
#
# Elastic Constant Matrix: (Units=GPa)
#
#
# Indices 1 2 3 4 5 6 
#
# 1 64.0104 40.4691 28.7868 0.0000 0.0000 0.0000
# 2 40.4691 131.4032 57.7516 0.0000 0.0000 0.0000
# 3 28.7868 57.7516 91.2890 0.0000 0.0000 0.0000
# 4 0.0000 0.0000 0.0000 23.5440 0.0000 0.0000
# 5 0.0000 0.0000 0.0000 0.0000 29.3921 0.0000
# 6 0.0000 0.0000 0.0000 0.0000 0.0000 24.0668
#
#
#
# Elastic Compliance Matrix: (Units=1/GPa)
#
#
# Indices 1 2 3 4 5 6 
#
# 1 0.020116 -0.004720 -0.003358 0.000000 0.000000 0.000000
# 2 -0.004720 0.011648 -0.005881 0.000000 0.000000 0.000000
# 3 -0.003358 -0.005881 0.015733 0.000000 0.000000 0.000000
# 4 0.000000 0.000000 0.000000 0.042474 0.000000 0.000000
# 5 0.000000 0.000000 0.000000 0.000000 0.034023 0.000000
# 6 0.000000 0.000000 0.000000 0.000000 0.000000 0.041551
#
#
# Mechanical properties :
#
#
# Convention : Reuss Voigt Hill
#
# Bulk Modulus (GPa) = 51.06759 60.07972 55.57366
# Shear Modulus (GPa) = 25.00140 26.04691 25.52416
#
# Velocity S-wave (km/s) = 3.52091 3.59378 3.55753
# Velocity P-wave (km/s) = 6.46921 6.85642 6.66563
#
# Compressibility (1/GPa) = 0.01958189
#
# Stress axis : x y z
#
# Youngs Moduli (GPa) = 49.71069 85.84961 63.55955
#
# Poissons Ratio (x) = 0.40518 0.21341
# Poissons Ratio (y) = 0.23462 0.37377
# Poissons Ratio (z) = 0.16691 0.50485
#
# Static dielectric constant tensor:
#      x y z
#    x 3.506590 0.000000 0.000000 
#    y 0.000000 3.781220 0.000000 
#    z 0.000000 0.000000 3.518020 
# 
# 
# High freq. dielectric constant tensor:
#      x y z
#    x 1.769260 0.000000 0.000000 
#    y 0.000000 1.800680 0.000000 
#    z 0.000000 0.000000 1.770980 
# 
# From -- ./inp_files/4202.got.cif
#   From: 2010.03.12/outbox.cif.g09.slc.cpg/sg25_3_cif.got.tgz:4202.got - 2010.04.14 03:30:10.
