data_PCOD8166675
_publ_section_title
;
Structure prediction by ZEFSAII (Michael W. Deem and Ramdas Pophale) SiO2 
 PCOD8166675
Probable space group: P M M 2
;
_chemical_formula_sum "Si O2"
_cell_formula_units_Z 28
_cell_length_a 8.977591
_cell_length_b 9.361086
_cell_length_c 18.377671
_cell_angle_alpha 90.000000
_cell_angle_beta 90.000000
_cell_angle_gamma 90.000000
_cell_volume 1544.459497
_symmetry_space_group_name_H-M "P M M 2"
_symmetry_group_IT_number 25
_symmetry_cell_setting 'orthorhombic'
loop_
_space_group_symop_operation_xyz
x,y,z
-x,-y,z
-x,y,z
x,-y,z
loop_
_atom_site_type_symbol
_atom_site_label
_atom_site_fract_x
_atom_site_fract_y
_atom_site_fract_z
Si Si1 0.321781 0.839617 0.229680
Si Si2 0.824224 0.663427 0.945003
Si Si3 0.336640 0.830254 0.385201
Si Si4 0.670904 0.666330 0.092946
Si Si5 0.678521 0.160910 0.541468
Si Si6 0.324733 0.834152 0.817089
Si Si7 0.322695 0.661184 0.676954
O O1 0.500000 0.833367 0.234139
O O2 0.257035 0.784935 0.308748
O O3 0.261434 0.742403 0.164262
O O4 0.267035 0.000000 0.213795
O O5 0.773604 0.500000 0.929297
O O6 0.756413 0.768567 0.886082
O O7 0.000000 0.677621 0.944125
O O8 0.765195 0.714365 0.023259
O O9 0.500000 0.759022 0.386284
O O10 0.256574 0.788579 0.461952
O O11 0.353573 0.000000 0.383762
O O12 0.500000 0.711550 0.079388
O O13 0.686343 0.500000 0.107636
O O14 0.500000 0.163914 0.538488
O O15 0.740604 0.266509 0.603449
O O16 0.731894 0.000000 0.559870
O O17 0.500000 0.812608 0.827385
O O18 0.266000 0.752019 0.745691
O O19 0.282687 0.000000 0.809266
O O20 0.500000 0.661488 0.675012
O O21 0.260504 0.500000 0.682732
#
# Coordination Sequence:
#
# PCOD8166675 Si02
#       7
#     4   4   4   4   4   4   4
#     4   8  13  22  37  57  81 111 148 184 216 257
#     4  10  21  36  52  69  91 120 152 187 231 281
#     4   7  10  17  30  49  75 109 145 178 214 257
#     4   9  17  29  45  65  89 116 146 182 224 268
#     4   8  12  19  32  50  76 111 147 180 216 260
#     4  10  20  33  50  71  93 119 153 191 230 273
#     4   9  16  25  38  58  85 116 149 184 221 263
#
# _framework density 18.129318999999999
#
# number of rings (size 3 to 8) (size 9 to 14) (size 15 to 20)
#    0.000    3.286    0.000    3.000    0.000    4.000 
#    0.000    2.143    0.000    4.286    0.000    0.000 
#    0.000    1.143    0.000    9.143    0.000   10.143 
#
# Total GULP energy -346914.668019 kJ/mol
# GULP energy per Si atom -12389.809572 kJ/mol
# Density = 1.808806 g / cm^3
# Si number density = 18.129319 Si / 1000 Ang^3
#
#
#
# Elastic Constant Matrix: (Units=GPa)
#
#
# Indices 1 2 3 4 5 6 
#
# 1 17.3180 23.2566 27.6153 0.0000 0.0000 0.0000
# 2 23.2566 100.2130 93.2400 0.0000 0.0000 0.0000
# 3 27.6153 93.2400 203.8201 0.0000 0.0000 0.0000
# 4 0.0000 0.0000 0.0000 25.6376 0.0000 0.0000
# 5 0.0000 0.0000 0.0000 0.0000 -2.1395 0.0000
# 6 0.0000 0.0000 0.0000 0.0000 0.0000 10.4167
#
#
#
# Elastic Compliance Matrix: (Units=1/GPa)
#
#
# Indices 1 2 3 4 5 6 
#
# 1 0.086091 -0.015890 -0.004395 0.000000 0.000000 0.000000
# 2 -0.015890 0.020306 -0.007136 0.000000 0.000000 0.000000
# 3 -0.004395 -0.007136 0.008766 0.000000 0.000000 0.000000
# 4 0.000000 0.000000 0.000000 0.039005 0.000000 0.000000
# 5 0.000000 0.000000 0.000000 0.000000 -0.467406 0.000000
# 6 0.000000 0.000000 0.000000 0.000000 0.000000 0.096000
#
#
# Mechanical properties :
#
#
# Convention : Reuss Voigt Hill
#
# Bulk Modulus (GPa) = 16.57815 67.73053 42.15434
# Shear Modulus (GPa) = -35.14004 18.59890 -8.27057
#
# Velocity S-wave (km/s) = -4.40739 3.20644 -2.13820
# Velocity P-wave (km/s) = 4.09095 7.15186 4.14809
#
# Compressibility (1/GPa) = 0.06032036
#
# Stress axis : x y z
#
# Youngs Moduli (GPa) = 11.61565 49.24610 114.07115
#
# Poissons Ratio (x) = 0.78251 0.50138
# Poissons Ratio (y) = 0.18457 0.81406
# Poissons Ratio (z) = 0.05106 0.35144
#
# Static dielectric constant tensor:
#      x y z
#    x 2.682870 0.000000 0.000000 
#    y 0.000000 3.297860 0.000000 
#    z 0.000000 0.000000 3.885230 
# 
# 
# High freq. dielectric constant tensor:
#      x y z
#    x 1.626880 0.000000 0.000000 
#    y 0.000000 1.685400 0.000000 
#    z 0.000000 0.000000 1.730190 
# 
# From -- ./inp_files/6395.got.cif
#   From: 2010.03.12/outbox.cif.g09.slc.cpg/sg25_4_cif.got.tgz:6395.got - 2010.04.14 03:30:10.
