data_PCOD8166575
_publ_section_title
;
Structure prediction by ZEFSAII (Michael W. Deem and Ramdas Pophale) SiO2 
 PCOD8166575
Probable space group: P M M 2
;
_chemical_formula_sum "Si O2"
_cell_formula_units_Z 32
_cell_length_a 9.213571
_cell_length_b 9.610194
_cell_length_c 20.852633
_cell_angle_alpha 90.000000
_cell_angle_beta 90.000000
_cell_angle_gamma 90.000000
_cell_volume 1846.379806
_symmetry_space_group_name_H-M "P M M 2"
_symmetry_group_IT_number 25
_symmetry_cell_setting 'orthorhombic'
loop_
_space_group_symop_operation_xyz
x,y,z
-x,-y,z
-x,y,z
x,-y,z
loop_
_atom_site_type_symbol
_atom_site_label
_atom_site_fract_x
_atom_site_fract_y
_atom_site_fract_z
Si Si1 0.158673 0.164932 0.304170
Si Si2 0.826344 0.156303 0.166869
Si Si3 0.329927 0.339601 0.923385
Si Si4 0.669857 0.838819 0.664384
Si Si5 0.826474 0.843519 0.441897
Si Si6 0.830281 0.660862 0.049894
Si Si7 0.327720 0.846377 0.808360
Si Si8 0.827922 0.339800 0.559491
O O1 0.236882 0.207571 0.236776
O O2 0.237788 0.204107 0.371725
O O3 0.000000 0.235986 0.304914
O O4 0.139999 0.000000 0.302814
O O5 0.767925 0.256581 0.111136
O O6 0.000000 0.160855 0.170737
O O7 0.773207 0.000000 0.151310
O O8 0.500000 0.313550 0.932524
O O9 0.292897 0.500000 0.911833
O O10 0.266578 0.259286 0.861540
O O11 0.250356 0.283223 0.986715
O O12 0.500000 0.810494 0.654395
O O13 0.719352 0.801730 0.736858
O O14 0.759861 0.736124 0.620102
O O15 0.706080 0.000000 0.648971
O O16 0.769908 0.736130 0.495244
O O17 0.000000 0.842678 0.437636
O O18 0.773085 0.000000 0.459378
O O19 0.794797 0.500000 0.061807
O O20 0.000000 0.688147 0.040305
O O21 0.500000 0.849016 0.810632
O O22 0.266697 0.000000 0.823989
O O23 0.777560 0.500000 0.557572
O O24 0.000000 0.327103 0.564799
#
# Coordination Sequence:
#
# PCOD8166575 Si02
#       8
#     4   4   4   4   4   4   4   4
#     4   7  10  18  34  56  79 104 138 177 213 249
#     4   8  13  22  37  57  81 108 138 173 211 250
#     4   9  17  29  45  63  82 108 141 170 199 245
#     4   9  18  33  52  71  89 113 148 186 223 266
#     4   8  13  23  40  59  81 113 148 179 215 258
#     4   9  17  28  40  57  84 113 137 166 207 249
#     4   8  15  29  48  68  87 105 132 176 220 251
#     4  10  20  31  43  65  97 126 150 180 220 264
#
# _framework density 17.331212000000001
#
# number of rings (size 3 to 8) (size 9 to 14) (size 15 to 20)
#    0.000    3.500    0.000    2.625    0.000    2.000 
#    0.000    2.500    0.000    6.000    0.000    0.875 
#    0.000    5.000    0.000    0.000    0.000    0.000 
#
# Total GULP energy -396456.927861 kJ/mol
# GULP energy per Si atom -12389.278996 kJ/mol
# Density = 1.729177 g / cm^3
# Si number density = 17.331212 Si / 1000 Ang^3
#
#
#
# Elastic Constant Matrix: (Units=GPa)
#
#
# Indices 1 2 3 4 5 6 
#
# 1 13.4804 20.1980 26.9034 0.0000 0.0000 0.0000
# 2 20.1980 93.8933 93.0553 0.0000 0.0000 0.0000
# 3 26.9034 93.0553 194.5900 0.0000 0.0000 0.0000
# 4 0.0000 0.0000 0.0000 17.7090 0.0000 0.0000
# 5 0.0000 0.0000 0.0000 0.0000 -3.6691 0.0000
# 6 0.0000 0.0000 0.0000 0.0000 0.0000 15.2818
#
#
#
# Elastic Compliance Matrix: (Units=1/GPa)
#
#
# Indices 1 2 3 4 5 6 
#
# 1 0.115309 -0.017118 -0.007756 0.000000 0.000000 0.000000
# 2 -0.017118 0.022787 -0.008530 0.000000 0.000000 0.000000
# 3 -0.007756 -0.008530 0.010291 0.000000 0.000000 0.000000
# 4 0.000000 0.000000 0.000000 0.056468 0.000000 0.000000
# 5 0.000000 0.000000 0.000000 0.000000 -0.272546 0.000000
# 6 0.000000 0.000000 0.000000 0.000000 0.000000 0.065437
#
#
# Mechanical properties :
#
#
# Convention : Reuss Voigt Hill
#
# Bulk Modulus (GPa) = 12.25825 64.69744 38.47785
# Shear Modulus (GPa) = 54.49729 16.65147 35.57438
#
# Velocity S-wave (km/s) = 5.61363 3.10301 4.53550
# Velocity P-wave (km/s) = 7.00753 7.08867 7.04822
#
# Compressibility (1/GPa) = 0.08157770
#
# Stress axis : x y z
#
# Youngs Moduli (GPa) = 8.67237 43.88497 97.17532
#
# Poissons Ratio (x) = 0.75121 0.75372
# Poissons Ratio (y) = 0.14845 0.82894
# Poissons Ratio (z) = 0.06727 0.37435
#
# Static dielectric constant tensor:
#      x y z
#    x 2.667640 0.000000 0.000000 
#    y 0.000000 3.225710 0.000000 
#    z 0.000000 0.000000 3.769870 
# 
# 
# High freq. dielectric constant tensor:
#      x y z
#    x 1.605660 0.000000 0.000000 
#    y 0.000000 1.653040 0.000000 
#    z 0.000000 0.000000 1.692690 
# 
# From -- ./inp_files/6371.got.cif
#   From: 2010.03.12/outbox.cif.g09.slc.cpg/sg25_4_cif.got.tgz:6371.got - 2010.04.14 03:30:10.
