data_PCOD8166945
_publ_section_title
;
Structure prediction by ZEFSAII (Michael W. Deem and Ramdas Pophale) SiO2 
 PCOD8166945
Probable space group: P M M 2
;
_chemical_formula_sum "Si O2"
_cell_formula_units_Z 24
_cell_length_a 18.959522
_cell_length_b 8.781894
_cell_length_c 7.676727
_cell_angle_alpha 90.000000
_cell_angle_beta 90.000000
_cell_angle_gamma 90.000000
_cell_volume 1278.178980
_symmetry_space_group_name_H-M "P M M 2"
_symmetry_group_IT_number 25
_symmetry_cell_setting 'orthorhombic'
loop_
_space_group_symop_operation_xyz
x,y,z
-x,-y,z
-x,y,z
x,-y,z
loop_
_atom_site_type_symbol
_atom_site_label
_atom_site_fract_x
_atom_site_fract_y
_atom_site_fract_z
Si Si1 0.579147 0.318210 0.075020
Si Si2 0.326997 0.320542 0.383765
Si Si3 0.169916 0.820827 0.754390
Si Si4 0.831646 0.679509 0.388398
Si Si5 0.680152 0.319521 0.770916
Si Si6 0.917547 0.323552 0.052631
O O1 0.500000 0.252138 0.067487
O O2 0.577404 0.500000 0.078854
O O3 0.617761 0.249895 0.246373
O O4 0.621896 0.260693 0.906481
O O5 0.332591 0.500000 0.368877
O O6 0.247618 0.269072 0.337348
O O7 0.346048 0.267546 0.579433
O O8 0.144920 0.760269 0.566451
O O9 0.244383 0.751674 0.815145
O O10 0.110997 0.775164 0.893548
O O11 0.177280 0.000000 0.745416
O O12 0.835313 0.500000 0.422776
O O13 0.882567 0.731556 0.233193
O O14 0.690124 0.500000 0.780801
O O15 0.899561 0.500000 0.018158
O O16 0.000000 0.294318 0.070212
#
# Coordination Sequence:
#
# PCOD8166945 Si02
#       6
#     4   4   4   4   4   4
#     4   9  16  25  42  72 104 129 159 208 266 312
#     4   8  14  25  43  66  93 125 161 205 253 297
#     4  11  22  35  54  80 109 141 176 217 264 311
#     4   9  18  35  57  78 102 137 181 223 260 304
#     4   9  17  31  50  71  97 132 174 215 254 302
#     4  10  21  37  58  82 107 138 175 214 259 314
#
# _framework density 18.776713000000001
#
# number of rings (size 3 to 8) (size 9 to 14) (size 15 to 20)
#    0.000    2.667    0.000    3.500    0.000    5.000 
#    0.000    5.000    0.000    0.500    0.000    0.000 
#    0.000    0.000    0.000    0.000    0.000    0.000 
#
# Total GULP energy -297576.134054 kJ/mol
# GULP energy per Si atom -12399.005586 kJ/mol
# Density = 1.873398 g / cm^3
# Si number density = 18.776713 Si / 1000 Ang^3
#
#
#
# Elastic Constant Matrix: (Units=GPa)
#
#
# Indices 1 2 3 4 5 6 
#
# 1 124.8609 23.8114 93.7829 0.0000 0.0000 0.0000
# 2 23.8114 36.2153 24.9181 0.0000 0.0000 0.0000
# 3 93.7829 24.9181 149.2933 0.0000 0.0000 0.0000
# 4 0.0000 0.0000 0.0000 5.1247 0.0000 0.0000
# 5 0.0000 0.0000 0.0000 0.0000 20.8771 0.0000
# 6 0.0000 0.0000 0.0000 0.0000 0.0000 6.6404
#
#
#
# Elastic Compliance Matrix: (Units=1/GPa)
#
#
# Indices 1 2 3 4 5 6 
#
# 1 0.015656 -0.003985 -0.009170 0.000000 0.000000 0.000000
# 2 -0.003985 0.032209 -0.002873 0.000000 0.000000 0.000000
# 3 -0.009170 -0.002873 0.012938 0.000000 0.000000 0.000000
# 4 0.000000 0.000000 0.000000 0.195132 0.000000 0.000000
# 5 0.000000 0.000000 0.000000 0.000000 0.047899 0.000000
# 6 0.000000 0.000000 0.000000 0.000000 0.000000 0.150593
#
#
# Mechanical properties :
#
#
# Convention : Reuss Voigt Hill
#
# Bulk Modulus (GPa) = 34.78407 66.15493 50.46950
# Shear Modulus (GPa) = 10.07932 17.71893 13.89912
#
# Velocity S-wave (km/s) = 2.31941 3.07525 2.72367
# Velocity P-wave (km/s) = 5.07328 6.92231 6.06863
#
# Compressibility (1/GPa) = 0.02874879
#
# Stress axis : x y z
#
# Youngs Moduli (GPa) = 63.87212 31.04703 77.29126
#
# Poissons Ratio (x) = 0.12371 0.70875
# Poissons Ratio (y) = 0.25450 0.22205
# Poissons Ratio (z) = 0.58570 0.08920
#
# Static dielectric constant tensor:
#      x y z
#    x 3.597400 0.000000 0.000000 
#    y 0.000000 2.969940 0.000000 
#    z 0.000000 0.000000 3.743540 
# 
# 
# High freq. dielectric constant tensor:
#      x y z
#    x 1.726990 0.000000 0.000000 
#    y 0.000000 1.679880 0.000000 
#    z 0.000000 0.000000 1.745220 
# 
# From -- ./inp_files/3345.got.cif
#   From: 2010.03.12/outbox.cif.g09.slc.cpg/sg25_2_cif.got.tgz:3345.got - 2010.04.14 03:30:10.
