data_PCOD8166805
_publ_section_title
;
Structure prediction by ZEFSAII (Michael W. Deem and Ramdas Pophale) SiO2 
 PCOD8166805
Probable space group: P M M 2
;
_chemical_formula_sum "Si O2"
_cell_formula_units_Z 32
_cell_length_a 8.878178
_cell_length_b 14.642811
_cell_length_c 12.395860
_cell_angle_alpha 90.000000
_cell_angle_beta 90.000000
_cell_angle_gamma 90.000000
_cell_volume 1611.480177
_symmetry_space_group_name_H-M "P M M 2"
_symmetry_group_IT_number 25
_symmetry_cell_setting 'orthorhombic'
loop_
_space_group_symop_operation_xyz
x,y,z
-x,-y,z
-x,y,z
x,-y,z
loop_
_atom_site_type_symbol
_atom_site_label
_atom_site_fract_x
_atom_site_fract_y
_atom_site_fract_z
Si Si1 0.323814 0.163066 0.309310
Si Si2 0.173963 0.597165 0.145289
Si Si3 0.323222 0.779571 0.680684
Si Si4 0.174655 0.398052 0.616282
Si Si5 0.676352 0.893536 0.890335
Si Si6 0.828122 0.099171 0.505623
Si Si7 0.172005 0.341445 0.378139
Si Si8 0.820803 0.204830 0.090925
O O1 0.500000 0.148856 0.292658
O O2 0.257322 0.088603 0.391412
O O3 0.288060 0.258971 0.366279
O O4 0.243883 0.151984 0.194041
O O5 0.245273 0.500000 0.102771
O O6 0.194851 0.594183 0.274675
O O7 0.243399 0.689817 0.092515
O O8 0.000000 0.597170 0.114056
O O9 0.500000 0.784041 0.663768
O O10 0.269754 0.674325 0.687065
O O11 0.274520 0.836959 0.785195
O O12 0.244770 0.823012 0.577622
O O13 0.218290 0.500000 0.655435
O O14 0.210191 0.393768 0.488488
O O15 0.000000 0.378081 0.638296
O O16 0.500000 0.882690 0.914073
O O17 0.719730 0.000000 0.875663
O O18 0.769053 0.849395 0.986732
O O19 0.000000 0.127400 0.485199
O O20 0.816026 0.000000 0.562868
O O21 0.000000 0.304271 0.379413
O O22 0.000000 0.205227 0.098368
#
# Coordination Sequence:
#
# PCOD8166805 Si02
#       8
#     4   4   4   4   4   4   4   4
#     4  11  21  34  55  83 120 160 193 233 291 354
#     4   8  14  27  50  81 115 151 189 227 274 331
#     4  11  23  40  62  87 118 153 193 247 304 358
#     4  10  20  34  56  86 121 162 203 242 288 345
#     4  10  23  44  66  85 109 147 195 245 301 364
#     4  11  23  38  58  85 117 153 194 242 296 357
#     4   9  16  29  51  79 115 156 199 242 280 330
#     4  10  21  37  60  88 117 149 192 246 294 343
#
# _framework density 19.857520000000001
#
# number of rings (size 3 to 8) (size 9 to 14) (size 15 to 20)
#    0.000    2.000    1.250    3.750    0.000    5.000 
#    0.000    0.625    0.000   14.625    0.000    0.000 
#    0.000    0.000    0.000    0.000    0.000    0.000 
#
# Total GULP energy -396625.078676 kJ/mol
# GULP energy per Si atom -12394.533709 kJ/mol
# Density = 1.981232 g / cm^3
# Si number density = 19.857520 Si / 1000 Ang^3
#
#
#
# Elastic Constant Matrix: (Units=GPa)
#
#
# Indices 1 2 3 4 5 6 
#
# 1 83.0967 42.7091 51.8745 0.0000 0.0000 0.0000
# 2 42.7091 131.1303 53.7885 0.0000 0.0000 0.0000
# 3 51.8745 53.7885 101.1930 0.0000 0.0000 0.0000
# 4 0.0000 0.0000 0.0000 23.9810 0.0000 0.0000
# 5 0.0000 0.0000 0.0000 0.0000 26.3949 0.0000
# 6 0.0000 0.0000 0.0000 0.0000 0.0000 17.9905
#
#
#
# Elastic Compliance Matrix: (Units=1/GPa)
#
#
# Indices 1 2 3 4 5 6 
#
# 1 0.018426 -0.002720 -0.008000 0.000000 0.000000 0.000000
# 2 -0.002720 0.010154 -0.004003 0.000000 0.000000 0.000000
# 3 -0.008000 -0.004003 0.016111 0.000000 0.000000 0.000000
# 4 0.000000 0.000000 0.000000 0.041700 0.000000 0.000000
# 5 0.000000 0.000000 0.000000 0.000000 0.037886 0.000000
# 6 0.000000 0.000000 0.000000 0.000000 0.000000 0.055585
#
#
# Mechanical properties :
#
#
# Convention : Reuss Voigt Hill
#
# Bulk Modulus (GPa) = 65.59429 68.01825 66.80627
# Shear Modulus (GPa) = 23.32205 24.80981 24.06593
#
# Velocity S-wave (km/s) = 3.43077 3.53851 3.48506
# Velocity P-wave (km/s) = 6.98554 7.14298 7.06470
#
# Compressibility (1/GPa) = 0.01524523
#
# Stress axis : x y z
#
# Youngs Moduli (GPa) = 54.27019 98.48508 62.06953
#
# Poissons Ratio (x) = 0.26786 0.49657
# Poissons Ratio (y) = 0.14761 0.24846
# Poissons Ratio (z) = 0.43417 0.39423
#
# Static dielectric constant tensor:
#      x y z
#    x 3.418330 0.000000 0.000000 
#    y 0.000000 3.945730 0.000000 
#    z 0.000000 0.000000 3.519490 
# 
# 
# High freq. dielectric constant tensor:
#      x y z
#    x 1.755870 0.000000 0.000000 
#    y 0.000000 1.787290 0.000000 
#    z 0.000000 0.000000 1.755270 
# 
# From -- ./inp_files/4290.got.cif
#   From: 2010.03.12/outbox.cif.g09.slc.cpg/sg25_3_cif.got.tgz:4290.got - 2010.04.14 03:30:10.
