data_PCOD8166218
_publ_section_title
;
Structure prediction by ZEFSAII (Michael W. Deem and Ramdas Pophale) SiO2 
 PCOD8166218
Probable space group: I 21 21 21
;
_chemical_formula_sum "Si O2"
_cell_formula_units_Z 32
_cell_length_a 10.759386
_cell_length_b 10.168967
_cell_length_c 12.868408
_cell_angle_alpha 90.000000
_cell_angle_beta 90.000000
_cell_angle_gamma 90.000000
_cell_volume 1407.956212
_symmetry_space_group_name_H-M "I 21 21 21"
_symmetry_group_IT_number 24
_symmetry_cell_setting 'orthorhombic'
loop_
_space_group_symop_operation_xyz
x,y,z
-x,1/2-y,z
x,-y,1/2-z
1/2-x,y,-z
1/2+x,1/2+y,1/2+z
1/2-x,-y,1/2+z
1/2+x,1/2-y,-z
-x,1/2+y,1/2-z
loop_
_atom_site_type_symbol
_atom_site_label
_atom_site_fract_x
_atom_site_fract_y
_atom_site_fract_z
Si Si1 0.750000 0.383532 0.000000
Si Si2 0.017333 0.521275 0.461941
Si Si3 0.572974 0.887570 0.319251
Si Si4 0.326821 0.295416 0.816635
Si Si5 0.500000 0.750000 0.856847
O O1 0.873679 0.469934 0.003790
O O2 0.753574 0.297506 0.103598
O O3 0.094277 0.561780 0.563026
O O4 0.060686 0.619588 0.369489
O O5 0.038938 0.371951 0.428199
O O6 0.500000 0.750000 0.313816
O O7 0.712607 0.880172 0.272302
O O8 0.503777 0.000000 0.250000
O O9 0.383804 0.216339 0.718915
#
# Coordination Sequence:
#
# PCOD8166218 Si02
#       5
#     4   8   8   8   4
#     4  12  22  44  76  96 142 184 242 294 372 432
#     4  12  25  48  72 107 146 191 245 310 369 448
#     4  12  26  46  74 104 149 196 247 305 378 441
#     4  12  23  47  74 104 140 198 244 298 371 446
#     4  12  28  44  78 108 146 190 256 300 368 444
#
# _framework density 22.727978
#
# number of rings (size 3 to 8) (size 9 to 14) (size 15 to 20)
#    0.000    0.000    7.500    2.250    1.750    2.000 
#    4.500    0.000    0.000    0.000    0.000    0.000 
#    0.000    0.000    0.000    0.000    0.000    0.000 
#
# Total GULP energy -198307.343550 kJ/mol
# GULP energy per Si atom -12394.208972 kJ/mol
# Density = 2.267625 g / cm^3
# Si number density = 22.727978 Si / 1000 Ang^3
#
#
#
# Elastic Constant Matrix: (Units=GPa)
#
#
# Indices 1 2 3 4 5 6 
#
# 1 118.2580 11.0810 27.5079 0.0000 0.0000 0.0000
# 2 11.0810 123.1025 68.3376 0.0000 0.0000 0.0000
# 3 27.5079 68.3376 83.0432 0.0000 0.0000 0.0000
# 4 0.0000 0.0000 0.0000 41.4966 0.0000 0.0000
# 5 0.0000 0.0000 0.0000 0.0000 25.1037 0.0000
# 6 0.0000 0.0000 0.0000 0.0000 0.0000 23.6369
#
#
#
# Elastic Compliance Matrix: (Units=1/GPa)
#
#
# Indices 1 2 3 4 5 6 
#
# 1 0.009333 0.001613 -0.004419 0.000000 0.000000 0.000000
# 2 0.001613 0.015234 -0.013071 0.000000 0.000000 0.000000
# 3 -0.004419 -0.013071 0.024262 0.000000 0.000000 0.000000
# 4 0.000000 0.000000 0.000000 0.024098 0.000000 0.000000
# 5 0.000000 0.000000 0.000000 0.000000 0.039835 0.000000
# 6 0.000000 0.000000 0.000000 0.000000 0.000000 0.042307
#
#
# Mechanical properties :
#
#
# Convention : Reuss Voigt Hill
#
# Bulk Modulus (GPa) = 58.56327 59.80630 59.18479
# Shear Modulus (GPa) = 25.97229 32.54591 29.25910
#
# Velocity S-wave (km/s) = 3.38412 3.78825 3.59187
# Velocity P-wave (km/s) = 6.41036 6.74578 6.58021
#
# Compressibility (1/GPa) = 0.01707555
#
# Stress axis : x y z
#
# Youngs Moduli (GPa) = 107.14907 65.64282 41.21741
#
# Poissons Ratio (x) = -0.10587 0.18213
# Poissons Ratio (y) = -0.17282 0.53873
# Poissons Ratio (z) = 0.47346 0.85799
#
# Static dielectric constant tensor:
#      x y z
#    x 4.281010 0.000000 0.000000 
#    y 0.000000 3.936390 0.000000 
#    z 0.000000 0.000000 4.138610 
# 
# 
# High freq. dielectric constant tensor:
#      x y z
#    x 1.909500 0.000000 0.000000 
#    y 0.000000 1.885570 0.000000 
#    z 0.000000 0.000000 1.894870 
# 
# From -- ./inp_files/10296.got.cif
#   From: 2010.03.12/outbox.cif.g09.slc.cpg/sg24_6_cif.got.tgz:10296.got - 2010.04.14 03:06:53.
