data_PCOD8166588
_publ_section_title
;
Structure prediction by ZEFSAII (Michael W. Deem and Ramdas Pophale) SiO2 
 PCOD8166588
Probable space group: P M M 2
;
_chemical_formula_sum "Si O2"
_cell_formula_units_Z 32
_cell_length_a 9.392085
_cell_length_b 9.762746
_cell_length_c 20.713540
_cell_angle_alpha 90.000000
_cell_angle_beta 90.000000
_cell_angle_gamma 90.000000
_cell_volume 1899.277100
_symmetry_space_group_name_H-M "P M M 2"
_symmetry_group_IT_number 25
_symmetry_cell_setting 'orthorhombic'
loop_
_space_group_symop_operation_xyz
x,y,z
-x,-y,z
-x,y,z
x,-y,z
loop_
_atom_site_type_symbol
_atom_site_label
_atom_site_fract_x
_atom_site_fract_y
_atom_site_fract_z
Si Si1 0.329694 0.347477 0.605600
Si Si2 0.668266 0.849289 0.715085
Si Si3 0.159094 0.662801 0.347834
Si Si4 0.167185 0.340092 0.961087
Si Si5 0.657871 0.663455 0.464404
Si Si6 0.160382 0.662880 0.205495
Si Si7 0.339841 0.337365 0.086768
Si Si8 0.664435 0.160871 0.861008
O O1 0.500000 0.349148 0.606647
O O2 0.270938 0.500000 0.618308
O O3 0.264836 0.252326 0.661912
O O4 0.279660 0.293827 0.534773
O O5 0.500000 0.856001 0.706447
O O6 0.703294 0.799844 0.787403
O O7 0.733445 0.000000 0.703300
O O8 0.161697 0.500000 0.352745
O O9 0.251239 0.727392 0.405760
O O10 0.215778 0.707501 0.276811
O O11 0.000000 0.718365 0.356713
O O12 0.196169 0.500000 0.947061
O O13 0.230027 0.251131 0.903313
O O14 0.000000 0.310764 0.968830
O O15 0.246135 0.291040 0.025924
O O16 0.500000 0.723349 0.455845
O O17 0.654465 0.500000 0.461175
O O18 0.157103 0.500000 0.200624
O O19 0.266346 0.723512 0.151395
O O20 0.000000 0.718297 0.193724
O O21 0.500000 0.277729 0.080754
O O22 0.345255 0.500000 0.090793
O O23 0.500000 0.197956 0.876268
O O24 0.690546 0.000000 0.873454
#
# Coordination Sequence:
#
# PCOD8166588 Si02
#       8
#     4   4   4   4   4   4   4   4
#     4   8  13  21  34  54  79 106 136 169 206 248
#     4   8  14  25  41  61  84 108 135 170 211 253
#     4   8  13  20  30  45  68 101 137 168 201 244
#     4  10  20  32  46  65  90 120 151 182 218 263
#     4   8  13  20  30  46  70  99 130 164 200 239
#     4   8  13  21  32  47  71 104 138 169 204 250
#     4   9  16  25  38  57  81 109 141 177 216 256
#     4   9  18  32  49  69  91 114 144 184 226 266
#
# _framework density 16.848514999999999
#
# number of rings (size 3 to 8) (size 9 to 14) (size 15 to 20)
#    0.000    3.500    0.000    3.000    0.000    3.500 
#    0.000    3.750    0.000    0.750    0.000    1.750 
#    0.000    1.000    0.000    9.250    0.000   11.250 
#
# Total GULP energy -396511.569914 kJ/mol
# GULP energy per Si atom -12390.986560 kJ/mol
# Density = 1.681017 g / cm^3
# Si number density = 16.848515 Si / 1000 Ang^3
#
#
#
# Elastic Constant Matrix: (Units=GPa)
#
#
# Indices 1 2 3 4 5 6 
#
# 1 83.1380 26.3600 72.9458 0.0000 0.0000 0.0000
# 2 26.3600 33.0519 47.5577 0.0000 0.0000 0.0000
# 3 72.9458 47.5577 173.4720 0.0000 0.0000 0.0000
# 4 0.0000 0.0000 0.0000 1.1649 0.0000 0.0000
# 5 0.0000 0.0000 0.0000 0.0000 15.3090 0.0000
# 6 0.0000 0.0000 0.0000 0.0000 0.0000 11.5280
#
#
#
# Elastic Compliance Matrix: (Units=1/GPa)
#
#
# Indices 1 2 3 4 5 6 
#
# 1 0.019825 -0.006302 -0.006609 0.000000 0.000000 0.000000
# 2 -0.006302 0.051969 -0.011597 0.000000 0.000000 0.000000
# 3 -0.006609 -0.011597 0.011723 0.000000 0.000000 0.000000
# 4 0.000000 0.000000 0.000000 0.858438 0.000000 0.000000
# 5 0.000000 0.000000 0.000000 0.000000 0.065321 0.000000
# 6 0.000000 0.000000 0.000000 0.000000 0.000000 0.086745
#
#
# Mechanical properties :
#
#
# Convention : Reuss Voigt Hill
#
# Bulk Modulus (GPa) = 28.98493 64.82100 46.90297
# Shear Modulus (GPa) = 4.33074 15.12027 9.72551
#
# Velocity S-wave (km/s) = 1.60499 2.99895 2.40517
# Velocity P-wave (km/s) = 4.54700 7.10971 5.96755
#
# Compressibility (1/GPa) = 0.03450069
#
# Stress axis : x y z
#
# Youngs Moduli (GPa) = 50.44175 19.24240 85.30155
#
# Poissons Ratio (x) = 0.12126 0.56374
# Poissons Ratio (y) = 0.31787 0.98928
# Poissons Ratio (z) = 0.33336 0.22316
#
# Static dielectric constant tensor:
#      x y z
#    x 3.075610 0.000000 0.000000 
#    y 0.000000 2.752790 0.000000 
#    z 0.000000 0.000000 3.533750 
# 
# 
# High freq. dielectric constant tensor:
#      x y z
#    x 1.624010 0.000000 0.000000 
#    y 0.000000 1.585960 0.000000 
#    z 0.000000 0.000000 1.669130 
# 
# From -- ./inp_files/6579.got.cif
#   From: 2010.03.12/outbox.cif.g09.slc.cpg/sg25_4_cif.got.tgz:6579.got - 2010.04.14 03:30:10.
