data_PCOD8166733
_publ_section_title
;
Structure prediction by ZEFSAII (Michael W. Deem and Ramdas Pophale) SiO2 
 PCOD8166733
Probable space group: P M M 2
;
_chemical_formula_sum "Si O2"
_cell_formula_units_Z 32
_cell_length_a 15.618031
_cell_length_b 8.984795
_cell_length_c 11.642710
_cell_angle_alpha 90.000000
_cell_angle_beta 90.000000
_cell_angle_gamma 90.000000
_cell_volume 1633.761032
_symmetry_space_group_name_H-M "P M M 2"
_symmetry_group_IT_number 25
_symmetry_cell_setting 'orthorhombic'
loop_
_space_group_symop_operation_xyz
x,y,z
-x,-y,z
-x,y,z
x,-y,z
loop_
_atom_site_type_symbol
_atom_site_label
_atom_site_fract_x
_atom_site_fract_y
_atom_site_fract_z
Si Si1 0.598294 0.660518 0.688660
Si Si2 0.099641 0.824706 0.887408
Si Si3 0.246704 0.323519 0.038102
Si Si4 0.230508 0.826526 0.277965
Si Si5 0.321060 0.165546 0.507131
Si Si6 0.094589 0.664647 0.415686
Si Si7 0.858430 0.168949 0.629105
Si Si8 0.600092 0.173819 0.911172
O O1 0.500000 0.632522 0.709128
O O2 0.645412 0.500000 0.703645
O O3 0.610464 0.721294 0.559533
O O4 0.629391 0.779385 0.783154
O O5 0.163068 0.742459 0.975329
O O6 0.127878 0.776880 0.759414
O O7 0.000000 0.779724 0.909472
O O8 0.112072 0.000000 0.905488
O O9 0.244285 0.500000 0.025264
O O10 0.338092 0.263262 0.995434
O O11 0.245515 0.278665 0.170778
O O12 0.302263 0.793687 0.374949
O O13 0.140857 0.784495 0.335723
O O14 0.229255 0.000000 0.242550
O O15 0.239756 0.180194 0.590996
O O16 0.358890 0.000000 0.512627
O O17 0.138392 0.500000 0.412754
O O18 0.088559 0.722715 0.546448
O O19 0.000000 0.651183 0.365453
O O20 0.892416 0.000000 0.616052
O O21 0.500000 0.210868 0.937101
O O22 0.618029 0.000000 0.925618
#
# Coordination Sequence:
#
# PCOD8166733 Si02
#       8
#     4   4   4   4   4   4   4   4
#     4  10  20  33  53  85 120 147 174 215 270 330
#     4  10  21  37  58  84 116 156 199 239 280 335
#     4  12  25  40  60  84 114 151 190 240 294 341
#     4  10  22  40  59  77 102 141 189 234 274 327
#     4   9  18  33  55  81 107 140 180 223 273 329
#     4  10  20  33  52  80 111 141 177 226 282 335
#     4   9  18  33  54  80 108 140 182 229 276 330
#     4  10  21  39  64  90 116 149 190 234 279 335
#
# _framework density 19.586708999999999
#
# number of rings (size 3 to 8) (size 9 to 14) (size 15 to 20)
#    0.000    2.000    0.000    4.500    0.000    7.750 
#    0.000    0.625    0.000    0.750    0.000    0.000 
#    0.000    0.000    0.000    0.000    0.000    0.000 
#
# Total GULP energy -396651.739630 kJ/mol
# GULP energy per Si atom -12395.366863 kJ/mol
# Density = 1.954213 g / cm^3
# Si number density = 19.586709 Si / 1000 Ang^3
#
#
#
# Elastic Constant Matrix: (Units=GPa)
#
#
# Indices 1 2 3 4 5 6 
#
# 1 57.1138 40.2215 45.3301 0.0000 0.0000 0.0000
# 2 40.2215 107.8615 53.3981 0.0000 0.0000 0.0000
# 3 45.3301 53.3981 125.1895 0.0000 0.0000 0.0000
# 4 0.0000 0.0000 0.0000 0.0645 0.0000 0.0000
# 5 0.0000 0.0000 0.0000 0.0000 14.3670 0.0000
# 6 0.0000 0.0000 0.0000 0.0000 0.0000 27.5056
#
#
#
# Elastic Compliance Matrix: (Units=1/GPa)
#
#
# Indices 1 2 3 4 5 6 
#
# 1 0.028111 -0.006901 -0.007235 0.000000 0.000000 0.000000
# 2 -0.006901 0.013447 -0.003237 0.000000 0.000000 0.000000
# 3 -0.007235 -0.003237 0.011988 0.000000 0.000000 0.000000
# 4 0.000000 0.000000 0.000000 15.511372 0.000000 0.000000
# 5 0.000000 0.000000 0.000000 0.000000 0.069604 0.000000
# 6 0.000000 0.000000 0.000000 0.000000 0.000000 0.036356
#
#
# Mechanical properties :
#
#
# Convention : Reuss Voigt Hill
#
# Bulk Modulus (GPa) = 53.19019 63.11826 58.15422
# Shear Modulus (GPa) = 0.31823 18.46841 9.39332
#
# Velocity S-wave (km/s) = 0.40352 3.07401 2.19230
# Velocity P-wave (km/s) = 5.23759 6.70033 6.01360
#
# Compressibility (1/GPa) = 0.01880046
#
# Stress axis : x y z
#
# Youngs Moduli (GPa) = 35.57302 74.36661 83.41355
#
# Poissons Ratio (x) = 0.51318 0.60353
# Poissons Ratio (y) = 0.24548 0.27000
# Poissons Ratio (z) = 0.25739 0.24072
#
# Static dielectric constant tensor:
#      x y z
#    x 3.469030 0.000000 0.000000 
#    y 0.000000 3.948590 0.000000 
#    z 0.000000 0.000000 3.566840 
# 
# 
# High freq. dielectric constant tensor:
#      x y z
#    x 1.752370 0.000000 0.000000 
#    y 0.000000 1.771030 0.000000 
#    z 0.000000 0.000000 1.757210 
# 
# From -- ./inp_files/4940.got.cif
#   From: 2010.03.12/outbox.cif.g09.slc.cpg/sg25_3_cif.got.tgz:4940.got - 2010.04.14 03:30:10.
