data_PCOD8166039
_publ_section_title
;
Structure prediction by ZEFSAII (Michael W. Deem and Ramdas Pophale) SiO2 
 PCOD8166039
Probable space group: I 21 21 21
;
_chemical_formula_sum "Si O2"
_cell_formula_units_Z 48
_cell_length_a 15.644010
_cell_length_b 9.261223
_cell_length_c 15.351964
_cell_angle_alpha 90.000000
_cell_angle_beta 90.000000
_cell_angle_gamma 90.000000
_cell_volume 2224.233461
_symmetry_space_group_name_H-M "I 21 21 21"
_symmetry_group_IT_number 24
_symmetry_cell_setting 'orthorhombic'
loop_
_space_group_symop_operation_xyz
x,y,z
-x,1/2-y,z
x,-y,1/2-z
1/2-x,y,-z
1/2+x,1/2+y,1/2+z
1/2-x,-y,1/2+z
1/2+x,1/2-y,-z
-x,1/2+y,1/2-z
loop_
_atom_site_type_symbol
_atom_site_label
_atom_site_fract_x
_atom_site_fract_y
_atom_site_fract_z
Si Si1 0.582879 0.166137 0.715543
Si Si2 0.327895 0.991901 0.154954
Si Si3 0.751056 0.209370 0.402324
Si Si4 0.171567 0.561733 0.659176
Si Si5 0.093040 0.783862 0.538145
Si Si6 0.814943 0.279924 0.140044
O O1 0.500000 0.250000 0.675963
O O2 0.656435 0.176399 0.641027
O O3 0.603307 0.271541 0.797670
O O4 0.568140 0.000000 0.750000
O O5 0.392420 0.057433 0.081585
O O6 0.236529 0.072388 0.150055
O O7 0.371628 0.000000 0.250000
O O8 0.305084 0.824959 0.149019
O O9 0.750000 0.269792 0.500000
O O10 0.693765 0.066318 0.406300
O O11 0.135233 0.500000 0.750000
O O12 0.104032 0.666979 0.614509
O O13 0.258529 0.648411 0.677115
O O14 0.160690 0.761183 0.461173
O O15 0.000000 0.750000 0.499511
#
# Coordination Sequence:
#
# PCOD8166039 Si02
#       6
#     8   8   8   8   8   8
#     4  12  26  43  68 106 140 174 212 278 348 391
#     4  11  22  41  69  93 125 175 228 272 321 396
#     4  12  22  41  64  95 133 173 221 266 325 403
#     4  11  20  41  69  90 123 173 224 262 320 401
#     4  11  25  42  64  98 132 171 223 276 328 392
#     4  11  20  44  66  95 129 173 220 262 325 411
#
# _framework density 21.580469000000001
#
# number of rings (size 3 to 8) (size 9 to 14) (size 15 to 20)
#    0.000    0.667    5.000    5.500    2.333    0.667 
#    3.000    0.833    0.000    0.000    0.000    0.000 
#    0.000    0.000    0.000    0.000    0.000    0.000 
#
# Total GULP energy -297421.188943 kJ/mol
# GULP energy per Si atom -12392.549539 kJ/mol
# Density = 2.153135 g / cm^3
# Si number density = 21.580469 Si / 1000 Ang^3
#
#
#
# Elastic Constant Matrix: (Units=GPa)
#
#
# Indices 1 2 3 4 5 6 
#
# 1 66.4093 22.1026 7.5398 0.0000 0.0000 0.0000
# 2 22.1026 93.4742 -3.2621 0.0000 0.0000 0.0000
# 3 7.5398 -3.2621 103.5019 0.0000 0.0000 0.0000
# 4 0.0000 0.0000 0.0000 32.2973 0.0000 0.0000
# 5 0.0000 0.0000 0.0000 0.0000 22.6037 0.0000
# 6 0.0000 0.0000 0.0000 0.0000 0.0000 20.1330
#
#
#
# Elastic Compliance Matrix: (Units=1/GPa)
#
#
# Indices 1 2 3 4 5 6 
#
# 1 0.016525 -0.003954 -0.001328 0.000000 0.000000 0.000000
# 2 -0.003954 0.011656 0.000655 0.000000 0.000000 0.000000
# 3 -0.001328 0.000655 0.009779 0.000000 0.000000 0.000000
# 4 0.000000 0.000000 0.000000 0.030962 0.000000 0.000000
# 5 0.000000 0.000000 0.000000 0.000000 0.044241 0.000000
# 6 0.000000 0.000000 0.000000 0.000000 0.000000 0.049670
#
#
# Mechanical properties :
#
#
# Convention : Reuss Voigt Hill
#
# Bulk Modulus (GPa) = 34.83558 35.12733 34.98145
# Shear Modulus (GPa) = 27.52472 30.80712 29.16592
#
# Velocity S-wave (km/s) = 3.57521 3.78239 3.68026
# Velocity P-wave (km/s) = 5.76369 5.94878 5.85696
#
# Compressibility (1/GPa) = 0.02870628
#
# Stress axis : x y z
#
# Youngs Moduli (GPa) = 60.51485 85.79340 102.25902
#
# Poissons Ratio (x) = 0.33921 0.13584
# Poissons Ratio (y) = 0.23926 -0.06702
# Poissons Ratio (z) = 0.08039 -0.05623
#
# Static dielectric constant tensor:
#      x y z
#    x 3.708640 0.000000 0.000000 
#    y 0.000000 4.010640 0.000000 
#    z 0.000000 0.000000 3.927700 
# 
# 
# High freq. dielectric constant tensor:
#      x y z
#    x 1.817000 0.000000 0.000000 
#    y 0.000000 1.857880 0.000000 
#    z 0.000000 0.000000 1.858430 
# 
# From -- ./inp_files/12776.got.cif
#   From: 2010.03.12/outbox.cif.g09.slc.cpg/sg24_7_cif.got.tgz:12776.got - 2010.04.14 03:06:53.
