data_PCOD8166756
_publ_section_title
;
Structure prediction by ZEFSAII (Michael W. Deem and Ramdas Pophale) SiO2 
 PCOD8166756
Probable space group: P M M 2
;
_chemical_formula_sum "Si O2"
_cell_formula_units_Z 24
_cell_length_a 8.901672
_cell_length_b 9.158854
_cell_length_c 15.756157
_cell_angle_alpha 90.000000
_cell_angle_beta 90.000000
_cell_angle_gamma 90.000000
_cell_volume 1284.585523
_symmetry_space_group_name_H-M "P M M 2"
_symmetry_group_IT_number 25
_symmetry_cell_setting 'orthorhombic'
loop_
_space_group_symop_operation_xyz
x,y,z
-x,-y,z
-x,y,z
x,-y,z
loop_
_atom_site_type_symbol
_atom_site_label
_atom_site_fract_x
_atom_site_fract_y
_atom_site_fract_z
Si Si1 0.319910 0.835620 0.152810
Si Si2 0.321244 0.336112 0.313989
Si Si3 0.679506 0.833887 0.787677
Si Si4 0.823603 0.667758 0.635678
Si Si5 0.675134 0.829205 0.480884
Si Si6 0.335919 0.172794 0.971365
O O1 0.500000 0.830988 0.149426
O O2 0.255958 0.733211 0.227381
O O3 0.265443 0.000000 0.172295
O O4 0.255541 0.780093 0.060387
O O5 0.500000 0.333704 0.310708
O O6 0.258927 0.500000 0.322507
O O7 0.265071 0.243716 0.394429
O O8 0.500000 0.822541 0.787063
O O9 0.748136 0.721493 0.721908
O O10 0.744564 0.788801 0.881664
O O11 0.727577 0.000000 0.764832
O O12 0.778132 0.500000 0.620223
O O13 0.766789 0.763843 0.558203
O O14 0.000000 0.687682 0.644620
O O15 0.500000 0.795997 0.495814
O O16 0.706951 0.000000 0.474699
O O17 0.500000 0.247132 0.969252
O O18 0.355947 0.000000 0.975579
#
# Coordination Sequence:
#
# PCOD8166756 Si02
#       6
#     4   4   4   4   4   4
#     4   8  12  20  36  59  90 126 158 188 226 273
#     4   9  16  25  39  63  96 129 157 189 232 280
#     4   9  17  31  52  76  99 125 161 202 241 283
#     4  11  24  38  50  68  96 128 160 196 242 294
#     4  10  20  34  53  75  96 122 160 202 241 284
#     4   7  11  21  39  64  93 123 154 190 232 275
#
# _framework density 18.683067999999999
#
# number of rings (size 3 to 8) (size 9 to 14) (size 15 to 20)
#    0.000    3.000    0.000    4.000    0.000    6.667 
#    0.000    0.833    0.000    3.000    0.000    1.167 
#    0.000    6.667    0.000    0.000    0.000    0.000 
#
# Total GULP energy -297361.195656 kJ/mol
# GULP energy per Si atom -12390.049819 kJ/mol
# Density = 1.864054 g / cm^3
# Si number density = 18.683068 Si / 1000 Ang^3
#
#
#
# Elastic Constant Matrix: (Units=GPa)
#
#
# Indices 1 2 3 4 5 6 
#
# 1 21.3885 20.3309 23.0761 0.0000 0.0000 0.0000
# 2 20.3309 93.2202 62.2780 0.0000 0.0000 0.0000
# 3 23.0761 62.2780 178.7954 0.0000 0.0000 0.0000
# 4 0.0000 0.0000 0.0000 9.4664 0.0000 0.0000
# 5 0.0000 0.0000 0.0000 0.0000 -5.5944 0.0000
# 6 0.0000 0.0000 0.0000 0.0000 0.0000 15.8973
#
#
#
# Elastic Compliance Matrix: (Units=1/GPa)
#
#
# Indices 1 2 3 4 5 6 
#
# 1 0.061359 -0.010545 -0.004246 0.000000 0.000000 0.000000
# 2 -0.010545 0.015793 -0.004140 0.000000 0.000000 0.000000
# 3 -0.004246 -0.004140 0.007583 0.000000 0.000000 0.000000
# 4 0.000000 0.000000 0.000000 0.105636 0.000000 0.000000
# 5 0.000000 0.000000 0.000000 0.000000 -0.178750 0.000000
# 6 0.000000 0.000000 0.000000 0.000000 0.000000 0.062904
#
#
# Mechanical properties :
#
#
# Convention : Reuss Voigt Hill
#
# Bulk Modulus (GPa) = 21.33462 56.08602 38.71032
# Shear Modulus (GPa) = 39.05888 16.46848 27.76368
#
# Velocity S-wave (km/s) = 4.57727 2.97217 3.85909
# Velocity P-wave (km/s) = 6.27529 6.47018 6.37348
#
# Compressibility (1/GPa) = 0.04687217
#
# Stress axis : x y z
#
# Youngs Moduli (GPa) = 16.29750 63.31920 131.87316
#
# Poissons Ratio (x) = 0.66773 0.55995
# Poissons Ratio (y) = 0.17186 0.54595
# Poissons Ratio (z) = 0.06920 0.26214
#
# Static dielectric constant tensor:
#      x y z
#    x 2.812520 0.000000 0.000000 
#    y 0.000000 3.380480 0.000000 
#    z 0.000000 0.000000 3.988480 
# 
# 
# High freq. dielectric constant tensor:
#      x y z
#    x 1.655880 0.000000 0.000000 
#    y 0.000000 1.710260 0.000000 
#    z 0.000000 0.000000 1.755820 
# 
# From -- ./inp_files/5245.got.cif
#   From: 2010.03.12/outbox.cif.g09.slc.cpg/sg25_3_cif.got.tgz:5245.got - 2010.04.14 03:30:10.
