data_PCOD8166835
_publ_section_title
;
Structure prediction by ZEFSAII (Michael W. Deem and Ramdas Pophale) SiO2 
 PCOD8166835
Probable space group: P M M 2
;
_chemical_formula_sum "Si O2"
_cell_formula_units_Z 24
_cell_length_a 8.340971
_cell_length_b 7.997078
_cell_length_c 17.299804
_cell_angle_alpha 90.000000
_cell_angle_beta 90.000000
_cell_angle_gamma 90.000000
_cell_volume 1153.955671
_symmetry_space_group_name_H-M "P M M 2"
_symmetry_group_IT_number 25
_symmetry_cell_setting 'orthorhombic'
loop_
_space_group_symop_operation_xyz
x,y,z
-x,-y,z
-x,y,z
x,-y,z
loop_
_atom_site_type_symbol
_atom_site_label
_atom_site_fract_x
_atom_site_fract_y
_atom_site_fract_z
Si Si1 0.314914 0.500000 0.410030
Si Si2 0.808659 0.184318 0.671839
Si Si3 0.189149 0.811646 0.315005
Si Si4 0.187130 0.500000 0.578785
Si Si5 0.181268 0.803703 0.992745
Si Si6 0.811684 0.689411 0.153452
Si Si7 0.814841 0.692345 0.832353
O O1 0.500000 0.500000 0.431697
O O2 0.276656 0.670293 0.364507
O O3 0.213925 0.500000 0.487980
O O4 0.738116 0.330632 0.616594
O O5 0.741747 0.207786 0.759413
O O6 0.000000 0.196554 0.672811
O O7 0.753937 0.000000 0.642145
O O8 0.249401 0.798744 0.225966
O O9 0.000000 0.776331 0.320270
O O10 0.229893 0.000000 0.344657
O O11 0.000000 0.500000 0.596277
O O12 0.269193 0.741981 0.071564
O O13 0.000000 0.732262 0.993423
O O14 0.184039 0.000000 0.991450
O O15 0.269214 0.737134 0.914670
O O16 0.766696 0.500000 0.172782
O O17 0.000000 0.718675 0.144979
O O18 0.791312 0.500000 0.812478
O O19 0.000000 0.743298 0.840684
#
# Coordination Sequence:
#
# PCOD8166835 Si02
#       7
#     2   4   4   2   4   4   4
#     4  12  26  42  60  83 114 146 178 227 286 348
#     4   9  16  27  45  69  97 132 172 214 261 314
#     4  10  20  37  62  87 112 146 189 233 277 330
#     4  10  20  36  56  77 102 132 174 225 270 326
#     4   9  15  20  29  54  94 138 178 211 252 309
#     4   9  15  25  43  68 100 137 178 222 265 313
#     4   9  14  21  33  54  91 137 175 207 252 310
#
# _framework density 20.798024999999999
#
# number of rings (size 3 to 8) (size 9 to 14) (size 15 to 20)
#    0.000    2.500    1.667    2.250    0.000    7.000 
#    0.000    1.667    0.000    0.000    0.000    0.000 
#    0.000    2.667    0.000    1.667    0.000    0.333 
#
# Total GULP energy -297384.165218 kJ/mol
# GULP energy per Si atom -12391.006884 kJ/mol
# Density = 2.075069 g / cm^3
# Si number density = 20.798025 Si / 1000 Ang^3
#
#
#
# Elastic Constant Matrix: (Units=GPa)
#
#
# Indices 1 2 3 4 5 6 
#
# 1 11.1554 8.7564 -1.0268 0.0000 0.0000 0.0000
# 2 8.7564 127.1724 72.9597 0.0000 0.0000 0.0000
# 3 -1.0268 72.9597 133.0474 0.0000 0.0000 0.0000
# 4 0.0000 0.0000 0.0000 25.6592 0.0000 0.0000
# 5 0.0000 0.0000 0.0000 0.0000 -3.3779 0.0000
# 6 0.0000 0.0000 0.0000 0.0000 0.0000 6.0989
#
#
#
# Elastic Compliance Matrix: (Units=1/GPa)
#
#
# Indices 1 2 3 4 5 6 
#
# 1 0.098512 -0.010533 0.006536 0.000000 0.000000 0.000000
# 2 -0.010533 0.012599 -0.006990 0.000000 0.000000 0.000000
# 3 0.006536 -0.006990 0.011400 0.000000 0.000000 0.000000
# 4 0.000000 0.000000 0.000000 0.038972 0.000000 0.000000
# 5 0.000000 0.000000 0.000000 0.000000 -0.296044 0.000000
# 6 0.000000 0.000000 0.000000 0.000000 0.000000 0.163964
#
#
# Mechanical properties :
#
#
# Convention : Reuss Voigt Hill
#
# Bulk Modulus (GPa) = 9.94658 48.08376 29.01517
# Shear Modulus (GPa) = 58.90022 18.38844 38.64433
#
# Velocity S-wave (km/s) = 5.32744 2.97668 4.31522
# Velocity P-wave (km/s) = 6.52954 5.91471 6.22972
#
# Compressibility (1/GPa) = 0.10053709
#
# Stress axis : x y z
#
# Youngs Moduli (GPa) = 10.15104 79.37190 87.72074
#
# Poissons Ratio (x) = 0.83602 -0.57337
# Poissons Ratio (y) = 0.10692 0.61319
# Poissons Ratio (z) = -0.06635 0.55483
#
# Static dielectric constant tensor:
#      x y z
#    x 2.901090 0.000000 0.000000 
#    y 0.000000 3.877830 0.000000 
#    z 0.000000 0.000000 4.026690 
# 
# 
# High freq. dielectric constant tensor:
#      x y z
#    x 1.716440 0.000000 0.000000 
#    y 0.000000 1.828820 0.000000 
#    z 0.000000 0.000000 1.829120 
# 
# From -- ./inp_files/6008.got.cif
#   From: 2010.03.12/outbox.cif.g09.slc.cpg/sg25_4_cif.got.tgz:6008.got - 2010.04.14 03:30:10.
