data_PCOD8166442
_publ_section_title
;
Structure prediction by ZEFSAII (Michael W. Deem and Ramdas Pophale) SiO2 
 PCOD8166442
Probable space group: P M M 2
;
_chemical_formula_sum "Si O2"
_cell_formula_units_Z 24
_cell_length_a 13.703262
_cell_length_b 9.043362
_cell_length_c 13.018256
_cell_angle_alpha 90.000000
_cell_angle_beta 90.000000
_cell_angle_gamma 90.000000
_cell_volume 1613.268613
_symmetry_space_group_name_H-M "P M M 2"
_symmetry_group_IT_number 25
_symmetry_cell_setting 'orthorhombic'
loop_
_space_group_symop_operation_xyz
x,y,z
-x,-y,z
-x,y,z
x,-y,z
loop_
_atom_site_type_symbol
_atom_site_label
_atom_site_fract_x
_atom_site_fract_y
_atom_site_fract_z
Si Si1 0.886738 0.673594 0.730070
Si Si2 0.887162 0.327717 0.323641
Si Si3 0.609297 0.167827 0.035491
Si Si4 0.884045 0.166571 0.525611
Si Si5 0.207803 0.831770 0.919580
Si Si6 0.221581 0.674565 0.118735
O O1 0.869418 0.500000 0.725134
O O2 0.847102 0.742962 0.624275
O O3 0.823613 0.740825 0.821099
O O4 0.000000 0.712849 0.748317
O O5 0.872375 0.500000 0.345477
O O6 0.844080 0.241228 0.421684
O O7 0.828031 0.274814 0.224165
O O8 0.000000 0.289559 0.304314
O O9 0.500000 0.227746 0.015203
O O10 0.673253 0.172647 0.929718
O O11 0.606415 0.000000 0.077545
O O12 0.664937 0.270914 0.119459
O O13 0.000000 0.170665 0.522919
O O14 0.843952 0.000000 0.532848
O O15 0.169029 0.000000 0.911714
O O16 0.165138 0.754505 0.023487
O O17 0.214998 0.500000 0.102883
#
# Coordination Sequence:
#
# PCOD8166442 Si02
#       6
#     4   4   4   4   4   4
#     4  10  19  30  44  62  88 120 150 181 216 255
#     4   9  17  29  43  60  88 122 150 178 212 252
#     4   8  16  31  47  63  86 114 142 177 221 265
#     4   9  17  28  43  62  83 112 152 188 214 246
#     4   9  18  30  44  64  89 115 146 180 217 261
#     4   9  17  28  43  66  91 115 147 180 217 260
#
# _framework density 14.87663
#
# number of rings (size 3 to 8) (size 9 to 14) (size 15 to 20)
#    1.000    2.000    0.000    1.500    0.000    5.333 
#    0.000    1.667    0.000    0.000    0.000    1.167 
#    0.000    6.667    0.000    0.000    0.000    0.000 
#
# Total GULP energy -297375.294500 kJ/mol
# GULP energy per Si atom -12390.637271 kJ/mol
# Density = 1.484277 g / cm^3
# Si number density = 14.876630 Si / 1000 Ang^3
#
#
#
# Elastic Constant Matrix: (Units=GPa)
#
#
# Indices 1 2 3 4 5 6 
#
# 1 56.1358 32.5308 47.2597 0.0000 0.0000 0.0000
# 2 32.5308 84.4726 62.2073 0.0000 0.0000 0.0000
# 3 47.2597 62.2073 138.5333 0.0000 0.0000 0.0000
# 4 0.0000 0.0000 0.0000 25.4450 0.0000 0.0000
# 5 0.0000 0.0000 0.0000 0.0000 0.2978 0.0000
# 6 0.0000 0.0000 0.0000 0.0000 0.0000 17.6242
#
#
#
# Elastic Compliance Matrix: (Units=1/GPa)
#
#
# Indices 1 2 3 4 5 6 
#
# 1 0.026489 -0.005298 -0.006657 0.000000 0.000000 0.000000
# 2 -0.005298 0.018747 -0.006611 0.000000 0.000000 0.000000
# 3 -0.006657 -0.006611 0.012458 0.000000 0.000000 0.000000
# 4 0.000000 0.000000 0.000000 0.039300 0.000000 0.000000
# 5 0.000000 0.000000 0.000000 0.000000 3.357811 0.000000
# 6 0.000000 0.000000 0.000000 0.000000 0.000000 0.056740
#
#
# Mechanical properties :
#
#
# Convention : Reuss Voigt Hill
#
# Bulk Modulus (GPa) = 48.63544 62.57082 55.60313
# Shear Modulus (GPa) = 1.40626 17.81632 9.61129
#
# Velocity S-wave (km/s) = 0.97331 3.46440 2.54454
# Velocity P-wave (km/s) = 5.83323 7.62587 6.78898
#
# Compressibility (1/GPa) = 0.02056114
#
# Stress axis : x y z
#
# Youngs Moduli (GPa) = 37.75135 53.34246 80.26961
#
# Poissons Ratio (x) = 0.28263 0.53438
# Poissons Ratio (y) = 0.20003 0.53063
# Poissons Ratio (z) = 0.25132 0.35262
#
# Static dielectric constant tensor:
#      x y z
#    x 2.609720 0.000000 0.000000 
#    y 0.000000 2.971780 0.000000 
#    z 0.000000 0.000000 2.860020 
# 
# 
# High freq. dielectric constant tensor:
#      x y z
#    x 1.525230 0.000000 0.000000 
#    y 0.000000 1.584460 0.000000 
#    z 0.000000 0.000000 1.563400 
# 
# From -- ./inp_files/4979.got.cif
#   From: 2010.03.12/outbox.cif.g09.slc.cpg/sg25_3_cif.got.tgz:4979.got - 2010.04.14 03:30:10.
