data_PCOD8166982
_publ_section_title
;
Structure prediction by ZEFSAII (Michael W. Deem and Ramdas Pophale) SiO2 
 PCOD8166982
Probable space group: P M M 2
;
_chemical_formula_sum "Si O2"
_cell_formula_units_Z 16
_cell_length_a 11.832860
_cell_length_b 8.788946
_cell_length_c 7.695657
_cell_angle_alpha 90.000000
_cell_angle_beta 90.000000
_cell_angle_gamma 90.000000
_cell_volume 800.335765
_symmetry_space_group_name_H-M "P M M 2"
_symmetry_group_IT_number 25
_symmetry_cell_setting 'orthorhombic'
loop_
_space_group_symop_operation_xyz
x,y,z
-x,-y,z
-x,y,z
x,-y,z
loop_
_atom_site_type_symbol
_atom_site_label
_atom_site_fract_x
_atom_site_fract_y
_atom_site_fract_z
Si Si1 0.727707 0.821238 0.994180
Si Si2 0.500000 0.680300 0.485417
Si Si3 0.260598 0.320595 0.346782
Si Si4 0.500000 0.319601 0.876081
Si Si5 0.868420 0.175939 0.658153
O O1 0.608664 0.738130 0.977337
O O2 0.809361 0.773940 0.837025
O O3 0.708840 0.000000 0.000831
O O4 0.783300 0.763644 0.173799
O O5 0.500000 0.500000 0.497372
O O6 0.612190 0.737930 0.388132
O O7 0.500000 0.747042 0.680725
O O8 0.257479 0.500000 0.317437
O O9 0.178199 0.279053 0.503793
O O10 0.500000 0.500000 0.879522
O O11 0.000000 0.208360 0.680802
O O12 0.843704 0.000000 0.615365
#
# Coordination Sequence:
#
# PCOD8166982 Si02
#       5
#     4   2   4   2   4
#     4  11  23  39  61  92 124 159 201 246 300 365
#     4   9  19  35  58  87 121 156 189 236 302 359
#     4  11  22  39  63  92 123 158 198 246 304 363
#     4  11  20  37  62  89 123 160 197 246 304 359
#     4  10  23  43  63  84 117 161 206 253 302 354
#
# _framework density 19.991607999999999
#
# number of rings (size 3 to 8) (size 9 to 14) (size 15 to 20)
#    0.000    1.500    2.500    2.625    0.000    3.500 
#    0.000    4.375    0.000    0.000    0.000    0.000 
#    0.000    0.000    0.000    0.000    0.000    0.000 
#
# Total GULP energy -198487.305350 kJ/mol
# GULP energy per Si atom -12405.456584 kJ/mol
# Density = 1.994611 g / cm^3
# Si number density = 19.991608 Si / 1000 Ang^3
#
#
#
# Elastic Constant Matrix: (Units=GPa)
#
#
# Indices 1 2 3 4 5 6 
#
# 1 112.0747 35.7118 46.8328 0.0000 0.0000 0.0000
# 2 35.7118 73.3292 50.1775 0.0000 0.0000 0.0000
# 3 46.8328 50.1775 160.1488 0.0000 0.0000 0.0000
# 4 0.0000 0.0000 0.0000 37.3112 0.0000 0.0000
# 5 0.0000 0.0000 0.0000 0.0000 -181.1264 0.0000
# 6 0.0000 0.0000 0.0000 0.0000 0.0000 26.1782
#
#
#
# Elastic Compliance Matrix: (Units=1/GPa)
#
#
# Indices 1 2 3 4 5 6 
#
# 1 0.011026 -0.004027 -0.001963 0.000000 0.000000 0.000000
# 2 -0.004027 0.018829 -0.004722 0.000000 0.000000 0.000000
# 3 -0.001963 -0.004722 0.008298 0.000000 0.000000 0.000000
# 4 0.000000 0.000000 0.000000 0.026802 0.000000 0.000000
# 5 0.000000 0.000000 0.000000 0.000000 -0.005521 0.000000
# 6 0.000000 0.000000 0.000000 0.000000 0.000000 0.038200
#
#
# Mechanical properties :
#
#
# Convention : Reuss Voigt Hill
#
# Bulk Modulus (GPa) = 59.77266 67.88855 63.83061
# Shear Modulus (GPa) = 40.11794 -9.33868 15.38963
#
# Velocity S-wave (km/s) = 4.48452 -2.16366 2.77754
# Velocity P-wave (km/s) = 7.53514 5.27165 6.50264
#
# Compressibility (1/GPa) = 0.01673006
#
# Stress axis : x y z
#
# Youngs Moduli (GPa) = 90.69608 53.10870 120.51589
#
# Poissons Ratio (x) = 0.21385 0.23654
# Poissons Ratio (y) = 0.36520 0.56908
# Poissons Ratio (z) = 0.17801 0.25078
#
# Static dielectric constant tensor:
#      x y z
#    x 3.608650 0.000000 0.000000 
#    y 0.000000 3.482830 0.000000 
#    z 0.000000 0.000000 3.841250 
# 
# 
# High freq. dielectric constant tensor:
#      x y z
#    x 1.774070 0.000000 0.000000 
#    y 0.000000 1.772890 0.000000 
#    z 0.000000 0.000000 1.798970 
# 
# From -- ./inp_files/2482.got.cif
#   From: 2010.03.12/outbox.cif.g09.slc.cpg/sg25_2_cif.got.tgz:2482.got - 2010.04.14 03:30:10.
