data_PCOD8166046
_publ_section_title
;
Structure prediction by ZEFSAII (Michael W. Deem and Ramdas Pophale) SiO2 
 PCOD8166046
Probable space group: I 21 21 21
;
_chemical_formula_sum "Si O2"
_cell_formula_units_Z 64
_cell_length_a 20.475407
_cell_length_b 9.357449
_cell_length_c 17.457761
_cell_angle_alpha 90.000000
_cell_angle_beta 90.000000
_cell_angle_gamma 90.000000
_cell_volume 3344.864703
_symmetry_space_group_name_H-M "I 21 21 21"
_symmetry_group_IT_number 24
_symmetry_cell_setting 'orthorhombic'
loop_
_space_group_symop_operation_xyz
x,y,z
-x,1/2-y,z
x,-y,1/2-z
1/2-x,y,-z
1/2+x,1/2+y,1/2+z
1/2-x,-y,1/2+z
1/2+x,1/2-y,-z
-x,1/2+y,1/2-z
loop_
_atom_site_type_symbol
_atom_site_label
_atom_site_fract_x
_atom_site_fract_y
_atom_site_fract_z
Si Si1 0.249391 0.115691 0.311372
Si Si2 0.059290 0.148690 0.711674
Si Si3 0.742818 0.124992 0.798981
Si Si4 0.871314 0.447307 0.577360
Si Si5 0.816850 0.927075 0.452336
Si Si6 0.925176 0.239534 0.956169
Si Si7 0.385632 0.624884 0.302297
Si Si8 0.315387 0.757959 0.951881
O O1 0.261957 0.249254 0.257418
O O2 0.310653 0.058095 0.362016
O O3 0.192702 0.161976 0.370712
O O4 0.224125 0.000000 0.250000
O O5 0.068826 0.127304 0.621320
O O6 0.120382 0.228804 0.752211
O O7 0.000000 0.250000 0.730652
O O8 0.046735 0.000000 0.750000
O O9 0.696214 0.153511 0.871308
O O10 0.813964 0.073749 0.830924
O O11 0.709187 0.000000 0.750000
O O12 0.888937 0.609136 0.555794
O O13 0.865274 0.353813 0.500746
O O14 0.750000 0.910371 0.500000
O O15 0.879782 0.848679 0.486135
O O16 0.836909 0.093390 0.440537
O O17 0.930133 0.152182 0.876732
O O18 0.000000 0.250000 0.987459
O O19 0.417710 0.500000 0.250000
O O20 0.250000 0.757641 0.000000
#
# Coordination Sequence:
#
# PCOD8166046 Si02
#       8
#     8   8   8   8   8   8   8   8
#     4  11  21  37  61  92 129 160 199 265 335 386
#     4  12  24  38  54  80 119 169 213 249 296 367
#     4  11  21  38  64  98 124 160 214 267 324 384
#     4  11  24  40  56  85 130 168 213 256 314 383
#     4  11  23  40  66  92 129 170 216 270 321 381
#     4  12  27  43  61  93 132 179 223 262 317 388
#     4  11  23  36  60  89 128 165 210 253 309 374
#     4   9  22  39  58  91 126 165 210 263 322 383
#
# _framework density 19.133808999999999
#
# number of rings (size 3 to 8) (size 9 to 14) (size 15 to 20)
#    0.000    1.000    5.000    1.875    5.250    0.500 
#    0.000    0.000    0.000    0.000    3.250    0.000 
#    0.000    0.000    0.000    0.000    0.000    0.000 
#
# Total GULP energy -396491.024171 kJ/mol
# GULP energy per Si atom -12390.344505 kJ/mol
# Density = 1.909026 g / cm^3
# Si number density = 19.133809 Si / 1000 Ang^3
#
#
#
# Elastic Constant Matrix: (Units=GPa)
#
#
# Indices 1 2 3 4 5 6 
#
# 1 82.1119 57.1753 56.6256 0.0000 0.0000 0.0000
# 2 57.1753 130.0712 63.1528 0.0000 0.0000 0.0000
# 3 56.6256 63.1528 118.1823 0.0000 0.0000 0.0000
# 4 0.0000 0.0000 0.0000 39.2998 0.0000 0.0000
# 5 0.0000 0.0000 0.0000 0.0000 74.1130 0.0000
# 6 0.0000 0.0000 0.0000 0.0000 0.0000 192.3564
#
#
#
# Elastic Compliance Matrix: (Units=1/GPa)
#
#
# Indices 1 2 3 4 5 6 
#
# 1 0.021071 -0.005888 -0.006950 0.000000 0.000000 0.000000
# 2 -0.005888 0.012027 -0.003606 0.000000 0.000000 0.000000
# 3 -0.006950 -0.003606 0.013718 0.000000 0.000000 0.000000
# 4 0.000000 0.000000 0.000000 0.025445 0.000000 0.000000
# 5 0.000000 0.000000 0.000000 0.000000 0.013493 0.000000
# 6 0.000000 0.000000 0.000000 0.000000 0.000000 0.005199
#
#
# Mechanical properties :
#
#
# Convention : Reuss Voigt Hill
#
# Bulk Modulus (GPa) = 71.78982 76.03030 73.91006
# Shear Modulus (GPa) = 38.91593 71.38129 55.14861
#
# Velocity S-wave (km/s) = 4.51475 6.11452 5.37449
# Velocity P-wave (km/s) = 8.04852 9.46954 8.78780
#
# Compressibility (1/GPa) = 0.01392955
#
# Stress axis : x y z
#
# Youngs Moduli (GPa) = 47.45897 83.14713 72.89681
#
# Poissons Ratio (x) = 0.48956 0.50660
# Poissons Ratio (y) = 0.27943 0.26284
# Poissons Ratio (z) = 0.32982 0.29980
#
# Static dielectric constant tensor:
#      x y z
#    x 3.224300 0.000000 0.000000 
#    y 0.000000 3.555360 0.000000 
#    z 0.000000 0.000000 3.492900 
# 
# 
# High freq. dielectric constant tensor:
#      x y z
#    x 1.703400 0.000000 0.000000 
#    y 0.000000 1.761870 0.000000 
#    z 0.000000 0.000000 1.740630 
# 
# From -- ./inp_files/31400.got.cif
#   From: 2010.03.12/outbox.cif.g09.slc.cpg/sg24_16_cif.got.tgz:31400.got - 2010.04.14 03:06:53.
