data_PCOD8166388
_publ_section_title
;
Structure prediction by ZEFSAII (Michael W. Deem and Ramdas Pophale) SiO2 
 PCOD8166388
Probable space group: P M M 2
;
_chemical_formula_sum "Si O2"
_cell_formula_units_Z 24
_cell_length_a 10.614108
_cell_length_b 9.895230
_cell_length_c 11.953621
_cell_angle_alpha 90.000000
_cell_angle_beta 90.000000
_cell_angle_gamma 90.000000
_cell_volume 1255.477337
_symmetry_space_group_name_H-M "P M M 2"
_symmetry_group_IT_number 25
_symmetry_cell_setting 'orthorhombic'
loop_
_space_group_symop_operation_xyz
x,y,z
-x,-y,z
-x,y,z
x,-y,z
loop_
_atom_site_type_symbol
_atom_site_label
_atom_site_fract_x
_atom_site_fract_y
_atom_site_fract_z
Si Si1 0.500000 0.353404 0.974850
Si Si2 0.500000 0.847859 0.774308
Si Si3 0.265737 0.346632 0.135249
Si Si4 0.144231 0.849483 0.975461
Si Si5 0.228536 0.155580 0.733053
Si Si6 0.357314 0.660385 0.375304
Si Si7 0.141661 0.343719 0.546149
O O1 0.500000 0.500000 0.915363
O O2 0.500000 0.241196 0.883161
O O3 0.381545 0.338672 0.053256
O O4 0.624457 0.822338 0.699613
O O5 0.500000 0.000000 0.820591
O O6 0.213370 0.500000 0.146551
O O7 0.309255 0.288353 0.254923
O O8 0.160700 0.250373 0.080773
O O9 0.217564 0.802820 0.863512
O O10 0.000000 0.849934 0.940190
O O11 0.188780 0.000000 0.011030
O O12 0.145031 0.254506 0.658167
O O13 0.185467 0.000000 0.714593
O O14 0.500000 0.715870 0.400861
O O15 0.363259 0.500000 0.373945
O O16 0.251433 0.710217 0.463486
O O17 0.166377 0.500000 0.577359
O O18 0.000000 0.327876 0.494239
#
# Coordination Sequence:
#
# PCOD8166388 Si02
#       7
#     2   2   4   4   4   4   4
#     4  10  18  30  51  82 114 138 169 213 264 319
#     4  10  20  34  55  82 110 142 181 223 270 329
#     4  10  19  33  56  83 110 141 177 218 266 323
#     4  10  21  36  54  78 110 148 185 220 266 326
#     4  10  21  37  57  80 109 145 182 224 276 330
#     4   9  18  35  58  82 110 145 183 226 277 327
#     4  10  22  38  57  82 110 143 186 232 274 323
#
# _framework density 19.116236000000001
#
# number of rings (size 3 to 8) (size 9 to 14) (size 15 to 20)
#    0.000    2.167    2.500    0.500    1.167    3.333 
#    0.000    2.500    0.000    1.000    0.000    0.000 
#    0.000    0.000    0.000    0.000    0.000    0.000 
#
# Total GULP energy -297475.495162 kJ/mol
# GULP energy per Si atom -12394.812298 kJ/mol
# Density = 1.907273 g / cm^3
# Si number density = 19.116236 Si / 1000 Ang^3
#
#
#
# Elastic Constant Matrix: (Units=GPa)
#
#
# Indices 1 2 3 4 5 6 
#
# 1 105.9981 32.2880 41.0681 0.0000 0.0000 0.0000
# 2 32.2880 65.4606 44.9467 0.0000 0.0000 0.0000
# 3 41.0681 44.9467 85.3732 0.0000 0.0000 0.0000
# 4 0.0000 0.0000 0.0000 -0.5369 0.0000 0.0000
# 5 0.0000 0.0000 0.0000 0.0000 34.6161 0.0000
# 6 0.0000 0.0000 0.0000 0.0000 0.0000 24.2732
#
#
#
# Elastic Compliance Matrix: (Units=1/GPa)
#
#
# Indices 1 2 3 4 5 6 
#
# 1 0.011973 -0.003056 -0.004151 0.000000 0.000000 0.000000
# 2 -0.003056 0.024705 -0.011537 0.000000 0.000000 0.000000
# 3 -0.004151 -0.011537 0.019784 0.000000 0.000000 0.000000
# 4 0.000000 0.000000 0.000000 -1.862530 0.000000 0.000000
# 5 0.000000 0.000000 0.000000 0.000000 0.028888 0.000000
# 6 0.000000 0.000000 0.000000 0.000000 0.000000 0.041198
#
#
# Mechanical properties :
#
#
# Convention : Reuss Voigt Hill
#
# Bulk Modulus (GPa) = 52.69932 54.82640 53.76286
# Shear Modulus (GPa) = -2.95478 20.90576 8.97549
#
# Velocity S-wave (km/s) = -1.24461 3.31057 2.16920
# Velocity P-wave (km/s) = 5.05592 6.58452 5.87019
#
# Compressibility (1/GPa) = 0.01897558
#
# Stress axis : x y z
#
# Youngs Moduli (GPa) = 83.52046 40.47807 50.54658
#
# Poissons Ratio (x) = 0.12368 0.20981
# Poissons Ratio (y) = 0.25520 0.58313
# Poissons Ratio (z) = 0.34669 0.46698
#
# Static dielectric constant tensor:
#      x y z
#    x 3.687260 0.000000 0.000000 
#    y 0.000000 3.441870 0.000000 
#    z 0.000000 0.000000 3.327930 
# 
# 
# High freq. dielectric constant tensor:
#      x y z
#    x 1.757960 0.000000 0.000000 
#    y 0.000000 1.722440 0.000000 
#    z 0.000000 0.000000 1.725030 
# 
# From -- ./inp_files/4544.got.cif
#   From: 2010.03.12/outbox.cif.g09.slc.cpg/sg25_3_cif.got.tgz:4544.got - 2010.04.14 03:30:10.
