data_PCOD8166493
_publ_section_title
;
Structure prediction by ZEFSAII (Michael W. Deem and Ramdas Pophale) SiO2 
 PCOD8166493
Probable space group: P M M 2
;
_chemical_formula_sum "Si O2"
_cell_formula_units_Z 20
_cell_length_a 9.061653
_cell_length_b 7.837473
_cell_length_c 14.647295
_cell_angle_alpha 90.000000
_cell_angle_beta 90.000000
_cell_angle_gamma 90.000000
_cell_volume 1040.257639
_symmetry_space_group_name_H-M "P M M 2"
_symmetry_group_IT_number 25
_symmetry_cell_setting 'orthorhombic'
loop_
_space_group_symop_operation_xyz
x,y,z
-x,-y,z
-x,y,z
x,-y,z
loop_
_atom_site_type_symbol
_atom_site_label
_atom_site_fract_x
_atom_site_fract_y
_atom_site_fract_z
Si Si1 0.335628 0.311730 0.953300
Si Si2 0.335555 0.202243 0.291146
Si Si3 0.174647 0.500000 0.601988
Si Si4 0.174164 0.805414 0.475350
Si Si5 0.176140 0.500000 0.808721
Si Si6 0.838246 0.194619 0.120177
O O1 0.500000 0.236405 0.934465
O O2 0.349065 0.500000 0.997797
O O3 0.243226 0.330234 0.858250
O O4 0.248794 0.196392 0.024746
O O5 0.500000 0.280054 0.295209
O O6 0.248301 0.255080 0.381678
O O7 0.253137 0.281824 0.202609
O O8 0.344523 0.000000 0.282498
O O9 0.230121 0.673330 0.552644
O O10 0.234245 0.500000 0.705154
O O11 0.000000 0.500000 0.603415
O O12 0.000000 0.793113 0.461037
O O13 0.219826 0.000000 0.502141
O O14 0.000000 0.500000 0.816514
O O15 0.000000 0.282775 0.110004
O O16 0.862326 0.000000 0.147383
#
# Coordination Sequence:
#
# PCOD8166493 Si02
#       6
#     4   4   2   4   2   4
#     4   9  19  34  51  72  98 133 169 205 256 312
#     4   9  17  30  48  71 103 139 170 207 256 306
#     4   9  18  33  54  79 102 131 173 218 268 313
#     4   9  17  32  53  75 102 136 175 217 259 309
#     4   9  17  33  54  71  96 131 163 210 266 313
#     4  10  19  31  51  78 104 135 175 213 254 308
#
# _framework density 19.226006999999999
#
# number of rings (size 3 to 8) (size 9 to 14) (size 15 to 20)
#    0.600    2.200    0.000    1.800    0.000    3.600 
#    1.800    3.500    0.000    3.600    0.000    0.000 
#    0.000    0.000    0.000    0.000    0.000    0.000 
#
# Total GULP energy -247821.667330 kJ/mol
# GULP energy per Si atom -12391.083366 kJ/mol
# Density = 1.918225 g / cm^3
# Si number density = 19.226007 Si / 1000 Ang^3
#
#
#
# Elastic Constant Matrix: (Units=GPa)
#
#
# Indices 1 2 3 4 5 6 
#
# 1 124.8394 20.0329 69.2343 0.0000 0.0000 0.0000
# 2 20.0329 50.3286 40.0105 0.0000 0.0000 0.0000
# 3 69.2343 40.0105 179.4623 0.0000 0.0000 0.0000
# 4 0.0000 0.0000 0.0000 28.7968 0.0000 0.0000
# 5 0.0000 0.0000 0.0000 0.0000 14.9472 0.0000
# 6 0.0000 0.0000 0.0000 0.0000 0.0000 13.3750
#
#
#
# Elastic Compliance Matrix: (Units=1/GPa)
#
#
# Indices 1 2 3 4 5 6 
#
# 1 0.010244 -0.001137 -0.003698 0.000000 0.000000 0.000000
# 2 -0.001137 0.024276 -0.004973 0.000000 0.000000 0.000000
# 3 -0.003698 -0.004973 0.008108 0.000000 0.000000 0.000000
# 4 0.000000 0.000000 0.000000 0.034726 0.000000 0.000000
# 5 0.000000 0.000000 0.000000 0.000000 0.066902 0.000000
# 6 0.000000 0.000000 0.000000 0.000000 0.000000 0.074766
#
#
# Mechanical properties :
#
#
# Convention : Reuss Voigt Hill
#
# Bulk Modulus (GPa) = 43.46074 68.13172 55.79623
# Shear Modulus (GPa) = 20.29959 26.44731 23.37345
#
# Velocity S-wave (km/s) = 3.25289 3.71293 3.49050
# Velocity P-wave (km/s) = 6.06322 7.34135 6.73268
#
# Compressibility (1/GPa) = 0.02300927
#
# Stress axis : x y z
#
# Youngs Moduli (GPa) = 97.61930 41.19300 123.33779
#
# Poissons Ratio (x) = 0.04685 0.45615
# Poissons Ratio (y) = 0.11102 0.61342
# Poissons Ratio (z) = 0.36103 0.20487
#
# Static dielectric constant tensor:
#      x y z
#    x 3.661960 0.000000 0.000000 
#    y 0.000000 3.211780 0.000000 
#    z 0.000000 0.000000 3.465230 
# 
# 
# High freq. dielectric constant tensor:
#      x y z
#    x 1.751410 0.000000 0.000000 
#    y 0.000000 1.713120 0.000000 
#    z 0.000000 0.000000 1.738890 
# 
# From -- ./inp_files/5156.got.cif
#   From: 2010.03.12/outbox.cif.g09.slc.cpg/sg25_3_cif.got.tgz:5156.got - 2010.04.14 03:30:10.
