data_PCOD8166577
_publ_section_title
;
Structure prediction by ZEFSAII (Michael W. Deem and Ramdas Pophale) SiO2 
 PCOD8166577
Probable space group: P M M 2
;
_chemical_formula_sum "Si O2"
_cell_formula_units_Z 32
_cell_length_a 9.641321
_cell_length_b 9.450245
_cell_length_c 20.687769
_cell_angle_alpha 90.000000
_cell_angle_beta 90.000000
_cell_angle_gamma 90.000000
_cell_volume 1884.921502
_symmetry_space_group_name_H-M "P M M 2"
_symmetry_group_IT_number 25
_symmetry_cell_setting 'orthorhombic'
loop_
_space_group_symop_operation_xyz
x,y,z
-x,-y,z
-x,y,z
x,-y,z
loop_
_atom_site_type_symbol
_atom_site_label
_atom_site_fract_x
_atom_site_fract_y
_atom_site_fract_z
Si Si1 0.335805 0.155778 0.571440
Si Si2 0.660875 0.665341 0.690668
Si Si3 0.161340 0.667455 0.323941
Si Si4 0.155647 0.331577 0.949928
Si Si5 0.659988 0.833240 0.426430
Si Si6 0.344553 0.667967 0.205650
Si Si7 0.344378 0.331766 0.062745
Si Si8 0.844126 0.331761 0.807361
O O1 0.500000 0.147403 0.575445
O O2 0.278908 0.262358 0.625823
O O3 0.295911 0.207219 0.499591
O O4 0.272864 0.000000 0.584567
O O5 0.500000 0.700189 0.701561
O O6 0.687536 0.500000 0.682200
O O7 0.741861 0.728575 0.752531
O O8 0.180179 0.500000 0.332773
O O9 0.236168 0.744963 0.382565
O O10 0.233791 0.722519 0.257997
O O11 0.000000 0.709995 0.321652
O O12 0.161943 0.500000 0.952806
O O13 0.205855 0.280668 0.878657
O O14 0.000000 0.278326 0.962078
O O15 0.249332 0.264058 0.006613
O O16 0.500000 0.789897 0.412749
O O17 0.679226 0.000000 0.414349
O O18 0.500000 0.724486 0.222087
O O19 0.348386 0.500000 0.205599
O O20 0.298117 0.721195 0.134219
O O21 0.500000 0.280798 0.048896
O O22 0.334973 0.500000 0.060380
O O23 0.841744 0.500000 0.805657
O O24 0.000000 0.277066 0.793814
#
# Coordination Sequence:
#
# PCOD8166577 Si02
#       8
#     4   4   4   4   4   4   4   4
#     4   8  15  29  47  65  85 108 135 170 212 256
#     4   9  16  25  40  63  85 105 135 173 207 242
#     4  10  20  31  44  66  94 121 149 182 221 264
#     4   8  13  20  30  45  68 102 140 170 199 243
#     4   9  18  33  52  70  87 113 149 184 221 267
#     4   8  14  25  39  55  79 112 146 178 214 256
#     4   8  13  20  31  49  73 102 137 175 212 248
#     4   8  14  24  35  49  75 110 141 168 204 249
#
# _framework density 16.976834
#
# number of rings (size 3 to 8) (size 9 to 14) (size 15 to 20)
#    0.000    3.500    0.000    2.625    0.000    2.500 
#    0.000    6.875    0.000    2.625    0.000    0.000 
#    0.000    1.000    0.000    5.500    0.000    7.500 
#
# Total GULP energy -396516.287658 kJ/mol
# GULP energy per Si atom -12391.133989 kJ/mol
# Density = 1.693819 g / cm^3
# Si number density = 16.976834 Si / 1000 Ang^3
#
#
#
# Elastic Constant Matrix: (Units=GPa)
#
#
# Indices 1 2 3 4 5 6 
#
# 1 98.0698 26.7453 94.2376 0.0000 0.0000 0.0000
# 2 26.7453 20.8383 37.5984 0.0000 0.0000 0.0000
# 3 94.2376 37.5984 185.2233 0.0000 0.0000 0.0000
# 4 0.0000 0.0000 0.0000 0.1646 0.0000 0.0000
# 5 0.0000 0.0000 0.0000 0.0000 18.5838 0.0000
# 6 0.0000 0.0000 0.0000 0.0000 0.0000 11.9126
#
#
#
# Elastic Compliance Matrix: (Units=1/GPa)
#
#
# Indices 1 2 3 4 5 6 
#
# 1 0.021867 -0.012611 -0.008565 0.000000 0.000000 0.000000
# 2 -0.012611 0.082995 -0.010431 0.000000 0.000000 0.000000
# 3 -0.008565 -0.010431 0.011874 0.000000 0.000000 0.000000
# 4 0.000000 0.000000 0.000000 6.074252 0.000000 0.000000
# 5 0.000000 0.000000 0.000000 0.000000 0.053810 0.000000
# 6 0.000000 0.000000 0.000000 0.000000 0.000000 0.083945
#
#
# Mechanical properties :
#
#
# Convention : Reuss Voigt Hill
#
# Bulk Modulus (GPa) = 18.68414 69.03268 43.85841
# Shear Modulus (GPa) = 0.78006 15.83554 8.30780
#
# Velocity S-wave (km/s) = 0.67859 3.05745 2.21455
# Velocity P-wave (km/s) = 3.41226 7.29487 5.69468
#
# Compressibility (1/GPa) = 0.05352133
#
# Stress axis : x y z
#
# Youngs Moduli (GPa) = 45.73157 12.04895 84.21600
#
# Poissons Ratio (x) = 0.15194 0.72135
# Poissons Ratio (y) = 0.57670 0.87846
# Poissons Ratio (z) = 0.39171 0.12568
#
# Static dielectric constant tensor:
#      x y z
#    x 3.196510 0.000000 0.000000 
#    y 0.000000 2.690740 0.000000 
#    z 0.000000 0.000000 3.685860 
# 
# 
# High freq. dielectric constant tensor:
#      x y z
#    x 1.640510 0.000000 0.000000 
#    y 0.000000 1.592190 0.000000 
#    z 0.000000 0.000000 1.673140 
# 
# From -- ./inp_files/6578.got.cif
#   From: 2010.03.12/outbox.cif.g09.slc.cpg/sg25_4_cif.got.tgz:6578.got - 2010.04.14 03:30:10.
