data_PCOD8166483
_publ_section_title
;
Structure prediction by ZEFSAII (Michael W. Deem and Ramdas Pophale) SiO2 
 PCOD8166483
Probable space group: P M M 2
;
_chemical_formula_sum "Si O2"
_cell_formula_units_Z 32
_cell_length_a 9.439414
_cell_length_b 15.857012
_cell_length_c 11.720232
_cell_angle_alpha 90.000000
_cell_angle_beta 90.000000
_cell_angle_gamma 90.000000
_cell_volume 1754.294887
_symmetry_space_group_name_H-M "P M M 2"
_symmetry_group_IT_number 25
_symmetry_cell_setting 'orthorhombic'
loop_
_space_group_symop_operation_xyz
x,y,z
-x,-y,z
-x,y,z
x,-y,z
loop_
_atom_site_type_symbol
_atom_site_label
_atom_site_fract_x
_atom_site_fract_y
_atom_site_fract_z
Si Si1 0.346788 0.403205 0.329080
Si Si2 0.656383 0.909189 0.545234
Si Si3 0.832808 0.900209 0.098340
Si Si4 0.331549 0.761689 0.953876
Si Si5 0.667979 0.405270 0.079616
Si Si6 0.334080 0.244313 0.691299
Si Si7 0.837354 0.853554 0.353315
Si Si8 0.835918 0.314680 0.494613
O O1 0.500000 0.358541 0.356116
O O2 0.379259 0.500000 0.314983
O O3 0.285782 0.374509 0.206100
O O4 0.232709 0.392706 0.428889
O O5 0.500000 0.881260 0.505023
O O6 0.711770 0.846137 0.641319
O O7 0.751398 0.917046 0.432656
O O8 0.654803 0.000000 0.605364
O O9 0.788241 0.864761 0.222908
O O10 0.000000 0.888051 0.077396
O O11 0.792690 0.000000 0.086558
O O12 0.747144 0.842383 0.008858
O O13 0.500000 0.773916 0.971558
O O14 0.288465 0.756983 0.821840
O O15 0.276647 0.670734 0.999666
O O16 0.500000 0.410729 0.071262
O O17 0.728860 0.500000 0.048260
O O18 0.500000 0.265447 0.677814
O O19 0.242304 0.309584 0.616667
O O20 0.806863 0.761343 0.405671
O O21 0.000000 0.878937 0.363621
O O22 0.000000 0.329720 0.518646
#
# Coordination Sequence:
#
# PCOD8166483 Si02
#       8
#     4   4   4   4   4   4   4   4
#     4   9  17  30  50  75 102 130 157 191 243 305
#     4   9  17  29  46  67  91 122 160 203 248 289
#     4  10  21  35  50  71 103 139 168 202 255 312
#     4  10  20  34  54  76  98 132 176 218 254 291
#     4   8  15  30  53  80 105 128 161 207 257 307
#     4   9  19  34  49  68  97 131 166 203 245 294
#     4   9  18  32  49  70  96 126 160 199 249 306
#     4  10  19  31  50  74  98 127 163 205 249 292
#
# _framework density 18.240946999999998
#
# number of rings (size 3 to 8) (size 9 to 14) (size 15 to 20)
#    0.000    2.750    0.000    2.250    0.000    3.250 
#    0.000    1.875    0.000    3.375    0.000    0.000 
#    0.000    0.000    0.000    0.000    0.000    0.000 
#
# Total GULP energy -396458.597228 kJ/mol
# GULP energy per Si atom -12389.331163 kJ/mol
# Density = 1.819943 g / cm^3
# Si number density = 18.240947 Si / 1000 Ang^3
#
#
#
# Elastic Constant Matrix: (Units=GPa)
#
#
# Indices 1 2 3 4 5 6 
#
# 1 56.9528 27.9461 56.5399 0.0000 0.0000 0.0000
# 2 27.9461 61.0055 52.3670 0.0000 0.0000 0.0000
# 3 56.5399 52.3670 155.2517 0.0000 0.0000 0.0000
# 4 0.0000 0.0000 0.0000 19.6042 0.0000 0.0000
# 5 0.0000 0.0000 0.0000 0.0000 24.4674 0.0000
# 6 0.0000 0.0000 0.0000 0.0000 0.0000 17.9785
#
#
#
# Elastic Compliance Matrix: (Units=1/GPa)
#
#
# Indices 1 2 3 4 5 6 
#
# 1 0.028948 -0.005928 -0.008543 0.000000 0.000000 0.000000
# 2 -0.005928 0.024286 -0.006033 0.000000 0.000000 0.000000
# 3 -0.008543 -0.006033 0.011587 0.000000 0.000000 0.000000
# 4 0.000000 0.000000 0.000000 0.051009 0.000000 0.000000
# 5 0.000000 0.000000 0.000000 0.000000 0.040871 0.000000
# 6 0.000000 0.000000 0.000000 0.000000 0.000000 0.055622
#
#
# Mechanical properties :
#
#
# Convention : Reuss Voigt Hill
#
# Bulk Modulus (GPa) = 41.99165 60.76841 51.38003
# Shear Modulus (GPa) = 19.13736 21.50048 20.31892
#
# Velocity S-wave (km/s) = 3.24256 3.43693 3.34116
# Velocity P-wave (km/s) = 6.09011 7.00975 6.56605
#
# Compressibility (1/GPa) = 0.02381426
#
# Stress axis : x y z
#
# Youngs Moduli (GPa) = 34.54465 41.17576 86.30114
#
# Poissons Ratio (x) = 0.24407 0.73727
# Poissons Ratio (y) = 0.20477 0.52066
# Poissons Ratio (z) = 0.29511 0.24842
#
# Static dielectric constant tensor:
#      x y z
#    x 3.194190 0.000000 0.000000 
#    y 0.000000 3.419190 0.000000 
#    z 0.000000 0.000000 3.373920 
# 
# 
# High freq. dielectric constant tensor:
#      x y z
#    x 1.689580 0.000000 0.000000 
#    y 0.000000 1.704160 0.000000 
#    z 0.000000 0.000000 1.700150 
# 
# From -- ./inp_files/4392.got.cif
#   From: 2010.03.12/outbox.cif.g09.slc.cpg/sg25_3_cif.got.tgz:4392.got - 2010.04.14 03:30:10.
