data_PCOD8166935
_publ_section_title
;
Structure prediction by ZEFSAII (Michael W. Deem and Ramdas Pophale) SiO2 
 PCOD8166935
Probable space group: P M M 2
;
_chemical_formula_sum "Si O2"
_cell_formula_units_Z 28
_cell_length_a 9.202232
_cell_length_b 9.214303
_cell_length_c 18.047993
_cell_angle_alpha 90.000000
_cell_angle_beta 90.000000
_cell_angle_gamma 90.000000
_cell_volume 1530.328200
_symmetry_space_group_name_H-M "P M M 2"
_symmetry_group_IT_number 25
_symmetry_cell_setting 'orthorhombic'
loop_
_space_group_symop_operation_xyz
x,y,z
-x,-y,z
-x,y,z
x,-y,z
loop_
_atom_site_type_symbol
_atom_site_label
_atom_site_fract_x
_atom_site_fract_y
_atom_site_fract_z
Si Si1 0.160447 0.172312 0.480210
Si Si2 0.670710 0.833009 0.339347
Si Si3 0.830217 0.831285 0.904630
Si Si4 0.170528 0.831429 0.645390
Si Si5 0.331491 0.671125 0.773895
Si Si6 0.327009 0.336307 0.197221
Si Si7 0.667200 0.831474 0.053342
O O1 0.264799 0.231961 0.415664
O O2 0.213686 0.218422 0.562089
O O3 0.000000 0.235535 0.465476
O O4 0.155570 0.000000 0.478449
O O5 0.500000 0.814204 0.345220
O O6 0.734874 0.744393 0.269843
O O7 0.715632 0.000000 0.327983
O O8 0.753190 0.736793 0.842878
O O9 0.000000 0.795310 0.905262
O O10 0.801065 0.000000 0.887497
O O11 0.763792 0.786740 0.983472
O O12 0.266911 0.734019 0.698542
O O13 0.000000 0.804569 0.660143
O O14 0.207693 0.000000 0.658952
O O15 0.500000 0.714096 0.779839
O O16 0.308737 0.500000 0.774015
O O17 0.500000 0.330571 0.198849
O O18 0.268024 0.500000 0.197034
O O19 0.271190 0.256789 0.123381
O O20 0.500000 0.791538 0.035870
O O21 0.683095 0.000000 0.072881
#
# Coordination Sequence:
#
# PCOD8166935 Si02
#       7
#     4   4   4   4   4   4   4
#     4   8  15  29  49  73  99 126 159 201 247 293
#     4   9  16  27  46  71  96 124 162 204 243 287
#     4  10  21  37  57  80 104 131 166 207 252 303
#     4   9  18  34  56  79 102 131 169 211 255 304
#     4  11  24  38  52  75 106 137 170 207 248 297
#     4   9  17  29  46  69  97 129 164 202 245 291
#     4   9  17  31  52  75  98 126 162 204 248 294
#
# _framework density 18.296728999999999
#
# number of rings (size 3 to 8) (size 9 to 14) (size 15 to 20)
#    0.000    2.714    0.000    2.571    0.000    6.857 
#    0.000    4.286    0.000    7.286    0.000    0.000 
#    0.000    0.000    0.000    0.000    0.000    0.000 
#
# Total GULP energy -347175.781358 kJ/mol
# GULP energy per Si atom -12399.135049 kJ/mol
# Density = 1.825508 g / cm^3
# Si number density = 18.296729 Si / 1000 Ang^3
#
#
#
# Elastic Constant Matrix: (Units=GPa)
#
#
# Indices 1 2 3 4 5 6 
#
# 1 78.5664 48.5247 75.3746 0.0000 0.0000 0.0000
# 2 48.5247 76.6974 77.7687 0.0000 0.0000 0.0000
# 3 75.3746 77.7687 186.1700 0.0000 0.0000 0.0000
# 4 0.0000 0.0000 0.0000 1.5218 0.0000 0.0000
# 5 0.0000 0.0000 0.0000 0.0000 -28.3306 0.0000
# 6 0.0000 0.0000 0.0000 0.0000 0.0000 19.0312
#
#
#
# Elastic Compliance Matrix: (Units=1/GPa)
#
#
# Indices 1 2 3 4 5 6 
#
# 1 0.024106 -0.009290 -0.005879 0.000000 0.000000 0.000000
# 2 -0.009290 0.026199 -0.007183 0.000000 0.000000 0.000000
# 3 -0.005879 -0.007183 0.010752 0.000000 0.000000 0.000000
# 4 0.000000 0.000000 0.000000 0.657109 0.000000 0.000000
# 5 0.000000 0.000000 0.000000 0.000000 -0.035297 0.000000
# 6 0.000000 0.000000 0.000000 0.000000 0.000000 0.052545
#
#
# Mechanical properties :
#
#
# Convention : Reuss Voigt Hill
#
# Bulk Modulus (GPa) = 61.14997 82.75218 71.95108
# Shear Modulus (GPa) = 6.36480 7.76220 7.06350
#
# Velocity S-wave (km/s) = 1.86714 2.06194 1.96695
# Velocity P-wave (km/s) = 6.17593 7.14107 6.67596
#
# Compressibility (1/GPa) = 0.01635324
#
# Stress axis : x y z
#
# Youngs Moduli (GPa) = 41.48301 38.16919 93.00467
#
# Poissons Ratio (x) = 0.35460 0.54678
# Poissons Ratio (y) = 0.38539 0.66803
# Poissons Ratio (z) = 0.24388 0.27416
#
# Static dielectric constant tensor:
#      x y z
#    x 3.280800 0.000000 0.000000 
#    y 0.000000 3.224700 0.000000 
#    z 0.000000 0.000000 3.675600 
# 
# 
# High freq. dielectric constant tensor:
#      x y z
#    x 1.691000 0.000000 0.000000 
#    y 0.000000 1.689020 0.000000 
#    z 0.000000 0.000000 1.727730 
# 
# From -- ./inp_files/6027.got.cif
#   From: 2010.03.12/outbox.cif.g09.slc.cpg/sg25_4_cif.got.tgz:6027.got - 2010.04.14 03:30:10.
