data_PCOD8166934
_publ_section_title
;
Structure prediction by ZEFSAII (Michael W. Deem and Ramdas Pophale) SiO2 
 PCOD8166934
Probable space group: P M M 2
;
_chemical_formula_sum "Si O2"
_cell_formula_units_Z 32
_cell_length_a 14.062722
_cell_length_b 8.921642
_cell_length_c 12.961076
_cell_angle_alpha 90.000000
_cell_angle_beta 90.000000
_cell_angle_gamma 90.000000
_cell_volume 1626.129921
_symmetry_space_group_name_H-M "P M M 2"
_symmetry_group_IT_number 25
_symmetry_cell_setting 'orthorhombic'
loop_
_space_group_symop_operation_xyz
x,y,z
-x,-y,z
-x,y,z
x,-y,z
loop_
_atom_site_type_symbol
_atom_site_label
_atom_site_fract_x
_atom_site_fract_y
_atom_site_fract_z
Si Si1 0.888046 0.337719 0.237640
Si Si2 0.712068 0.824146 0.522661
Si Si3 0.610115 0.676155 0.330314
Si Si4 0.609791 0.825595 0.734116
Si Si5 0.702745 0.323636 0.927147
Si Si6 0.892152 0.320887 0.461410
Si Si7 0.895396 0.321884 0.016933
Si Si8 0.612832 0.829737 0.123320
O O1 0.836619 0.500000 0.237897
O O2 0.862327 0.258377 0.346430
O O3 0.000000 0.363360 0.239147
O O4 0.863576 0.252608 0.129605
O O5 0.663712 0.744424 0.426754
O O6 0.651520 0.784106 0.623223
O O7 0.818843 0.759115 0.539152
O O8 0.715785 0.000000 0.502914
O O9 0.500000 0.720199 0.340516
O O10 0.625860 0.500000 0.328309
O O11 0.653454 0.744040 0.224211
O O12 0.500000 0.778172 0.735849
O O13 0.666232 0.731136 0.817870
O O14 0.622461 0.000000 0.759746
O O15 0.687716 0.500000 0.936140
O O16 0.814926 0.278943 0.934170
O O17 0.645696 0.248085 0.019041
O O18 0.882128 0.500000 0.466292
O O19 0.000000 0.273707 0.490363
O O20 0.901698 0.500000 0.031464
O O21 0.000000 0.260844 0.982506
O O22 0.500000 0.822278 0.124324
O O23 0.649659 0.000000 0.125716
#
# Coordination Sequence:
#
# PCOD8166934 Si02
#       8
#     4   4   4   4   4   4   4   4
#     4   7  11  23  45  72 104 144 184 218 258 316
#     4  11  23  38  59  85 113 149 195 243 296 357
#     4  10  21  37  58  85 116 148 186 237 295 353
#     4  10  23  44  64  79 104 149 198 240 289 354
#     4  11  22  34  57  90 116 143 189 245 293 336
#     4   9  18  33  55  84 117 154 195 236 281 339
#     4   8  15  29  49  77 114 151 185 223 273 331
#     4  10  21  37  56  80 116 157 189 224 282 355
#
# _framework density 19.678625
#
# number of rings (size 3 to 8) (size 9 to 14) (size 15 to 20)
#    0.000    2.500    0.000    3.750    1.750    5.000 
#    0.000    0.625    0.000    3.750    0.000    0.000 
#    0.000    0.000    0.000    0.000    0.000    0.000 
#
# Total GULP energy -396591.023176 kJ/mol
# GULP energy per Si atom -12393.469474 kJ/mol
# Density = 1.963384 g / cm^3
# Si number density = 19.678625 Si / 1000 Ang^3
#
#
#
# Elastic Constant Matrix: (Units=GPa)
#
#
# Indices 1 2 3 4 5 6 
#
# 1 92.5003 35.8394 43.6468 0.0000 0.0000 0.0000
# 2 35.8394 56.4706 26.8133 0.0000 0.0000 0.0000
# 3 43.6468 26.8133 67.9825 0.0000 0.0000 0.0000
# 4 0.0000 0.0000 0.0000 25.2171 0.0000 0.0000
# 5 0.0000 0.0000 0.0000 0.0000 35.5632 0.0000
# 6 0.0000 0.0000 0.0000 0.0000 0.0000 20.0984
#
#
#
# Elastic Compliance Matrix: (Units=1/GPa)
#
#
# Indices 1 2 3 4 5 6 
#
# 1 0.017569 -0.007129 -0.008468 0.000000 0.000000 0.000000
# 2 -0.007129 0.024682 -0.005158 0.000000 0.000000 0.000000
# 3 -0.008468 -0.005158 0.022180 0.000000 0.000000 0.000000
# 4 0.000000 0.000000 0.000000 0.039656 0.000000 0.000000
# 5 0.000000 0.000000 0.000000 0.000000 0.028119 0.000000
# 6 0.000000 0.000000 0.000000 0.000000 0.000000 0.049755
#
#
# Mechanical properties :
#
#
# Convention : Reuss Voigt Hill
#
# Bulk Modulus (GPa) = 43.62693 47.72803 45.67748
# Shear Modulus (GPa) = 21.63469 23.55269 22.59369
#
# Velocity S-wave (km/s) = 3.31932 3.46333 3.39209
# Velocity P-wave (km/s) = 6.07522 6.34817 6.21320
#
# Compressibility (1/GPa) = 0.02292162
#
# Stress axis : x y z
#
# Youngs Moduli (GPa) = 56.91987 40.51538 45.08499
#
# Poissons Ratio (x) = 0.28885 0.38176
# Poissons Ratio (y) = 0.40581 0.23253
# Poissons Ratio (z) = 0.48197 0.20896
#
# Static dielectric constant tensor:
#      x y z
#    x 3.834700 0.000000 0.000000 
#    y 0.000000 3.516770 0.000000 
#    z 0.000000 0.000000 3.669430 
# 
# 
# High freq. dielectric constant tensor:
#      x y z
#    x 1.781260 0.000000 0.000000 
#    y 0.000000 1.739720 0.000000 
#    z 0.000000 0.000000 1.757700 
# 
# From -- ./inp_files/4944.got.cif
#   From: 2010.03.12/outbox.cif.g09.slc.cpg/sg25_3_cif.got.tgz:4944.got - 2010.04.14 03:30:10.
