data_PCOD8166150
_publ_section_title
;
Structure prediction by ZEFSAII (Michael W. Deem and Ramdas Pophale) SiO2 
 PCOD8166150
Probable space group: I 21 21 21
;
_chemical_formula_sum "Si O2"
_cell_formula_units_Z 40
_cell_length_a 9.050625
_cell_length_b 26.464214
_cell_length_c 7.268906
_cell_angle_alpha 90.000000
_cell_angle_beta 90.000000
_cell_angle_gamma 90.000000
_cell_volume 1741.031478
_symmetry_space_group_name_H-M "I 21 21 21"
_symmetry_group_IT_number 24
_symmetry_cell_setting 'orthorhombic'
loop_
_space_group_symop_operation_xyz
x,y,z
-x,1/2-y,z
x,-y,1/2-z
1/2-x,y,-z
1/2+x,1/2+y,1/2+z
1/2-x,-y,1/2+z
1/2+x,1/2-y,-z
-x,1/2+y,1/2-z
loop_
_atom_site_type_symbol
_atom_site_label
_atom_site_fract_x
_atom_site_fract_y
_atom_site_fract_z
Si Si1 0.380414 0.206152 0.644242
Si Si2 0.750000 0.889414 0.500000
Si Si3 0.888709 0.875156 0.133128
Si Si4 0.750000 0.346129 0.000000
Si Si5 0.462817 0.064314 0.094295
Si Si6 0.086414 0.041144 0.494279
O O1 0.500000 0.250000 0.679952
O O2 0.250000 0.221197 0.500000
O O3 0.481104 0.161339 0.561099
O O4 0.302675 0.190005 0.834770
O O5 0.828537 0.857581 0.334706
O O6 0.634853 0.927738 0.418138
O O7 0.750000 0.874704 0.000000
O O8 0.971971 0.929797 0.141499
O O9 0.617540 0.382666 0.059436
O O10 0.462447 0.046288 0.299753
O O11 0.408144 0.019785 0.952346
O O12 0.250000 0.064985 0.500000
#
# Coordination Sequence:
#
# PCOD8166150 Si02
#       6
#     8   4   8   4   8   8
#     4  12  29  52  82 111 148 190 255 322 390 460
#     4  12  26  41  68 104 148 188 253 294 364 444
#     4  12  25  46  73 103 148 197 247 312 379 440
#     4  12  24  51  76 110 152 198 245 316 382 460
#     4  11  24  42  69 105 150 199 251 305 364 458
#     4  11  24  41  69 104 149 206 251 305 373 444
#
# _framework density 22.974888
#
# number of rings (size 3 to 8) (size 9 to 14) (size 15 to 20)
#    0.000    0.400    5.000    3.600    1.400    2.400 
#    0.000    0.000    0.000    0.000    0.000    0.000 
#    0.000    0.000    0.000    0.000    0.000    0.000 
#
# Total GULP energy -247768.894153 kJ/mol
# GULP energy per Si atom -12388.444708 kJ/mol
# Density = 2.292260 g / cm^3
# Si number density = 22.974888 Si / 1000 Ang^3
#
#
#
# Elastic Constant Matrix: (Units=GPa)
#
#
# Indices 1 2 3 4 5 6 
#
# 1 174.5320 54.1402 50.8583 0.0028 -0.0019 0.0021
# 2 54.1402 115.4648 46.0933 0.0008 0.0010 0.0026
# 3 50.8583 46.0933 80.6549 0.0092 0.0100 0.0113
# 4 0.0028 0.0008 0.0092 26.7235 -0.0002 0.0039
# 5 -0.0019 0.0010 0.0100 -0.0002 43.0544 0.0050
# 6 0.0021 0.0026 0.0113 0.0039 0.0050 39.7230
#
#
#
# Elastic Compliance Matrix: (Units=1/GPa)
#
#
# Indices 1 2 3 4 5 6 
#
# 1 0.007385 -0.002078 -0.003469 0.000000 0.000001 0.000001
# 2 -0.002078 0.011805 -0.005436 0.000002 0.000001 0.000001
# 3 -0.003469 -0.005436 0.017693 -0.000006 -0.000004 -0.000004
# 4 0.000000 0.000002 -0.000006 0.037420 0.000000 -0.000004
# 5 0.000001 0.000001 -0.000004 0.000000 0.023226 -0.000003
# 6 0.000001 0.000001 -0.000004 -0.000004 -0.000003 0.025174
#
#
# Mechanical properties :
#
#
# Convention : Reuss Voigt Hill
#
# Bulk Modulus (GPa) = 67.04105 74.75948 70.90027
# Shear Modulus (GPa) = 33.41283 36.53749 34.97516
#
# Velocity S-wave (km/s) = 3.81769 3.99221 3.90593
# Velocity P-wave (km/s) = 6.97686 7.33898 7.16021
#
# Compressibility (1/GPa) = 0.01491623
#
# Stress axis : x y z
#
# Youngs Moduli (GPa) = 135.40736 84.70941 56.51980
#
# Poissons Ratio (x) = 0.17601 0.19609
# Poissons Ratio (y) = 0.28136 0.30725
# Poissons Ratio (z) = 0.46978 0.46050
#
# Static dielectric constant tensor:
#      x y z
#    x 4.446420 0.000010 0.000000 
#    y 0.000010 4.591610 -0.000060 
#    z 0.000000 -0.000060 4.220570 
# 
# 
# High freq. dielectric constant tensor:
#      x y z
#    x 1.937500 0.000000 0.000000 
#    y 0.000000 1.886740 0.000000 
#    z 0.000000 0.000000 1.913550 
# 
# From -- ./inp_files/9508.got.cif
#   From: 2010.03.12/outbox.cif.g09.slc.cpg/sg24_5_cif.got.tgz:9508.got - 2010.04.14 03:06:53.
