data_PCOD8166788
_publ_section_title
;
Structure prediction by ZEFSAII (Michael W. Deem and Ramdas Pophale) SiO2 
 PCOD8166788
Probable space group: P M M 2
;
_chemical_formula_sum "Si O2"
_cell_formula_units_Z 16
_cell_length_a 8.951483
_cell_length_b 7.689920
_cell_length_c 11.996368
_cell_angle_alpha 90.000000
_cell_angle_beta 90.000000
_cell_angle_gamma 90.000000
_cell_volume 825.784245
_symmetry_space_group_name_H-M "P M M 2"
_symmetry_group_IT_number 25
_symmetry_cell_setting 'orthorhombic'
loop_
_space_group_symop_operation_xyz
x,y,z
-x,-y,z
-x,y,z
x,-y,z
loop_
_atom_site_type_symbol
_atom_site_label
_atom_site_fract_x
_atom_site_fract_y
_atom_site_fract_z
Si Si1 0.675288 0.796020 0.300470
Si Si2 0.825309 0.500000 0.901871
Si Si3 0.837229 0.803311 0.518803
Si Si4 0.824291 0.500000 0.161302
Si Si5 0.665182 0.307987 0.725917
O O1 0.500000 0.761493 0.297607
O O2 0.734640 0.726524 0.420312
O O3 0.753937 0.677504 0.207938
O O4 0.710853 0.000000 0.277917
O O5 0.752275 0.326879 0.844454
O O6 0.000000 0.500000 0.877079
O O7 0.787594 0.500000 0.030905
O O8 0.757386 0.804284 0.638415
O O9 0.000000 0.708094 0.524445
O O10 0.865774 0.000000 0.485814
O O11 0.000000 0.500000 0.185809
O O12 0.500000 0.226489 0.745544
O O13 0.650421 0.500000 0.672019
#
# Coordination Sequence:
#
# PCOD8166788 Si02
#       5
#     4   2   4   2   4
#     4  10  22  39  59  85 117 151 190 236 282 336
#     4   9  19  36  55  78 107 141 185 231 272 325
#     4  10  20  34  54  81 112 144 179 223 276 333
#     4  11  23  38  61  86 111 151 193 235 288 337
#     4   9  19  33  53  78 105 138 175 219 269 320
#
# _framework density 19.375520000000002
#
# number of rings (size 3 to 8) (size 9 to 14) (size 15 to 20)
#    0.750    1.500    0.000    2.625    1.750    5.000 
#    0.000    1.250    0.000    1.500    0.000    0.000 
#    0.000    0.000    0.000    0.000    0.000    0.000 
#
# Total GULP energy -198241.907350 kJ/mol
# GULP energy per Si atom -12390.119209 kJ/mol
# Density = 1.933142 g / cm^3
# Si number density = 19.375520 Si / 1000 Ang^3
#
#
#
# Elastic Constant Matrix: (Units=GPa)
#
#
# Indices 1 2 3 4 5 6 
#
# 1 180.7200 40.2172 94.9770 0.0000 0.0000 0.0000
# 2 40.2172 56.9157 38.8567 0.0000 0.0000 0.0000
# 3 94.9770 38.8567 158.3034 0.0000 0.0000 0.0000
# 4 0.0000 0.0000 0.0000 21.8609 0.0000 0.0000
# 5 0.0000 0.0000 0.0000 0.0000 29.4783 0.0000
# 6 0.0000 0.0000 0.0000 0.0000 0.0000 25.1431
#
#
#
# Elastic Compliance Matrix: (Units=1/GPa)
#
#
# Indices 1 2 3 4 5 6 
#
# 1 0.008496 -0.003031 -0.004353 0.000000 0.000000 0.000000
# 2 -0.003031 0.022188 -0.003628 0.000000 0.000000 0.000000
# 3 -0.004353 -0.003628 0.009819 0.000000 0.000000 0.000000
# 4 0.000000 0.000000 0.000000 0.045744 0.000000 0.000000
# 5 0.000000 0.000000 0.000000 0.000000 0.033923 0.000000
# 6 0.000000 0.000000 0.000000 0.000000 0.000000 0.039772
#
#
# Mechanical properties :
#
#
# Convention : Reuss Voigt Hill
#
# Bulk Modulus (GPa) = 54.11484 82.67121 68.39303
# Shear Modulus (GPa) = 26.57784 30.08900 28.33342
#
# Velocity S-wave (km/s) = 3.70770 3.94501 3.82819
# Velocity P-wave (km/s) = 6.80584 7.96940 7.41049
#
# Compressibility (1/GPa) = 0.01847922
#
# Stress axis : x y z
#
# Youngs Moduli (GPa) = 117.70528 45.06860 101.84165
#
# Poissons Ratio (x) = 0.13662 0.44333
# Poissons Ratio (y) = 0.35680 0.36944
# Poissons Ratio (z) = 0.51239 0.16349
#
# Static dielectric constant tensor:
#      x y z
#    x 3.934940 0.000000 0.000000 
#    y 0.000000 3.263250 0.000000 
#    z 0.000000 0.000000 3.335540 
# 
# 
# High freq. dielectric constant tensor:
#      x y z
#    x 1.777270 0.000000 0.000000 
#    y 0.000000 1.727720 0.000000 
#    z 0.000000 0.000000 1.742500 
# 
# From -- ./inp_files/3698.got.cif
#   From: 2010.03.12/outbox.cif.g09.slc.cpg/sg25_2_cif.got.tgz:3698.got - 2010.04.14 03:30:10.
