data_PCOD8166036
_publ_section_title
;
Structure prediction by ZEFSAII (Michael W. Deem and Ramdas Pophale) SiO2 
 PCOD8166036
Probable space group: I 21 21 21
;
_chemical_formula_sum "Si O2"
_cell_formula_units_Z 40
_cell_length_a 14.792350
_cell_length_b 16.932272
_cell_length_c 7.495969
_cell_angle_alpha 90.000000
_cell_angle_beta 90.000000
_cell_angle_gamma 90.000000
_cell_volume 1877.501066
_symmetry_space_group_name_H-M "I 21 21 21"
_symmetry_group_IT_number 24
_symmetry_cell_setting 'orthorhombic'
loop_
_space_group_symop_operation_xyz
x,y,z
-x,1/2-y,z
x,-y,1/2-z
1/2-x,y,-z
1/2+x,1/2+y,1/2+z
1/2-x,-y,1/2+z
1/2+x,1/2-y,-z
-x,1/2+y,1/2-z
loop_
_atom_site_type_symbol
_atom_site_label
_atom_site_fract_x
_atom_site_fract_y
_atom_site_fract_z
Si Si1 0.900862 0.282906 0.220305
Si Si2 0.653151 0.834620 0.008797
Si Si3 0.830657 0.428473 0.630585
Si Si4 0.982121 0.431301 0.377779
Si Si5 0.894134 0.269318 0.822147
O O1 0.842271 0.239054 0.370620
O O2 0.913082 0.374510 0.269519
O O3 0.000000 0.250000 0.224151
O O4 0.856816 0.269921 0.025478
O O5 0.570812 0.891509 0.961105
O O6 0.750000 0.879619 0.000000
O O7 0.647552 0.802205 0.209807
O O8 0.792280 0.500000 0.750000
O O9 0.750000 0.401647 0.500000
O O10 0.919103 0.465248 0.533805
O O11 0.865859 0.352876 0.739466
O O12 0.017916 0.500000 0.250000
O O13 0.000000 0.250000 0.817951
#
# Coordination Sequence:
#
# PCOD8166036 Si02
#       5
#     8   8   8   8   8
#     4   9  20  37  65  96 125 167 222 270 322 387
#     4  11  22  42  66  96 133 176 223 274 327 392
#     4  12  25  42  64 100 139 174 220 275 345 403
#     4  11  22  43  66  93 137 176 217 275 334 395
#     4  11  20  40  69  97 130 177 221 269 333 396
#
# _framework density 21.304915000000001
#
# number of rings (size 3 to 8) (size 9 to 14) (size 15 to 20)
#    0.000    1.200    4.000    3.000    0.000    0.800 
#    0.000    1.000    0.000    0.000    0.000    0.000 
#    0.000    0.000    0.000    0.000    0.000    0.000 
#
# Total GULP energy -247871.899272 kJ/mol
# GULP energy per Si atom -12393.594964 kJ/mol
# Density = 2.125642 g / cm^3
# Si number density = 21.304915 Si / 1000 Ang^3
#
#
#
# Elastic Constant Matrix: (Units=GPa)
#
#
# Indices 1 2 3 4 5 6 
#
# 1 105.3919 13.9785 27.5975 0.0000 0.0000 0.0000
# 2 13.9785 71.1209 13.8943 0.0000 0.0000 0.0000
# 3 27.5975 13.8943 113.8395 0.0000 0.0000 0.0000
# 4 0.0000 0.0000 0.0000 9.5859 0.0000 0.0000
# 5 0.0000 0.0000 0.0000 0.0000 8.2274 0.0000
# 6 0.0000 0.0000 0.0000 0.0000 0.0000 16.9601
#
#
#
# Elastic Compliance Matrix: (Units=1/GPa)
#
#
# Indices 1 2 3 4 5 6 
#
# 1 0.010301 -0.001574 -0.002305 0.000000 0.000000 0.000000
# 2 -0.001574 0.014645 -0.001406 0.000000 0.000000 0.000000
# 3 -0.002305 -0.001406 0.009515 0.000000 0.000000 0.000000
# 4 0.000000 0.000000 0.000000 0.104320 0.000000 0.000000
# 5 0.000000 0.000000 0.000000 0.000000 0.121545 0.000000
# 6 0.000000 0.000000 0.000000 0.000000 0.000000 0.058962
#
#
# Mechanical properties :
#
#
# Convention : Reuss Voigt Hill
#
# Bulk Modulus (GPa) = 41.85859 44.58813 43.22336
# Shear Modulus (GPa) = 14.80074 22.61346 18.70710
#
# Velocity S-wave (km/s) = 2.63859 3.26148 2.96643
# Velocity P-wave (km/s) = 5.38265 5.92933 5.66259
#
# Compressibility (1/GPa) = 0.02388996
#
# Stress axis : x y z
#
# Youngs Moduli (GPa) = 97.08004 68.28447 105.10090
#
# Poissons Ratio (x) = 0.10750 0.24226
# Poissons Ratio (y) = 0.15283 0.14775
# Poissons Ratio (z) = 0.22377 0.09599
#
# Static dielectric constant tensor:
#      x y z
#    x 3.827870 0.000000 0.000000 
#    y 0.000000 3.931080 0.000000 
#    z 0.000000 0.000000 4.481030 
# 
# 
# High freq. dielectric constant tensor:
#      x y z
#    x 1.843890 0.000000 0.000000 
#    y 0.000000 1.811630 0.000000 
#    z 0.000000 0.000000 1.849280 
# 
# From -- ./inp_files/12291.got.cif
#   From: 2010.03.12/outbox.cif.g09.slc.cpg/sg24_7_cif.got.tgz:12291.got - 2010.04.14 03:06:53.
