data_PCOD8166128
_publ_section_title
;
Structure prediction by ZEFSAII (Michael W. Deem and Ramdas Pophale) SiO2 
 PCOD8166128
Probable space group: I 21 21 21
;
_chemical_formula_sum "Si O2"
_cell_formula_units_Z 40
_cell_length_a 14.465857
_cell_length_b 13.369144
_cell_length_c 9.362438
_cell_angle_alpha 90.000000
_cell_angle_beta 90.000000
_cell_angle_gamma 90.000000
_cell_volume 1810.659233
_symmetry_space_group_name_H-M "I 21 21 21"
_symmetry_group_IT_number 24
_symmetry_cell_setting 'orthorhombic'
loop_
_space_group_symop_operation_xyz
x,y,z
-x,1/2-y,z
x,-y,1/2-z
1/2-x,y,-z
1/2+x,1/2+y,1/2+z
1/2-x,-y,1/2+z
1/2+x,1/2-y,-z
-x,1/2+y,1/2-z
loop_
_atom_site_type_symbol
_atom_site_label
_atom_site_fract_x
_atom_site_fract_y
_atom_site_fract_z
Si Si1 0.668806 0.452729 0.403503
Si Si2 0.811665 0.076379 0.859386
Si Si3 0.973031 0.010855 0.030925
Si Si4 0.568687 0.164663 0.730861
Si Si5 0.236166 0.729849 0.844764
O O1 0.665756 0.500000 0.250000
O O2 0.750000 0.500603 0.500000
O O3 0.575511 0.476461 0.488931
O O4 0.691424 0.336638 0.378589
O O5 0.833071 0.175107 0.764801
O O6 0.758429 0.000000 0.750000
O O7 0.750000 0.095902 0.000000
O O8 0.911857 0.030998 0.891944
O O9 0.924803 0.920280 0.112198
O O10 0.968768 0.113720 0.123024
O O11 0.500000 0.250000 0.679618
O O12 0.667108 0.221540 0.743263
O O13 0.250000 0.676618 0.000000
#
# Coordination Sequence:
#
# PCOD8166128 Si02
#       5
#     8   8   8   8   8
#     4  11  27  47  74 102 148 199 243 302 376 459
#     4  12  23  41  71 104 145 182 241 310 374 435
#     4  11  25  44  69 110 146 192 244 314 380 440
#     4  11  23  42  73 106 147 192 248 301 376 456
#     4  11  24  44  70 108 141 193 243 304 369 444
#
# _framework density 22.0914
#
# number of rings (size 3 to 8) (size 9 to 14) (size 15 to 20)
#    0.000    0.800    2.000    6.000    5.600    2.400 
#    0.000    6.000    0.000    0.000    0.000    0.000 
#    0.000    0.000    0.000    0.000    0.000    0.000 
#
# Total GULP energy -247822.939937 kJ/mol
# GULP energy per Si atom -12391.146997 kJ/mol
# Density = 2.204112 g / cm^3
# Si number density = 22.091400 Si / 1000 Ang^3
#
#
#
# Elastic Constant Matrix: (Units=GPa)
#
#
# Indices 1 2 3 4 5 6 
#
# 1 149.3855 54.8259 47.3262 0.0000 0.0000 0.0000
# 2 54.8259 86.6257 47.6117 0.0000 0.0000 0.0000
# 3 47.3262 47.6117 141.3306 0.0000 0.0000 0.0000
# 4 0.0000 0.0000 0.0000 23.7017 0.0000 0.0000
# 5 0.0000 0.0000 0.0000 0.0000 40.5313 0.0000
# 6 0.0000 0.0000 0.0000 0.0000 0.0000 42.1136
#
#
#
# Elastic Compliance Matrix: (Units=1/GPa)
#
#
# Indices 1 2 3 4 5 6 
#
# 1 0.008919 -0.004913 -0.001332 0.000000 0.000000 0.000000
# 2 -0.004913 0.016873 -0.004039 0.000000 0.000000 0.000000
# 3 -0.001332 -0.004039 0.008882 0.000000 0.000000 0.000000
# 4 0.000000 0.000000 0.000000 0.042191 0.000000 0.000000
# 5 0.000000 0.000000 0.000000 0.000000 0.024672 0.000000
# 6 0.000000 0.000000 0.000000 0.000000 0.000000 0.023745
#
#
# Mechanical properties :
#
#
# Convention : Reuss Voigt Hill
#
# Bulk Modulus (GPa) = 70.88581 75.20770 73.04675
# Shear Modulus (GPa) = 33.21083 36.44119 34.82601
#
# Velocity S-wave (km/s) = 3.88150 4.06589 3.97476
# Velocity P-wave (km/s) = 7.22808 7.49398 7.36223
#
# Compressibility (1/GPa) = 0.01410720
#
# Stress axis : x y z
#
# Youngs Moduli (GPa) = 112.11924 59.26470 112.58476
#
# Poissons Ratio (x) = 0.29117 0.14991
# Poissons Ratio (y) = 0.55085 0.45475
# Poissons Ratio (z) = 0.14929 0.23938
#
# Static dielectric constant tensor:
#      x y z
#    x 4.057640 0.000000 0.000000 
#    y 0.000000 4.059000 0.000000 
#    z 0.000000 0.000000 4.128280 
# 
# 
# High freq. dielectric constant tensor:
#      x y z
#    x 1.867540 0.000000 0.000000 
#    y 0.000000 1.865250 0.000000 
#    z 0.000000 0.000000 1.887840 
# 
# From -- ./inp_files/12342.got.cif
#   From: 2010.03.12/outbox.cif.g09.slc.cpg/sg24_7_cif.got.tgz:12342.got - 2010.04.14 03:06:53.
