data_PCOD8166615
_publ_section_title
;
Structure prediction by ZEFSAII (Michael W. Deem and Ramdas Pophale) SiO2 
 PCOD8166615
Probable space group: P M M 2
;
_chemical_formula_sum "Si O2"
_cell_formula_units_Z 32
_cell_length_a 17.673585
_cell_length_b 9.217036
_cell_length_c 11.487189
_cell_angle_alpha 90.000000
_cell_angle_beta 90.000000
_cell_angle_gamma 90.000000
_cell_volume 1871.240909
_symmetry_space_group_name_H-M "P M M 2"
_symmetry_group_IT_number 25
_symmetry_cell_setting 'orthorhombic'
loop_
_space_group_symop_operation_xyz
x,y,z
-x,-y,z
-x,y,z
x,-y,z
loop_
_atom_site_type_symbol
_atom_site_label
_atom_site_fract_x
_atom_site_fract_y
_atom_site_fract_z
Si Si1 0.696138 0.163426 0.673020
Si Si2 0.083356 0.666750 0.759988
Si Si3 0.585608 0.833159 0.255981
Si Si4 0.284006 0.671135 0.135433
Si Si5 0.362482 0.662556 0.472864
Si Si6 0.200022 0.659501 0.358546
Si Si7 0.858206 0.838855 0.553001
Si Si8 0.764310 0.670044 0.878231
O O1 0.635335 0.252759 0.596244
O O2 0.774772 0.159104 0.605406
O O3 0.706524 0.243154 0.796382
O O4 0.666148 0.000000 0.694247
O O5 0.095550 0.500000 0.726438
O O6 0.086981 0.753433 0.639465
O O7 0.148549 0.714795 0.850709
O O8 0.000000 0.692966 0.815931
O O9 0.500000 0.824152 0.208976
O O10 0.638684 0.757128 0.160165
O O11 0.589016 0.752338 0.379826
O O12 0.611210 0.000000 0.273172
O O13 0.301361 0.500000 0.146840
O O14 0.219543 0.716929 0.228874
O O15 0.252612 0.715242 0.009976
O O16 0.396293 0.500000 0.488306
O O17 0.277042 0.650101 0.430389
O O18 0.162603 0.500000 0.351819
O O19 0.142250 0.765626 0.424972
O O20 0.890518 0.000000 0.537623
O O21 0.751013 0.500000 0.857310
#
# Coordination Sequence:
#
# PCOD8166615 Si02
#       8
#     4   4   4   4   4   4   4   4
#     4   9  16  26  42  66  93 118 146 183 228 274
#     4   9  17  29  46  67  91 120 152 190 239 289
#     4  10  20  32  47  69  96 123 152 192 241 289
#     4   9  18  31  48  69  93 125 163 201 237 275
#     4   9  16  27  45  67  90 117 147 181 224 273
#     4   8  14  25  41  62  87 113 143 181 223 266
#     4   9  16  25  40  63  88 114 143 178 223 272
#     4   9  17  30  47  68  94 124 162 203 237 275
#
# _framework density 17.100950999999998
#
# number of rings (size 3 to 8) (size 9 to 14) (size 15 to 20)
#    0.000    3.000    0.000    2.250    0.000    7.750 
#    0.000    0.000    0.000    1.500    0.000    7.000 
#    0.000    0.000    0.000    0.000    0.000    0.000 
#
# Total GULP energy -396663.252389 kJ/mol
# GULP energy per Si atom -12395.726637 kJ/mol
# Density = 1.706203 g / cm^3
# Si number density = 17.100951 Si / 1000 Ang^3
#
#
#
# Elastic Constant Matrix: (Units=GPa)
#
#
# Indices 1 2 3 4 5 6 
#
# 1 55.8283 34.7908 41.6243 0.0000 0.0000 0.0000
# 2 34.7908 101.4894 61.0802 0.0000 0.0000 0.0000
# 3 41.6243 61.0802 138.3270 0.0000 0.0000 0.0000
# 4 0.0000 0.0000 0.0000 18.8309 0.0000 0.0000
# 5 0.0000 0.0000 0.0000 0.0000 14.4926 0.0000
# 6 0.0000 0.0000 0.0000 0.0000 0.0000 16.9184
#
#
#
# Elastic Compliance Matrix: (Units=1/GPa)
#
#
# Indices 1 2 3 4 5 6 
#
# 1 0.025196 -0.005549 -0.005132 0.000000 0.000000 0.000000
# 2 -0.005549 0.014641 -0.004795 0.000000 0.000000 0.000000
# 3 -0.005132 -0.004795 0.010891 0.000000 0.000000 0.000000
# 4 0.000000 0.000000 0.000000 0.053104 0.000000 0.000000
# 5 0.000000 0.000000 0.000000 0.000000 0.069001 0.000000
# 6 0.000000 0.000000 0.000000 0.000000 0.000000 0.059107
#
#
# Mechanical properties :
#
#
# Convention : Reuss Voigt Hill
#
# Bulk Modulus (GPa) = 50.56484 63.40390 56.98437
# Shear Modulus (GPa) = 18.55393 20.59167 19.57280
#
# Velocity S-wave (km/s) = 3.29745 3.47381 3.38678
# Velocity P-wave (km/s) = 6.64306 7.29703 6.97771
#
# Compressibility (1/GPa) = 0.01977659
#
# Stress axis : x y z
#
# Youngs Moduli (GPa) = 39.68891 68.29913 91.81984
#
# Poissons Ratio (x) = 0.37898 0.47118
# Poissons Ratio (y) = 0.22023 0.44032
# Poissons Ratio (z) = 0.20367 0.32752
#
# Static dielectric constant tensor:
#      x y z
#    x 2.856660 0.000000 0.000000 
#    y 0.000000 3.419370 0.000000 
#    z 0.000000 0.000000 3.175780 
# 
# 
# High freq. dielectric constant tensor:
#      x y z
#    x 1.617310 0.000000 0.000000 
#    y 0.000000 1.669650 0.000000 
#    z 0.000000 0.000000 1.644960 
# 
# From -- ./inp_files/4435.got.cif
#   From: 2010.03.12/outbox.cif.g09.slc.cpg/sg25_3_cif.got.tgz:4435.got - 2010.04.14 03:30:10.
