data_PCOD8166053
_publ_section_title
;
Structure prediction by ZEFSAII (Michael W. Deem and Ramdas Pophale) SiO2 
 PCOD8166053
Probable space group: I 21 21 21
;
_chemical_formula_sum "Si O2"
_cell_formula_units_Z 40
_cell_length_a 22.856687
_cell_length_b 8.636734
_cell_length_c 9.829804
_cell_angle_alpha 90.000000
_cell_angle_beta 90.000000
_cell_angle_gamma 90.000000
_cell_volume 1940.473354
_symmetry_space_group_name_H-M "I 21 21 21"
_symmetry_group_IT_number 24
_symmetry_cell_setting 'orthorhombic'
loop_
_space_group_symop_operation_xyz
x,y,z
-x,1/2-y,z
x,-y,1/2-z
1/2-x,y,-z
1/2+x,1/2+y,1/2+z
1/2-x,-y,1/2+z
1/2+x,1/2-y,-z
-x,1/2+y,1/2-z
loop_
_atom_site_type_symbol
_atom_site_label
_atom_site_fract_x
_atom_site_fract_y
_atom_site_fract_z
Si Si1 0.238400 0.151777 0.338548
Si Si2 0.137905 0.816375 0.758270
Si Si3 0.122405 0.317313 0.260414
Si Si4 0.934511 0.685131 0.500273
Si Si5 0.440218 0.182266 0.498344
O O1 0.250000 0.113329 0.500000
O O2 0.294319 0.236211 0.267668
O O3 0.184299 0.266917 0.323231
O O4 0.223105 0.000000 0.250000
O O5 0.099609 0.752030 0.633482
O O6 0.137648 0.000000 0.750000
O O7 0.109284 0.757355 0.896822
O O8 0.120653 0.500000 0.250000
O O9 0.108963 0.241798 0.116224
O O10 0.070234 0.258362 0.355853
O O11 0.940623 0.501838 0.493175
O O12 0.000000 0.750000 0.492413
O O13 0.500000 0.250000 0.439065
#
# Coordination Sequence:
#
# PCOD8166053 Si02
#       5
#     8   8   8   8   8
#     4  11  23  44  72  99 128 171 220 267 322 393
#     4   9  21  39  65  95 128 165 213 262 326 389
#     4  12  26  43  62  94 132 172 216 268 323 382
#     4  11  23  42  65  97 128 169 218 267 325 392
#     4  11  21  40  67  93 127 170 212 269 325 389
#
# _framework density 20.613527999999999
#
# number of rings (size 3 to 8) (size 9 to 14) (size 15 to 20)
#    0.000    1.200    2.000    4.200    5.600    0.000 
#    3.600    3.000    0.000    0.000    0.000    0.000 
#    0.000    0.000    0.000    0.000    0.000    0.000 
#
# Total GULP energy -247935.531092 kJ/mol
# GULP energy per Si atom -12396.776555 kJ/mol
# Density = 2.056661 g / cm^3
# Si number density = 20.613528 Si / 1000 Ang^3
#
#
#
# Elastic Constant Matrix: (Units=GPa)
#
#
# Indices 1 2 3 4 5 6 
#
# 1 128.7762 31.5091 33.6127 0.0000 0.0000 0.0000
# 2 31.5091 95.3034 38.1129 0.0000 0.0000 0.0000
# 3 33.6127 38.1129 122.4110 0.0000 0.0000 0.0000
# 4 0.0000 0.0000 0.0000 11.1208 0.0000 0.0000
# 5 0.0000 0.0000 0.0000 0.0000 40.8966 0.0000
# 6 0.0000 0.0000 0.0000 0.0000 0.0000 14.4531
#
#
#
# Elastic Compliance Matrix: (Units=1/GPa)
#
#
# Indices 1 2 3 4 5 6 
#
# 1 0.008754 -0.002208 -0.001716 0.000000 0.000000 0.000000
# 2 -0.002208 0.012542 -0.003299 0.000000 0.000000 0.000000
# 3 -0.001716 -0.003299 0.009668 0.000000 0.000000 0.000000
# 4 0.000000 0.000000 0.000000 0.089921 0.000000 0.000000
# 5 0.000000 0.000000 0.000000 0.000000 0.024452 0.000000
# 6 0.000000 0.000000 0.000000 0.000000 0.000000 0.069190
#
#
# Mechanical properties :
#
#
# Convention : Reuss Voigt Hill
#
# Bulk Modulus (GPa) = 60.54158 61.44001 60.99079
# Shear Modulus (GPa) = 21.32405 29.51116 25.41761
#
# Velocity S-wave (km/s) = 3.21981 3.78781 3.51530
# Velocity P-wave (km/s) = 6.57696 7.00003 6.79179
#
# Compressibility (1/GPa) = 0.01651757
#
# Stress axis : x y z
#
# Youngs Moduli (GPa) = 114.23906 79.73257 103.43901
#
# Poissons Ratio (x) = 0.17603 0.17753
# Poissons Ratio (y) = 0.25221 0.34122
# Poissons Ratio (z) = 0.19606 0.26302
#
# Static dielectric constant tensor:
#      x y z
#    x 4.064280 0.000000 0.000000 
#    y 0.000000 3.508740 0.000000 
#    z 0.000000 0.000000 4.052110 
# 
# 
# High freq. dielectric constant tensor:
#      x y z
#    x 1.829720 0.000000 0.000000 
#    y 0.000000 1.779340 0.000000 
#    z 0.000000 0.000000 1.823660 
# 
# From -- ./inp_files/9223.got.cif
#   From: 2010.03.12/outbox.cif.g09.slc.cpg/sg24_5_cif.got.tgz:9223.got - 2010.04.14 03:06:53.
