data_PCOD8166438
_publ_section_title
;
Structure prediction by ZEFSAII (Michael W. Deem and Ramdas Pophale) SiO2 
 PCOD8166438
Probable space group: P M M 2
;
_chemical_formula_sum "Si O2"
_cell_formula_units_Z 32
_cell_length_a 14.192969
_cell_length_b 9.364507
_cell_length_c 13.098214
_cell_angle_alpha 90.000000
_cell_angle_beta 90.000000
_cell_angle_gamma 90.000000
_cell_volume 1740.885686
_symmetry_space_group_name_H-M "P M M 2"
_symmetry_group_IT_number 25
_symmetry_cell_setting 'orthorhombic'
loop_
_space_group_symop_operation_xyz
x,y,z
-x,-y,z
-x,y,z
x,-y,z
loop_
_atom_site_type_symbol
_atom_site_label
_atom_site_fract_x
_atom_site_fract_y
_atom_site_fract_z
Si Si1 0.891943 0.168416 0.815540
Si Si2 0.286785 0.668347 0.342160
Si Si3 0.605695 0.330271 0.925054
Si Si4 0.105489 0.332970 0.236742
Si Si5 0.607491 0.330031 0.540219
Si Si6 0.725402 0.669706 0.735868
Si Si7 0.111622 0.157658 0.043649
Si Si8 0.393790 0.669679 0.147998
O O1 0.827340 0.254469 0.735010
O O2 0.000000 0.211210 0.793594
O O3 0.877833 0.000000 0.801017
O O4 0.861420 0.214532 0.930725
O O5 0.303711 0.500000 0.345369
O O6 0.174808 0.703411 0.332099
O O7 0.334952 0.733874 0.443180
O O8 0.333905 0.735413 0.240631
O O9 0.500000 0.271409 0.907773
O O10 0.602815 0.500000 0.919942
O O11 0.672242 0.271843 0.836199
O O12 0.643845 0.278997 0.036471
O O13 0.106249 0.500000 0.213670
O O14 0.146356 0.262525 0.133219
O O15 0.000000 0.279687 0.264922
O O16 0.500000 0.270920 0.540836
O O17 0.604512 0.500000 0.536673
O O18 0.663566 0.278612 0.639926
O O19 0.739876 0.500000 0.734879
O O20 0.000000 0.146817 0.047812
O O21 0.154842 0.000000 0.062274
O O22 0.500000 0.723493 0.162425
O O23 0.389616 0.500000 0.152036
#
# Coordination Sequence:
#
# PCOD8166438 Si02
#       8
#     4   4   4   4   4   4   4   4
#     4   9  19  35  51  68  96 133 167 197 235 290
#     4   9  16  25  40  62  92 128 164 194 231 284
#     4   8  14  24  38  61  95 127 152 188 242 294
#     4   9  17  27  41  66  98 126 155 197 244 283
#     4   9  17  30  47  68  96 129 164 203 246 292
#     4  10  19  29  48  75  99 124 159 203 249 288
#     4   8  15  29  47  65  89 125 162 191 226 279
#     4   8  13  21  34  55  85 119 152 187 228 276
#
# _framework density 18.381447999999999
#
# number of rings (size 3 to 8) (size 9 to 14) (size 15 to 20)
#    0.000    3.250    0.000    2.250    1.750    3.750 
#    0.000    1.875    0.000    4.500    0.000    1.750 
#    0.000    1.500    0.000    0.000    0.000    0.000 
#
# Total GULP energy -396505.678317 kJ/mol
# GULP energy per Si atom -12390.802447 kJ/mol
# Density = 1.833961 g / cm^3
# Si number density = 18.381448 Si / 1000 Ang^3
#
#
#
# Elastic Constant Matrix: (Units=GPa)
#
#
# Indices 1 2 3 4 5 6 
#
# 1 121.9580 23.5229 86.1909 0.0000 0.0000 0.0000
# 2 23.5229 19.2955 21.0212 0.0000 0.0000 0.0000
# 3 86.1909 21.0212 140.6476 0.0000 0.0000 0.0000
# 4 0.0000 0.0000 0.0000 10.7099 0.0000 0.0000
# 5 0.0000 0.0000 0.0000 0.0000 35.7116 0.0000
# 6 0.0000 0.0000 0.0000 0.0000 0.0000 10.2399
#
#
#
# Elastic Compliance Matrix: (Units=1/GPa)
#
#
# Indices 1 2 3 4 5 6 
#
# 1 0.016095 -0.010602 -0.008279 0.000000 0.000000 0.000000
# 2 -0.010602 0.068890 -0.003799 0.000000 0.000000 0.000000
# 3 -0.008279 -0.003799 0.012751 0.000000 0.000000 0.000000
# 4 0.000000 0.000000 0.000000 0.093372 0.000000 0.000000
# 5 0.000000 0.000000 0.000000 0.000000 0.028002 0.000000
# 6 0.000000 0.000000 0.000000 0.000000 0.000000 0.097657
#
#
# Mechanical properties :
#
#
# Convention : Reuss Voigt Hill
#
# Bulk Modulus (GPa) = 19.09278 60.37455 39.73367
# Shear Modulus (GPa) = 13.17225 21.41003 17.29114
#
# Velocity S-wave (km/s) = 2.67985 3.41656 3.07039
# Velocity P-wave (km/s) = 4.47046 6.96280 5.85088
#
# Compressibility (1/GPa) = 0.05237581
#
# Stress axis : x y z
#
# Youngs Moduli (GPa) = 62.12967 14.51596 78.42435
#
# Poissons Ratio (x) = 0.15390 0.64926
# Poissons Ratio (y) = 0.65872 0.29793
# Poissons Ratio (z) = 0.51436 0.05515
#
# Static dielectric constant tensor:
#      x y z
#    x 3.524600 0.000000 0.000000 
#    y 0.000000 2.842890 0.000000 
#    z 0.000000 0.000000 3.618560 
# 
# 
# High freq. dielectric constant tensor:
#      x y z
#    x 1.720940 0.000000 0.000000 
#    y 0.000000 1.644870 0.000000 
#    z 0.000000 0.000000 1.705450 
# 
# From -- ./inp_files/4918.got.cif
#   From: 2010.03.12/outbox.cif.g09.slc.cpg/sg25_3_cif.got.tgz:4918.got - 2010.04.14 03:30:10.
