data_PCOD8166707
_publ_section_title
;
Structure prediction by ZEFSAII (Michael W. Deem and Ramdas Pophale) SiO2 
 PCOD8166707
Probable space group: P M M 2
;
_chemical_formula_sum "Si O2"
_cell_formula_units_Z 32
_cell_length_a 9.379658
_cell_length_b 9.368538
_cell_length_c 20.604677
_cell_angle_alpha 90.000000
_cell_angle_beta 90.000000
_cell_angle_gamma 90.000000
_cell_volume 1810.608843
_symmetry_space_group_name_H-M "P M M 2"
_symmetry_group_IT_number 25
_symmetry_cell_setting 'orthorhombic'
loop_
_space_group_symop_operation_xyz
x,y,z
-x,-y,z
-x,y,z
x,-y,z
loop_
_atom_site_type_symbol
_atom_site_label
_atom_site_fract_x
_atom_site_fract_y
_atom_site_fract_z
Si Si1 0.334705 0.166068 0.609370
Si Si2 0.665238 0.665291 0.734670
Si Si3 0.169646 0.658690 0.362867
Si Si4 0.165444 0.167583 0.988273
Si Si5 0.834241 0.834103 0.484466
Si Si6 0.158696 0.669531 0.221313
Si Si7 0.332723 0.333331 0.097779
Si Si8 0.834545 0.336480 0.860385
O O1 0.500000 0.198722 0.596832
O O2 0.278236 0.248196 0.672649
O O3 0.248523 0.223725 0.547356
O O4 0.305148 0.000000 0.620988
O O5 0.500000 0.696819 0.747316
O O6 0.695412 0.500000 0.721003
O O7 0.749003 0.718398 0.797928
O O8 0.232775 0.500000 0.372944
O O9 0.228487 0.757371 0.420586
O O10 0.214370 0.722206 0.292155
O O11 0.000000 0.653374 0.364678
O O12 0.209496 0.236088 0.919849
O O13 0.000000 0.198999 0.003848
O O14 0.197516 0.000000 0.985748
O O15 0.262068 0.240210 0.042150
O O16 0.000000 0.799914 0.494756
O O17 0.805046 0.000000 0.474253
O O18 0.150178 0.500000 0.224383
O O19 0.267873 0.720216 0.166092
O O20 0.000000 0.730500 0.206003
O O21 0.500000 0.303702 0.098984
O O22 0.298517 0.500000 0.085673
O O23 0.794319 0.500000 0.877753
O O24 0.000000 0.321902 0.843811
#
# Coordination Sequence:
#
# PCOD8166707 Si02
#       8
#     4   4   4   4   4   4   4   4
#     4   9  18  32  47  63  88 123 157 186 223 276
#     4   9  18  32  49  69  93 120 152 191 231 273
#     4   8  14  26  45  68  92 119 153 192 233 277
#     4  10  21  36  53  74 100 130 164 201 241 286
#     4   9  17  29  45  66  91 118 151 192 233 272
#     4   8  14  27  48  70  92 122 159 196 235 282
#     4  10  20  33  51  75 101 130 164 201 242 289
#     4   9  18  33  52  73  97 124 154 191 236 284
#
# _framework density 17.673613
#
# number of rings (size 3 to 8) (size 9 to 14) (size 15 to 20)
#    0.000    3.000    0.000    1.500    0.000    3.500 
#    0.000    2.500    0.000    3.000    0.000    0.000 
#    0.000    0.000    0.000    0.000    0.000    0.000 
#
# Total GULP energy -396756.210745 kJ/mol
# GULP energy per Si atom -12398.631586 kJ/mol
# Density = 1.763339 g / cm^3
# Si number density = 17.673613 Si / 1000 Ang^3
#
#
#
# Elastic Constant Matrix: (Units=GPa)
#
#
# Indices 1 2 3 4 5 6 
#
# 1 64.4417 40.7571 77.9703 0.0000 0.0000 0.0000
# 2 40.7571 64.4521 75.3306 0.0000 0.0000 0.0000
# 3 77.9703 75.3306 197.4750 0.0000 0.0000 0.0000
# 4 0.0000 0.0000 0.0000 4.2672 0.0000 0.0000
# 5 0.0000 0.0000 0.0000 0.0000 6.3539 0.0000
# 6 0.0000 0.0000 0.0000 0.0000 0.0000 18.5823
#
#
#
# Elastic Compliance Matrix: (Units=1/GPa)
#
#
# Indices 1 2 3 4 5 6 
#
# 1 0.033047 -0.010191 -0.009161 0.000000 0.000000 0.000000
# 2 -0.010191 0.031141 -0.007856 0.000000 0.000000 0.000000
# 3 -0.009161 -0.007856 0.011678 0.000000 0.000000 0.000000
# 4 0.000000 0.000000 0.000000 0.234348 0.000000 0.000000
# 5 0.000000 0.000000 0.000000 0.000000 0.157385 0.000000
# 6 0.000000 0.000000 0.000000 0.000000 0.000000 0.053815
#
#
# Mechanical properties :
#
#
# Convention : Reuss Voigt Hill
#
# Bulk Modulus (GPa) = 46.61681 79.38722 63.00201
# Shear Modulus (GPa) = 8.57663 14.66137 11.61900
#
# Velocity S-wave (km/s) = 2.20529 2.88334 2.56680
# Velocity P-wave (km/s) = 5.73744 7.49005 6.67155
#
# Compressibility (1/GPa) = 0.02145149
#
# Stress axis : x y z
#
# Youngs Moduli (GPa) = 30.25978 32.11155 85.63375
#
# Poissons Ratio (x) = 0.32725 0.78446
# Poissons Ratio (y) = 0.30838 0.67272
# Poissons Ratio (z) = 0.27720 0.25226
#
# Static dielectric constant tensor:
#      x y z
#    x 3.144600 0.000000 0.000000 
#    y 0.000000 3.170300 0.000000 
#    z 0.000000 0.000000 3.614510 
# 
# 
# High freq. dielectric constant tensor:
#      x y z
#    x 1.664230 0.000000 0.000000 
#    y 0.000000 1.663940 0.000000 
#    z 0.000000 0.000000 1.697680 
# 
# From -- ./inp_files/6580.got.cif
#   From: 2010.03.12/outbox.cif.g09.slc.cpg/sg25_4_cif.got.tgz:6580.got - 2010.04.14 03:30:10.
