data_PCOD8166031
_publ_section_title
;
Structure prediction by ZEFSAII (Michael W. Deem and Ramdas Pophale) SiO2 
 PCOD8166031
Probable space group: I 21 21 21
;
_chemical_formula_sum "Si O2"
_cell_formula_units_Z 40
_cell_length_a 18.131168
_cell_length_b 9.802886
_cell_length_c 11.326964
_cell_angle_alpha 90.000000
_cell_angle_beta 90.000000
_cell_angle_gamma 90.000000
_cell_volume 2013.229356
_symmetry_space_group_name_H-M "I 21 21 21"
_symmetry_group_IT_number 24
_symmetry_cell_setting 'orthorhombic'
loop_
_space_group_symop_operation_xyz
x,y,z
-x,1/2-y,z
x,-y,1/2-z
1/2-x,y,-z
1/2+x,1/2+y,1/2+z
1/2-x,-y,1/2+z
1/2+x,1/2-y,-z
-x,1/2+y,1/2-z
loop_
_atom_site_type_symbol
_atom_site_label
_atom_site_fract_x
_atom_site_fract_y
_atom_site_fract_z
Si Si1 0.559830 0.524348 0.113024
Si Si2 0.638256 0.707595 0.490693
Si Si3 0.892542 0.004187 0.611714
Si Si4 0.812684 0.735765 0.913525
Si Si5 0.739813 0.643412 0.688461
O O1 0.577969 0.500000 0.250000
O O2 0.567461 0.387471 0.032694
O O3 0.474843 0.563985 0.094687
O O4 0.614917 0.642628 0.072099
O O5 0.621269 0.860385 0.450700
O O6 0.665487 0.705556 0.627736
O O7 0.699476 0.628716 0.413100
O O8 0.875550 0.000000 0.750000
O O9 0.836955 0.111406 0.551800
O O10 0.775747 0.743591 0.784352
O O11 0.750000 0.679633 0.000000
O O12 0.721573 0.500000 0.750000
#
# Coordination Sequence:
#
# PCOD8166031 Si02
#       5
#     8   8   8   8   8
#     4  11  20  38  61  88 121 160 210 259 315 375
#     4  11  21  37  63  87 126 158 207 264 311 373
#     4  11  23  37  59  93 128 159 199 267 320 372
#     4  12  23  37  60  88 128 164 207 256 313 374
#     4  11  21  37  60  92 122 161 217 252 309 376
#
# _framework density 19.868576000000001
#
# number of rings (size 3 to 8) (size 9 to 14) (size 15 to 20)
#    0.000    0.800    6.000    2.400    2.800    3.200 
#    0.000    0.000    0.000   12.000    0.000    0.000 
#    0.000    0.000    0.000    0.000    0.000    0.000 
#
# Total GULP energy -247903.507086 kJ/mol
# GULP energy per Si atom -12395.175354 kJ/mol
# Density = 1.982335 g / cm^3
# Si number density = 19.868576 Si / 1000 Ang^3
#
#
#
# Elastic Constant Matrix: (Units=GPa)
#
#
# Indices 1 2 3 4 5 6 
#
# 1 86.7445 47.3269 39.8091 0.0000 0.0000 0.0000
# 2 47.3269 133.7406 40.7641 0.0000 0.0000 0.0000
# 3 39.8091 40.7641 68.6150 0.0000 0.0000 0.0000
# 4 0.0000 0.0000 0.0000 27.2225 0.0000 0.0000
# 5 0.0000 0.0000 0.0000 0.0000 26.4665 0.0000
# 6 0.0000 0.0000 0.0000 0.0000 0.0000 24.2836
#
#
#
# Elastic Compliance Matrix: (Units=1/GPa)
#
#
# Indices 1 2 3 4 5 6 
#
# 1 0.017085 -0.003693 -0.007718 0.000000 0.000000 0.000000
# 2 -0.003693 0.009929 -0.003756 0.000000 0.000000 0.000000
# 3 -0.007718 -0.003756 0.021283 0.000000 0.000000 0.000000
# 4 0.000000 0.000000 0.000000 0.036734 0.000000 0.000000
# 5 0.000000 0.000000 0.000000 0.000000 0.037784 0.000000
# 6 0.000000 0.000000 0.000000 0.000000 0.000000 0.041180
#
#
# Mechanical properties :
#
#
# Convention : Reuss Voigt Hill
#
# Bulk Modulus (GPa) = 55.67180 60.54447 58.10813
# Shear Modulus (GPa) = 24.96024 26.34119 25.65071
#
# Velocity S-wave (km/s) = 3.54823 3.64506 3.59697
# Velocity P-wave (km/s) = 6.69832 6.94651 6.82354
#
# Compressibility (1/GPa) = 0.01796242
#
# Stress axis : x y z
#
# Youngs Moduli (GPa) = 58.52972 100.71535 46.98482
#
# Poissons Ratio (x) = 0.37199 0.36264
# Poissons Ratio (y) = 0.21618 0.17647
# Poissons Ratio (z) = 0.45175 0.37828
#
# Static dielectric constant tensor:
#      x y z
#    x 3.706990 0.000000 0.000000 
#    y 0.000000 3.532970 0.000000 
#    z 0.000000 0.000000 3.695150 
# 
# 
# High freq. dielectric constant tensor:
#      x y z
#    x 1.773910 0.000000 0.000000 
#    y 0.000000 1.780920 0.000000 
#    z 0.000000 0.000000 1.747730 
# 
# From -- ./inp_files/10669.got.cif
#   From: 2010.03.12/outbox.cif.g09.slc.cpg/sg24_6_cif.got.tgz:10669.got - 2010.04.14 03:06:53.
