data_PCOD8166683
_publ_section_title
;
Structure prediction by ZEFSAII (Michael W. Deem and Ramdas Pophale) SiO2 
 PCOD8166683
Probable space group: P M M 2
;
_chemical_formula_sum "Si O2"
_cell_formula_units_Z 28
_cell_length_a 9.553176
_cell_length_b 9.095382
_cell_length_c 18.399048
_cell_angle_alpha 90.000000
_cell_angle_beta 90.000000
_cell_angle_gamma 90.000000
_cell_volume 1598.689326
_symmetry_space_group_name_H-M "P M M 2"
_symmetry_group_IT_number 25
_symmetry_cell_setting 'orthorhombic'
loop_
_space_group_symop_operation_xyz
x,y,z
-x,-y,z
-x,y,z
x,-y,z
loop_
_atom_site_type_symbol
_atom_site_label
_atom_site_fract_x
_atom_site_fract_y
_atom_site_fract_z
Si Si1 0.837937 0.329451 0.857010
Si Si2 0.655793 0.325385 0.567070
Si Si3 0.335745 0.328794 0.128644
Si Si4 0.666411 0.835165 0.272556
Si Si5 0.332180 0.665903 0.411700
Si Si6 0.341009 0.674783 0.723400
Si Si7 0.837453 0.828004 0.004399
O O1 0.802376 0.500000 0.871605
O O2 0.753402 0.262900 0.788551
O O3 0.000000 0.307203 0.839008
O O4 0.791843 0.237655 0.927097
O O5 0.500000 0.260325 0.570151
O O6 0.648984 0.500000 0.562907
O O7 0.726659 0.274123 0.490465
O O8 0.725120 0.276227 0.644317
O O9 0.500000 0.300561 0.117340
O O10 0.299086 0.500000 0.128399
O O11 0.282728 0.261902 0.204786
O O12 0.254222 0.249386 0.064936
O O13 0.500000 0.834889 0.276141
O O14 0.727365 0.767438 0.347225
O O15 0.725025 0.000000 0.263561
O O16 0.500000 0.669184 0.414191
O O17 0.280453 0.500000 0.396640
O O18 0.500000 0.732699 0.732433
O O19 0.340014 0.500000 0.727041
O O20 0.000000 0.794750 0.019868
O O21 0.804966 0.000000 0.004550
#
# Coordination Sequence:
#
# PCOD8166683 Si02
#       7
#     4   4   4   4   4   4   4
#     4   9  17  29  45  65  88 113 144 184 226 267
#     4   7  10  17  31  53  79 106 139 180 220 256
#     4  10  20  33  50  72  96 121 151 189 232 275
#     4   9  16  25  38  59  89 121 149 180 221 267
#     4   8  12  19  33  53  78 109 145 182 218 258
#     4   8  13  22  38  61  87 113 143 180 221 264
#     4  10  21  36  52  69  91 121 155 189 228 276
#
# _framework density 17.514346
#
# number of rings (size 3 to 8) (size 9 to 14) (size 15 to 20)
#    0.000    3.286    0.000    3.000    0.000    4.000 
#    0.000    1.429    0.000    0.857    0.000    3.000 
#    0.000    3.429    0.000    0.000    0.000    0.000 
#
# Total GULP energy -346886.887491 kJ/mol
# GULP energy per Si atom -12388.817410 kJ/mol
# Density = 1.747448 g / cm^3
# Si number density = 17.514346 Si / 1000 Ang^3
#
#
#
# Elastic Constant Matrix: (Units=GPa)
#
#
# Indices 1 2 3 4 5 6 
#
# 1 31.2062 25.7573 53.2090 0.0000 0.0000 0.0000
# 2 25.7573 81.1121 74.5454 0.0000 0.0000 0.0000
# 3 53.2090 74.5454 211.5281 0.0000 0.0000 0.0000
# 4 0.0000 0.0000 0.0000 1.4339 0.0000 0.0000
# 5 0.0000 0.0000 0.0000 0.0000 -1.1362 0.0000
# 6 0.0000 0.0000 0.0000 0.0000 0.0000 13.7222
#
#
#
# Elastic Compliance Matrix: (Units=1/GPa)
#
#
# Indices 1 2 3 4 5 6 
#
# 1 0.059078 -0.007547 -0.012201 0.000000 0.000000 0.000000
# 2 -0.007547 0.019199 -0.004867 0.000000 0.000000 0.000000
# 3 -0.012201 -0.004867 0.009512 0.000000 0.000000 0.000000
# 4 0.000000 0.000000 0.000000 0.697394 0.000000 0.000000
# 5 0.000000 0.000000 0.000000 0.000000 -0.880144 0.000000
# 6 0.000000 0.000000 0.000000 0.000000 0.000000 0.072875
#
#
# Mechanical properties :
#
#
# Convention : Reuss Voigt Hill
#
# Bulk Modulus (GPa) = 25.93532 70.09665 48.01599
# Shear Modulus (GPa) = 125.00747 14.15963 69.58355
#
# Velocity S-wave (km/s) = 8.45750 2.84643 6.30997
# Velocity P-wave (km/s) = 10.49822 7.13528 8.97565
#
# Compressibility (1/GPa) = 0.03855746
#
# Stress axis : x y z
#
# Youngs Moduli (GPa) = 16.92674 52.08729 105.13040
#
# Poissons Ratio (x) = 0.39310 1.28271
# Poissons Ratio (y) = 0.12775 0.51171
# Poissons Ratio (z) = 0.20653 0.25353
#
# Static dielectric constant tensor:
#      x y z
#    x 2.834890 0.000000 0.000000 
#    y 0.000000 3.089650 0.000000 
#    z 0.000000 0.000000 3.825300 
# 
# 
# High freq. dielectric constant tensor:
#      x y z
#    x 1.616070 0.000000 0.000000 
#    y 0.000000 1.649760 0.000000 
#    z 0.000000 0.000000 1.705540 
# 
# From -- ./inp_files/6243.got.cif
#   From: 2010.03.12/outbox.cif.g09.slc.cpg/sg25_4_cif.got.tgz:6243.got - 2010.04.14 03:30:10.
