data_PCOD8166408
_publ_section_title
;
Structure prediction by ZEFSAII (Michael W. Deem and Ramdas Pophale) SiO2 
 PCOD8166408
Probable space group: P M M 2
;
_chemical_formula_sum "Si O2"
_cell_formula_units_Z 28
_cell_length_a 13.394279
_cell_length_b 10.125982
_cell_length_c 11.257379
_cell_angle_alpha 90.000000
_cell_angle_beta 90.000000
_cell_angle_gamma 90.000000
_cell_volume 1526.840881
_symmetry_space_group_name_H-M "P M M 2"
_symmetry_group_IT_number 25
_symmetry_cell_setting 'orthorhombic'
loop_
_space_group_symop_operation_xyz
x,y,z
-x,-y,z
-x,y,z
x,-y,z
loop_
_atom_site_type_symbol
_atom_site_label
_atom_site_fract_x
_atom_site_fract_y
_atom_site_fract_z
Si Si1 0.891896 0.346911 0.637320
Si Si2 0.113867 0.146628 0.245986
Si Si3 0.386133 0.146628 0.666136
Si Si4 0.608104 0.346911 0.274802
Si Si5 0.769736 0.344754 0.091998
Si Si6 0.250000 0.772726 0.456061
Si Si7 0.269737 0.344754 0.820124
O O1 0.910984 0.500000 0.644260
O O2 0.831813 0.318661 0.517947
O O3 0.831091 0.301734 0.753074
O O4 0.000000 0.274251 0.636797
O O5 0.141497 0.256540 0.147099
O O6 0.189106 0.143667 0.358630
O O7 0.000000 0.175528 0.287488
O O8 0.120999 0.000000 0.189015
O O9 0.500000 0.175528 0.624633
O O10 0.310894 0.143667 0.553491
O O11 0.358503 0.256540 0.765023
O O12 0.379001 0.000000 0.723107
O O13 0.500000 0.274251 0.275326
O O14 0.589016 0.500000 0.267861
O O15 0.668909 0.301733 0.159048
O O16 0.668188 0.318662 0.394175
O O17 0.796042 0.500000 0.109964
O O18 0.750000 0.309696 0.956061
O O19 0.296043 0.500000 0.802157
#
# Coordination Sequence:
#
# PCOD8166408 Si02
#       7
#     4   4   4   4   4   4   4
#     4   9  17  29  47  72 100 128 161 206 256 302
#     4  10  21  35  52  76 105 137 172 211 257 306
#     4  10  21  35  52  76 105 137 172 211 257 306
#     4   9  17  29  47  72 100 128 161 206 256 302
#     4   9  19  35  54  76 101 131 169 210 253 302
#     4  10  18  32  50  70  99 136 173 210 249 300
#     4   9  19  35  54  76 101 131 169 210 253 302
#
# _framework density 18.338518000000001
#
# number of rings (size 3 to 8) (size 9 to 14) (size 15 to 20)
#    0.000    2.571    0.000    1.714    0.000    3.429 
#    0.000    2.857    0.000    7.714    0.000    0.000 
#    0.000    0.000    0.000    0.000    0.000    0.000 
#
# Total GULP energy -346979.782465 kJ/mol
# GULP energy per Si atom -12392.135088 kJ/mol
# Density = 1.829678 g / cm^3
# Si number density = 18.338518 Si / 1000 Ang^3
#
#
#
# Elastic Constant Matrix: (Units=GPa)
#
#
# Indices 1 2 3 4 5 6 
#
# 1 137.7247 38.1872 49.3269 0.0000 0.0000 0.0000
# 2 38.1872 48.5586 40.6094 0.0000 0.0000 0.0000
# 3 49.3269 40.6094 114.9593 0.0000 0.0000 0.0000
# 4 0.0000 0.0000 0.0000 19.6056 0.0000 0.0000
# 5 0.0000 0.0000 0.0000 0.0000 33.2704 0.0000
# 6 0.0000 0.0000 0.0000 0.0000 0.0000 23.7079
#
#
#
# Elastic Compliance Matrix: (Units=1/GPa)
#
#
# Indices 1 2 3 4 5 6 
#
# 1 0.009619 -0.005837 -0.002065 0.000000 0.000000 0.000000
# 2 -0.005837 0.032771 -0.009072 0.000000 0.000000 0.000000
# 3 -0.002065 -0.009072 0.012789 0.000000 0.000000 0.000000
# 4 0.000000 0.000000 0.000000 0.051006 0.000000 0.000000
# 5 0.000000 0.000000 0.000000 0.000000 0.030057 0.000000
# 6 0.000000 0.000000 0.000000 0.000000 0.000000 0.042180
#
#
# Mechanical properties :
#
#
# Convention : Reuss Voigt Hill
#
# Bulk Modulus (GPa) = 47.10137 61.94327 54.52232
# Shear Modulus (GPa) = 22.78449 26.85806 24.82127
#
# Velocity S-wave (km/s) = 3.52865 3.83112 3.68299
# Velocity P-wave (km/s) = 6.50707 7.30897 6.91965
#
# Compressibility (1/GPa) = 0.02123081
#
# Stress axis : x y z
#
# Youngs Moduli (GPa) = 103.95961 30.51492 78.18935
#
# Poissons Ratio (x) = 0.17813 0.16149
# Poissons Ratio (y) = 0.60685 0.70930
# Poissons Ratio (z) = 0.21471 0.27682
#
# Static dielectric constant tensor:
#      x y z
#    x 3.232030 0.000000 0.000000 
#    y 0.000000 3.203900 0.000000 
#    z 0.000000 0.000000 3.307250 
# 
# 
# High freq. dielectric constant tensor:
#      x y z
#    x 1.723940 0.000000 0.000000 
#    y 0.000000 1.693310 0.000000 
#    z 0.000000 0.000000 1.703190 
# 
# From -- ./inp_files/4637.got.cif
#   From: 2010.03.12/outbox.cif.g09.slc.cpg/sg25_3_cif.got.tgz:4637.got - 2010.04.14 03:30:10.
