data_PCOD8166099
_publ_section_title
;
Structure prediction by ZEFSAII (Michael W. Deem and Ramdas Pophale) SiO2 
 PCOD8166099
Probable space group: I 21 21 21
;
_chemical_formula_sum "Si O2"
_cell_formula_units_Z 56
_cell_length_a 9.188220
_cell_length_b 14.306087
_cell_length_c 20.719693
_cell_angle_alpha 90.000000
_cell_angle_beta 90.000000
_cell_angle_gamma 90.000000
_cell_volume 2723.551321
_symmetry_space_group_name_H-M "I 21 21 21"
_symmetry_group_IT_number 24
_symmetry_cell_setting 'orthorhombic'
loop_
_space_group_symop_operation_xyz
x,y,z
-x,1/2-y,z
x,-y,1/2-z
1/2-x,y,-z
1/2+x,1/2+y,1/2+z
1/2-x,-y,1/2+z
1/2+x,1/2-y,-z
-x,1/2+y,1/2-z
loop_
_atom_site_type_symbol
_atom_site_label
_atom_site_fract_x
_atom_site_fract_y
_atom_site_fract_z
Si Si1 0.737071 0.886465 0.927560
Si Si2 0.009081 0.472445 0.114641
Si Si3 0.737035 0.548172 0.184969
Si Si4 0.174310 0.257565 0.312663
Si Si5 0.024526 0.465721 0.886414
Si Si6 0.582979 0.343367 0.998159
Si Si7 0.257745 0.408726 0.792272
O O1 0.743841 0.801200 0.877466
O O2 0.582919 0.936490 0.916427
O O3 0.863052 0.962255 0.917834
O O4 0.750000 0.845918 0.000000
O O5 0.891773 0.505871 0.166144
O O6 0.123546 0.405191 0.150668
O O7 0.932069 0.418271 0.057792
O O8 0.682986 0.500000 0.250000
O O9 0.750692 0.658181 0.195779
O O10 0.616715 0.526040 0.131288
O O11 0.225811 0.317354 0.251156
O O12 0.000000 0.250000 0.316266
O O13 0.097496 0.415043 0.824229
O O14 0.979732 0.384366 0.935451
O O15 0.500000 0.250000 0.979606
O O16 0.750000 0.315338 0.000000
O O17 0.289188 0.500000 0.750000
#
# Coordination Sequence:
#
# PCOD8166099 Si02
#       7
#     8   8   8   8   8   8   8
#     4  11  23  44  73 100 135 185 227 283 348 415
#     4  11  22  44  73  95 138 186 224 280 352 414
#     4  12  26  44  68 101 142 182 226 292 353 412
#     4  12  24  45  73 107 135 181 246 283 341 434
#     4  11  25  46  69  99 140 185 221 286 363 404
#     4  12  28  46  71 103 139 181 241 286 343 423
#     4  11  22  43  74 101 137 180 232 287 350 408
#
# _framework density 20.561391
#
# number of rings (size 3 to 8) (size 9 to 14) (size 15 to 20)
#    0.000    0.571    7.143    1.714    4.000    3.429 
#    5.143    0.000    0.000    0.000    0.000    0.000 
#    0.000    0.000    0.000    0.000    0.000    0.000 
#
# Total GULP energy -347340.266414 kJ/mol
# GULP energy per Si atom -12405.009515 kJ/mol
# Density = 2.051459 g / cm^3
# Si number density = 20.561391 Si / 1000 Ang^3
#
#
#
# Elastic Constant Matrix: (Units=GPa)
#
#
# Indices 1 2 3 4 5 6 
#
# 1 95.1768 23.4188 18.6056 0.0000 0.0000 0.0000
# 2 23.4188 101.0146 30.2220 0.0000 0.0000 0.0000
# 3 18.6056 30.2220 108.3905 0.0000 0.0000 0.0000
# 4 0.0000 0.0000 0.0000 28.6590 0.0000 0.0000
# 5 0.0000 0.0000 0.0000 0.0000 16.2059 0.0000
# 6 0.0000 0.0000 0.0000 0.0000 0.0000 15.3817
#
#
#
# Elastic Compliance Matrix: (Units=1/GPa)
#
#
# Indices 1 2 3 4 5 6 
#
# 1 0.011313 -0.002228 -0.001321 0.000000 0.000000 0.000000
# 2 -0.002228 0.011239 -0.002751 0.000000 0.000000 0.000000
# 3 -0.001321 -0.002751 0.010220 0.000000 0.000000 0.000000
# 4 0.000000 0.000000 0.000000 0.034893 0.000000 0.000000
# 5 0.000000 0.000000 0.000000 0.000000 0.061706 0.000000
# 6 0.000000 0.000000 0.000000 0.000000 0.000000 0.065012
#
#
# Mechanical properties :
#
#
# Convention : Reuss Voigt Hill
#
# Bulk Modulus (GPa) = 49.57269 49.89720 49.73494
# Shear Modulus (GPa) = 23.39655 27.53837 25.46746
#
# Velocity S-wave (km/s) = 3.37692 3.66365 3.52320
# Velocity P-wave (km/s) = 6.27429 6.49742 6.38683
#
# Compressibility (1/GPa) = 0.02017240
#
# Stress axis : x y z
#
# Youngs Moduli (GPa) = 88.39326 88.97448 97.84946
#
# Poissons Ratio (x) = 0.19820 0.12924
# Poissons Ratio (y) = 0.19691 0.26922
# Poissons Ratio (z) = 0.11675 0.24480
#
# Static dielectric constant tensor:
#      x y z
#    x 3.834180 0.000000 0.000000 
#    y 0.000000 3.633210 0.000000 
#    z 0.000000 0.000000 3.973840 
# 
# 
# High freq. dielectric constant tensor:
#      x y z
#    x 1.815620 0.000000 0.000000 
#    y 0.000000 1.797520 0.000000 
#    z 0.000000 0.000000 1.816280 
# 
# From -- ./inp_files/32824.got.cif
#   From: 2010.03.12/outbox.cif.g09.slc.cpg/sg24_17_cif.got.tgz:32824.got - 2010.04.14 03:06:53.
