data_PCOD8166124
_publ_section_title
;
Structure prediction by ZEFSAII (Michael W. Deem and Ramdas Pophale) SiO2 
 PCOD8166124
Probable space group: I 21 21 21
;
_chemical_formula_sum "Si O2"
_cell_formula_units_Z 56
_cell_length_a 14.070922
_cell_length_b 14.656862
_cell_length_c 12.006041
_cell_angle_alpha 90.000000
_cell_angle_beta 90.000000
_cell_angle_gamma 90.000000
_cell_volume 2476.072613
_symmetry_space_group_name_H-M "I 21 21 21"
_symmetry_group_IT_number 24
_symmetry_cell_setting 'orthorhombic'
loop_
_space_group_symop_operation_xyz
x,y,z
-x,1/2-y,z
x,-y,1/2-z
1/2-x,y,-z
1/2+x,1/2+y,1/2+z
1/2-x,-y,1/2+z
1/2+x,1/2-y,-z
-x,1/2+y,1/2-z
loop_
_atom_site_type_symbol
_atom_site_label
_atom_site_fract_x
_atom_site_fract_y
_atom_site_fract_z
Si Si1 0.731793 0.877529 0.832382
Si Si2 0.605477 0.726263 0.910720
Si Si3 0.852683 0.584864 0.680183
Si Si4 0.480644 0.146458 0.979418
Si Si5 0.681345 0.920420 0.593065
Si Si6 0.107057 0.758410 0.839828
Si Si7 0.143075 0.904459 0.282623
O O1 0.667761 0.817152 0.912694
O O2 0.690582 0.864651 0.707419
O O3 0.840450 0.840461 0.836254
O O4 0.721164 0.978730 0.880067
O O5 0.500000 0.750000 0.869024
O O6 0.655003 0.652203 0.831603
O O7 0.606568 0.693334 0.038667
O O8 0.895215 0.500000 0.750000
O O9 0.918372 0.595202 0.572157
O O10 0.843524 0.675647 0.753002
O O11 0.741257 0.568754 0.653764
O O12 0.500000 0.250000 0.018502
O O13 0.575041 0.086582 0.955877
O O14 0.421880 0.153102 0.865683
O O15 0.750000 0.876501 0.500000
O O16 0.000000 0.750000 0.797469
O O17 0.092099 0.000000 0.250000
#
# Coordination Sequence:
#
# PCOD8166124 Si02
#       7
#     8   8   8   8   8   8   8
#     4  11  24  47  71 103 145 189 254 307 377 439
#     4  11  23  41  71 103 137 185 244 305 371 437
#     4  11  27  46  71 106 145 196 240 304 380 458
#     4  12  28  47  74 108 149 194 250 313 388 457
#     4  11  27  44  72 106 146 197 245 313 374 449
#     4  11  25  44  74 104 144 191 246 303 376 445
#     4  11  25  44  72 102 143 187 246 305 368 451
#
# _framework density 22.616461000000001
#
# number of rings (size 3 to 8) (size 9 to 14) (size 15 to 20)
#    0.000    0.857    1.429    4.286   10.000    2.286 
#    0.000    0.000    0.000    0.000    0.000    0.000 
#    0.000    0.000    0.000    0.000    0.000    0.000 
#
# Total GULP energy -347207.082830 kJ/mol
# GULP energy per Si atom -12400.252958 kJ/mol
# Density = 2.256498 g / cm^3
# Si number density = 22.616461 Si / 1000 Ang^3
#
#
#
# Elastic Constant Matrix: (Units=GPa)
#
#
# Indices 1 2 3 4 5 6 
#
# 1 136.3454 25.4047 25.5710 0.0000 0.0000 0.0000
# 2 25.4047 86.8154 10.6708 0.0000 0.0000 0.0000
# 3 25.5710 10.6708 101.4783 0.0000 0.0000 0.0000
# 4 0.0000 0.0000 0.0000 29.4780 0.0000 0.0000
# 5 0.0000 0.0000 0.0000 0.0000 40.0619 0.0000
# 6 0.0000 0.0000 0.0000 0.0000 0.0000 30.1006
#
#
#
# Elastic Compliance Matrix: (Units=1/GPa)
#
#
# Indices 1 2 3 4 5 6 
#
# 1 0.008072 -0.002140 -0.001809 0.000000 0.000000 0.000000
# 2 -0.002140 0.012237 -0.000748 0.000000 0.000000 0.000000
# 3 -0.001809 -0.000748 0.010389 0.000000 0.000000 0.000000
# 4 0.000000 0.000000 0.000000 0.033924 0.000000 0.000000
# 5 0.000000 0.000000 0.000000 0.000000 0.024961 0.000000
# 6 0.000000 0.000000 0.000000 0.000000 0.000000 0.033222
#
#
# Mechanical properties :
#
#
# Convention : Reuss Voigt Hill
#
# Bulk Modulus (GPa) = 46.93742 49.77021 48.35382
# Shear Modulus (GPa) = 35.89394 37.46095 36.67744
#
# Velocity S-wave (km/s) = 3.98813 4.07425 4.03142
# Velocity P-wave (km/s) = 6.48117 6.64731 6.56476
#
# Compressibility (1/GPa) = 0.02130496
#
# Stress axis : x y z
#
# Youngs Moduli (GPa) = 123.88036 81.72101 96.25763
#
# Poissons Ratio (x) = 0.17487 0.17414
# Poissons Ratio (y) = 0.26508 0.07196
# Poissons Ratio (z) = 0.22411 0.06109
#
# Static dielectric constant tensor:
#      x y z
#    x 4.157270 0.000000 0.000000 
#    y 0.000000 3.978250 0.000000 
#    z 0.000000 0.000000 4.217230 
# 
# 
# High freq. dielectric constant tensor:
#      x y z
#    x 1.899760 0.000000 0.000000 
#    y 0.000000 1.882470 0.000000 
#    z 0.000000 0.000000 1.905170 
# 
# From -- ./inp_files/20829.got.cif
#   From: 2010.03.12/outbox.cif.g09.slc.cpg/sg24_11_cif.got.tgz:20829.got - 2010.04.14 03:06:53.
