data_PCOD8166209
_publ_section_title
;
Structure prediction by ZEFSAII (Michael W. Deem and Ramdas Pophale) SiO2 
 PCOD8166209
Probable space group: I 21 21 21
;
_chemical_formula_sum "Si O2"
_cell_formula_units_Z 40
_cell_length_a 11.019233
_cell_length_b 8.058860
_cell_length_c 20.629357
_cell_angle_alpha 90.000000
_cell_angle_beta 90.000000
_cell_angle_gamma 90.000000
_cell_volume 1831.937568
_symmetry_space_group_name_H-M "I 21 21 21"
_symmetry_group_IT_number 24
_symmetry_cell_setting 'orthorhombic'
loop_
_space_group_symop_operation_xyz
x,y,z
-x,1/2-y,z
x,-y,1/2-z
1/2-x,y,-z
1/2+x,1/2+y,1/2+z
1/2-x,-y,1/2+z
1/2+x,1/2-y,-z
-x,1/2+y,1/2-z
loop_
_atom_site_type_symbol
_atom_site_label
_atom_site_fract_x
_atom_site_fract_y
_atom_site_fract_z
Si Si1 0.000000 0.750000 0.796940
Si Si2 0.750000 0.693120 0.000000
Si Si3 0.680070 0.000000 0.250000
Si Si4 0.500000 0.250000 0.921148
Si Si5 0.250222 0.677679 0.374719
Si Si6 0.878717 0.510360 0.890338
Si Si7 0.602448 0.000880 0.479489
O O1 0.908926 0.846656 0.752095
O O2 0.899282 0.639175 0.833407
O O3 0.772016 0.574069 0.938454
O O4 0.866429 0.815391 0.006500
O O5 0.755530 0.957588 0.315770
O O6 0.619204 0.268472 0.876882
O O7 0.525548 0.091550 0.965807
O O8 0.276879 0.584915 0.444773
O O9 0.346453 0.826236 0.365090
O O10 0.012777 0.509167 0.919575
#
# Coordination Sequence:
#
# PCOD8166209 Si02
#       7
#     4   4   4   4   8   8   8
#     4  12  24  41  68  98 125 174 230 294 350 390
#     4  12  22  36  62 106 154 174 210 280 362 442
#     4  12  26  46  68  96 138 182 238 298 340 426
#     4  12  24  41  72 100 137 188 226 288 364 422
#     4  12  25  44  68 100 138 188 237 282 361 423
#     4  12  23  40  65 106 137 175 225 281 359 426
#     4  12  22  41  68 102 145 178 221 292 356 428
#
# _framework density 21.834806
#
# number of rings (size 3 to 8) (size 9 to 14) (size 15 to 20)
#    0.000    0.000    8.000    2.400    0.000    0.000 
#    0.000    2.000    0.000    0.000    0.000    0.000 
#    0.000    0.000    0.000    0.000    0.000    0.000 
#
# Total GULP energy -247815.753043 kJ/mol
# GULP energy per Si atom -12390.787652 kJ/mol
# Density = 2.178511 g / cm^3
# Si number density = 21.834806 Si / 1000 Ang^3
#
#
#
# Elastic Constant Matrix: (Units=GPa)
#
#
# Indices 1 2 3 4 5 6 
#
# 1 103.7320 4.6779 20.2042 0.0000 0.0000 0.0000
# 2 4.6779 80.6915 21.7973 0.0000 0.0000 0.0000
# 3 20.2042 21.7973 88.1067 0.0000 0.0000 0.0000
# 4 0.0000 0.0000 0.0000 47.9323 0.0000 0.0000
# 5 0.0000 0.0000 0.0000 0.0000 -5.4222 0.0000
# 6 0.0000 0.0000 0.0000 0.0000 0.0000 44.4572
#
#
#
# Elastic Compliance Matrix: (Units=1/GPa)
#
#
# Indices 1 2 3 4 5 6 
#
# 1 0.010091 0.000043 -0.002325 0.000000 0.000000 0.000000
# 2 0.000043 0.013281 -0.003295 0.000000 0.000000 0.000000
# 3 -0.002325 -0.003295 0.012698 0.000000 0.000000 0.000000
# 4 0.000000 0.000000 0.000000 0.020863 0.000000 0.000000
# 5 0.000000 0.000000 0.000000 0.000000 -0.184429 0.000000
# 6 0.000000 0.000000 0.000000 0.000000 0.000000 0.022494
#
#
# Mechanical properties :
#
#
# Convention : Reuss Voigt Hill
#
# Bulk Modulus (GPa) = 40.13546 40.65435 40.39490
# Shear Modulus (GPa) = -58.45023 32.45019 -13.00002
#
# Velocity S-wave (km/s) = -5.17952 3.85927 -2.44269
# Velocity P-wave (km/s) = 4.16516 6.20629 3.25342
#
# Compressibility (1/GPa) = 0.02491563
#
# Stress axis : x y z
#
# Youngs Moduli (GPa) = 99.09746 75.29786 78.75113
#
# Poissons Ratio (x) = -0.00324 0.18307
# Poissons Ratio (y) = -0.00426 0.25952
# Poissons Ratio (z) = 0.23037 0.24814
#
# Static dielectric constant tensor:
#      x y z
#    x 4.188340 0.000000 0.000000 
#    y 0.000000 4.260820 0.000000 
#    z 0.000000 0.000000 3.812930 
# 
# 
# High freq. dielectric constant tensor:
#      x y z
#    x 1.857380 0.000000 0.000000 
#    y 0.000000 1.871320 0.000000 
#    z 0.000000 0.000000 1.845740 
# 
# From -- ./inp_files/13885.got.cif
#   From: 2010.03.12/outbox.cif.g09.slc.cpg/sg24_7_cif.got.tgz:13885.got - 2010.04.14 03:06:53.
