data_PCOD8166913
_publ_section_title
;
Structure prediction by ZEFSAII (Michael W. Deem and Ramdas Pophale) SiO2 
 PCOD8166913
Probable space group: P M M 2
;
_chemical_formula_sum "Si O2"
_cell_formula_units_Z 32
_cell_length_a 13.558368
_cell_length_b 9.184960
_cell_length_c 12.906067
_cell_angle_alpha 90.000000
_cell_angle_beta 90.000000
_cell_angle_gamma 90.000000
_cell_volume 1607.232116
_symmetry_space_group_name_H-M "P M M 2"
_symmetry_group_IT_number 25
_symmetry_cell_setting 'orthorhombic'
loop_
_space_group_symop_operation_xyz
x,y,z
-x,-y,z
-x,y,z
x,-y,z
loop_
_atom_site_type_symbol
_atom_site_label
_atom_site_fract_x
_atom_site_fract_y
_atom_site_fract_z
Si Si1 0.114718 0.830034 0.038490
Si Si2 0.200134 0.668178 0.846056
Si Si3 0.116970 0.663981 0.456981
Si Si4 0.382571 0.163918 0.530971
Si Si5 0.390183 0.332459 0.330433
Si Si6 0.116599 0.163108 0.653529
Si Si7 0.806133 0.331927 0.234166
Si Si8 0.389459 0.334104 0.729064
O O1 0.145664 0.771787 0.150159
O O2 0.000000 0.799097 0.019013
O O3 0.138760 0.000000 0.032396
O O4 0.177904 0.747454 0.952919
O O5 0.168242 0.500000 0.854174
O O6 0.140403 0.739775 0.752740
O O7 0.317731 0.683925 0.827425
O O8 0.155623 0.500000 0.476525
O O9 0.161591 0.766667 0.547916
O O10 0.151542 0.718430 0.344760
O O11 0.000000 0.668865 0.460626
O O12 0.500000 0.172434 0.533159
O O13 0.345785 0.248199 0.429326
O O14 0.343547 0.237433 0.636521
O O15 0.343065 0.000000 0.526205
O O16 0.500000 0.277195 0.297690
O O17 0.394763 0.500000 0.363467
O O18 0.313206 0.310518 0.236030
O O19 0.000000 0.156707 0.643043
O O20 0.159713 0.000000 0.666813
O O21 0.833698 0.500000 0.210394
O O22 0.500000 0.284156 0.761182
O O23 0.390803 0.500000 0.689665
#
# Coordination Sequence:
#
# PCOD8166913 Si02
#       8
#     4   4   4   4   4   4   4   4
#     4  11  25  44  64  86 113 145 184 235 295 354
#     4  11  23  38  61  87 111 146 193 237 283 337
#     4   9  18  33  53  79 111 145 185 235 286 338
#     4   9  17  29  48  77 113 153 193 232 276 327
#     4   9  18  33  53  80 117 157 195 235 278 328
#     4  10  21  36  54  80 116 153 186 227 285 347
#     4  10  21  37  60  86 112 148 196 240 283 334
#     4   9  19  36  56  80 113 151 191 234 279 331
#
# _framework density 19.910004000000001
#
# number of rings (size 3 to 8) (size 9 to 14) (size 15 to 20)
#    0.000    2.250    0.000    2.250    1.750    7.250 
#    0.000    1.875    0.000    3.750    0.000    0.000 
#    0.000    0.000    0.000    0.000    0.000    0.000 
#
# Total GULP energy -396826.716708 kJ/mol
# GULP energy per Si atom -12400.834897 kJ/mol
# Density = 1.986469 g / cm^3
# Si number density = 19.910004 Si / 1000 Ang^3
#
#
#
# Elastic Constant Matrix: (Units=GPa)
#
#
# Indices 1 2 3 4 5 6 
#
# 1 40.3720 36.2341 28.5214 0.0000 0.0000 0.0000
# 2 36.2341 124.3108 66.9324 0.0000 0.0000 0.0000
# 3 28.5214 66.9324 107.9996 0.0000 0.0000 0.0000
# 4 0.0000 0.0000 0.0000 18.7105 0.0000 0.0000
# 5 0.0000 0.0000 0.0000 0.0000 29.7736 0.0000
# 6 0.0000 0.0000 0.0000 0.0000 0.0000 19.6108
#
#
#
# Elastic Compliance Matrix: (Units=1/GPa)
#
#
# Indices 1 2 3 4 5 6 
#
# 1 0.034865 -0.007812 -0.004366 0.000000 0.000000 0.000000
# 2 -0.007812 0.013823 -0.006504 0.000000 0.000000 0.000000
# 3 -0.004366 -0.006504 0.014443 0.000000 0.000000 0.000000
# 4 0.000000 0.000000 0.000000 0.053446 0.000000 0.000000
# 5 0.000000 0.000000 0.000000 0.000000 0.033587 0.000000
# 6 0.000000 0.000000 0.000000 0.000000 0.000000 0.050992
#
#
# Mechanical properties :
#
#
# Convention : Reuss Voigt Hill
#
# Bulk Modulus (GPa) = 38.80789 59.56203 49.18496
# Shear Modulus (GPa) = 20.23395 23.01860 21.62627
#
# Velocity S-wave (km/s) = 3.19136 3.40388 3.29933
# Velocity P-wave (km/s) = 5.75445 6.74011 6.26669
#
# Compressibility (1/GPa) = 0.02576795
#
# Stress axis : x y z
#
# Youngs Moduli (GPa) = 28.68190 72.34236 69.23687
#
# Poissons Ratio (x) = 0.56511 0.30231
# Poissons Ratio (y) = 0.22405 0.45031
# Poissons Ratio (z) = 0.12523 0.47051
#
# Static dielectric constant tensor:
#      x y z
#    x 3.810040 0.000000 0.000000 
#    y 0.000000 3.761720 0.000000 
#    z 0.000000 0.000000 3.401600 
# 
# 
# High freq. dielectric constant tensor:
#      x y z
#    x 1.792250 0.000000 0.000000 
#    y 0.000000 1.777470 0.000000 
#    z 0.000000 0.000000 1.754100 
# 
# From -- ./inp_files/4240.got.cif
#   From: 2010.03.12/outbox.cif.g09.slc.cpg/sg25_3_cif.got.tgz:4240.got - 2010.04.14 03:30:10.
