data_PCOD8166663
_publ_section_title
;
Structure prediction by ZEFSAII (Michael W. Deem and Ramdas Pophale) SiO2 
 PCOD8166663
Probable space group: P M M 2
;
_chemical_formula_sum "Si O2"
_cell_formula_units_Z 32
_cell_length_a 14.195087
_cell_length_b 9.166039
_cell_length_c 15.604333
_cell_angle_alpha 90.000000
_cell_angle_beta 90.000000
_cell_angle_gamma 90.000000
_cell_volume 2030.322227
_symmetry_space_group_name_H-M "P M M 2"
_symmetry_group_IT_number 25
_symmetry_cell_setting 'orthorhombic'
loop_
_space_group_symop_operation_xyz
x,y,z
-x,-y,z
-x,y,z
x,-y,z
loop_
_atom_site_type_symbol
_atom_site_label
_atom_site_fract_x
_atom_site_fract_y
_atom_site_fract_z
Si Si1 0.605079 0.667738 0.233320
Si Si2 0.891222 0.671280 0.485160
Si Si3 0.392263 0.830246 0.057589
Si Si4 0.776687 0.326652 0.985098
Si Si5 0.111774 0.839162 0.648909
Si Si6 0.894334 0.326438 0.149108
Si Si7 0.890660 0.171230 0.839949
Si Si8 0.207944 0.671136 0.317439
O O1 0.500000 0.693542 0.270403
O O2 0.618754 0.500000 0.203125
O O3 0.624963 0.768777 0.152429
O O4 0.680556 0.705630 0.307540
O O5 0.878325 0.500000 0.491728
O O6 0.849894 0.735127 0.573787
O O7 0.831711 0.738745 0.405783
O O8 0.000000 0.714651 0.470770
O O9 0.500000 0.804607 0.029166
O O10 0.326862 0.744590 0.990361
O O11 0.365936 0.000000 0.057768
O O12 0.767487 0.500000 0.980720
O O13 0.835569 0.272282 0.067439
O O14 0.827833 0.269940 0.900824
O O15 0.141255 0.784936 0.743506
O O16 0.000000 0.844942 0.646251
O O17 0.153351 0.000000 0.632281
O O18 0.895071 0.500000 0.151225
O O19 0.847264 0.263177 0.235600
O O20 0.000000 0.264153 0.141916
O O21 0.000000 0.209405 0.855470
O O22 0.872929 0.000000 0.856329
O O23 0.188067 0.500000 0.320498
#
# Coordination Sequence:
#
# PCOD8166663 Si02
#       8
#     4   4   4   4   4   4   4   4
#     4   9  16  28  46  65  85 112 150 193 232 270
#     4   9  16  25  41  64  87 113 147 186 222 260
#     4  10  20  33  48  65  87 117 153 193 235 276
#     4  11  20  30  46  69  93 120 154 191 228 268
#     4   8  15  29  46  62  85 118 150 182 225 270
#     4   9  16  25  38  59  89 122 151 176 209 258
#     4   9  18  32  48  66  92 125 155 186 228 276
#     4   9  15  25  40  62  89 117 147 181 224 270
#
# _framework density 15.761046
#
# number of rings (size 3 to 8) (size 9 to 14) (size 15 to 20)
#    0.000    2.750    1.250    2.250    0.000    3.500 
#    0.000    1.875    0.000    0.000    0.000    0.875 
#    0.000    3.000    0.000    0.000    0.000    0.000 
#
# Total GULP energy -396671.389324 kJ/mol
# GULP energy per Si atom -12395.980916 kJ/mol
# Density = 1.572517 g / cm^3
# Si number density = 15.761046 Si / 1000 Ang^3
#
#
#
# Elastic Constant Matrix: (Units=GPa)
#
#
# Indices 1 2 3 4 5 6 
#
# 1 95.8341 40.8476 59.4350 0.0000 0.0000 0.0000
# 2 40.8476 53.6056 45.9892 0.0000 0.0000 0.0000
# 3 59.4350 45.9892 130.7806 0.0000 0.0000 0.0000
# 4 0.0000 0.0000 0.0000 18.1276 0.0000 0.0000
# 5 0.0000 0.0000 0.0000 0.0000 13.6530 0.0000
# 6 0.0000 0.0000 0.0000 0.0000 0.0000 17.5071
#
#
#
# Elastic Compliance Matrix: (Units=1/GPa)
#
#
# Indices 1 2 3 4 5 6 
#
# 1 0.017184 -0.009157 -0.004589 0.000000 0.000000 0.000000
# 2 -0.009157 0.031593 -0.006948 0.000000 0.000000 0.000000
# 3 -0.004589 -0.006948 0.012176 0.000000 0.000000 0.000000
# 4 0.000000 0.000000 0.000000 0.055164 0.000000 0.000000
# 5 0.000000 0.000000 0.000000 0.000000 0.073244 0.000000
# 6 0.000000 0.000000 0.000000 0.000000 0.000000 0.057120
#
#
# Mechanical properties :
#
#
# Convention : Reuss Voigt Hill
#
# Bulk Modulus (GPa) = 51.11556 63.64043 57.37800
# Shear Modulus (GPa) = 16.98416 18.78744 17.88580
#
# Velocity S-wave (km/s) = 3.28625 3.45631 3.37235
# Velocity P-wave (km/s) = 6.84845 7.50960 7.18663
#
# Compressibility (1/GPa) = 0.01956351
#
# Stress axis : x y z
#
# Youngs Moduli (GPa) = 58.19382 31.65214 82.13170
#
# Poissons Ratio (x) = 0.28983 0.37694
# Poissons Ratio (y) = 0.53287 0.57069
# Poissons Ratio (z) = 0.26708 0.21993
#
# Static dielectric constant tensor:
#      x y z
#    x 3.031020 0.000000 0.000000 
#    y 0.000000 2.865750 0.000000 
#    z 0.000000 0.000000 3.103340 
# 
# 
# High freq. dielectric constant tensor:
#      x y z
#    x 1.589930 0.000000 0.000000 
#    y 0.000000 1.585820 0.000000 
#    z 0.000000 0.000000 1.594790 
# 
# From -- ./inp_files/5695.got.cif
#   From: 2010.03.12/outbox.cif.g09.slc.cpg/sg25_3_cif.got.tgz:5695.got - 2010.04.14 03:30:10.
