data_PCOD8166587
_publ_section_title
;
Structure prediction by ZEFSAII (Michael W. Deem and Ramdas Pophale) SiO2 
 PCOD8166587
Probable space group: P M M 2
;
_chemical_formula_sum "Si O2"
_cell_formula_units_Z 32
_cell_length_a 13.528291
_cell_length_b 9.077127
_cell_length_c 14.549274
_cell_angle_alpha 90.000000
_cell_angle_beta 90.000000
_cell_angle_gamma 90.000000
_cell_volume 1786.621974
_symmetry_space_group_name_H-M "P M M 2"
_symmetry_group_IT_number 25
_symmetry_cell_setting 'orthorhombic'
loop_
_space_group_symop_operation_xyz
x,y,z
-x,-y,z
-x,y,z
x,-y,z
loop_
_atom_site_type_symbol
_atom_site_label
_atom_site_fract_x
_atom_site_fract_y
_atom_site_fract_z
Si Si1 0.113600 0.162110 0.962830
Si Si2 0.885646 0.826886 0.271659
Si Si3 0.890755 0.174008 0.479249
Si Si4 0.610216 0.674594 0.980027
Si Si5 0.786690 0.324990 0.111214
Si Si6 0.114111 0.661908 0.795473
Si Si7 0.775457 0.174108 0.652860
Si Si8 0.388331 0.326421 0.771978
O O1 0.165006 0.259335 0.883087
O O2 0.000000 0.139853 0.938518
O O3 0.163749 0.000000 0.969866
O O4 0.122104 0.253574 0.056440
O O5 0.861839 0.779377 0.376159
O O6 0.802866 0.738121 0.213403
O O7 0.000000 0.785630 0.247853
O O8 0.869520 0.000000 0.255564
O O9 0.802949 0.224385 0.548648
O O10 0.000000 0.240025 0.504356
O O11 0.900569 0.000000 0.484629
O O12 0.500000 0.734090 0.004597
O O13 0.608601 0.500000 0.981668
O O14 0.639276 0.725313 0.876174
O O15 0.687086 0.731267 0.058331
O O16 0.792939 0.500000 0.113212
O O17 0.164370 0.500000 0.782858
O O18 0.130362 0.768155 0.709543
O O19 0.000000 0.638404 0.812856
O O20 0.678131 0.249650 0.694069
O O21 0.763946 0.000000 0.661661
O O22 0.500000 0.278939 0.750236
O O23 0.375350 0.500000 0.762475
#
# Coordination Sequence:
#
# PCOD8166587 Si02
#       8
#     4   4   4   4   4   4   4   4
#     4  10  20  32  45  64  94 131 165 195 232 284
#     4   9  18  34  53  70  94 131 169 202 239 289
#     4   8  16  32  52  72  95 128 169 205 239 287
#     4   8  16  32  51  69  92 126 164 196 232 284
#     4  11  20  29  48  75  98 122 156 202 252 297
#     4  10  20  32  45  65  97 133 164 196 238 291
#     4  11  20  30  50  76  99 125 161 207 254 300
#     4   9  18  34  54  73  97 132 170 205 244 296
#
# _framework density 17.910896000000001
#
# number of rings (size 3 to 8) (size 9 to 14) (size 15 to 20)
#    0.000    2.500    0.000    4.500    0.000    5.000 
#    0.000    1.875    0.000    5.250    0.000    3.500 
#    0.000    0.000    0.000    0.000    0.000    0.000 
#
# Total GULP energy -396424.728339 kJ/mol
# GULP energy per Si atom -12388.272761 kJ/mol
# Density = 1.787013 g / cm^3
# Si number density = 17.910896 Si / 1000 Ang^3
#
#
#
# Elastic Constant Matrix: (Units=GPa)
#
#
# Indices 1 2 3 4 5 6 
#
# 1 98.0563 36.0274 65.8913 0.0000 0.0000 0.0000
# 2 36.0274 67.7137 46.7566 0.0000 0.0000 0.0000
# 3 65.8913 46.7566 140.9123 0.0000 0.0000 0.0000
# 4 0.0000 0.0000 0.0000 21.9482 0.0000 0.0000
# 5 0.0000 0.0000 0.0000 0.0000 28.8887 0.0000
# 6 0.0000 0.0000 0.0000 0.0000 0.0000 21.5425
#
#
#
# Elastic Compliance Matrix: (Units=1/GPa)
#
#
# Indices 1 2 3 4 5 6 
#
# 1 0.015772 -0.004280 -0.005955 0.000000 0.000000 0.000000
# 2 -0.004280 0.020319 -0.004741 0.000000 0.000000 0.000000
# 3 -0.005955 -0.004741 0.011454 0.000000 0.000000 0.000000
# 4 0.000000 0.000000 0.000000 0.045562 0.000000 0.000000
# 5 0.000000 0.000000 0.000000 0.000000 0.034616 0.000000
# 6 0.000000 0.000000 0.000000 0.000000 0.000000 0.046420
#
#
# Mechanical properties :
#
#
# Convention : Reuss Voigt Hill
#
# Bulk Modulus (GPa) = 56.83748 67.11475 61.97612
# Shear Modulus (GPa) = 23.81419 25.00966 24.41193
#
# Velocity S-wave (km/s) = 3.65031 3.74081 3.69584
# Velocity P-wave (km/s) = 7.04051 7.49740 7.27254
#
# Compressibility (1/GPa) = 0.01759402
#
# Stress axis : x y z
#
# Youngs Moduli (GPa) = 63.40197 49.21590 87.30313
#
# Poissons Ratio (x) = 0.21063 0.51991
# Poissons Ratio (y) = 0.27134 0.41389
# Poissons Ratio (z) = 0.37757 0.23332
#
# Static dielectric constant tensor:
#      x y z
#    x 3.362280 0.000000 0.000000 
#    y 0.000000 3.306550 0.000000 
#    z 0.000000 0.000000 3.485000 
# 
# 
# High freq. dielectric constant tensor:
#      x y z
#    x 1.679110 0.000000 0.000000 
#    y 0.000000 1.679620 0.000000 
#    z 0.000000 0.000000 1.684920 
# 
# From -- ./inp_files/5660.got.cif
#   From: 2010.03.12/outbox.cif.g09.slc.cpg/sg25_3_cif.got.tgz:5660.got - 2010.04.14 03:30:10.
