data_PCOD8166321
_publ_section_title
;
Structure prediction by ZEFSAII (Michael W. Deem and Ramdas Pophale) SiO2 
 PCOD8166321
Probable space group: P M M 2
;
_chemical_formula_sum "Si O2"
_cell_formula_units_Z 32
_cell_length_a 9.218555
_cell_length_b 14.173948
_cell_length_c 15.582584
_cell_angle_alpha 90.000000
_cell_angle_beta 90.000000
_cell_angle_gamma 90.000000
_cell_volume 2036.072147
_symmetry_space_group_name_H-M "P M M 2"
_symmetry_group_IT_number 25
_symmetry_cell_setting 'orthorhombic'
loop_
_space_group_symop_operation_xyz
x,y,z
-x,-y,z
-x,y,z
x,-y,z
loop_
_atom_site_type_symbol
_atom_site_label
_atom_site_fract_x
_atom_site_fract_y
_atom_site_fract_z
Si Si1 0.838989 0.888009 0.274470
Si Si2 0.827531 0.105171 0.086704
Si Si3 0.172009 0.105421 0.765358
Si Si4 0.834771 0.394453 0.680246
Si Si5 0.670333 0.890834 0.439886
Si Si6 0.668456 0.392010 0.853619
Si Si7 0.172512 0.225850 0.927295
Si Si8 0.831941 0.793005 0.592558
O O1 0.780943 0.855034 0.180682
O O2 0.731078 0.853686 0.348874
O O3 0.000000 0.846883 0.292902
O O4 0.847468 0.000000 0.271821
O O5 0.000000 0.098821 0.082943
O O6 0.763599 0.000000 0.070455
O O7 0.770253 0.175535 0.013591
O O8 0.228051 0.164217 0.846730
O O9 0.224172 0.154339 0.677837
O O10 0.000000 0.101532 0.768214
O O11 0.237416 0.000000 0.769512
O O12 0.808169 0.500000 0.643696
O O13 0.730160 0.372445 0.759085
O O14 0.806268 0.319280 0.604577
O O15 0.000000 0.382599 0.714023
O O16 0.500000 0.876276 0.439239
O O17 0.737642 0.827023 0.513493
O O18 0.713117 0.000000 0.455535
O O19 0.500000 0.365876 0.852761
O O20 0.694865 0.500000 0.880753
O O21 0.752113 0.327883 0.922675
O O22 0.000000 0.238543 0.927201
O O23 0.000000 0.816526 0.574374
#
# Coordination Sequence:
#
# PCOD8166321 Si02
#       8
#     4   4   4   4   4   4   4   4
#     4   8  14  27  46  66  88 116 149 185 224 265
#     4   8  14  25  45  72  96 117 146 184 223 263
#     4   9  16  25  39  62  91 120 149 176 207 254
#     4   9  17  31  50  69  87 109 145 191 231 266
#     4  10  20  31  43  63  91 122 154 188 223 258
#     4  10  20  32  45  62  87 119 152 188 229 267
#     4  10  17  28  46  68  91 118 151 186 221 258
#     4  10  18  29  45  66  89 118 151 182 221 268
#
# _framework density 15.716535
#
# number of rings (size 3 to 8) (size 9 to 14) (size 15 to 20)
#    0.000    2.750    1.250    2.250    0.000    4.000 
#    0.000    0.625    0.000    2.250    0.000    0.875 
#    0.000    3.000    0.000    0.000    0.000    0.000 
#
# Total GULP energy -396700.441381 kJ/mol
# GULP energy per Si atom -12396.888793 kJ/mol
# Density = 1.568076 g / cm^3
# Si number density = 15.716535 Si / 1000 Ang^3
#
#
#
# Elastic Constant Matrix: (Units=GPa)
#
#
# Indices 1 2 3 4 5 6 
#
# 1 54.3103 39.0817 45.5932 0.0000 0.0000 0.0000
# 2 39.0817 94.0115 59.0071 0.0000 0.0000 0.0000
# 3 45.5932 59.0071 133.2205 0.0000 0.0000 0.0000
# 4 0.0000 0.0000 0.0000 13.8425 0.0000 0.0000
# 5 0.0000 0.0000 0.0000 0.0000 8.2526 0.0000
# 6 0.0000 0.0000 0.0000 0.0000 0.0000 16.4803
#
#
#
# Elastic Compliance Matrix: (Units=1/GPa)
#
#
# Indices 1 2 3 4 5 6 
#
# 1 0.029894 -0.008319 -0.006547 0.000000 0.000000 0.000000
# 2 -0.008319 0.017048 -0.004704 0.000000 0.000000 0.000000
# 3 -0.006547 -0.004704 0.011830 0.000000 0.000000 0.000000
# 4 0.000000 0.000000 0.000000 0.072242 0.000000 0.000000
# 5 0.000000 0.000000 0.000000 0.000000 0.121174 0.000000
# 6 0.000000 0.000000 0.000000 0.000000 0.000000 0.060679
#
#
# Mechanical properties :
#
#
# Convention : Reuss Voigt Hill
#
# Bulk Modulus (GPa) = 50.93098 63.21183 57.07140
# Shear Modulus (GPa) = 13.94509 16.90575 15.42542
#
# Velocity S-wave (km/s) = 2.98197 3.28329 3.13625
# Velocity P-wave (km/s) = 6.65827 7.39463 7.03609
#
# Compressibility (1/GPa) = 0.01963442
#
# Stress axis : x y z
#
# Youngs Moduli (GPa) = 33.45098 58.65941 84.52846
#
# Poissons Ratio (x) = 0.48796 0.55337
# Poissons Ratio (y) = 0.27826 0.39762
# Poissons Ratio (z) = 0.21899 0.27593
#
# Static dielectric constant tensor:
#      x y z
#    x 2.799790 0.000000 0.000000 
#    y 0.000000 3.056240 0.000000 
#    z 0.000000 0.000000 3.108970 
# 
# 
# High freq. dielectric constant tensor:
#      x y z
#    x 1.580540 0.000000 0.000000 
#    y 0.000000 1.587800 0.000000 
#    z 0.000000 0.000000 1.593010 
# 
# From -- ./inp_files/5691.got.cif
#   From: 2010.03.12/outbox.cif.g09.slc.cpg/sg25_3_cif.got.tgz:5691.got - 2010.04.14 03:30:10.
