data_PCOD8166676
_publ_section_title
;
Structure prediction by ZEFSAII (Michael W. Deem and Ramdas Pophale) SiO2 
 PCOD8166676
Probable space group: P M M 2
;
_chemical_formula_sum "Si O2"
_cell_formula_units_Z 32
_cell_length_a 9.023868
_cell_length_b 14.096461
_cell_length_c 15.550917
_cell_angle_alpha 90.000000
_cell_angle_beta 90.000000
_cell_angle_gamma 90.000000
_cell_volume 1978.148228
_symmetry_space_group_name_H-M "P M M 2"
_symmetry_group_IT_number 25
_symmetry_cell_setting 'orthorhombic'
loop_
_space_group_symop_operation_xyz
x,y,z
-x,-y,z
-x,y,z
x,-y,z
loop_
_atom_site_type_symbol
_atom_site_label
_atom_site_fract_x
_atom_site_fract_y
_atom_site_fract_z
Si Si1 0.168545 0.105499 0.662150
Si Si2 0.172404 0.298417 0.745615
Si Si3 0.825551 0.392474 0.259199
Si Si4 0.327667 0.611135 0.584476
Si Si5 0.336087 0.387275 0.092919
Si Si6 0.325117 0.390505 0.902274
Si Si7 0.327839 0.107611 0.485971
Si Si8 0.175949 0.283409 0.426963
O O1 0.198337 0.185379 0.733761
O O2 0.278816 0.124931 0.583836
O O3 0.000000 0.113883 0.627280
O O4 0.196336 0.000000 0.701243
O O5 0.260216 0.358686 0.675261
O O6 0.233869 0.323880 0.838879
O O7 0.000000 0.324911 0.739094
O O8 0.768433 0.500000 0.271474
O O9 0.765702 0.347876 0.170001
O O10 0.766758 0.332849 0.339994
O O11 0.000000 0.388819 0.254115
O O12 0.500000 0.638764 0.582551
O O13 0.303528 0.500000 0.571700
O O14 0.243752 0.664335 0.508667
O O15 0.500000 0.345902 0.107882
O O16 0.340300 0.500000 0.094757
O O17 0.277933 0.357358 0.998474
O O18 0.500000 0.376542 0.888578
O O19 0.282089 0.500000 0.885915
O O20 0.500000 0.132915 0.478914
O O21 0.233944 0.175497 0.423524
O O22 0.295329 0.000000 0.457385
O O23 0.000000 0.286431 0.434859
#
# Coordination Sequence:
#
# PCOD8166676 Si02
#       8
#     4   4   4   4   4   4   4   4
#     4   9  18  33  50  67  90 121 156 196 243 287
#     4  11  21  31  47  71  94 123 160 198 237 281
#     4   9  18  31  47  69  97 126 156 193 235 278
#     4  11  23  35  46  63  93 132 166 196 232 275
#     4   8  15  29  48  68  90 120 158 196 235 278
#     4   9  18  32  48  67  95 129 160 192 232 280
#     4  10  20  33  50  71  93 120 158 202 243 283
#     4  11  21  33  49  70  96 128 161 195 237 285
#
# _framework density 16.176746000000001
#
# number of rings (size 3 to 8) (size 9 to 14) (size 15 to 20)
#    0.000    2.250    1.250    3.000    0.000    6.000 
#    0.000    2.500    0.000    0.000    0.000    0.875 
#    0.000    3.000    0.000    0.000    0.000    0.000 
#
# Total GULP energy -396753.683100 kJ/mol
# GULP energy per Si atom -12398.552597 kJ/mol
# Density = 1.613993 g / cm^3
# Si number density = 16.176746 Si / 1000 Ang^3
#
#
#
# Elastic Constant Matrix: (Units=GPa)
#
#
# Indices 1 2 3 4 5 6 
#
# 1 68.8091 40.5576 43.9405 0.0000 0.0000 0.0000
# 2 40.5576 84.6028 49.1461 0.0000 0.0000 0.0000
# 3 43.9405 49.1461 115.0756 0.0000 0.0000 0.0000
# 4 0.0000 0.0000 0.0000 12.2727 0.0000 0.0000
# 5 0.0000 0.0000 0.0000 0.0000 25.9810 0.0000
# 6 0.0000 0.0000 0.0000 0.0000 0.0000 23.4982
#
#
#
# Elastic Compliance Matrix: (Units=1/GPa)
#
#
# Indices 1 2 3 4 5 6 
#
# 1 0.022439 -0.007687 -0.005285 0.000000 0.000000 0.000000
# 2 -0.007687 0.018353 -0.004903 0.000000 0.000000 0.000000
# 3 -0.005285 -0.004903 0.012802 0.000000 0.000000 0.000000
# 4 0.000000 0.000000 0.000000 0.081481 0.000000 0.000000
# 5 0.000000 0.000000 0.000000 0.000000 0.038490 0.000000
# 6 0.000000 0.000000 0.000000 0.000000 0.000000 0.042556
#
#
# Mechanical properties :
#
#
# Convention : Reuss Voigt Hill
#
# Bulk Modulus (GPa) = 56.04159 59.53068 57.78613
# Shear Modulus (GPa) = 19.39344 21.33995 20.36670
#
# Velocity S-wave (km/s) = 3.46619 3.63598 3.55210
# Velocity P-wave (km/s) = 7.12305 7.38290 7.25414
#
# Compressibility (1/GPa) = 0.01784389
#
# Stress axis : x y z
#
# Youngs Moduli (GPa) = 44.56590 54.48684 78.11255
#
# Poissons Ratio (x) = 0.41882 0.41284
# Poissons Ratio (y) = 0.34256 0.38299
# Poissons Ratio (z) = 0.23554 0.26715
#
# Static dielectric constant tensor:
#      x y z
#    x 3.201010 0.000000 0.000000 
#    y 0.000000 3.152160 0.000000 
#    z 0.000000 0.000000 3.122080 
# 
# 
# High freq. dielectric constant tensor:
#      x y z
#    x 1.630800 0.000000 0.000000 
#    y 0.000000 1.605390 0.000000 
#    z 0.000000 0.000000 1.608900 
# 
# From -- ./inp_files/5683.got.cif
#   From: 2010.03.12/outbox.cif.g09.slc.cpg/sg25_3_cif.got.tgz:5683.got - 2010.04.14 03:30:10.
