data_PCOD8166946
_publ_section_title
;
Structure prediction by ZEFSAII (Michael W. Deem and Ramdas Pophale) SiO2 
 PCOD8166946
Probable space group: P M M 2
;
_chemical_formula_sum "Si O2"
_cell_formula_units_Z 24
_cell_length_a 19.055118
_cell_length_b 8.944883
_cell_length_c 7.518235
_cell_angle_alpha 90.000000
_cell_angle_beta 90.000000
_cell_angle_gamma 90.000000
_cell_volume 1281.451587
_symmetry_space_group_name_H-M "P M M 2"
_symmetry_group_IT_number 25
_symmetry_cell_setting 'orthorhombic'
loop_
_space_group_symop_operation_xyz
x,y,z
-x,-y,z
-x,y,z
x,-y,z
loop_
_atom_site_type_symbol
_atom_site_label
_atom_site_fract_x
_atom_site_fract_y
_atom_site_fract_z
Si Si1 0.082304 0.326546 0.514830
Si Si2 0.828397 0.175196 0.809891
Si Si3 0.316455 0.325668 0.812005
Si Si4 0.577873 0.677062 0.514867
Si Si5 0.316442 0.674335 0.217761
Si Si6 0.828413 0.824803 0.219772
O O1 0.101956 0.500000 0.514798
O O2 0.112489 0.252624 0.692508
O O3 0.112454 0.252601 0.337123
O O4 0.000000 0.298457 0.514894
O O5 0.752394 0.235992 0.753859
O O6 0.829749 0.000000 0.773425
O O7 0.844438 0.214183 0.014828
O O8 0.300460 0.500000 0.781524
O O9 0.380751 0.269766 0.690668
O O10 0.337495 0.291491 0.014887
O O11 0.500000 0.749132 0.514848
O O12 0.571278 0.500000 0.514826
O O13 0.619276 0.730274 0.339124
O O14 0.300460 0.500000 0.248254
O O15 0.247580 0.763986 0.275862
O O16 0.829755 0.000000 0.256232
#
# Coordination Sequence:
#
# PCOD8166946 Si02
#       6
#     4   4   4   4   4   4
#     4  11  24  39  56  80 110 143 176 213 260 314
#     4  10  21  37  58  82 107 138 177 221 266 312
#     4   9  17  30  50  74  99 131 172 216 260 307
#     4   9  17  28  44  70 102 133 168 213 262 308
#     4   9  17  30  50  74  99 131 172 216 260 307
#     4  10  21  37  58  82 107 138 177 221 266 312
#
# _framework density 18.728762
#
# number of rings (size 3 to 8) (size 9 to 14) (size 15 to 20)
#    0.000    2.333    0.000    2.500    0.000    6.000 
#    0.000    6.667    0.000    2.000    0.000    4.667 
#    0.000    0.000    0.000    0.000    0.000    0.000 
#
# Total GULP energy -297660.347151 kJ/mol
# GULP energy per Si atom -12402.514465 kJ/mol
# Density = 1.868613 g / cm^3
# Si number density = 18.728762 Si / 1000 Ang^3
#
#
#
# Elastic Constant Matrix: (Units=GPa)
#
#
# Indices 1 2 3 4 5 6 
#
# 1 139.6933 62.5513 84.0907 0.0000 0.0000 0.0000
# 2 62.5513 78.5761 48.2288 0.0000 0.0000 0.0000
# 3 84.0907 48.2288 122.0426 0.0000 0.0000 0.0000
# 4 0.0000 0.0000 0.0000 25.0481 0.0000 0.0000
# 5 0.0000 0.0000 0.0000 0.0000 21.7344 0.0000
# 6 0.0000 0.0000 0.0000 0.0000 0.0000 -0.4314
#
#
#
# Elastic Compliance Matrix: (Units=1/GPa)
#
#
# Indices 1 2 3 4 5 6 
#
# 1 0.014857 -0.007319 -0.007345 0.000000 0.000000 0.000000
# 2 -0.007319 0.020408 -0.003022 0.000000 0.000000 0.000000
# 3 -0.007345 -0.003022 0.014449 0.000000 0.000000 0.000000
# 4 0.000000 0.000000 0.000000 0.039923 0.000000 0.000000
# 5 0.000000 0.000000 0.000000 0.000000 0.046010 0.000000
# 6 0.000000 0.000000 0.000000 0.000000 0.000000 -2.318098
#
#
# Mechanical properties :
#
#
# Convention : Reuss Voigt Hill
#
# Bulk Modulus (GPa) = 69.72217 81.11707 75.41962
# Shear Modulus (GPa) = -2.33394 18.96628 8.31617
#
# Velocity S-wave (km/s) = -1.11754 3.18572 2.10949
# Velocity P-wave (km/s) = 5.97017 7.54568 6.80368
#
# Compressibility (1/GPa) = 0.01434264
#
# Stress axis : x y z
#
# Youngs Moduli (GPa) = 67.30821 49.00132 69.21127
#
# Poissons Ratio (x) = 0.35865 0.50832
# Poissons Ratio (y) = 0.49264 0.20913
# Poissons Ratio (z) = 0.49435 0.14806
#
# Static dielectric constant tensor:
#      x y z
#    x 3.506990 0.000000 0.000000 
#    y 0.000000 3.324900 0.000000 
#    z 0.000000 0.000000 3.689740 
# 
# 
# High freq. dielectric constant tensor:
#      x y z
#    x 1.723680 0.000000 0.000000 
#    y 0.000000 1.711900 0.000000 
#    z 0.000000 0.000000 1.742730 
# 
# From -- ./inp_files/3351.got.cif
#   From: 2010.03.12/outbox.cif.g09.slc.cpg/sg25_2_cif.got.tgz:3351.got - 2010.04.14 03:30:10.
