data_PCOD8166504
_publ_section_title
;
Structure prediction by ZEFSAII (Michael W. Deem and Ramdas Pophale) SiO2 
 PCOD8166504
Probable space group: P M M 2
;
_chemical_formula_sum "Si O2"
_cell_formula_units_Z 32
_cell_length_a 16.231399
_cell_length_b 9.457113
_cell_length_c 11.305718
_cell_angle_alpha 90.000000
_cell_angle_beta 90.000000
_cell_angle_gamma 90.000000
_cell_volume 1735.452297
_symmetry_space_group_name_H-M "P M M 2"
_symmetry_group_IT_number 25
_symmetry_cell_setting 'orthorhombic'
loop_
_space_group_symop_operation_xyz
x,y,z
-x,-y,z
-x,y,z
x,-y,z
loop_
_atom_site_type_symbol
_atom_site_label
_atom_site_fract_x
_atom_site_fract_y
_atom_site_fract_z
Si Si1 0.591966 0.347274 0.894900
Si Si2 0.349690 0.335825 0.145379
Si Si3 0.749465 0.832174 0.521128
Si Si4 0.284559 0.160769 0.786426
Si Si5 0.404808 0.333319 0.404937
Si Si6 0.906841 0.347872 0.149461
Si Si7 0.211443 0.835392 0.033572
Si Si8 0.905618 0.665169 0.422426
O O1 0.500000 0.360083 0.851969
O O2 0.636235 0.500000 0.887161
O O3 0.631236 0.245494 0.798580
O O4 0.594706 0.295081 0.031402
O O5 0.326028 0.500000 0.147672
O O6 0.396794 0.296401 0.265775
O O7 0.267566 0.243670 0.131132
O O8 0.757070 0.808047 0.661725
O O9 0.665416 0.757124 0.473734
O O10 0.834756 0.762735 0.478779
O O11 0.746206 0.000000 0.489735
O O12 0.310388 0.000000 0.798940
O O13 0.227709 0.206388 0.897308
O O14 0.500000 0.294693 0.442067
O O15 0.388695 0.500000 0.428136
O O16 0.861826 0.500000 0.127396
O O17 0.878225 0.222843 0.062947
O O18 0.896747 0.303284 0.284796
O O19 0.000000 0.369723 0.115980
O O20 0.219144 0.000000 0.056681
O O21 0.888759 0.500000 0.451187
O O22 0.000000 0.704197 0.463643
#
# Coordination Sequence:
#
# PCOD8166504 Si02
#       8
#     4   4   4   4   4   4   4   4
#     4   9  17  30  51  77  99 123 164 215 258 300
#     4   9  17  31  51  74 102 133 163 203 260 317
#     4  11  23  38  55  75 104 143 183 223 264 306
#     4   9  21  38  50  66  98 138 174 207 251 304
#     4  10  21  36  54  77 107 143 179 216 263 318
#     4   9  18  33  53  78 107 133 156 191 247 311
#     4  10  19  32  51  74 100 131 168 208 250 300
#     4   9  19  37  60  84 109 137 170 211 261 316
#
# _framework density 18.438998000000002
#
# number of rings (size 3 to 8) (size 9 to 14) (size 15 to 20)
#    0.000    2.500    0.000    2.625    0.000    8.500 
#    0.000    4.375    0.000    6.000    0.000    0.000 
#    0.000    0.000    0.000    0.000    0.000    0.000 
#
# Total GULP energy -396428.033279 kJ/mol
# GULP energy per Si atom -12388.376040 kJ/mol
# Density = 1.839703 g / cm^3
# Si number density = 18.438998 Si / 1000 Ang^3
#
#
#
# Elastic Constant Matrix: (Units=GPa)
#
#
# Indices 1 2 3 4 5 6 
#
# 1 114.4829 66.1232 55.4404 0.0000 0.0000 0.0000
# 2 66.1232 87.7099 51.8600 0.0000 0.0000 0.0000
# 3 55.4404 51.8600 64.3107 0.0000 0.0000 0.0000
# 4 0.0000 0.0000 0.0000 23.0626 0.0000 0.0000
# 5 0.0000 0.0000 0.0000 0.0000 18.7954 0.0000
# 6 0.0000 0.0000 0.0000 0.0000 0.0000 -23.7010
#
#
#
# Elastic Compliance Matrix: (Units=1/GPa)
#
#
# Indices 1 2 3 4 5 6 
#
# 1 0.017638 -0.008232 -0.008568 0.000000 0.000000 0.000000
# 2 -0.008232 0.025633 -0.013574 0.000000 0.000000 0.000000
# 3 -0.008568 -0.013574 0.033881 0.000000 0.000000 0.000000
# 4 0.000000 0.000000 0.000000 0.043360 0.000000 0.000000
# 5 0.000000 0.000000 0.000000 0.000000 0.053205 0.000000
# 6 0.000000 0.000000 0.000000 0.000000 0.000000 -0.042192
#
#
# Mechanical properties :
#
#
# Convention : Reuss Voigt Hill
#
# Bulk Modulus (GPa) = 60.95250 68.15006 64.55128
# Shear Modulus (GPa) = 25.28573 9.83672 17.56122
#
# Velocity S-wave (km/s) = 3.70715 2.31221 3.08944
# Velocity P-wave (km/s) = 7.17300 6.64593 6.91449
#
# Compressibility (1/GPa) = 0.01640622
#
# Stress axis : x y z
#
# Youngs Moduli (GPa) = 56.69481 39.01266 29.51467
#
# Poissons Ratio (x) = 0.32113 0.25287
# Poissons Ratio (y) = 0.46668 0.40063
# Poissons Ratio (z) = 0.48574 0.52956
#
# Static dielectric constant tensor:
#      x y z
#    x 3.500520 0.000000 0.000000 
#    y 0.000000 3.685530 0.000000 
#    z 0.000000 0.000000 3.430400 
# 
# 
# High freq. dielectric constant tensor:
#      x y z
#    x 1.711700 0.000000 0.000000 
#    y 0.000000 1.715180 0.000000 
#    z 0.000000 0.000000 1.705870 
# 
# From -- ./inp_files/4948.got.cif
#   From: 2010.03.12/outbox.cif.g09.slc.cpg/sg25_3_cif.got.tgz:4948.got - 2010.04.14 03:30:10.
