data_PCOD8166302
_publ_section_title
;
Structure prediction by ZEFSAII (Michael W. Deem and Ramdas Pophale) SiO2 
 PCOD8166302
Probable space group: I 21 21 21
;
_chemical_formula_sum "Si O2"
_cell_formula_units_Z 28
_cell_length_a 15.000000
_cell_length_b 30.000000
_cell_length_c 6.000000
_cell_angle_alpha 90.000000
_cell_angle_beta 90.000000
_cell_angle_gamma 90.000000
_cell_volume 2700.000000
_symmetry_space_group_name_H-M "I 21 21 21"
_symmetry_group_IT_number 24
_symmetry_cell_setting 'orthorhombic'
loop_
_space_group_symop_operation_xyz
x,y,z
-x,1/2-y,z
x,-y,1/2-z
1/2-x,y,-z
1/2+x,1/2+y,1/2+z
1/2-x,-y,1/2+z
1/2+x,1/2-y,-z
-x,1/2+y,1/2-z
loop_
_atom_site_type_symbol
_atom_site_label
_atom_site_fract_x
_atom_site_fract_y
_atom_site_fract_z
Si Si1 0.000000 0.250000 0.504536
Si Si2 0.661730 0.045236 0.873635
Si Si3 0.825628 0.702817 0.185295
Si Si4 0.487591 0.952571 0.327447
Si Si5 0.933118 0.895408 0.040969
Si Si6 0.413863 0.677774 0.293029
Si Si7 0.061291 0.867026 0.411879
Si Si8 0.750000 0.776392 0.500000
O O1 0.926886 0.280736 0.375999
O O2 0.936039 0.221041 0.655171
O O3 0.642394 0.084299 0.698621
O O4 0.685943 0.000000 0.750000
O O5 0.750000 0.061338 0.000000
O O6 0.576761 0.037668 0.031616
O O7 0.846293 0.659742 0.349496
O O8 0.777481 0.744481 0.298848
O O9 0.750000 0.688102 0.000000
O O10 0.425789 0.916535 0.467763
O O11 0.441339 0.000000 0.250000
O O12 0.515157 0.933353 0.090968
O O13 0.009198 0.870907 0.180986
O O14 0.884089 0.861749 0.872323
O O15 0.501803 0.663087 0.425596
O O16 0.331678 0.690410 0.450082
#
# Coordination Sequence:
#
# PCOD8166302 Si02
#       8
#     4   8   8   8   8   8   8   4
#     4  12  22  46  68  88 138 180 222 282 334 398
#     4  11  22  36  56  87 125 176 223 277 327 398
#     4  12  25  43  69  99 133 178 232 280 343 400
#     4  10  20  39  63  90 124 168 221 272 341 415
#     4  10  22  42  59  86 129 171 220 274 340 390
#     4  11  23  43  63  91 133 182 224 283 335 390
#     4  10  23  41  64  94 135 172 219 285 337 404
#     4  12  26  42  64 100 128 178 244 274 326 414
#
# _framework density 10.370369999999999
#
# number of rings (size 3 to 8) (size 9 to 14) (size 15 to 20)
#    0.000    1.143    4.286    2.143    0.000    0.000 
#   14.143    0.000    0.000    0.000    0.000    0.000 
#   21.429    0.000    0.000    0.000    0.000    0.000 
#
# Total GULP energy -346956.516583 kJ/mol
# GULP energy per Si atom -12391.304164 kJ/mol
# Density = 1.034677 g / cm^3
# Si number density = 10.370370 Si / 1000 Ang^3
#
#
#
# Elastic Constant Matrix: (Units=GPa)
#
#
# Indices 1 2 3 4 5 6 
#
# 1 80.5386 30.5656 20.7485 -0.0304 0.0296 0.0073
# 2 30.5656 131.1065 37.0051 -0.1958 0.0121 0.1059
# 3 20.7485 37.0051 89.4113 -0.0895 0.5694 0.7057
# 4 -0.0304 -0.1958 -0.0895 44.0578 -0.1722 0.0903
# 5 0.0296 0.0121 0.5694 -0.1722 37.3759 -0.0535
# 6 0.0073 0.1059 0.7057 0.0903 -0.0535 28.5829
#
#
#
# Elastic Compliance Matrix: (Units=1/GPa)
#
#
# Indices 1 2 3 4 5 6 
#
# 1 0.013976 -0.002653 -0.002146 -0.000007 0.000023 0.000059
# 2 -0.002653 0.009140 -0.003168 0.000032 0.000048 0.000045
# 3 -0.002146 -0.003168 0.012997 0.000011 -0.000196 -0.000309
# 4 -0.000007 0.000032 0.000011 0.022698 0.000104 -0.000072
# 5 0.000023 0.000048 -0.000196 0.000104 0.026759 0.000054
# 6 0.000059 0.000045 -0.000309 -0.000072 0.000054 0.034994
#
#
# Mechanical properties :
#
#
# Convention : Reuss Voigt Hill
#
# Bulk Modulus (GPa) = 49.55398 53.07719 51.31559
# Shear Modulus (GPa) = 34.91052 36.18578 35.54815
#
# Velocity S-wave (km/s) = 4.10712 4.18146 4.14445
# Velocity P-wave (km/s) = 6.81434 6.99708 6.90631
#
# Compressibility (1/GPa) = 0.02018001
#
# Stress axis : x y z
#
# Youngs Moduli (GPa) = 71.55138 109.40968 76.94052
#
# Poissons Ratio (x) = 0.29023 0.16511
# Poissons Ratio (y) = 0.18980 0.24374
# Poissons Ratio (z) = 0.15355 0.34659
#
# Static dielectric constant tensor:
#      x y z
#    x 3.611300 -0.000240 -0.000360 
#    y -0.000240 4.223350 -0.000940 
#    z -0.000360 -0.000940 3.989680 
# 
# 
# High freq. dielectric constant tensor:
#      x y z
#    x 1.782630 0.000000 0.000010 
#    y 0.000000 1.835660 -0.000020 
#    z 0.000010 -0.000020 1.831010 
# 
# From -- ./inp_files/4010.got.cif
#   From: 2010.03.12/outbox.ucp.g09.slc.cvg/sg24_3_cif.got.tgz:4010.got - 2010.05.04 21:04:44.
