data_PCOD8166164
_publ_section_title
;
Structure prediction by ZEFSAII (Michael W. Deem and Ramdas Pophale) SiO2 
 PCOD8166164
Probable space group: I 21 21 21
;
_chemical_formula_sum "Si O2"
_cell_formula_units_Z 36
_cell_length_a 5.089969
_cell_length_b 20.114233
_cell_length_c 16.145330
_cell_angle_alpha 90.000000
_cell_angle_beta 90.000000
_cell_angle_gamma 90.000000
_cell_volume 1652.972164
_symmetry_space_group_name_H-M "I 21 21 21"
_symmetry_group_IT_number 24
_symmetry_cell_setting 'orthorhombic'
loop_
_space_group_symop_operation_xyz
x,y,z
-x,1/2-y,z
x,-y,1/2-z
1/2-x,y,-z
1/2+x,1/2+y,1/2+z
1/2-x,-y,1/2+z
1/2+x,1/2-y,-z
-x,1/2+y,1/2-z
loop_
_atom_site_type_symbol
_atom_site_label
_atom_site_fract_x
_atom_site_fract_y
_atom_site_fract_z
Si Si1 0.750000 0.480927 0.000000
Si Si2 0.623832 0.385967 0.856167
Si Si3 0.551357 0.899682 0.072513
Si Si4 0.875285 0.923842 0.743786
Si Si5 0.750000 0.292929 0.500000
Si Si6 0.500000 0.250000 0.943393
O O1 0.603733 0.433677 0.935531
O O2 0.951195 0.526369 0.948555
O O3 0.407687 0.414303 0.795061
O O4 0.565138 0.311364 0.884051
O O5 0.904834 0.385682 0.809931
O O6 0.669446 0.896717 0.163632
O O7 0.324470 0.843215 0.074978
O O8 0.750000 0.877530 0.000000
O O9 0.961807 0.000000 0.750000
O O10 0.500000 0.250000 0.528673
O O11 0.750000 0.232308 0.000000
#
# Coordination Sequence:
#
# PCOD8166164 Si02
#       6
#     4   8   8   8   4   4
#     4  11  24  44  76 106 139 192 244 296 367 440
#     4  12  27  46  73 108 148 192 238 302 364 433
#     4  11  25  45  76 106 141 190 248 296 368 437
#     4  12  26  46  71 109 150 180 237 310 366 417
#     4  11  24  46  70 100 137 186 244 292 355 432
#     4  12  26  50  78 104 148 200 250 288 362 454
#
# _framework density 21.778952
#
# number of rings (size 3 to 8) (size 9 to 14) (size 15 to 20)
#    0.000    0.444    4.444    3.333    6.222    0.000 
#    6.000    0.000    0.000    0.000    0.000    0.000 
#    0.000    0.000    0.000    0.000    0.000    0.000 
#
# Total GULP energy -223203.345345 kJ/mol
# GULP energy per Si atom -12400.185853 kJ/mol
# Density = 2.172938 g / cm^3
# Si number density = 21.778952 Si / 1000 Ang^3
#
#
#
# Elastic Constant Matrix: (Units=GPa)
#
#
# Indices 1 2 3 4 5 6 
#
# 1 100.8109 27.0852 43.4656 0.0000 0.0000 0.0000
# 2 27.0852 143.0993 48.6514 0.0000 0.0000 0.0001
# 3 43.4656 48.6514 154.3609 0.0000 0.0000 0.0005
# 4 0.0000 0.0000 0.0000 17.2726 0.0000 0.0003
# 5 0.0000 0.0000 0.0000 0.0000 54.1051 0.0001
# 6 0.0000 0.0001 0.0005 0.0003 0.0001 101.4466
#
#
#
# Elastic Compliance Matrix: (Units=1/GPa)
#
#
# Indices 1 2 3 4 5 6 
#
# 1 0.011472 -0.001202 -0.002852 0.000000 0.000000 0.000000
# 2 -0.001202 0.007953 -0.002168 0.000000 0.000000 0.000000
# 3 -0.002852 -0.002168 0.007965 0.000000 0.000000 0.000000
# 4 0.000000 0.000000 0.000000 0.057895 0.000000 0.000000
# 5 0.000000 0.000000 0.000000 0.000000 0.018483 0.000000
# 6 0.000000 0.000000 0.000000 0.000000 0.000000 0.009857
#
#
# Mechanical properties :
#
#
# Convention : Reuss Voigt Hill
#
# Bulk Modulus (GPa) = 66.90623 70.74170 68.82397
# Shear Modulus (GPa) = 38.15354 53.16946 45.66150
#
# Velocity S-wave (km/s) = 4.19006 4.94634 4.58382
# Velocity P-wave (km/s) = 7.36180 8.07303 7.72560
#
# Compressibility (1/GPa) = 0.01494629
#
# Stress axis : x y z
#
# Youngs Moduli (GPa) = 87.16928 125.74242 125.55549
#
# Poissons Ratio (x) = 0.15113 0.35802
# Poissons Ratio (y) = 0.10477 0.27222
# Poissons Ratio (z) = 0.24856 0.27262
#
# Static dielectric constant tensor:
#      x y z
#    x 4.314260 0.000000 0.000000 
#    y 0.000000 4.118180 0.000000 
#    z 0.000000 0.000000 3.305170 
# 
# 
# High freq. dielectric constant tensor:
#      x y z
#    x 1.865630 0.000000 0.000000 
#    y 0.000000 1.868570 0.000000 
#    z 0.000000 0.000000 1.857000 
# 
# From -- ./inp_files/23636.got.cif
#   From: 2010.03.12/outbox.cif.g09.slc.cpg/sg24_12_cif.got.tgz:23636.got - 2010.04.14 03:06:53.
