data_PCOD8166988
_publ_section_title
;
Structure prediction by ZEFSAII (Michael W. Deem and Ramdas Pophale) SiO2 
 PCOD8166988
Probable space group: P M M 2
;
_chemical_formula_sum "Si O2"
_cell_formula_units_Z 20
_cell_length_a 8.671437
_cell_length_b 12.824666
_cell_length_c 9.984946
_cell_angle_alpha 90.000000
_cell_angle_beta 90.000000
_cell_angle_gamma 90.000000
_cell_volume 1110.408703
_symmetry_space_group_name_H-M "P M M 2"
_symmetry_group_IT_number 25
_symmetry_cell_setting 'orthorhombic'
loop_
_space_group_symop_operation_xyz
x,y,z
-x,-y,z
-x,y,z
x,-y,z
loop_
_atom_site_type_symbol
_atom_site_label
_atom_site_fract_x
_atom_site_fract_y
_atom_site_fract_z
Si Si1 0.680318 0.284860 0.965380
Si Si2 0.168395 0.500000 0.664689
Si Si3 0.170213 0.500000 0.981631
Si Si4 0.185344 0.722120 0.677128
Si Si5 0.179033 0.878439 0.160901
Si Si6 0.817157 0.885180 0.463214
O O1 0.500000 0.296125 0.942938
O O2 0.741867 0.394513 0.025531
O O3 0.757010 0.252089 0.825160
O O4 0.715421 0.191907 0.067269
O O5 0.152802 0.500000 0.823717
O O6 0.251731 0.608862 0.626444
O O7 0.000000 0.500000 0.596815
O O8 0.000000 0.500000 0.048408
O O9 0.251909 0.805905 0.572468
O O10 0.000000 0.719114 0.680838
O O11 0.228340 0.851810 0.313179
O O12 0.000000 0.851527 0.136456
O O13 0.209752 0.000000 0.130028
O O14 0.000000 0.888062 0.474800
O O15 0.750325 0.000000 0.495203
#
# Coordination Sequence:
#
# PCOD8166988 Si02
#       6
#     4   2   2   4   4   4
#     4  11  21  32  49  76 107 134 163 203 252 301
#     4   7  12  23  42  67  92 118 148 186 232 283
#     4   9  17  33  54  73  96 130 170 206 246 295
#     4   9  16  29  49  71  96 127 164 203 243 291
#     4   9  18  34  53  71  96 134 176 213 250 294
#     4   8  15  29  50  73  94 121 164 213 251 285
#
# _framework density 18.011386999999999
#
# number of rings (size 3 to 8) (size 9 to 14) (size 15 to 20)
#    0.000    3.000    0.000    4.500    0.000    1.200 
#    0.000    4.000    0.000    4.800    0.000    2.800 
#    0.000    0.000    0.000    0.000    0.000    0.000 
#
# Total GULP energy -247830.092516 kJ/mol
# GULP energy per Si atom -12391.504626 kJ/mol
# Density = 1.797039 g / cm^3
# Si number density = 18.011387 Si / 1000 Ang^3
#
#
#
# Elastic Constant Matrix: (Units=GPa)
#
#
# Indices 1 2 3 4 5 6 
#
# 1 51.7906 27.6325 18.5482 0.0000 0.0000 0.0000
# 2 27.6325 135.4348 76.7594 0.0000 0.0000 0.0000
# 3 18.5482 76.7594 92.2329 0.0000 0.0000 0.0000
# 4 0.0000 0.0000 0.0000 10.1992 0.0000 0.0000
# 5 0.0000 0.0000 0.0000 0.0000 5.5394 0.0000
# 6 0.0000 0.0000 0.0000 0.0000 0.0000 16.9377
#
#
#
# Elastic Compliance Matrix: (Units=1/GPa)
#
#
# Indices 1 2 3 4 5 6 
#
# 1 0.021748 -0.003707 -0.001289 0.000000 0.000000 0.000000
# 2 -0.003707 0.014608 -0.011411 0.000000 0.000000 0.000000
# 3 -0.001289 -0.011411 0.020598 0.000000 0.000000 0.000000
# 4 0.000000 0.000000 0.000000 0.098047 0.000000 0.000000
# 5 0.000000 0.000000 0.000000 0.000000 0.180525 0.000000
# 6 0.000000 0.000000 0.000000 0.000000 0.000000 0.059040
#
#
# Mechanical properties :
#
#
# Convention : Reuss Voigt Hill
#
# Bulk Modulus (GPa) = 41.42524 58.37094 49.89809
# Shear Modulus (GPa) = 11.48303 16.96981 14.22642
#
# Velocity S-wave (km/s) = 2.52770 3.07281 2.81349
# Velocity P-wave (km/s) = 5.61858 6.71325 6.19016
#
# Compressibility (1/GPa) = 0.02413987
#
# Stress axis : x y z
#
# Youngs Moduli (GPa) = 45.98174 68.45798 48.54788
#
# Poissons Ratio (x) = 0.25377 0.06255
# Poissons Ratio (y) = 0.17045 0.55400
# Poissons Ratio (z) = 0.05925 0.78120
#
# Static dielectric constant tensor:
#      x y z
#    x 2.963710 0.000000 0.000000 
#    y 0.000000 3.955570 0.000000 
#    z 0.000000 0.000000 3.156560 
# 
# 
# High freq. dielectric constant tensor:
#      x y z
#    x 1.661660 0.000000 0.000000 
#    y 0.000000 1.714500 0.000000 
#    z 0.000000 0.000000 1.672700 
# 
# From -- ./inp_files/1891.got.cif
#   From: 2010.03.12/outbox.cif.g09.slc.cpg/sg25_1_cif.got.tgz:1891.got - 2010.04.14 03:30:10.
