data_PCOD8166224
_publ_section_title
;
Structure prediction by ZEFSAII (Michael W. Deem and Ramdas Pophale) SiO2 
 PCOD8166224
Probable space group: I 21 21 21
;
_chemical_formula_sum "Si O2"
_cell_formula_units_Z 40
_cell_length_a 19.564829
_cell_length_b 4.926786
_cell_length_c 18.730515
_cell_angle_alpha 90.000000
_cell_angle_beta 90.000000
_cell_angle_gamma 90.000000
_cell_volume 1805.466662
_symmetry_space_group_name_H-M "I 21 21 21"
_symmetry_group_IT_number 24
_symmetry_cell_setting 'orthorhombic'
loop_
_space_group_symop_operation_xyz
x,y,z
-x,1/2-y,z
x,-y,1/2-z
1/2-x,y,-z
1/2+x,1/2+y,1/2+z
1/2-x,-y,1/2+z
1/2+x,1/2-y,-z
-x,1/2+y,1/2-z
loop_
_atom_site_type_symbol
_atom_site_label
_atom_site_fract_x
_atom_site_fract_y
_atom_site_fract_z
Si Si1 0.048008 0.000000 0.750000
Si Si2 0.455697 0.500000 0.750000
Si Si3 0.873042 0.867673 0.113592
Si Si4 0.727219 0.083331 0.418180
Si Si5 0.074477 0.145775 0.035369
Si Si6 0.362558 0.911957 0.388629
O O1 0.096625 0.912875 0.685140
O O2 0.000000 0.250000 0.726934
O O3 0.500000 0.750000 0.718584
O O4 0.409216 0.370546 0.689376
O O5 0.913053 0.657069 0.063362
O O6 0.792878 0.804958 0.125644
O O7 0.872044 0.159388 0.074974
O O8 0.750000 0.052693 0.500000
O O9 0.700189 0.799798 0.386142
O O10 0.666157 0.294101 0.408312
O O11 0.000000 0.250000 0.056448
O O12 0.084304 0.167639 0.950640
#
# Coordination Sequence:
#
# PCOD8166224 Si02
#       6
#     4   4   8   8   8   8
#     4  12  28  50  70 104 150 186 234 296 356 426
#     4  12  26  46  62  92 136 174 216 274 334 398
#     4  12  25  41  68  95 134 177 220 282 340 400
#     4  12  23  45  72 103 139 172 235 291 344 410
#     4  12  23  40  66  99 128 176 232 274 333 408
#     4  12  25  44  73 101 139 186 225 291 351 409
#
# _framework density 22.154938000000001
#
# number of rings (size 3 to 8) (size 9 to 14) (size 15 to 20)
#    0.000    0.000    4.000    7.200    0.000    3.200 
#    0.000    0.000    0.000    0.000    0.000    0.000 
#    0.000    0.000    0.000    0.000    0.000    0.000 
#
# Total GULP energy -248129.813761 kJ/mol
# GULP energy per Si atom -12406.490688 kJ/mol
# Density = 2.210451 g / cm^3
# Si number density = 22.154938 Si / 1000 Ang^3
#
#
#
# Elastic Constant Matrix: (Units=GPa)
#
#
# Indices 1 2 3 4 5 6 
#
# 1 120.8457 29.4111 50.4087 0.0000 0.0000 0.0000
# 2 29.4111 96.2589 20.6315 0.0000 0.0000 0.0000
# 3 50.4087 20.6315 123.1651 0.0000 0.0000 0.0000
# 4 0.0000 0.0000 0.0000 28.0793 0.0000 0.0000
# 5 0.0000 0.0000 0.0000 0.0000 32.1915 0.0000
# 6 0.0000 0.0000 0.0000 0.0000 0.0000 46.3788
#
#
#
# Elastic Compliance Matrix: (Units=1/GPa)
#
#
# Indices 1 2 3 4 5 6 
#
# 1 0.010474 -0.002366 -0.003890 0.000000 0.000000 0.000000
# 2 -0.002366 0.011310 -0.000926 0.000000 0.000000 0.000000
# 3 -0.003890 -0.000926 0.009867 0.000000 0.000000 0.000000
# 4 0.000000 0.000000 0.000000 0.035613 0.000000 0.000000
# 5 0.000000 0.000000 0.000000 0.000000 0.031064 0.000000
# 6 0.000000 0.000000 0.000000 0.000000 0.000000 0.021562
#
#
# Mechanical properties :
#
#
# Convention : Reuss Voigt Hill
#
# Bulk Modulus (GPa) = 57.85369 60.13028 58.99199
# Shear Modulus (GPa) = 35.71008 37.31781 36.51395
#
# Velocity S-wave (km/s) = 4.01912 4.10860 4.06411
# Velocity P-wave (km/s) = 6.90708 7.05033 6.97907
#
# Compressibility (1/GPa) = 0.01728498
#
# Stress axis : x y z
#
# Youngs Moduli (GPa) = 95.47743 88.41608 101.35295
#
# Poissons Ratio (x) = 0.20922 0.39429
# Poissons Ratio (y) = 0.22593 0.09386
# Poissons Ratio (z) = 0.37143 0.08188
#
# Static dielectric constant tensor:
#      x y z
#    x 4.486360 0.000000 0.000000 
#    y 0.000000 4.129610 0.000000 
#    z 0.000000 0.000000 3.823660 
# 
# 
# High freq. dielectric constant tensor:
#      x y z
#    x 1.885720 0.000000 0.000000 
#    y 0.000000 1.887360 0.000000 
#    z 0.000000 0.000000 1.863780 
# 
# From -- ./inp_files/31315.got.cif
#   From: 2010.03.12/outbox.cif.g09.slc.cpg/sg24_16_cif.got.tgz:31315.got - 2010.04.14 03:06:53.
