data_PCOD8166129
_publ_section_title
;
Structure prediction by ZEFSAII (Michael W. Deem and Ramdas Pophale) SiO2 
 PCOD8166129
Probable space group: I 21 21 21
;
_chemical_formula_sum "Si O2"
_cell_formula_units_Z 64
_cell_length_a 18.125913
_cell_length_b 19.300190
_cell_length_c 8.960680
_cell_angle_alpha 90.000000
_cell_angle_beta 90.000000
_cell_angle_gamma 90.000000
_cell_volume 3134.746628
_symmetry_space_group_name_H-M "I 21 21 21"
_symmetry_group_IT_number 24
_symmetry_cell_setting 'orthorhombic'
loop_
_space_group_symop_operation_xyz
x,y,z
-x,1/2-y,z
x,-y,1/2-z
1/2-x,y,-z
1/2+x,1/2+y,1/2+z
1/2-x,-y,1/2+z
1/2+x,1/2-y,-z
-x,1/2+y,1/2-z
loop_
_atom_site_type_symbol
_atom_site_label
_atom_site_fract_x
_atom_site_fract_y
_atom_site_fract_z
Si Si1 0.280240 0.340607 0.665129
Si Si2 0.074306 0.079334 0.791823
Si Si3 0.966146 0.679879 0.964194
Si Si4 0.694575 0.062112 0.132422
Si Si5 0.240277 0.074688 0.824900
Si Si6 0.190080 0.188003 0.372428
Si Si7 0.566807 0.092632 0.647599
Si Si8 0.044001 0.446765 0.023954
O O1 0.250000 0.337449 0.500000
O O2 0.220671 0.368090 0.783819
O O3 0.302560 0.262319 0.710269
O O4 0.346481 0.395306 0.664932
O O5 0.034673 0.125207 0.668484
O O6 0.158157 0.105401 0.804648
O O7 0.073470 0.000000 0.750000
O O8 0.028906 0.083107 0.945275
O O9 0.000000 0.750000 0.895426
O O10 0.888575 0.684374 0.047774
O O11 0.027002 0.659920 0.086107
O O12 0.688740 0.000000 0.250000
O O13 0.750000 0.040279 0.000000
O O14 0.615513 0.081207 0.063349
O O15 0.298949 0.128121 0.752192
O O16 0.251753 0.000000 0.750000
O O17 0.250000 0.065458 0.000000
O O18 0.250000 0.175896 0.500000
O O19 0.535027 0.080318 0.810206
O O20 0.550623 0.030047 0.532791
#
# Coordination Sequence:
#
# PCOD8166129 Si02
#       8
#     8   8   8   8   8   8   8   8
#     4  11  24  41  66  94 133 179 225 266 328 400
#     4  11  24  44  67 100 131 173 224 282 342 408
#     4  12  25  45  72  98 137 179 226 276 338 412
#     4  12  23  38  62  95 135 177 225 276 324 396
#     4  11  26  45  71 100 133 170 225 289 350 408
#     4  11  24  46  69  97 131 174 222 274 338 411
#     4  11  23  43  63  98 133 176 223 272 336 398
#     4  11  24  40  65  96 135 173 226 279 332 397
#
# _framework density 20.416325000000001
#
# number of rings (size 3 to 8) (size 9 to 14) (size 15 to 20)
#    0.000    0.750    5.000    2.625    5.250    0.500 
#    0.000    0.625    0.000    0.000    0.000    0.000 
#    0.000    0.000    0.000    0.000    0.000    0.000 
#
# Total GULP energy -396836.986152 kJ/mol
# GULP energy per Si atom -12401.155817 kJ/mol
# Density = 2.036986 g / cm^3
# Si number density = 20.416325 Si / 1000 Ang^3
#
#
#
# Elastic Constant Matrix: (Units=GPa)
#
#
# Indices 1 2 3 4 5 6 
#
# 1 87.8780 29.9502 36.6115 0.0000 0.0000 0.0000
# 2 29.9502 102.8995 47.0638 0.0000 0.0000 0.0000
# 3 36.6115 47.0638 104.7317 0.0000 0.0000 0.0000
# 4 0.0000 0.0000 0.0000 24.4077 0.0000 0.0000
# 5 0.0000 0.0000 0.0000 0.0000 27.2665 0.0000
# 6 0.0000 0.0000 0.0000 0.0000 0.0000 79.2893
#
#
#
# Elastic Compliance Matrix: (Units=1/GPa)
#
#
# Indices 1 2 3 4 5 6 
#
# 1 0.013727 -0.002266 -0.003780 0.000000 0.000000 0.000000
# 2 -0.002266 0.012607 -0.004873 0.000000 0.000000 0.000000
# 3 -0.003780 -0.004873 0.013059 0.000000 0.000000 0.000000
# 4 0.000000 0.000000 0.000000 0.040971 0.000000 0.000000
# 5 0.000000 0.000000 0.000000 0.000000 0.036675 0.000000
# 6 0.000000 0.000000 0.000000 0.000000 0.000000 0.012612
#
#
# Mechanical properties :
#
#
# Convention : Reuss Voigt Hill
#
# Bulk Modulus (GPa) = 56.96677 58.08446 57.52562
# Shear Modulus (GPa) = 31.77830 38.31831 35.04830
#
# Velocity S-wave (km/s) = 3.94955 4.33696 4.14778
# Velocity P-wave (km/s) = 6.98296 7.32057 7.15376
#
# Compressibility (1/GPa) = 0.01755409
#
# Stress axis : x y z
#
# Youngs Moduli (GPa) = 72.85094 79.32355 76.57365
#
# Poissons Ratio (x) = 0.17978 0.28945
# Poissons Ratio (y) = 0.16511 0.37313
# Poissons Ratio (z) = 0.27538 0.38653
#
# Static dielectric constant tensor:
#      x y z
#    x 4.191130 0.000000 0.000000 
#    y 0.000000 3.874340 0.000000 
#    z 0.000000 0.000000 3.388300 
# 
# 
# High freq. dielectric constant tensor:
#      x y z
#    x 1.807800 0.000000 0.000000 
#    y 0.000000 1.795620 0.000000 
#    z 0.000000 0.000000 1.803310 
# 
# From -- ./inp_files/14593.got.cif
#   From: 2010.03.12/outbox.cif.g09.slc.cpg/sg24_8_cif.got.tgz:14593.got - 2010.04.14 03:06:53.
