data_PCOD8166622
_publ_section_title
;
Structure prediction by ZEFSAII (Michael W. Deem and Ramdas Pophale) SiO2 
 PCOD8166622
Probable space group: P M M 2
;
_chemical_formula_sum "Si O2"
_cell_formula_units_Z 28
_cell_length_a 9.581195
_cell_length_b 9.326264
_cell_length_c 18.110769
_cell_angle_alpha 90.000000
_cell_angle_beta 90.000000
_cell_angle_gamma 90.000000
_cell_volume 1618.319530
_symmetry_space_group_name_H-M "P M M 2"
_symmetry_group_IT_number 25
_symmetry_cell_setting 'orthorhombic'
loop_
_space_group_symop_operation_xyz
x,y,z
-x,-y,z
-x,y,z
x,-y,z
loop_
_atom_site_type_symbol
_atom_site_label
_atom_site_fract_x
_atom_site_fract_y
_atom_site_fract_z
Si Si1 0.166329 0.839827 0.866870
Si Si2 0.339116 0.168142 0.570858
Si Si3 0.165992 0.661326 0.003941
Si Si4 0.844515 0.170831 0.704730
Si Si5 0.334383 0.341786 0.432588
Si Si6 0.163394 0.167495 0.147523
Si Si7 0.337203 0.667334 0.267422
O O1 0.211151 0.781371 0.785768
O O2 0.000000 0.846235 0.870112
O O3 0.225900 0.000000 0.880814
O O4 0.226443 0.734235 0.929566
O O5 0.500000 0.209425 0.582316
O O6 0.256743 0.231393 0.641251
O O7 0.277030 0.235875 0.495695
O O8 0.317016 0.000000 0.563429
O O9 0.225630 0.500000 0.010169
O O10 0.216550 0.753324 0.073791
O O11 0.000000 0.659056 0.000609
O O12 0.000000 0.231545 0.690361
O O13 0.847872 0.000000 0.703382
O O14 0.500000 0.346409 0.434745
O O15 0.274025 0.500000 0.448670
O O16 0.289920 0.291740 0.350716
O O17 0.246400 0.231993 0.215772
O O18 0.000000 0.194794 0.160689
O O19 0.196849 0.000000 0.139314
O O20 0.500000 0.700630 0.254765
O O21 0.306507 0.500000 0.251652
#
# Coordination Sequence:
#
# PCOD8166622 Si02
#       7
#     4   4   4   4   4   4   4
#     4   8  13  23  40  59  79 108 147 184 216 257
#     4   9  16  26  43  66  87 109 143 183 216 251
#     4   9  16  26  42  64  89 117 149 185 224 264
#     4   8  14  25  41  61  86 115 143 174 218 266
#     4   8  15  29  47  65  86 114 147 180 216 262
#     4  10  20  32  47  70  98 124 152 188 229 273
#     4   9  18  33  52  71  91 119 155 192 231 276
#
# _framework density 17.301898000000001
#
# number of rings (size 3 to 8) (size 9 to 14) (size 15 to 20)
#    0.000    3.286    0.000    2.571    0.000    3.429 
#    0.000    2.857    0.000    4.714    0.000    2.000 
#    0.000    0.000    0.000    0.000    0.000    0.000 
#
# Total GULP energy -347039.077176 kJ/mol
# GULP energy per Si atom -12394.252756 kJ/mol
# Density = 1.726252 g / cm^3
# Si number density = 17.301898 Si / 1000 Ang^3
#
#
#
# Elastic Constant Matrix: (Units=GPa)
#
#
# Indices 1 2 3 4 5 6 
#
# 1 34.6481 31.8397 47.8745 0.0000 0.0000 0.0000
# 2 31.8397 91.7221 81.1085 0.0000 0.0000 0.0000
# 3 47.8745 81.1085 182.6330 0.0000 0.0000 0.0000
# 4 0.0000 0.0000 0.0000 22.6155 0.0000 0.0000
# 5 0.0000 0.0000 0.0000 0.0000 6.0957 0.0000
# 6 0.0000 0.0000 0.0000 0.0000 0.0000 16.0946
#
#
#
# Elastic Compliance Matrix: (Units=1/GPa)
#
#
# Indices 1 2 3 4 5 6 
#
# 1 0.049777 -0.009453 -0.008850 0.000000 0.000000 0.000000
# 2 -0.009453 0.019748 -0.006292 0.000000 0.000000 0.000000
# 3 -0.008850 -0.006292 0.010590 0.000000 0.000000 0.000000
# 4 0.000000 0.000000 0.000000 0.044218 0.000000 0.000000
# 5 0.000000 0.000000 0.000000 0.000000 0.164051 0.000000
# 6 0.000000 0.000000 0.000000 0.000000 0.000000 0.062133
#
#
# Mechanical properties :
#
#
# Convention : Reuss Voigt Hill
#
# Bulk Modulus (GPa) = 32.33740 70.07207 51.20473
# Shear Modulus (GPa) = 12.19466 18.83984 15.51725
#
# Velocity S-wave (km/s) = 2.65772 3.30341 2.99800
# Velocity P-wave (km/s) = 5.30553 7.42547 6.45315
#
# Compressibility (1/GPa) = 0.03092395
#
# Stress axis : x y z
#
# Youngs Moduli (GPa) = 20.08952 50.63752 94.43040
#
# Poissons Ratio (x) = 0.47869 0.83572
# Poissons Ratio (y) = 0.18991 0.59418
# Poissons Ratio (z) = 0.17779 0.31862
#
# Static dielectric constant tensor:
#      x y z
#    x 2.867020 0.000000 0.000000 
#    y 0.000000 3.232940 0.000000 
#    z 0.000000 0.000000 3.635960 
# 
# 
# High freq. dielectric constant tensor:
#      x y z
#    x 1.614990 0.000000 0.000000 
#    y 0.000000 1.654540 0.000000 
#    z 0.000000 0.000000 1.686280 
# 
# From -- ./inp_files/6242.got.cif
#   From: 2010.03.12/outbox.cif.g09.slc.cpg/sg25_4_cif.got.tgz:6242.got - 2010.04.14 03:30:10.
