data_PCOD8166610
_publ_section_title
;
Structure prediction by ZEFSAII (Michael W. Deem and Ramdas Pophale) SiO2 
 PCOD8166610
Probable space group: P M M 2
;
_chemical_formula_sum "Si O2"
_cell_formula_units_Z 32
_cell_length_a 9.297697
_cell_length_b 9.648991
_cell_length_c 20.699678
_cell_angle_alpha 90.000000
_cell_angle_beta 90.000000
_cell_angle_gamma 90.000000
_cell_volume 1857.038382
_symmetry_space_group_name_H-M "P M M 2"
_symmetry_group_IT_number 25
_symmetry_cell_setting 'orthorhombic'
loop_
_space_group_symop_operation_xyz
x,y,z
-x,-y,z
-x,y,z
x,-y,z
loop_
_atom_site_type_symbol
_atom_site_label
_atom_site_fract_x
_atom_site_fract_y
_atom_site_fract_z
Si Si1 0.828712 0.344795 0.498600
Si Si2 0.840418 0.335545 0.356747
Si Si3 0.829076 0.655875 0.730349
Si Si4 0.170570 0.847236 0.984923
Si Si5 0.331931 0.661645 0.233650
Si Si6 0.833885 0.837365 0.129801
Si Si7 0.171773 0.156860 0.614661
Si Si8 0.171115 0.654613 0.873522
O O1 0.768257 0.500000 0.512427
O O2 0.781321 0.290204 0.427443
O O3 0.768818 0.237958 0.551837
O O4 0.000000 0.350955 0.500928
O O5 0.849674 0.500000 0.356618
O O6 0.734553 0.282406 0.300855
O O7 0.000000 0.273572 0.344084
O O8 0.771862 0.500000 0.716006
O O9 0.767662 0.763927 0.677952
O O10 0.780135 0.704854 0.802051
O O11 0.000000 0.653211 0.726488
O O12 0.208858 0.794246 0.056725
O O13 0.000000 0.853421 0.978069
O O14 0.235440 0.000000 0.974180
O O15 0.239076 0.749804 0.929676
O O16 0.500000 0.689970 0.236508
O O17 0.296356 0.500000 0.223088
O O18 0.266078 0.747465 0.175378
O O19 0.000000 0.801505 0.143802
O O20 0.805783 0.000000 0.140838
O O21 0.000000 0.156016 0.614791
O O22 0.231674 0.000000 0.614267
O O23 0.228570 0.500000 0.885560
O O24 0.000000 0.657216 0.877723
#
# Coordination Sequence:
#
# PCOD8166610 Si02
#       8
#     4   4   4   4   4   4   4   4
#     4   8  13  22  36  50  65  92 130 167 202 242
#     4   8  14  26  44  63  82 108 143 178 212 255
#     4   8  13  20  28  39  61  96 133 163 193 237
#     4   8  14  24  37  53  74 100 132 172 213 250
#     4  10  20  32  47  69  94 117 143 179 223 268
#     4   9  18  32  48  66  88 116 151 186 220 263
#     4   9  15  20  27  43  67  93 124 164 205 241
#     4   8  13  20  30  46  68  95 130 169 204 240
#
# _framework density 17.231738
#
# number of rings (size 3 to 8) (size 9 to 14) (size 15 to 20)
#    0.000    3.500    0.000    3.000    0.000    3.500 
#    0.000    4.375    0.000    2.250    0.000    0.000 
#    0.000    0.000    0.000    1.125    0.000   18.750 
#
# Total GULP energy -396535.512623 kJ/mol
# GULP energy per Si atom -12391.734769 kJ/mol
# Density = 1.719252 g / cm^3
# Si number density = 17.231738 Si / 1000 Ang^3
#
#
#
# Elastic Constant Matrix: (Units=GPa)
#
#
# Indices 1 2 3 4 5 6 
#
# 1 31.0372 24.4224 36.9276 0.0000 0.0000 0.0000
# 2 24.4224 93.8361 89.1583 0.0000 0.0000 0.0000
# 3 36.9276 89.1583 182.9521 0.0000 0.0000 0.0000
# 4 0.0000 0.0000 0.0000 16.3658 0.0000 0.0000
# 5 0.0000 0.0000 0.0000 0.0000 -0.0415 0.0000
# 6 0.0000 0.0000 0.0000 0.0000 0.0000 10.1638
#
#
#
# Elastic Compliance Matrix: (Units=1/GPa)
#
#
# Indices 1 2 3 4 5 6 
#
# 1 0.043929 -0.005603 -0.006136 0.000000 0.000000 0.000000
# 2 -0.005603 0.020561 -0.008889 0.000000 0.000000 0.000000
# 3 -0.006136 -0.008889 0.011036 0.000000 0.000000 0.000000
# 4 0.000000 0.000000 0.000000 0.061103 0.000000 0.000000
# 5 0.000000 0.000000 0.000000 0.000000-24.124875 0.000000
# 6 0.000000 0.000000 0.000000 0.000000 0.000000 0.098389
#
#
# Mechanical properties :
#
#
# Convention : Reuss Voigt Hill
#
# Bulk Modulus (GPa) = 29.18010 67.64914 48.41462
# Shear Modulus (GPa) = -0.20976 15.78543 7.78784
#
# Velocity S-wave (km/s) = -0.34927 3.02994 2.12821
# Velocity P-wave (km/s) = 4.09976 7.18223 5.84775
#
# Compressibility (1/GPa) = 0.03426993
#
# Stress axis : x y z
#
# Youngs Moduli (GPa) = 22.76399 48.63528 90.60849
#
# Poissons Ratio (x) = 0.27249 0.55601
# Poissons Ratio (y) = 0.12754 0.80544
# Poissons Ratio (z) = 0.13969 0.43233
#
# Static dielectric constant tensor:
#      x y z
#    x 2.561720 0.000000 0.000000 
#    y 0.000000 3.294790 0.000000 
#    z 0.000000 0.000000 3.659320 
# 
# 
# High freq. dielectric constant tensor:
#      x y z
#    x 1.587980 0.000000 0.000000 
#    y 0.000000 1.651390 0.000000 
#    z 0.000000 0.000000 1.684970 
# 
# From -- ./inp_files/6552.got.cif
#   From: 2010.03.12/outbox.cif.g09.slc.cpg/sg25_4_cif.got.tgz:6552.got - 2010.04.14 03:30:10.
