data_PCOD8166694
_publ_section_title
;
Structure prediction by ZEFSAII (Michael W. Deem and Ramdas Pophale) SiO2 
 PCOD8166694
Probable space group: P M M 2
;
_chemical_formula_sum "Si O2"
_cell_formula_units_Z 28
_cell_length_a 9.115379
_cell_length_b 9.279249
_cell_length_c 18.079549
_cell_angle_alpha 90.000000
_cell_angle_beta 90.000000
_cell_angle_gamma 90.000000
_cell_volume 1529.238249
_symmetry_space_group_name_H-M "P M M 2"
_symmetry_group_IT_number 25
_symmetry_cell_setting 'orthorhombic'
loop_
_space_group_symop_operation_xyz
x,y,z
-x,-y,z
-x,y,z
x,-y,z
loop_
_atom_site_type_symbol
_atom_site_label
_atom_site_fract_x
_atom_site_fract_y
_atom_site_fract_z
Si Si1 0.837353 0.171170 0.572310
Si Si2 0.330781 0.330596 0.865331
Si Si3 0.170464 0.832249 0.737688
Si Si4 0.165599 0.328656 0.009918
Si Si5 0.830657 0.170062 0.287456
Si Si6 0.336128 0.171416 0.433038
Si Si7 0.671008 0.330971 0.156232
O O1 0.784468 0.214880 0.654441
O O2 0.728618 0.233966 0.509930
O O3 0.000000 0.233438 0.557398
O O4 0.844275 0.000000 0.567181
O O5 0.500000 0.290889 0.876292
O O6 0.306798 0.500000 0.857208
O O7 0.271425 0.257960 0.791750
O O8 0.243639 0.269056 0.936238
O O9 0.000000 0.797270 0.752063
O O10 0.201927 0.000000 0.750421
O O11 0.166905 0.500000 0.008515
O O12 0.253672 0.273343 0.081331
O O13 0.000000 0.268331 0.013069
O O14 0.765228 0.223077 0.365517
O O15 0.741513 0.247861 0.223859
O O16 0.000000 0.216230 0.284035
O O17 0.811295 0.000000 0.277551
O O18 0.500000 0.233240 0.422417
O O19 0.339424 0.000000 0.436252
O O20 0.500000 0.294446 0.151616
O O21 0.699045 0.500000 0.167192
#
# Coordination Sequence:
#
# PCOD8166694 Si02
#       7
#     4   4   4   4   4   4   4
#     4   8  14  26  44  66  93 124 158 197 240 286
#     4  10  20  33  50  73 100 129 162 200 242 288
#     4   9  18  32  50  73 100 129 162 201 244 289
#     4   9  17  31  52  74  95 124 163 202 238 282
#     4  10  20  33  50  73 101 132 165 201 241 285
#     4   9  16  26  43  68  96 126 161 200 241 285
#     4  10  20  34  53  76 101 128 159 198 244 291
#
# _framework density 18.30977
#
# number of rings (size 3 to 8) (size 9 to 14) (size 15 to 20)
#    0.000    2.714    0.000    3.000    0.000    6.857 
#    0.000    2.143    0.000    5.143    0.000    4.000 
#    0.000    0.000    0.000    0.000    0.000    0.000 
#
# Total GULP energy -347170.448849 kJ/mol
# GULP energy per Si atom -12398.944602 kJ/mol
# Density = 1.826810 g / cm^3
# Si number density = 18.309770 Si / 1000 Ang^3
#
#
#
# Elastic Constant Matrix: (Units=GPa)
#
#
# Indices 1 2 3 4 5 6 
#
# 1 144.3529 33.6636 89.6768 0.0000 0.0000 0.0000
# 2 33.6636 18.4624 32.9061 0.0000 0.0000 0.0000
# 3 89.6768 32.9061 168.2826 0.0000 0.0000 0.0000
# 4 0.0000 0.0000 0.0000 38.4531 0.0000 0.0000
# 5 0.0000 0.0000 0.0000 0.0000 34.3759 0.0000
# 6 0.0000 0.0000 0.0000 0.0000 0.0000 22.6348
#
#
#
# Elastic Compliance Matrix: (Units=1/GPa)
#
#
# Indices 1 2 3 4 5 6 
#
# 1 0.013344 -0.017893 -0.003612 0.000000 0.000000 0.000000
# 2 -0.017893 0.107133 -0.011414 0.000000 0.000000 0.000000
# 3 -0.003612 -0.011414 0.010099 0.000000 0.000000 0.000000
# 4 0.000000 0.000000 0.000000 0.026006 0.000000 0.000000
# 5 0.000000 0.000000 0.000000 0.000000 0.029090 0.000000
# 6 0.000000 0.000000 0.000000 0.000000 0.000000 0.044180
#
#
# Mechanical properties :
#
#
# Convention : Reuss Voigt Hill
#
# Bulk Modulus (GPa) = 15.44688 71.51009 43.47848
# Shear Modulus (GPa) = 15.75950 30.74953 23.25451
#
# Velocity S-wave (km/s) = 2.93698 4.10250 3.56766
# Velocity P-wave (km/s) = 4.46720 7.84737 6.38502
#
# Compressibility (1/GPa) = 0.06473801
#
# Stress axis : x y z
#
# Youngs Moduli (GPa) = 74.93862 9.33422 99.01820
#
# Poissons Ratio (x) = 0.16702 0.35768
# Poissons Ratio (y) = 1.34089 1.13016
# Poissons Ratio (z) = 0.27070 0.10654
#
# Static dielectric constant tensor:
#      x y z
#    x 3.597850 0.000000 0.000000 
#    y 0.000000 2.861270 0.000000 
#    z 0.000000 0.000000 3.625430 
# 
# 
# High freq. dielectric constant tensor:
#      x y z
#    x 1.722740 0.000000 0.000000 
#    y 0.000000 1.652200 0.000000 
#    z 0.000000 0.000000 1.728340 
# 
# From -- ./inp_files/6034.got.cif
#   From: 2010.03.12/outbox.cif.g09.slc.cpg/sg25_4_cif.got.tgz:6034.got - 2010.04.14 03:30:10.
