data_PCOD8166576
_publ_section_title
;
Structure prediction by ZEFSAII (Michael W. Deem and Ramdas Pophale) SiO2 
 PCOD8166576
Probable space group: P M M 2
;
_chemical_formula_sum "Si O2"
_cell_formula_units_Z 32
_cell_length_a 17.424171
_cell_length_b 9.945367
_cell_length_c 11.128674
_cell_angle_alpha 90.000000
_cell_angle_beta 90.000000
_cell_angle_gamma 90.000000
_cell_volume 1928.485416
_symmetry_space_group_name_H-M "P M M 2"
_symmetry_group_IT_number 25
_symmetry_cell_setting 'orthorhombic'
loop_
_space_group_symop_operation_xyz
x,y,z
-x,-y,z
-x,y,z
x,-y,z
loop_
_atom_site_type_symbol
_atom_site_label
_atom_site_fract_x
_atom_site_fract_y
_atom_site_fract_z
Si Si1 0.582937 0.655456 0.371490
Si Si2 0.588841 0.847908 0.932630
Si Si3 0.276397 0.658109 0.523313
Si Si4 0.795046 0.149091 0.344954
Si Si5 0.911635 0.844532 0.143666
Si Si6 0.300645 0.344435 0.796626
Si Si7 0.806495 0.649866 0.009614
Si Si8 0.675498 0.759454 0.161907
O O1 0.500000 0.727996 0.387254
O O2 0.571448 0.500000 0.393992
O O3 0.641990 0.709348 0.471404
O O4 0.613205 0.676255 0.236652
O O5 0.500000 0.805670 0.947130
O O6 0.628191 0.747290 0.837828
O O7 0.595834 0.000000 0.883525
O O8 0.631055 0.844438 0.061389
O O9 0.262343 0.500000 0.498664
O O10 0.211672 0.742119 0.451881
O O11 0.274697 0.694111 0.662879
O O12 0.872174 0.185602 0.271692
O O13 0.723167 0.146065 0.252642
O O14 0.801272 0.000000 0.401445
O O15 0.872858 0.756269 0.038989
O O16 0.000000 0.803792 0.154810
O O17 0.900783 0.000000 0.107382
O O18 0.327326 0.500000 0.804620
O O19 0.225436 0.317970 0.876952
O O20 0.841307 0.500000 0.016379
O O21 0.735000 0.656405 0.101199
#
# Coordination Sequence:
#
# PCOD8166576 Si02
#       8
#     4   4   4   4   4   4   4   4
#     4   9  16  25  40  63  88 115 150 191 231 270
#     4  10  20  31  44  65  92 121 155 197 241 282
#     4   9  18  32  48  65  88 119 155 194 230 264
#     4   9  17  29  48  71  92 118 151 183 218 265
#     4   9  18  32  50  74 103 127 144 171 219 277
#     4   9  19  34  49  65  88 122 161 197 233 273
#     4   9  17  29  47  70  92 118 156 194 225 266
#     4   9  16  28  44  62  91 123 150 185 233 282
#
# _framework density 16.593333000000001
#
# number of rings (size 3 to 8) (size 9 to 14) (size 15 to 20)
#    0.000    2.875    0.000    1.125    0.000    8.000 
#    0.000    1.250    0.000    4.125    0.000    3.500 
#    0.000    0.000    0.000    0.000    0.000    0.000 
#
# Total GULP energy -396672.206354 kJ/mol
# GULP energy per Si atom -12396.006449 kJ/mol
# Density = 1.655557 g / cm^3
# Si number density = 16.593333 Si / 1000 Ang^3
#
#
#
# Elastic Constant Matrix: (Units=GPa)
#
#
# Indices 1 2 3 4 5 6 
#
# 1 109.5026 50.2699 49.4701 0.0000 0.0000 0.0000
# 2 50.2699 78.4702 51.3075 0.0000 0.0000 0.0000
# 3 49.4701 51.3075 113.1051 0.0000 0.0000 0.0000
# 4 0.0000 0.0000 0.0000 22.9429 0.0000 0.0000
# 5 0.0000 0.0000 0.0000 0.0000 8.6040 0.0000
# 6 0.0000 0.0000 0.0000 0.0000 0.0000 23.1639
#
#
#
# Elastic Compliance Matrix: (Units=1/GPa)
#
#
# Indices 1 2 3 4 5 6 
#
# 1 0.013544 -0.006829 -0.002826 0.000000 0.000000 0.000000
# 2 -0.006829 0.021560 -0.006794 0.000000 0.000000 0.000000
# 3 -0.002826 -0.006794 0.013159 0.000000 0.000000 0.000000
# 4 0.000000 0.000000 0.000000 0.043587 0.000000 0.000000
# 5 0.000000 0.000000 0.000000 0.000000 0.116225 0.000000
# 6 0.000000 0.000000 0.000000 0.000000 0.000000 0.043171
#
#
# Mechanical properties :
#
#
# Convention : Reuss Voigt Hill
#
# Bulk Modulus (GPa) = 65.07661 67.01921 66.04791
# Shear Modulus (GPa) = 17.28521 20.94418 19.11470
#
# Velocity S-wave (km/s) = 3.23103 3.55661 3.39772
# Velocity P-wave (km/s) = 7.29542 7.57251 7.43525
#
# Compressibility (1/GPa) = 0.01536650
#
# Stress axis : x y z
#
# Youngs Moduli (GPa) = 73.83430 46.38176 75.99251
#
# Poissons Ratio (x) = 0.31672 0.21477
# Poissons Ratio (y) = 0.50419 0.51626
# Poissons Ratio (z) = 0.20867 0.31510
#
# Static dielectric constant tensor:
#      x y z
#    x 3.199480 0.000000 0.000000 
#    y 0.000000 3.048310 0.000000 
#    z 0.000000 0.000000 3.068580 
# 
# 
# High freq. dielectric constant tensor:
#      x y z
#    x 1.623450 0.000000 0.000000 
#    y 0.000000 1.634800 0.000000 
#    z 0.000000 0.000000 1.627680 
# 
# From -- ./inp_files/4447.got.cif
#   From: 2010.03.12/outbox.cif.g09.slc.cpg/sg25_3_cif.got.tgz:4447.got - 2010.04.14 03:30:10.
