data_PCOD8166048
_publ_section_title
;
Structure prediction by ZEFSAII (Michael W. Deem and Ramdas Pophale) SiO2 
 PCOD8166048
Probable space group: I 21 21 21
;
_chemical_formula_sum "Si O2"
_cell_formula_units_Z 24
_cell_length_a 28.142322
_cell_length_b 4.967449
_cell_length_c 8.246407
_cell_angle_alpha 90.000000
_cell_angle_beta 90.000000
_cell_angle_gamma 90.000000
_cell_volume 1152.810996
_symmetry_space_group_name_H-M "I 21 21 21"
_symmetry_group_IT_number 24
_symmetry_cell_setting 'orthorhombic'
loop_
_space_group_symop_operation_xyz
x,y,z
-x,1/2-y,z
x,-y,1/2-z
1/2-x,y,-z
1/2+x,1/2+y,1/2+z
1/2-x,-y,1/2+z
1/2+x,1/2-y,-z
-x,1/2+y,1/2-z
loop_
_atom_site_type_symbol
_atom_site_label
_atom_site_fract_x
_atom_site_fract_y
_atom_site_fract_z
Si Si1 0.850967 0.413810 0.563783
Si Si2 0.300496 0.587560 0.565305
Si Si3 0.550759 0.747712 0.134705
O O1 0.848900 0.500000 0.750000
O O2 0.837672 0.666772 0.450828
O O3 0.904145 0.308230 0.517199
O O4 0.814789 0.168915 0.541665
O O5 0.297912 0.500000 0.750000
O O6 0.250000 0.692796 0.500000
O O7 0.500000 0.750000 0.036892
O O8 0.542935 0.500000 0.250000
O O9 0.562315 0.000000 0.250000
#
# Coordination Sequence:
#
# PCOD8166048 Si02
#       3
#     8   8   8
#     4  11  21  38  62  89 117 152 197 243 289 340
#     4  12  25  41  59  84 119 157 197 241 294 350
#     4   9  17  31  55  89 121 149 188 238 286 336
#
# _framework density 20.818677000000001
#
# number of rings (size 3 to 8) (size 9 to 14) (size 15 to 20)
#    0.000    1.333    0.000    9.000    0.000    0.000 
#    0.000    0.000    0.000    4.000    0.000    2.333 
#    0.000    0.000    0.000    0.000    0.000    0.000 
#
# Total GULP energy -148732.549551 kJ/mol
# GULP energy per Si atom -12394.379129 kJ/mol
# Density = 2.077129 g / cm^3
# Si number density = 20.818677 Si / 1000 Ang^3
#
#
#
# Elastic Constant Matrix: (Units=GPa)
#
#
# Indices 1 2 3 4 5 6 
#
# 1 165.6969 55.7350 61.3519 0.0000 0.0000 0.0000
# 2 55.7350 141.8728 25.1399 0.0000 0.0000 0.0000
# 3 61.3519 25.1399 57.3319 0.0000 0.0000 0.0000
# 4 0.0000 0.0000 0.0000 18.3101 0.0000 0.0000
# 5 0.0000 0.0000 0.0000 0.0000 19.5062 0.0000
# 6 0.0000 0.0000 0.0000 0.0000 0.0000 38.2959
#
#
#
# Elastic Compliance Matrix: (Units=1/GPa)
#
#
# Indices 1 2 3 4 5 6 
#
# 1 0.010673 -0.002352 -0.010391 0.000000 0.000000 0.000000
# 2 -0.002352 0.008161 -0.001062 0.000000 0.000000 0.000000
# 3 -0.010391 -0.001062 0.029027 0.000000 0.000000 0.000000
# 4 0.000000 0.000000 0.000000 0.054615 0.000000 0.000000
# 5 0.000000 0.000000 0.000000 0.000000 0.051266 0.000000
# 6 0.000000 0.000000 0.000000 0.000000 0.000000 0.026112
#
#
# Mechanical properties :
#
#
# Convention : Reuss Voigt Hill
#
# Bulk Modulus (GPa) = 49.37567 72.15055 60.76311
# Shear Modulus (GPa) = 23.34123 30.06743 26.70433
#
# Velocity S-wave (km/s) = 3.35202 3.80446 3.58538
# Velocity P-wave (km/s) = 6.22494 7.35054 6.81103
#
# Compressibility (1/GPa) = 0.02025289
#
# Stress axis : x y z
#
# Youngs Moduli (GPa) = 93.69010 122.53958 34.45074
#
# Poissons Ratio (x) = 0.28820 0.35796
# Poissons Ratio (y) = 0.22035 0.03657
# Poissons Ratio (z) = 0.97350 0.13009
#
# Static dielectric constant tensor:
#      x y z
#    x 4.831090 0.000000 0.000000 
#    y 0.000000 4.043940 0.000000 
#    z 0.000000 0.000000 3.313090 
# 
# 
# High freq. dielectric constant tensor:
#      x y z
#    x 1.840520 0.000000 0.000000 
#    y 0.000000 1.843400 0.000000 
#    z 0.000000 0.000000 1.756330 
# 
# From -- ./inp_files/809.got.cif
#   From: 2010.03.12/outbox.cif.g09.slc.cpg/sg24_1_cif.got.tgz:809.got - 2010.04.14 03:06:53.
