data_PCOD8166584
_publ_section_title
;
Structure prediction by ZEFSAII (Michael W. Deem and Ramdas Pophale) SiO2 
 PCOD8166584
Probable space group: P M M 2
;
_chemical_formula_sum "Si O2"
_cell_formula_units_Z 28
_cell_length_a 9.162390
_cell_length_b 9.651113
_cell_length_c 18.002521
_cell_angle_alpha 90.000000
_cell_angle_beta 90.000000
_cell_angle_gamma 90.000000
_cell_volume 1591.913627
_symmetry_space_group_name_H-M "P M M 2"
_symmetry_group_IT_number 25
_symmetry_cell_setting 'orthorhombic'
loop_
_space_group_symop_operation_xyz
x,y,z
-x,-y,z
-x,y,z
x,-y,z
loop_
_atom_site_type_symbol
_atom_site_label
_atom_site_fract_x
_atom_site_fract_y
_atom_site_fract_z
Si Si1 0.171192 0.840175 0.750000
Si Si2 0.826488 0.344502 0.452275
Si Si3 0.326767 0.652948 0.029812
Si Si4 0.826548 0.840933 0.318143
Si Si5 0.671312 0.840545 0.897509
Si Si6 0.329188 0.339542 0.196752
Si Si7 0.826683 0.655400 0.616747
O O1 0.249979 0.784313 0.823791
O O2 0.236155 0.757991 0.679292
O O3 0.000000 0.814677 0.760038
O O4 0.208613 0.000000 0.736204
O O5 0.771112 0.500000 0.432575
O O6 0.766349 0.234920 0.392350
O O7 0.769945 0.301380 0.534552
O O8 0.000000 0.343793 0.451880
O O9 0.500000 0.650462 0.027041
O O10 0.265593 0.500000 0.011311
O O11 0.279479 0.696602 0.112733
O O12 0.265076 0.758988 0.968651
O O13 0.761831 0.763168 0.247625
O O14 0.000000 0.831827 0.313589
O O15 0.773402 0.000000 0.319552
O O16 0.500000 0.816390 0.887349
O O17 0.710239 0.000000 0.911157
O O18 0.500000 0.311129 0.208317
O O19 0.292938 0.500000 0.214993
O O20 0.774144 0.500000 0.635328
O O21 0.000000 0.663212 0.617080
#
# Coordination Sequence:
#
# PCOD8166584 Si02
#       7
#     4   4   4   4   4   4   4
#     4   9  17  28  42  62  88 115 142 176 219 261
#     4   8  14  26  44  64  87 117 151 186 224 264
#     4   8  15  29  48  68  87 109 144 187 222 256
#     4  10  20  31  45  70 100 125 152 188 229 273
#     4   9  17  29  45  64  86 114 146 176 211 260
#     4   9  18  33  52  71  91 119 155 192 231 276
#     4   8  14  25  42  64  87 112 146 185 220 256
#
# _framework density 17.588895000000001
#
# number of rings (size 3 to 8) (size 9 to 14) (size 15 to 20)
#    0.000    3.286    0.000    2.143    0.000    2.857 
#    0.000    5.000    0.000    3.429    0.000    4.000 
#    0.000    0.000    0.000    0.000    0.000    0.000 
#
# Total GULP energy -347055.220578 kJ/mol
# GULP energy per Si atom -12394.829306 kJ/mol
# Density = 1.754886 g / cm^3
# Si number density = 17.588895 Si / 1000 Ang^3
#
#
#
# Elastic Constant Matrix: (Units=GPa)
#
#
# Indices 1 2 3 4 5 6 
#
# 1 14.1736 22.8748 26.1727 0.0000 0.0000 0.0000
# 2 22.8748 116.2573 103.8644 0.0000 0.0000 0.0000
# 3 26.1727 103.8644 177.9286 0.0000 0.0000 0.0000
# 4 0.0000 0.0000 0.0000 36.2456 0.0000 0.0000
# 5 0.0000 0.0000 0.0000 0.0000 -7.2161 0.0000
# 6 0.0000 0.0000 0.0000 0.0000 0.0000 17.5726
#
#
#
# Elastic Compliance Matrix: (Units=1/GPa)
#
#
# Indices 1 2 3 4 5 6 
#
# 1 0.107686 -0.014706 -0.007256 0.000000 0.000000 0.000000
# 2 -0.014706 0.019985 -0.009503 0.000000 0.000000 0.000000
# 3 -0.007256 -0.009503 0.012235 0.000000 0.000000 0.000000
# 4 0.000000 0.000000 0.000000 0.027590 0.000000 0.000000
# 5 0.000000 0.000000 0.000000 0.000000 -0.138579 0.000000
# 6 0.000000 0.000000 0.000000 0.000000 0.000000 0.056907
#
#
# Mechanical properties :
#
#
# Convention : Reuss Voigt Hill
#
# Bulk Modulus (GPa) = 12.99097 68.24258 40.61678
# Shear Modulus (GPa) = 28.66785 19.68359 24.17572
#
# Velocity S-wave (km/s) = 4.04156 3.34891 3.71143
# Velocity P-wave (km/s) = 5.40193 7.33734 6.44272
#
# Compressibility (1/GPa) = 0.07697653
#
# Stress axis : x y z
#
# Youngs Moduli (GPa) = 9.28625 50.03721 81.73423
#
# Poissons Ratio (x) = 0.73585 0.59304
# Poissons Ratio (y) = 0.13656 0.77672
# Poissons Ratio (z) = 0.06738 0.47550
#
# Static dielectric constant tensor:
#      x y z
#    x 2.777210 0.000000 0.000000 
#    y 0.000000 3.456900 0.000000 
#    z 0.000000 0.000000 3.658620 
# 
# 
# High freq. dielectric constant tensor:
#      x y z
#    x 1.626840 0.000000 0.000000 
#    y 0.000000 1.679220 0.000000 
#    z 0.000000 0.000000 1.694730 
# 
# From -- ./inp_files/6246.got.cif
#   From: 2010.03.12/outbox.cif.g09.slc.cpg/sg25_4_cif.got.tgz:6246.got - 2010.04.14 03:30:10.
