data_PCOD8166412
_publ_section_title
;
Structure prediction by ZEFSAII (Michael W. Deem and Ramdas Pophale) SiO2 
 PCOD8166412
Probable space group: P M M 2
;
_chemical_formula_sum "Si O2"
_cell_formula_units_Z 28
_cell_length_a 9.299638
_cell_length_b 17.518997
_cell_length_c 9.529669
_cell_angle_alpha 90.000000
_cell_angle_beta 90.000000
_cell_angle_gamma 90.000000
_cell_volume 1552.576820
_symmetry_space_group_name_H-M "P M M 2"
_symmetry_group_IT_number 25
_symmetry_cell_setting 'orthorhombic'
loop_
_space_group_symop_operation_xyz
x,y,z
-x,-y,z
-x,y,z
x,-y,z
loop_
_atom_site_type_symbol
_atom_site_label
_atom_site_fract_x
_atom_site_fract_y
_atom_site_fract_z
Si Si1 0.670081 0.706916 0.205760
Si Si2 0.342918 0.087135 0.834185
Si Si3 0.838610 0.313066 0.770725
Si Si4 0.835116 0.085843 0.556877
Si Si5 0.162980 0.811521 0.010028
Si Si6 0.331902 0.586601 0.971828
Si Si7 0.832990 0.749715 0.468626
O O1 0.500000 0.719443 0.213061
O O2 0.747541 0.779997 0.140107
O O3 0.735487 0.701003 0.361439
O O4 0.710792 0.632718 0.112924
O O5 0.500000 0.128974 0.834189
O O6 0.267331 0.101020 0.686722
O O7 0.370690 0.000000 0.861496
O O8 0.241952 0.112144 0.962156
O O9 0.741138 0.381279 0.830620
O O10 0.785278 0.281432 0.621199
O O11 0.000000 0.344969 0.758828
O O12 0.830601 0.243671 0.877585
O O13 0.806075 0.157941 0.453426
O O14 0.000000 0.090479 0.609773
O O15 0.806494 0.000000 0.491501
O O16 0.000000 0.827961 0.058535
O O17 0.500000 0.592658 0.944618
O O18 0.281248 0.500000 0.995948
O O19 0.000000 0.731748 0.439685
#
# Coordination Sequence:
#
# PCOD8166412 Si02
#       7
#     4   4   4   4   4   4   4
#     4  10  21  35  53  78 105 139 176 214 265 318
#     4  10  19  29  45  73 105 134 170 221 273 314
#     4   9  18  32  53  80 105 130 168 214 258 305
#     4   9  17  31  51  73 100 138 181 221 262 309
#     4  10  18  33  53  73  98 135 176 216 258 308
#     4   9  19  37  58  79 104 134 171 214 261 319
#     4  10  19  34  52  77 109 140 176 220 261 310
#
# _framework density 18.034535000000002
#
# number of rings (size 3 to 8) (size 9 to 14) (size 15 to 20)
#    0.000    2.429    1.429    1.286    0.000    3.429 
#    0.000    1.429    0.000    5.143    0.000    0.000 
#    0.000    0.000    0.000    0.000    0.000    0.000 
#
# Total GULP energy -347022.976403 kJ/mol
# GULP energy per Si atom -12393.677729 kJ/mol
# Density = 1.799349 g / cm^3
# Si number density = 18.034535 Si / 1000 Ang^3
#
#
#
# Elastic Constant Matrix: (Units=GPa)
#
#
# Indices 1 2 3 4 5 6 
#
# 1 90.0135 39.5174 41.9433 0.0000 0.0000 0.0000
# 2 39.5174 78.2615 36.1597 0.0000 0.0000 0.0000
# 3 41.9433 36.1597 91.2151 0.0000 0.0000 0.0000
# 4 0.0000 0.0000 0.0000 20.7232 0.0000 0.0000
# 5 0.0000 0.0000 0.0000 0.0000 31.0889 0.0000
# 6 0.0000 0.0000 0.0000 0.0000 0.0000 25.8546
#
#
#
# Elastic Compliance Matrix: (Units=1/GPa)
#
#
# Indices 1 2 3 4 5 6 
#
# 1 0.015992 -0.005726 -0.005084 0.000000 0.000000 0.000000
# 2 -0.005726 0.017693 -0.004381 0.000000 0.000000 0.000000
# 3 -0.005084 -0.004381 0.015037 0.000000 0.000000 0.000000
# 4 0.000000 0.000000 0.000000 0.048255 0.000000 0.000000
# 5 0.000000 0.000000 0.000000 0.000000 0.032166 0.000000
# 6 0.000000 0.000000 0.000000 0.000000 0.000000 0.038678
#
#
# Mechanical properties :
#
#
# Convention : Reuss Voigt Hill
#
# Bulk Modulus (GPa) = 54.52208 54.97011 54.74610
# Shear Modulus (GPa) = 24.47178 24.99131 24.73154
#
# Velocity S-wave (km/s) = 3.68766 3.72660 3.70718
# Velocity P-wave (km/s) = 6.95913 7.00453 6.98186
#
# Compressibility (1/GPa) = 0.01834119
#
# Stress axis : x y z
#
# Youngs Moduli (GPa) = 62.53060 56.51873 66.50086
#
# Poissons Ratio (x) = 0.32364 0.33807
# Poissons Ratio (y) = 0.35807 0.29133
# Poissons Ratio (z) = 0.31788 0.24760
#
# Static dielectric constant tensor:
#      x y z
#    x 3.499530 0.000000 0.000000 
#    y 0.000000 3.375860 0.000000 
#    z 0.000000 0.000000 3.173520 
# 
# 
# High freq. dielectric constant tensor:
#      x y z
#    x 1.706920 0.000000 0.000000 
#    y 0.000000 1.684780 0.000000 
#    z 0.000000 0.000000 1.678570 
# 
# From -- ./inp_files/2295.got.cif
#   From: 2010.03.12/outbox.cif.g09.slc.cpg/sg25_2_cif.got.tgz:2295.got - 2010.04.14 03:30:10.
