data_PCOD8166865
_publ_section_title
;
Structure prediction by ZEFSAII (Michael W. Deem and Ramdas Pophale) SiO2 
 PCOD8166865
Probable space group: P M M 2
;
_chemical_formula_sum "Si O2"
_cell_formula_units_Z 28
_cell_length_a 9.619833
_cell_length_b 9.394186
_cell_length_c 18.030964
_cell_angle_alpha 90.000000
_cell_angle_beta 90.000000
_cell_angle_gamma 90.000000
_cell_volume 1629.467241
_symmetry_space_group_name_H-M "P M M 2"
_symmetry_group_IT_number 25
_symmetry_cell_setting 'orthorhombic'
loop_
_space_group_symop_operation_xyz
x,y,z
-x,-y,z
-x,y,z
x,-y,z
loop_
_atom_site_type_symbol
_atom_site_label
_atom_site_fract_x
_atom_site_fract_y
_atom_site_fract_z
Si Si1 0.335297 0.157203 0.069640
Si Si2 0.837909 0.666162 0.354419
Si Si3 0.666110 0.340498 0.934334
Si Si4 0.161311 0.835160 0.499957
Si Si5 0.654661 0.169423 0.635127
Si Si6 0.662026 0.834483 0.236608
Si Si7 0.334497 0.841306 0.797589
O O1 0.500000 0.149765 0.063272
O O2 0.295208 0.205993 0.152516
O O3 0.274181 0.000000 0.053558
O O4 0.274949 0.265513 0.008607
O O5 0.803277 0.500000 0.361266
O O6 0.790922 0.743104 0.429845
O O7 0.752168 0.732900 0.287703
O O8 0.000000 0.693218 0.338999
O O9 0.500000 0.339087 0.934250
O O10 0.724599 0.500000 0.933194
O O11 0.724946 0.260521 0.861720
O O12 0.243258 0.774925 0.571172
O O13 0.000000 0.814259 0.517369
O O14 0.197238 0.000000 0.483765
O O15 0.500000 0.229699 0.619385
O O16 0.709105 0.219330 0.716386
O O17 0.650296 0.000000 0.636047
O O18 0.500000 0.803813 0.250873
O O19 0.695355 0.000000 0.252579
O O20 0.500000 0.847870 0.800997
O O21 0.274117 0.000000 0.810500
#
# Coordination Sequence:
#
# PCOD8166865 Si02
#       7
#     4   4   4   4   4   4   4
#     4   8  14  25  40  59  85 115 145 178 218 263
#     4  10  21  35  49  67  93 124 156 188 225 274
#     4   9  15  21  32  54  84 115 144 174 211 255
#     4   9  17  30  48  67  86 111 146 187 227 266
#     4   8  14  25  42  64  87 111 142 180 221 264
#     4   9  18  32  50  72  95 119 151 192 235 276
#     4   8  13  22  36  53  76 108 142 174 211 256
#
# _framework density 17.183530000000001
#
# number of rings (size 3 to 8) (size 9 to 14) (size 15 to 20)
#    0.000    3.286    0.000    2.571    0.000    4.000 
#    0.000    3.571    0.000    0.857    0.000    1.000 
#    0.000    5.714    0.000    0.000    0.000    0.000 
#
# Total GULP energy -347058.543216 kJ/mol
# GULP energy per Si atom -12394.947972 kJ/mol
# Density = 1.714442 g / cm^3
# Si number density = 17.183530 Si / 1000 Ang^3
#
#
#
# Elastic Constant Matrix: (Units=GPa)
#
#
# Indices 1 2 3 4 5 6 
#
# 1 31.5828 30.9690 47.8154 0.0000 0.0000 0.0000
# 2 30.9690 103.9152 89.0217 0.0000 0.0000 0.0000
# 3 47.8154 89.0217 179.4259 0.0000 0.0000 0.0000
# 4 0.0000 0.0000 0.0000 8.3095 0.0000 0.0000
# 5 0.0000 0.0000 0.0000 0.0000 -0.2021 0.0000
# 6 0.0000 0.0000 0.0000 0.0000 0.0000 15.2250
#
#
#
# Elastic Compliance Matrix: (Units=1/GPa)
#
#
# Indices 1 2 3 4 5 6 
#
# 1 0.055674 -0.006751 -0.011487 0.000000 0.000000 0.000000
# 2 -0.006751 0.017556 -0.006911 0.000000 0.000000 0.000000
# 3 -0.011487 -0.006911 0.012063 0.000000 0.000000 0.000000
# 4 0.000000 0.000000 0.000000 0.120344 0.000000 0.000000
# 5 0.000000 0.000000 0.000000 0.000000 -4.949239 0.000000
# 6 0.000000 0.000000 0.000000 0.000000 0.000000 0.065682
#
#
# Mechanical properties :
#
#
# Convention : Reuss Voigt Hill
#
# Bulk Modulus (GPa) = 28.57614 72.28178 50.42896
# Shear Modulus (GPa) = -1.08320 14.47435 6.69557
#
# Velocity S-wave (km/s) = -0.79482 2.90546 1.97610
# Velocity P-wave (km/s) = 3.97791 7.30831 5.88367
#
# Compressibility (1/GPa) = 0.03499422
#
# Stress axis : x y z
#
# Youngs Moduli (GPa) = 17.96178 56.96100 82.89545
#
# Poissons Ratio (x) = 0.38457 0.95221
# Poissons Ratio (y) = 0.12127 0.57290
# Poissons Ratio (z) = 0.20632 0.39366
#
# Static dielectric constant tensor:
#      x y z
#    x 2.781000 0.000000 0.000000 
#    y 0.000000 3.202310 0.000000 
#    z 0.000000 0.000000 3.547770 
# 
# 
# High freq. dielectric constant tensor:
#      x y z
#    x 1.607490 0.000000 0.000000 
#    y 0.000000 1.648180 0.000000 
#    z 0.000000 0.000000 1.680530 
# 
# From -- ./inp_files/6331.got.cif
#   From: 2010.03.12/outbox.cif.g09.slc.cpg/sg25_4_cif.got.tgz:6331.got - 2010.04.14 03:30:10.
