data_PCOD8166437
_publ_section_title
;
Structure prediction by ZEFSAII (Michael W. Deem and Ramdas Pophale) SiO2 
 PCOD8166437
Probable space group: P M M 2
;
_chemical_formula_sum "Si O2"
_cell_formula_units_Z 32
_cell_length_a 14.697925
_cell_length_b 9.143393
_cell_length_c 12.463938
_cell_angle_alpha 90.000000
_cell_angle_beta 90.000000
_cell_angle_gamma 90.000000
_cell_volume 1675.014974
_symmetry_space_group_name_H-M "P M M 2"
_symmetry_group_IT_number 25
_symmetry_cell_setting 'orthorhombic'
loop_
_space_group_symop_operation_xyz
x,y,z
-x,-y,z
-x,y,z
x,-y,z
loop_
_atom_site_type_symbol
_atom_site_label
_atom_site_fract_x
_atom_site_fract_y
_atom_site_fract_z
Si Si1 0.663711 0.664590 0.807540
Si Si2 0.720884 0.826315 0.597302
Si Si3 0.603881 0.826457 0.392361
Si Si4 0.284863 0.826007 0.190296
Si Si5 0.862871 0.336948 0.884616
Si Si6 0.900278 0.828967 0.099369
Si Si7 0.600036 0.836755 0.993818
Si Si8 0.899149 0.670792 0.647048
O O1 0.633331 0.500000 0.777440
O O2 0.672680 0.758917 0.700625
O O3 0.754846 0.664642 0.877105
O O4 0.592000 0.740190 0.886395
O O5 0.657326 0.778348 0.498823
O O6 0.823195 0.762284 0.582148
O O7 0.728122 0.000000 0.608479
O O8 0.500000 0.764205 0.392223
O O9 0.663242 0.760262 0.293705
O O10 0.599485 0.000000 0.384429
O O11 0.179205 0.772363 0.180364
O O12 0.291065 0.000000 0.197220
O O13 0.334133 0.767747 0.083261
O O14 0.899477 0.500000 0.907148
O O15 0.902227 0.278789 0.771319
O O16 0.895440 0.236325 0.980737
O O17 0.000000 0.792535 0.149168
O O18 0.886865 0.000000 0.082981
O O19 0.500000 0.843148 0.045710
O O20 0.633688 0.000000 0.962637
O O21 0.871052 0.500000 0.642175
O O22 0.000000 0.697302 0.597155
#
# Coordination Sequence:
#
# PCOD8166437 Si02
#       8
#     4   4   4   4   4   4   4   4
#     4  10  20  34  51  73 107 147 178 209 262 325
#     4  10  20  33  53  81 109 135 178 234 275 311
#     4   9  18  34  56  79 102 135 179 225 274 326
#     4   9  17  32  52  75 106 137 170 215 267 320
#     4   9  17  30  48  70  99 138 179 210 242 296
#     4  10  19  29  46  75 107 137 169 207 256 310
#     4  10  19  31  52  80 105 133 171 215 266 324
#     4   9  18  33  52  75 107 148 186 216 259 323
#
# _framework density 19.104308
#
# number of rings (size 3 to 8) (size 9 to 14) (size 15 to 20)
#    0.000    2.500    1.250    2.250    0.000    5.250 
#    0.000    1.875    0.000    6.375    0.000    0.000 
#    0.000    0.000    0.000    0.000    0.000    0.000 
#
# Total GULP energy -396588.913270 kJ/mol
# GULP energy per Si atom -12393.403540 kJ/mol
# Density = 1.906083 g / cm^3
# Si number density = 19.104308 Si / 1000 Ang^3
#
#
#
# Elastic Constant Matrix: (Units=GPa)
#
#
# Indices 1 2 3 4 5 6 
#
# 1 149.6449 33.8235 73.3407 0.0000 0.0000 0.0000
# 2 33.8235 54.9571 36.5510 0.0000 0.0000 0.0000
# 3 73.3407 36.5510 110.7709 0.0000 0.0000 0.0000
# 4 0.0000 0.0000 0.0000 7.0186 0.0000 0.0000
# 5 0.0000 0.0000 0.0000 0.0000 22.2744 0.0000
# 6 0.0000 0.0000 0.0000 0.0000 0.0000 15.9318
#
#
#
# Elastic Compliance Matrix: (Units=1/GPa)
#
#
# Indices 1 2 3 4 5 6 
#
# 1 0.010108 -0.002268 -0.005944 0.000000 0.000000 0.000000
# 2 -0.002268 0.023821 -0.006359 0.000000 0.000000 0.000000
# 3 -0.005944 -0.006359 0.015062 0.000000 0.000000 0.000000
# 4 0.000000 0.000000 0.000000 0.142478 0.000000 0.000000
# 5 0.000000 0.000000 0.000000 0.000000 0.044895 0.000000
# 6 0.000000 0.000000 0.000000 0.000000 0.000000 0.062767
#
#
# Mechanical properties :
#
#
# Convention : Reuss Voigt Hill
#
# Bulk Modulus (GPa) = 50.38021 66.97816 58.67918
# Shear Modulus (GPa) = 14.93035 20.48883 17.70959
#
# Velocity S-wave (km/s) = 2.79860 3.27841 3.04796
# Velocity P-wave (km/s) = 6.07217 7.03320 6.57028
#
# Compressibility (1/GPa) = 0.01984906
#
# Stress axis : x y z
#
# Youngs Moduli (GPa) = 98.92758 41.98030 66.39411
#
# Poissons Ratio (x) = 0.09520 0.39468
# Poissons Ratio (y) = 0.22434 0.42218
# Poissons Ratio (z) = 0.58807 0.26694
#
# Static dielectric constant tensor:
#      x y z
#    x 3.831560 0.000000 0.000000 
#    y 0.000000 3.241020 0.000000 
#    z 0.000000 0.000000 3.321910 
# 
# 
# High freq. dielectric constant tensor:
#      x y z
#    x 1.759170 0.000000 0.000000 
#    y 0.000000 1.710110 0.000000 
#    z 0.000000 0.000000 1.718620 
# 
# From -- ./inp_files/4914.got.cif
#   From: 2010.03.12/outbox.cif.g09.slc.cpg/sg25_3_cif.got.tgz:4914.got - 2010.04.14 03:30:10.
