data_PCOD8166477
_publ_section_title
;
Structure prediction by ZEFSAII (Michael W. Deem and Ramdas Pophale) SiO2 
 PCOD8166477
Probable space group: P M M 2
;
_chemical_formula_sum "Si O2"
_cell_formula_units_Z 20
_cell_length_a 8.810686
_cell_length_b 13.780385
_cell_length_c 10.287119
_cell_angle_alpha 90.000000
_cell_angle_beta 90.000000
_cell_angle_gamma 90.000000
_cell_volume 1249.006903
_symmetry_space_group_name_H-M "P M M 2"
_symmetry_group_IT_number 25
_symmetry_cell_setting 'orthorhombic'
loop_
_space_group_symop_operation_xyz
x,y,z
-x,-y,z
-x,y,z
x,-y,z
loop_
_atom_site_type_symbol
_atom_site_label
_atom_site_fract_x
_atom_site_fract_y
_atom_site_fract_z
Si Si1 0.677855 0.779773 0.214930
Si Si2 0.172292 0.789479 0.472524
Si Si3 0.172846 0.608482 0.323998
Si Si4 0.175723 0.887095 0.979318
Si Si5 0.676071 0.111409 0.710473
O O1 0.500000 0.790730 0.233353
O O2 0.761178 0.833590 0.336890
O O3 0.726265 0.665360 0.215980
O O4 0.726631 0.826835 0.080662
O O5 0.179544 0.671359 0.458530
O O6 0.275109 0.821123 0.591881
O O7 0.000000 0.826437 0.492021
O O8 0.236673 0.500000 0.347535
O O9 0.000000 0.604640 0.273139
O O10 0.000000 0.861195 0.995930
O O11 0.208390 0.000000 0.003180
O O12 0.228176 0.856772 0.835719
O O13 0.500000 0.127849 0.741021
O O14 0.710152 0.000000 0.673426
#
# Coordination Sequence:
#
# PCOD8166477 Si02
#       5
#     4   4   4   4   4
#     4  10  19  31  49  75 101 127 161 204 247 286
#     4   9  18  32  50  73  97 128 165 201 240 287
#     4   8  16  32  52  73  97 126 161 200 244 292
#     4  10  20  34  51  70  96 133 170 201 239 290
#     4  10  20  33  49  71 100 132 163 200 246 289
#
# _framework density 16.012722
#
# number of rings (size 3 to 8) (size 9 to 14) (size 15 to 20)
#    1.200    1.400    0.000    3.000    0.000    3.600 
#    0.000    0.000    0.000    1.200    0.000    2.800 
#    0.000    0.000    0.000    0.000    0.000    0.000 
#
# Total GULP energy -247834.219646 kJ/mol
# GULP energy per Si atom -12391.710982 kJ/mol
# Density = 1.597628 g / cm^3
# Si number density = 16.012722 Si / 1000 Ang^3
#
#
#
# Elastic Constant Matrix: (Units=GPa)
#
#
# Indices 1 2 3 4 5 6 
#
# 1 77.4817 27.3911 23.7415 0.0000 0.0000 0.0000
# 2 27.3911 64.9684 41.2029 0.0000 0.0000 0.0000
# 3 23.7415 41.2029 81.4804 0.0000 0.0000 0.0000
# 4 0.0000 0.0000 0.0000 -5.0932 0.0000 0.0000
# 5 0.0000 0.0000 0.0000 0.0000 32.9249 0.0000
# 6 0.0000 0.0000 0.0000 0.0000 0.0000 17.6194
#
#
#
# Elastic Compliance Matrix: (Units=1/GPa)
#
#
# Indices 1 2 3 4 5 6 
#
# 1 0.015337 -0.005347 -0.001765 0.000000 0.000000 0.000000
# 2 -0.005347 0.024523 -0.010843 0.000000 0.000000 0.000000
# 3 -0.001765 -0.010843 0.018270 0.000000 0.000000 0.000000
# 4 0.000000 0.000000 0.000000 -0.196340 0.000000 0.000000
# 5 0.000000 0.000000 0.000000 0.000000 0.030372 0.000000
# 6 0.000000 0.000000 0.000000 0.000000 0.000000 0.056755
#
#
# Mechanical properties :
#
#
# Convention : Reuss Voigt Hill
#
# Bulk Modulus (GPa) = 45.00280 45.40018 45.20149
# Shear Modulus (GPa) = -643.85011 17.86322 -312.99344
#
# Velocity S-wave (km/s) = -20.07385 3.34363 -13.99606
# Velocity P-wave (km/s) = 22.56355 6.58184 15.26095
#
# Compressibility (1/GPa) = 0.02222084
#
# Stress axis : x y z
#
# Youngs Moduli (GPa) = 65.20029 40.77835 54.73416
#
# Poissons Ratio (x) = 0.21804 0.09661
# Poissons Ratio (y) = 0.34862 0.59347
# Poissons Ratio (z) = 0.11509 0.44215
#
# Static dielectric constant tensor:
#      x y z
#    x 3.118070 0.000000 0.000000 
#    y 0.000000 2.913690 0.000000 
#    z 0.000000 0.000000 2.841260 
# 
# 
# High freq. dielectric constant tensor:
#      x y z
#    x 1.630940 0.000000 0.000000 
#    y 0.000000 1.591550 0.000000 
#    z 0.000000 0.000000 1.599890 
# 
# From -- ./inp_files/1839.got.cif
#   From: 2010.03.12/outbox.cif.g09.slc.cpg/sg25_1_cif.got.tgz:1839.got - 2010.04.14 03:30:10.
