data_PCOD8166983
_publ_section_title
;
Structure prediction by ZEFSAII (Michael W. Deem and Ramdas Pophale) SiO2 
 PCOD8166983
Probable space group: P M M 2
;
_chemical_formula_sum "Si O2"
_cell_formula_units_Z 20
_cell_length_a 14.250031
_cell_length_b 8.956397
_cell_length_c 7.779637
_cell_angle_alpha 90.000000
_cell_angle_beta 90.000000
_cell_angle_gamma 90.000000
_cell_volume 992.906784
_symmetry_space_group_name_H-M "P M M 2"
_symmetry_group_IT_number 25
_symmetry_cell_setting 'orthorhombic'
loop_
_space_group_symop_operation_xyz
x,y,z
-x,-y,z
-x,y,z
x,-y,z
loop_
_atom_site_type_symbol
_atom_site_label
_atom_site_fract_x
_atom_site_fract_y
_atom_site_fract_z
Si Si1 0.296180 0.677001 0.556480
Si Si2 0.898334 0.322846 0.413684
Si Si3 0.282516 0.824314 0.899941
Si Si4 0.609223 0.828166 0.239936
Si Si5 0.106071 0.672872 0.023871
O O1 0.301760 0.500000 0.569541
O O2 0.188989 0.734672 0.525659
O O3 0.331596 0.749237 0.734191
O O4 0.362210 0.728998 0.402034
O O5 0.899990 0.500000 0.412167
O O6 0.884782 0.267986 0.218466
O O7 0.000000 0.264290 0.483786
O O8 0.288298 0.000000 0.876831
O O9 0.336617 0.770814 0.070693
O O10 0.174797 0.770504 0.906885
O O11 0.500000 0.806799 0.203484
O O12 0.634460 0.000000 0.279027
O O13 0.135773 0.500000 0.008348
O O14 0.000000 0.694689 0.956270
#
# Coordination Sequence:
#
# PCOD8166983 Si02
#       5
#     4   4   4   4   4
#     4  11  22  37  62  92 121 152 195 246 294 347
#     4   8  15  30  54  83 115 152 192 234 284 341
#     4  11  23  38  59  88 123 159 197 239 292 357
#     4  10  23  44  65  83 111 154 198 243 300 360
#     4   9  17  33  58  85 116 157 201 243 290 344
#
# _framework density 20.142876999999999
#
# number of rings (size 3 to 8) (size 9 to 14) (size 15 to 20)
#    0.000    2.200    2.000    2.400    0.000    3.200 
#    0.000    4.000    0.000    1.800    0.000    0.000 
#    0.000    0.000    0.000    0.000    0.000    0.000 
#
# Total GULP energy -247983.829709 kJ/mol
# GULP energy per Si atom -12399.191485 kJ/mol
# Density = 2.009703 g / cm^3
# Si number density = 20.142877 Si / 1000 Ang^3
#
#
#
# Elastic Constant Matrix: (Units=GPa)
#
#
# Indices 1 2 3 4 5 6 
#
# 1 85.4255 32.6331 39.3759 0.0000 0.0000 0.0000
# 2 32.6331 67.2160 48.7489 0.0000 0.0000 0.0000
# 3 39.3759 48.7489 130.8595 0.0000 0.0000 0.0000
# 4 0.0000 0.0000 0.0000 33.1251 0.0000 0.0000
# 5 0.0000 0.0000 0.0000 0.0000 13.2664 0.0000
# 6 0.0000 0.0000 0.0000 0.0000 0.0000 28.3469
#
#
#
# Elastic Compliance Matrix: (Units=1/GPa)
#
#
# Indices 1 2 3 4 5 6 
#
# 1 0.014926 -0.005466 -0.002455 0.000000 0.000000 0.000000
# 2 -0.005466 0.022387 -0.006695 0.000000 0.000000 0.000000
# 3 -0.002455 -0.006695 0.010875 0.000000 0.000000 0.000000
# 4 0.000000 0.000000 0.000000 0.030189 0.000000 0.000000
# 5 0.000000 0.000000 0.000000 0.000000 0.075378 0.000000
# 6 0.000000 0.000000 0.000000 0.000000 0.000000 0.035277
#
#
# Mechanical properties :
#
#
# Convention : Reuss Voigt Hill
#
# Bulk Modulus (GPa) = 52.75584 58.33520 55.54552
# Shear Modulus (GPa) = 22.26368 25.79722 24.03045
#
# Velocity S-wave (km/s) = 3.32819 3.58259 3.45773
# Velocity P-wave (km/s) = 6.40444 6.79241 6.60127
#
# Compressibility (1/GPa) = 0.01895525
#
# Stress axis : x y z
#
# Youngs Moduli (GPa) = 66.99856 44.66952 91.95774
#
# Poissons Ratio (x) = 0.24416 0.22575
# Poissons Ratio (y) = 0.36621 0.61565
# Poissons Ratio (z) = 0.16448 0.29906
#
# Static dielectric constant tensor:
#      x y z
#    x 3.869650 0.000000 0.000000 
#    y 0.000000 3.353200 0.000000 
#    z 0.000000 0.000000 3.684630 
# 
# 
# High freq. dielectric constant tensor:
#      x y z
#    x 1.785980 0.000000 0.000000 
#    y 0.000000 1.759420 0.000000 
#    z 0.000000 0.000000 1.789020 
# 
# From -- ./inp_files/1771.got.cif
#   From: 2010.03.12/outbox.cif.g09.slc.cpg/sg25_1_cif.got.tgz:1771.got - 2010.04.14 03:30:10.
