data_PCOD8166184
_publ_section_title
;
Structure prediction by ZEFSAII (Michael W. Deem and Ramdas Pophale) SiO2 
 PCOD8166184
Probable space group: I 21 21 21
;
_chemical_formula_sum "Si O2"
_cell_formula_units_Z 40
_cell_length_a 13.352056
_cell_length_b 9.382841
_cell_length_c 13.298738
_cell_angle_alpha 90.000000
_cell_angle_beta 90.000000
_cell_angle_gamma 90.000000
_cell_volume 1666.068802
_symmetry_space_group_name_H-M "I 21 21 21"
_symmetry_group_IT_number 24
_symmetry_cell_setting 'orthorhombic'
loop_
_space_group_symop_operation_xyz
x,y,z
-x,1/2-y,z
x,-y,1/2-z
1/2-x,y,-z
1/2+x,1/2+y,1/2+z
1/2-x,-y,1/2+z
1/2+x,1/2-y,-z
-x,1/2+y,1/2-z
loop_
_atom_site_type_symbol
_atom_site_label
_atom_site_fract_x
_atom_site_fract_y
_atom_site_fract_z
Si Si1 0.691572 0.720435 0.706625
Si Si2 0.844937 0.047548 0.067161
Si Si3 0.087305 0.140329 0.809923
Si Si4 0.346465 0.785741 0.932709
Si Si5 0.065919 0.932751 0.468275
O O1 0.677375 0.888075 0.677790
O O2 0.807848 0.697073 0.728922
O O3 0.648844 0.681621 0.814372
O O4 0.637684 0.623535 0.621622
O O5 0.950299 0.121599 0.035590
O O6 0.865382 0.881292 0.057448
O O7 0.750000 0.095617 0.000000
O O8 0.000000 0.250000 0.785589
O O9 0.055171 0.000000 0.750000
O O10 0.108916 0.119442 0.927103
O O11 0.433000 0.892968 0.970568
O O12 0.250000 0.827025 0.000000
#
# Coordination Sequence:
#
# PCOD8166184 Si02
#       5
#     8   8   8   8   8
#     4  12  24  44  70 100 138 184 241 303 375 457
#     4  11  25  43  67 101 140 184 238 306 377 454
#     4  12  27  46  72 104 141 192 246 310 389 472
#     4  11  25  43  67 101 140 184 238 306 377 454
#     4  12  24  44  70 100 138 184 241 303 375 457
#
# _framework density 24.008610999999998
#
# number of rings (size 3 to 8) (size 9 to 14) (size 15 to 20)
#    0.000    0.400    0.000   10.200    0.000   11.200 
#    0.000    0.000    0.000    0.000    0.000    0.000 
#    0.000    0.000    0.000    0.000    0.000    0.000 
#
# Total GULP energy -247791.780541 kJ/mol
# GULP energy per Si atom -12389.589027 kJ/mol
# Density = 2.395397 g / cm^3
# Si number density = 24.008611 Si / 1000 Ang^3
#
#
#
# Elastic Constant Matrix: (Units=GPa)
#
#
# Indices 1 2 3 4 5 6 
#
# 1 138.4591 19.0360 9.5134 0.0000 0.0000 0.0000
# 2 19.0360 63.6265 -3.2338 0.0000 0.0000 0.0000
# 3 9.5134 -3.2338 92.5181 0.0000 0.0000 0.0000
# 4 0.0000 0.0000 0.0000 41.6266 0.0000 0.0000
# 5 0.0000 0.0000 0.0000 0.0000 20.7580 0.0000
# 6 0.0000 0.0000 0.0000 0.0000 0.0000 31.3938
#
#
#
# Elastic Compliance Matrix: (Units=1/GPa)
#
#
# Indices 1 2 3 4 5 6 
#
# 1 0.007600 -0.002318 -0.000863 0.000000 0.000000 0.000000
# 2 -0.002318 0.016451 0.000813 0.000000 0.000000 0.000000
# 3 -0.000863 0.000813 0.010926 0.000000 0.000000 0.000000
# 4 0.000000 0.000000 0.000000 0.024023 0.000000 0.000000
# 5 0.000000 0.000000 0.000000 0.000000 0.048174 0.000000
# 6 0.000000 0.000000 0.000000 0.000000 0.000000 0.031853
#
#
# Mechanical properties :
#
#
# Convention : Reuss Voigt Hill
#
# Bulk Modulus (GPa) = 33.06463 38.35944 35.71203
# Shear Modulus (GPa) = 32.50061 36.70822 34.60441
#
# Velocity S-wave (km/s) = 3.68327 3.91443 3.80061
# Velocity P-wave (km/s) = 5.64717 6.03676 5.84521
#
# Compressibility (1/GPa) = 0.03024380
#
# Stress axis : x y z
#
# Youngs Moduli (GPa) = 131.57442 60.78475 91.52635
#
# Poissons Ratio (x) = 0.14088 0.07894
# Poissons Ratio (y) = 0.30495 -0.07444
# Poissons Ratio (z) = 0.11349 -0.04944
#
# Static dielectric constant tensor:
#      x y z
#    x 4.256540 0.000000 0.000000 
#    y 0.000000 4.570750 0.000000 
#    z 0.000000 0.000000 4.315400 
# 
# 
# High freq. dielectric constant tensor:
#      x y z
#    x 1.959450 0.000000 0.000000 
#    y 0.000000 1.977200 0.000000 
#    z 0.000000 0.000000 1.950200 
# 
# From -- ./inp_files/21339.got.cif
#   From: 2010.03.12/outbox.cif.g09.slc.cpg/sg24_11_cif.got.tgz:21339.got - 2010.04.14 03:06:53.
