data_PCOD8166429
_publ_section_title
;
Structure prediction by ZEFSAII (Michael W. Deem and Ramdas Pophale) SiO2 
 PCOD8166429
Probable space group: P M M 2
;
_chemical_formula_sum "Si O2"
_cell_formula_units_Z 32
_cell_length_a 9.180134
_cell_length_b 15.193093
_cell_length_c 15.070748
_cell_angle_alpha 90.000000
_cell_angle_beta 90.000000
_cell_angle_gamma 90.000000
_cell_volume 2101.986995
_symmetry_space_group_name_H-M "P M M 2"
_symmetry_group_IT_number 25
_symmetry_cell_setting 'orthorhombic'
loop_
_space_group_symop_operation_xyz
x,y,z
-x,-y,z
-x,y,z
x,-y,z
loop_
_atom_site_type_symbol
_atom_site_label
_atom_site_fract_x
_atom_site_fract_y
_atom_site_fract_z
Si Si1 0.169716 0.899072 0.522380
Si Si2 0.830822 0.762551 0.668659
Si Si3 0.336309 0.595479 0.664375
Si Si4 0.172073 0.768260 0.872725
Si Si5 0.164657 0.104618 0.178191
Si Si6 0.670024 0.103409 0.002149
Si Si7 0.664313 0.402774 0.875140
Si Si8 0.335308 0.104835 0.348623
O O1 0.216485 0.845760 0.609833
O O2 0.259679 0.862269 0.438852
O O3 0.000000 0.887592 0.499894
O O4 0.208788 0.000000 0.542386
O O5 0.759057 0.675179 0.626767
O O6 0.783767 0.780094 0.769801
O O7 0.000000 0.744832 0.663565
O O8 0.500000 0.609066 0.630156
O O9 0.277390 0.500000 0.631071
O O10 0.331255 0.596538 0.769859
O O11 0.227899 0.673731 0.910055
O O12 0.000000 0.774949 0.888492
O O13 0.253217 0.847351 0.921351
O O14 0.254810 0.136081 0.092728
O O15 0.245055 0.142748 0.265210
O O16 0.000000 0.142009 0.173634
O O17 0.161283 0.000000 0.182595
O O18 0.500000 0.127258 0.006414
O O19 0.694259 0.000000 0.987254
O O20 0.500000 0.382623 0.908051
O O21 0.713574 0.500000 0.910007
O O22 0.500000 0.141100 0.344586
O O23 0.334230 0.000000 0.345347
#
# Coordination Sequence:
#
# PCOD8166429 Si02
#       8
#     4   4   4   4   4   4   4   4
#     4   9  17  29  42  56  79 112 146 176 206 242
#     4   9  18  29  41  59  82 111 145 178 210 243
#     4   8  14  25  41  59  78 102 132 168 212 256
#     4  10  19  29  42  61  85 113 145 180 215 251
#     4   9  16  27  44  63  81 103 132 168 212 256
#     4  10  20  32  44  59  82 113 147 180 211 246
#     4   8  14  26  43  60  79 105 136 171 213 257
#     4   9  16  26  41  61  82 103 131 169 211 251
#
# _framework density 15.223691000000001
#
# number of rings (size 3 to 8) (size 9 to 14) (size 15 to 20)
#    0.000    3.000    0.000    2.250    0.000    5.750 
#    0.000    3.750    0.000    1.500    0.000    0.000 
#    0.000    1.000    0.000    7.250    0.000    6.500 
#
# Total GULP energy -396655.422261 kJ/mol
# GULP energy per Si atom -12395.481946 kJ/mol
# Density = 1.518904 g / cm^3
# Si number density = 15.223691 Si / 1000 Ang^3
#
#
#
# Elastic Constant Matrix: (Units=GPa)
#
#
# Indices 1 2 3 4 5 6 
#
# 1 96.0921 46.2019 53.0896 0.0000 0.0000 0.0000
# 2 46.2019 72.4160 45.8622 0.0000 0.0000 0.0000
# 3 53.0896 45.8622 81.3888 0.0000 0.0000 0.0000
# 4 0.0000 0.0000 0.0000 1.3328 0.0000 0.0000
# 5 0.0000 0.0000 0.0000 0.0000 22.5812 0.0000
# 6 0.0000 0.0000 0.0000 0.0000 0.0000 24.5824
#
#
#
# Elastic Compliance Matrix: (Units=1/GPa)
#
#
# Indices 1 2 3 4 5 6 
#
# 1 0.017932 -0.006271 -0.008163 0.000000 0.000000 0.000000
# 2 -0.006271 0.023664 -0.009245 0.000000 0.000000 0.000000
# 3 -0.008163 -0.009245 0.022821 0.000000 0.000000 0.000000
# 4 0.000000 0.000000 0.000000 0.750324 0.000000 0.000000
# 5 0.000000 0.000000 0.000000 0.000000 0.044285 0.000000
# 6 0.000000 0.000000 0.000000 0.000000 0.000000 0.040679
#
#
# Mechanical properties :
#
#
# Convention : Reuss Voigt Hill
#
# Bulk Modulus (GPa) = 58.61618 60.02270 59.31944
# Shear Modulus (GPa) = 5.24797 16.68216 10.96507
#
# Velocity S-wave (km/s) = 1.85869 3.31388 2.68668
# Velocity P-wave (km/s) = 6.57215 7.35902 6.97669
#
# Compressibility (1/GPa) = 0.01706014
#
# Stress axis : x y z
#
# Youngs Moduli (GPa) = 55.76676 42.25740 43.81947
#
# Poissons Ratio (x) = 0.26498 0.35772
# Poissons Ratio (y) = 0.34969 0.40509
# Poissons Ratio (z) = 0.45525 0.39065
#
# Static dielectric constant tensor:
#      x y z
#    x 3.077380 0.000000 0.000000 
#    y 0.000000 2.950900 0.000000 
#    z 0.000000 0.000000 2.805410 
# 
# 
# High freq. dielectric constant tensor:
#      x y z
#    x 1.594290 0.000000 0.000000 
#    y 0.000000 1.555630 0.000000 
#    z 0.000000 0.000000 1.554630 
# 
# From -- ./inp_files/5720.got.cif
#   From: 2010.03.12/outbox.cif.g09.slc.cpg/sg25_3_cif.got.tgz:5720.got - 2010.04.14 03:30:10.
