data_PCOD8166736
_publ_section_title
;
Structure prediction by ZEFSAII (Michael W. Deem and Ramdas Pophale) SiO2 
 PCOD8166736
Probable space group: P M M 2
;
_chemical_formula_sum "Si O2"
_cell_formula_units_Z 24
_cell_length_a 9.013444
_cell_length_b 11.654750
_cell_length_c 12.595937
_cell_angle_alpha 90.000000
_cell_angle_beta 90.000000
_cell_angle_gamma 90.000000
_cell_volume 1323.196084
_symmetry_space_group_name_H-M "P M M 2"
_symmetry_group_IT_number 25
_symmetry_cell_setting 'orthorhombic'
loop_
_space_group_symop_operation_xyz
x,y,z
-x,-y,z
-x,y,z
x,-y,z
loop_
_atom_site_type_symbol
_atom_site_label
_atom_site_fract_x
_atom_site_fract_y
_atom_site_fract_z
Si Si1 0.174653 0.500000 0.389791
Si Si2 0.670021 0.500000 0.614298
Si Si3 0.831144 0.134452 0.513986
Si Si4 0.826356 0.868219 0.891616
Si Si5 0.674509 0.130929 0.110188
Si Si6 0.172549 0.259549 0.297770
Si Si7 0.672223 0.256078 0.701196
O O1 0.235391 0.500000 0.508153
O O2 0.226744 0.387980 0.325421
O O3 0.000000 0.500000 0.403883
O O4 0.500000 0.500000 0.577498
O O5 0.706523 0.390330 0.686660
O O6 0.794130 0.177782 0.396793
O O7 0.717204 0.191213 0.594344
O O8 0.000000 0.167268 0.545559
O O9 0.806186 0.000000 0.516753
O O10 0.768531 0.787494 0.798808
O O11 0.000000 0.848927 0.906120
O O12 0.789707 0.000000 0.862230
O O13 0.747263 0.831316 0.999817
O O14 0.500000 0.144558 0.098764
O O15 0.731897 0.215931 0.199918
O O16 0.719502 0.000000 0.138221
O O17 0.000000 0.256564 0.266392
O O18 0.500000 0.232089 0.723987
#
# Coordination Sequence:
#
# PCOD8166736 Si02
#       7
#     2   2   4   4   4   4   4
#     4  10  20  36  59  82 107 146 193 233 269 321
#     4  10  22  38  55  78 111 150 187 227 277 327
#     4  10  20  33  52  80 112 144 180 225 276 329
#     4  10  21  38  60  84 111 144 182 227 279 332
#     4  10  21  37  58  84 113 146 184 226 275 332
#     4  10  20  35  56  82 111 145 186 230 275 324
#     4  11  22  36  55  80 111 146 185 228 275 329
#
# _framework density 18.137902
#
# number of rings (size 3 to 8) (size 9 to 14) (size 15 to 20)
#    0.000    1.833    1.667    2.500    0.000    7.000 
#    0.000    0.833    0.000    0.000    0.000    0.000 
#    0.000    0.000    0.000    0.000    0.000    0.000 
#
# Total GULP energy -297707.206929 kJ/mol
# GULP energy per Si atom -12404.466955 kJ/mol
# Density = 1.809662 g / cm^3
# Si number density = 18.137902 Si / 1000 Ang^3
#
#
#
# Elastic Constant Matrix: (Units=GPa)
#
#
# Indices 1 2 3 4 5 6 
#
# 1 60.3665 28.9915 36.9457 0.0000 0.0000 0.0000
# 2 28.9915 86.1219 37.3166 0.0000 0.0000 0.0000
# 3 36.9457 37.3166 80.8824 0.0000 0.0000 0.0000
# 4 0.0000 0.0000 0.0000 -391.4864 0.0000 0.0000
# 5 0.0000 0.0000 0.0000 0.0000 -43.9281 0.0000
# 6 0.0000 0.0000 0.0000 0.0000 0.0000 25.9813
#
#
#
# Elastic Compliance Matrix: (Units=1/GPa)
#
#
# Indices 1 2 3 4 5 6 
#
# 1 0.024143 -0.004186 -0.009097 0.000000 0.000000 0.000000
# 2 -0.004186 0.015238 -0.005119 0.000000 0.000000 0.000000
# 3 -0.009097 -0.005119 0.018881 0.000000 0.000000 0.000000
# 4 0.000000 0.000000 0.000000 -0.002554 0.000000 0.000000
# 5 0.000000 0.000000 0.000000 0.000000 -0.022764 0.000000
# 6 0.000000 0.000000 0.000000 0.000000 0.000000 0.038489
#
#
# Mechanical properties :
#
#
# Convention : Reuss Voigt Hill
#
# Bulk Modulus (GPa) = 46.59927 48.20872 47.40399
# Shear Modulus (GPa) = 43.33189 -73.61215 -15.14013
#
# Velocity S-wave (km/s) = 4.89307 -6.37752 -2.89229
# Velocity P-wave (km/s) = 7.59409 5.25297 3.87792
#
# Compressibility (1/GPa) = 0.02145956
#
# Stress axis : x y z
#
# Youngs Moduli (GPa) = 41.41931 65.62392 52.96455
#
# Poissons Ratio (x) = 0.27468 0.48182
# Poissons Ratio (y) = 0.17337 0.27110
# Poissons Ratio (z) = 0.37680 0.33590
#
# Static dielectric constant tensor:
#      x y z
#    x 3.397930 0.000000 0.000000 
#    y 0.000000 3.862180 0.000000 
#    z 0.000000 0.000000 3.294840 
# 
# 
# High freq. dielectric constant tensor:
#      x y z
#    x 1.707890 0.000000 0.000000 
#    y 0.000000 1.706420 0.000000 
#    z 0.000000 0.000000 1.702930 
# 
# From -- ./inp_files/3944.got.cif
#   From: 2010.03.12/outbox.cif.g09.slc.cpg/sg25_2_cif.got.tgz:3944.got - 2010.04.14 03:30:10.
