data_PCOD8166314
_publ_section_title
;
Structure prediction by ZEFSAII (Michael W. Deem and Ramdas Pophale) SiO2 
 PCOD8166314
Probable space group: P M M 2
;
_chemical_formula_sum "Si O2"
_cell_formula_units_Z 32
_cell_length_a 9.161041
_cell_length_b 18.447483
_cell_length_c 12.831511
_cell_angle_alpha 90.000000
_cell_angle_beta 90.000000
_cell_angle_gamma 90.000000
_cell_volume 2168.501596
_symmetry_space_group_name_H-M "P M M 2"
_symmetry_group_IT_number 25
_symmetry_cell_setting 'orthorhombic'
loop_
_space_group_symop_operation_xyz
x,y,z
-x,-y,z
-x,y,z
x,-y,z
loop_
_atom_site_type_symbol
_atom_site_label
_atom_site_fract_x
_atom_site_fract_y
_atom_site_fract_z
Si Si1 0.161360 0.196204 0.616220
Si Si2 0.327215 0.419914 0.121335
Si Si3 0.667576 0.585071 0.887508
Si Si4 0.837659 0.191747 0.385841
Si Si5 0.327471 0.676804 0.309314
Si Si6 0.671277 0.916439 0.507782
Si Si7 0.668508 0.416285 0.509590
Si Si8 0.827023 0.345641 0.700164
O O1 0.150875 0.229854 0.499360
O O2 0.269958 0.126539 0.611226
O O3 0.221362 0.261270 0.687907
O O4 0.000000 0.170445 0.653037
O O5 0.500000 0.425601 0.131658
O O6 0.260829 0.500000 0.142326
O O7 0.266969 0.363903 0.206735
O O8 0.286058 0.393705 0.005136
O O9 0.500000 0.606504 0.865742
O O10 0.689810 0.500000 0.868757
O O11 0.772342 0.629568 0.812372
O O12 0.750656 0.245148 0.309518
O O13 0.749477 0.115883 0.403620
O O14 0.000000 0.175896 0.340890
O O15 0.500000 0.689567 0.304847
O O16 0.282539 0.629891 0.409638
O O17 0.500000 0.904254 0.497444
O O18 0.713564 0.000000 0.519643
O O19 0.500000 0.401479 0.536162
O O20 0.695991 0.500000 0.482130
O O21 0.759761 0.395724 0.611004
O O22 0.000000 0.352787 0.693578
#
# Coordination Sequence:
#
# PCOD8166314 Si02
#       8
#     4   4   4   4   4   4   4   4
#     4   8  17  29  40  56  83 116 141 164 200 247
#     4   8  15  29  47  64  81 105 142 187 230 266
#     4   9  18  32  47  61  79 107 145 187 228 266
#     4   9  17  28  40  57  85 117 141 163 198 246
#     4  10  17  27  45  63  81 107 140 178 216 254
#     4   9  16  26  42  64  88 113 142 173 200 235
#     4  10  19  27  37  57  81 105 136 171 210 257
#     4  11  20  30  42  58  82 111 143 177 212 251
#
# _framework density 14.756734
#
# number of rings (size 3 to 8) (size 9 to 14) (size 15 to 20)
#    0.750    2.000    1.250    2.250    0.000    5.500 
#    0.000    0.625    0.000    1.875    0.000    0.000 
#    0.000    1.000    0.000    9.000    0.000    5.750 
#
# Total GULP energy -396522.223347 kJ/mol
# GULP energy per Si atom -12391.319480 kJ/mol
# Density = 1.472315 g / cm^3
# Si number density = 14.756734 Si / 1000 Ang^3
#
#
#
# Elastic Constant Matrix: (Units=GPa)
#
#
# Indices 1 2 3 4 5 6 
#
# 1 60.6982 45.8254 26.7234 0.0000 0.0000 0.0000
# 2 45.8254 94.7270 37.5878 0.0000 0.0000 0.0000
# 3 26.7234 37.5878 70.9621 0.0000 0.0000 0.0000
# 4 0.0000 0.0000 0.0000 16.7638 0.0000 0.0000
# 5 0.0000 0.0000 0.0000 0.0000 11.6431 0.0000
# 6 0.0000 0.0000 0.0000 0.0000 0.0000 19.3292
#
#
#
# Elastic Compliance Matrix: (Units=1/GPa)
#
#
# Indices 1 2 3 4 5 6 
#
# 1 0.026861 -0.011370 -0.004093 0.000000 0.000000 0.000000
# 2 -0.011370 0.018179 -0.005347 0.000000 0.000000 0.000000
# 3 -0.004093 -0.005347 0.018466 0.000000 0.000000 0.000000
# 4 0.000000 0.000000 0.000000 0.059653 0.000000 0.000000
# 5 0.000000 0.000000 0.000000 0.000000 0.085888 0.000000
# 6 0.000000 0.000000 0.000000 0.000000 0.000000 0.051735
#
#
# Mechanical properties :
#
#
# Convention : Reuss Voigt Hill
#
# Bulk Modulus (GPa) = 45.69343 49.62895 47.66119
# Shear Modulus (GPa) = 16.14478 17.29725 16.72102
#
# Velocity S-wave (km/s) = 3.31125 3.42740 3.36982
# Velocity P-wave (km/s) = 6.75654 7.02617 6.89268
#
# Compressibility (1/GPa) = 0.02188498
#
# Stress axis : x y z
#
# Youngs Moduli (GPa) = 37.22834 55.00834 54.15439
#
# Poissons Ratio (x) = 0.62547 0.22164
# Poissons Ratio (y) = 0.42330 0.28958
# Poissons Ratio (z) = 0.15237 0.29415
#
# Static dielectric constant tensor:
#      x y z
#    x 2.774250 0.000000 0.000000 
#    y 0.000000 2.746430 0.000000 
#    z 0.000000 0.000000 2.730230 
# 
# 
# High freq. dielectric constant tensor:
#      x y z
#    x 1.561210 0.000000 0.000000 
#    y 0.000000 1.549470 0.000000 
#    z 0.000000 0.000000 1.533430 
# 
# From -- ./inp_files/4493.got.cif
#   From: 2010.03.12/outbox.cif.g09.slc.cpg/sg25_3_cif.got.tgz:4493.got - 2010.04.14 03:30:10.
