data_PCOD8166291
_publ_section_title
;
Structure prediction by ZEFSAII (Michael W. Deem and Ramdas Pophale) SiO2 
 PCOD8166291
Probable space group: I 21 21 21
;
_chemical_formula_sum "Si O2"
_cell_formula_units_Z 20
_cell_length_a 5.239297
_cell_length_b 8.647353
_cell_length_c 16.202911
_cell_angle_alpha 90.000000
_cell_angle_beta 90.000000
_cell_angle_gamma 90.000000
_cell_volume 734.089906
_symmetry_space_group_name_H-M "I 21 21 21"
_symmetry_group_IT_number 24
_symmetry_cell_setting 'orthorhombic'
loop_
_space_group_symop_operation_xyz
x,y,z
-x,1/2-y,z
x,-y,1/2-z
1/2-x,y,-z
1/2+x,1/2+y,1/2+z
1/2-x,-y,1/2+z
1/2+x,1/2-y,-z
-x,1/2+y,1/2-z
loop_
_atom_site_type_symbol
_atom_site_label
_atom_site_fract_x
_atom_site_fract_y
_atom_site_fract_z
Si Si1 0.500000 0.250000 0.859757
Si Si2 0.750000 0.418882 0.500000
Si Si3 0.750000 0.878667 0.500000
Si Si4 0.500000 0.750000 0.141781
Si Si5 0.800081 0.000000 0.250000
O O1 0.249394 0.264205 0.919847
O O2 0.498678 0.096580 0.804575
O O3 0.496684 0.518004 0.509748
O O4 0.723888 0.314948 0.417655
O O5 0.380598 0.614781 0.198056
#
# Coordination Sequence:
#
# PCOD8166291 Si02
#       5
#     4   4   4   4   4
#     4  12  30  58  84 140 182 250 310 390 478 554
#     4  12  28  56  90 134 174 260 304 386 452 592
#     4  12  28  56  94 126 184 248 316 378 456 586
#     4  12  30  56  92 140 190 250 322 388 492 556
#     4  12  32  52  92 142 192 242 312 418 474 562
#
# _framework density 27.244617000000002
#
# number of rings (size 3 to 8) (size 9 to 14) (size 15 to 20)
#    0.000    0.000    4.000    2.400   11.200    1.600 
#    0.000    0.000    0.000    0.000    0.000    0.000 
#    0.000    0.000    0.000    0.000    0.000    0.000 
#
# Total GULP energy -123902.088403 kJ/mol
# GULP energy per Si atom -12390.208840 kJ/mol
# Density = 2.718261 g / cm^3
# Si number density = 27.244617 Si / 1000 Ang^3
#
#
#
# Elastic Constant Matrix: (Units=GPa)
#
#
# Indices 1 2 3 4 5 6 
#
# 1 178.0102 116.3946 76.0869 0.0000 0.0000 0.0000
# 2 116.3946 218.8224 136.3428 0.0000 0.0000 0.0000
# 3 76.0869 136.3428 237.9223 0.0000 0.0000 0.0000
# 4 0.0000 0.0000 0.0000 75.0341 0.0000 0.0000
# 5 0.0000 0.0000 0.0000 0.0000 28.8026 0.0000
# 6 0.0000 0.0000 0.0000 0.0000 0.0000 77.2750
#
#
#
# Elastic Compliance Matrix: (Units=1/GPa)
#
#
# Indices 1 2 3 4 5 6 
#
# 1 0.008620 -0.004460 -0.000201 0.000000 0.000000 0.000000
# 2 -0.004460 0.009415 -0.003969 0.000000 0.000000 0.000000
# 3 -0.000201 -0.003969 0.006542 0.000000 0.000000 0.000000
# 4 0.000000 0.000000 0.000000 0.013327 0.000000 0.000000
# 5 0.000000 0.000000 0.000000 0.000000 0.034719 0.000000
# 6 0.000000 0.000000 0.000000 0.000000 0.000000 0.012941
#
#
# Mechanical properties :
#
#
# Convention : Reuss Voigt Hill
#
# Bulk Modulus (GPa) = 136.66702 143.60038 140.13370
# Shear Modulus (GPa) = 47.50029 56.61770 52.05899
#
# Velocity S-wave (km/s) = 4.18002 4.56359 4.37601
# Velocity P-wave (km/s) = 8.57722 8.97723 8.77950
#
# Compressibility (1/GPa) = 0.00731705
#
# Stress axis : x y z
#
# Youngs Moduli (GPa) = 116.01532 106.21082 152.86107
#
# Poissons Ratio (x) = 0.47367 0.03070
# Poissons Ratio (y) = 0.51739 0.60674
# Poissons Ratio (z) = 0.02330 0.42158
#
# Static dielectric constant tensor:
#      x y z
#    x 5.230970 0.000000 0.000000 
#    y 0.000000 5.869270 0.000000 
#    z 0.000000 0.000000 6.573850 
# 
# 
# High freq. dielectric constant tensor:
#      x y z
#    x 2.088730 0.000000 0.000000 
#    y 0.000000 2.130810 0.000000 
#    z 0.000000 0.000000 2.123410 
# 
# From -- ./inp_files/627.got.cif
#   From: 2010.03.12/outbox.cif.g09.slc.cpg/sg24_1_cif.got.tgz:627.got - 2010.04.14 03:06:53.
