data_PCOD8166347
_publ_section_title
;
Structure prediction by ZEFSAII (Michael W. Deem and Ramdas Pophale) SiO2 
 PCOD8166347
Probable space group: P M M 2
;
_chemical_formula_sum "Si O2"
_cell_formula_units_Z 32
_cell_length_a 14.187259
_cell_length_b 9.194932
_cell_length_c 15.614290
_cell_angle_alpha 90.000000
_cell_angle_beta 90.000000
_cell_angle_gamma 90.000000
_cell_volume 2036.897899
_symmetry_space_group_name_H-M "P M M 2"
_symmetry_group_IT_number 25
_symmetry_cell_setting 'orthorhombic'
loop_
_space_group_symop_operation_xyz
x,y,z
-x,-y,z
-x,y,z
x,-y,z
loop_
_atom_site_type_symbol
_atom_site_label
_atom_site_fract_x
_atom_site_fract_y
_atom_site_fract_z
Si Si1 0.610020 0.669956 0.424640
Si Si2 0.608700 0.669587 0.090694
Si Si3 0.724821 0.671669 0.924271
Si Si4 0.107551 0.169488 0.853712
Si Si5 0.605686 0.673266 0.762130
Si Si6 0.894792 0.667637 0.678314
Si Si7 0.707813 0.329561 0.593903
Si Si8 0.387982 0.836103 0.257462
O O1 0.500000 0.700323 0.441227
O O2 0.629076 0.500000 0.410172
O O3 0.667758 0.735477 0.505451
O O4 0.649066 0.752938 0.341399
O O5 0.500000 0.708607 0.071111
O O6 0.619407 0.500000 0.110814
O O7 0.648813 0.756110 0.172363
O O8 0.670124 0.717747 0.009689
O O9 0.741630 0.500000 0.920552
O O10 0.825571 0.752189 0.922888
O O11 0.664180 0.728255 0.843752
O O12 0.126884 0.235073 0.760273
O O13 0.000000 0.198099 0.881996
O O14 0.131071 0.000000 0.850095
O O15 0.500000 0.734959 0.768901
O O16 0.604969 0.500000 0.761242
O O17 0.652641 0.736023 0.675582
O O18 0.882433 0.500000 0.707224
O O19 0.819393 0.705315 0.603955
O O20 0.000000 0.696894 0.642222
O O21 0.687820 0.500000 0.591078
O O22 0.500000 0.832428 0.257631
O O23 0.348843 0.000000 0.258368
#
# Coordination Sequence:
#
# PCOD8166347 Si02
#       8
#     4   4   4   4   4   4   4   4
#     4   9  16  26  42  63  86 113 146 183 219 259
#     4   9  17  29  46  69  94 118 147 183 221 263
#     4  10  18  29  46  68  90 116 149 184 222 261
#     4  10  20  32  45  62  86 117 152 189 227 264
#     4   9  15  23  38  62  91 119 147 177 209 253
#     4   9  16  28  46  65  85 111 147 190 229 264
#     4   9  15  24  40  65  89 113 146 182 220 261
#     4   9  17  29  44  62  86 117 149 182 222 263
#
# _framework density 15.710164000000001
#
# number of rings (size 3 to 8) (size 9 to 14) (size 15 to 20)
#    0.000    2.750    1.250    1.500    0.000    5.750 
#    0.000    0.625    0.000    1.125    0.000    0.875 
#    0.000    5.000    0.000    0.000    0.000    0.000 
#
# Total GULP energy -396733.429789 kJ/mol
# GULP energy per Si atom -12397.919681 kJ/mol
# Density = 1.567441 g / cm^3
# Si number density = 15.710164 Si / 1000 Ang^3
#
#
#
# Elastic Constant Matrix: (Units=GPa)
#
#
# Indices 1 2 3 4 5 6 
#
# 1 95.2120 35.9795 62.7728 0.0000 0.0000 0.0000
# 2 35.9795 52.1356 49.6814 0.0000 0.0000 0.0000
# 3 62.7728 49.6814 145.2378 0.0000 0.0000 0.0000
# 4 0.0000 0.0000 0.0000 8.3507 0.0000 0.0000
# 5 0.0000 0.0000 0.0000 0.0000 14.6501 0.0000
# 6 0.0000 0.0000 0.0000 0.0000 0.0000 14.1191
#
#
#
# Elastic Compliance Matrix: (Units=1/GPa)
#
#
# Indices 1 2 3 4 5 6 
#
# 1 0.016105 -0.006648 -0.004686 0.000000 0.000000 0.000000
# 2 -0.006648 0.031201 -0.007800 0.000000 0.000000 0.000000
# 3 -0.004686 -0.007800 0.011579 0.000000 0.000000 0.000000
# 4 0.000000 0.000000 0.000000 0.119750 0.000000 0.000000
# 5 0.000000 0.000000 0.000000 0.000000 0.068259 0.000000
# 6 0.000000 0.000000 0.000000 0.000000 0.000000 0.070826
#
#
# Mechanical properties :
#
#
# Convention : Reuss Voigt Hill
#
# Bulk Modulus (GPa) = 48.50544 65.49477 57.00010
# Shear Modulus (GPa) = 13.77938 17.03410 15.40674
#
# Velocity S-wave (km/s) = 2.96480 3.29640 3.13499
# Velocity P-wave (km/s) = 6.53164 7.50122 7.03316
#
# Compressibility (1/GPa) = 0.02061625
#
# Stress axis : x y z
#
# Youngs Moduli (GPa) = 62.09245 32.04994 86.36505
#
# Poissons Ratio (x) = 0.21308 0.40475
# Poissons Ratio (y) = 0.41282 0.67360
# Poissons Ratio (z) = 0.29100 0.24997
#
# Static dielectric constant tensor:
#      x y z
#    x 3.006720 0.000000 0.000000 
#    y 0.000000 2.812410 0.000000 
#    z 0.000000 0.000000 3.031150 
# 
# 
# High freq. dielectric constant tensor:
#      x y z
#    x 1.586910 0.000000 0.000000 
#    y 0.000000 1.579790 0.000000 
#    z 0.000000 0.000000 1.593170 
# 
# From -- ./inp_files/5680.got.cif
#   From: 2010.03.12/outbox.cif.g09.slc.cpg/sg25_3_cif.got.tgz:5680.got - 2010.04.14 03:30:10.
