data_PCOD8166551
_publ_section_title
;
Structure prediction by ZEFSAII (Michael W. Deem and Ramdas Pophale) SiO2 
 PCOD8166551
Probable space group: P M M 2
;
_chemical_formula_sum "Si O2"
_cell_formula_units_Z 28
_cell_length_a 9.012067
_cell_length_b 19.497189
_cell_length_c 8.099264
_cell_angle_alpha 90.000000
_cell_angle_beta 90.000000
_cell_angle_gamma 90.000000
_cell_volume 1423.121463
_symmetry_space_group_name_H-M "P M M 2"
_symmetry_group_IT_number 25
_symmetry_cell_setting 'orthorhombic'
loop_
_space_group_symop_operation_xyz
x,y,z
-x,-y,z
-x,y,z
x,-y,z
loop_
_atom_site_type_symbol
_atom_site_label
_atom_site_fract_x
_atom_site_fract_y
_atom_site_fract_z
Si Si1 0.823952 0.925997 0.068730
Si Si2 0.827983 0.077535 0.442123
Si Si3 0.823576 0.785755 0.922341
Si Si4 0.671952 0.656646 0.436075
Si Si5 0.672076 0.795426 0.591323
Si Si6 0.323553 0.661743 0.072068
Si Si7 0.676790 0.577668 0.753309
O O1 0.768995 0.916641 0.255872
O O2 0.000000 0.926853 0.071119
O O3 0.766204 0.000000 0.999986
O O4 0.766080 0.863160 0.959399
O O5 0.733437 0.129893 0.549416
O O6 0.000000 0.098350 0.457198
O O7 0.804379 0.000000 0.508599
O O8 0.757336 0.764293 0.747577
O O9 0.000000 0.781029 0.922633
O O10 0.757211 0.734881 0.058172
O O11 0.500000 0.640252 0.451236
O O12 0.700510 0.738701 0.449572
O O13 0.725339 0.632378 0.253224
O O14 0.745375 0.615090 0.589883
O O15 0.500000 0.802119 0.635092
O O16 0.500000 0.672899 0.065773
O O17 0.267473 0.612519 0.924234
O O18 0.500000 0.580602 0.751651
O O19 0.735542 0.500000 0.752374
#
# Coordination Sequence:
#
# PCOD8166551 Si02
#       7
#     4   4   4   4   4   4   4
#     4   8  16  32  52  73  99 132 175 227 274 319
#     4   9  18  34  54  75 101 135 177 226 277 326
#     4  11  21  33  53  79 105 139 185 229 273 324
#     4   9  18  32  52  79 110 144 178 221 274 323
#     4  11  21  34  51  74 108 144 181 226 276 324
#     4  10  19  34  56  80 110 144 179 222 275 323
#     4   9  17  31  53  83 115 142 175 220 267 322
#
# _framework density 19.675059000000001
#
# number of rings (size 3 to 8) (size 9 to 14) (size 15 to 20)
#    0.000    2.429    1.429    2.571    0.000    1.429 
#    0.000    5.714    0.000    3.429    0.000    0.000 
#    0.000    0.000    0.000    0.000    0.000    0.000 
#
# Total GULP energy -347011.284625 kJ/mol
# GULP energy per Si atom -12393.260165 kJ/mol
# Density = 1.963028 g / cm^3
# Si number density = 19.675059 Si / 1000 Ang^3
#
#
#
# Elastic Constant Matrix: (Units=GPa)
#
#
# Indices 1 2 3 4 5 6 
#
# 1 39.2109 28.7908 26.0394 0.0000 0.0000 0.0000
# 2 28.7908 122.3770 65.1415 0.0000 0.0000 0.0000
# 3 26.0394 65.1415 146.7522 0.0000 0.0000 0.0000
# 4 0.0000 0.0000 0.0000 26.9268 0.0000 0.0000
# 5 0.0000 0.0000 0.0000 0.0000 18.7721 0.0000
# 6 0.0000 0.0000 0.0000 0.0000 0.0000 16.9323
#
#
#
# Elastic Compliance Matrix: (Units=1/GPa)
#
#
# Indices 1 2 3 4 5 6 
#
# 1 0.031834 -0.005869 -0.003043 0.000000 0.000000 0.000000
# 2 -0.005869 0.011782 -0.004188 0.000000 0.000000 0.000000
# 3 -0.003043 -0.004188 0.009213 0.000000 0.000000 0.000000
# 4 0.000000 0.000000 0.000000 0.037138 0.000000 0.000000
# 5 0.000000 0.000000 0.000000 0.000000 0.053270 0.000000
# 6 0.000000 0.000000 0.000000 0.000000 0.000000 0.059059
#
#
# Mechanical properties :
#
#
# Convention : Reuss Voigt Hill
#
# Bulk Modulus (GPa) = 37.55585 60.92037 49.23811
# Shear Modulus (GPa) = 21.06388 25.08415 23.07401
#
# Velocity S-wave (km/s) = 3.27553 3.57448 3.42827
# Velocity P-wave (km/s) = 5.78230 6.93299 6.38362
#
# Compressibility (1/GPa) = 0.02662701
#
# Stress axis : x y z
#
# Youngs Moduli (GPa) = 31.41328 84.87684 108.53851
#
# Poissons Ratio (x) = 0.49818 0.33030
# Poissons Ratio (y) = 0.18438 0.45459
# Poissons Ratio (z) = 0.09559 0.35549
#
# Static dielectric constant tensor:
#      x y z
#    x 3.073190 0.000000 0.000000 
#    y 0.000000 3.810060 0.000000 
#    z 0.000000 0.000000 3.821340 
# 
# 
# High freq. dielectric constant tensor:
#      x y z
#    x 1.713600 0.000000 0.000000 
#    y 0.000000 1.770770 0.000000 
#    z 0.000000 0.000000 1.774410 
# 
# From -- ./inp_files/2307.got.cif
#   From: 2010.03.12/outbox.cif.g09.slc.cpg/sg25_2_cif.got.tgz:2307.got - 2010.04.14 03:30:10.
