data_PCOD8166638
_publ_section_title
;
Structure prediction by ZEFSAII (Michael W. Deem and Ramdas Pophale) SiO2 
 PCOD8166638
Probable space group: P M M 2
;
_chemical_formula_sum "Si O2"
_cell_formula_units_Z 32
_cell_length_a 8.928914
_cell_length_b 14.067017
_cell_length_c 15.414324
_cell_angle_alpha 90.000000
_cell_angle_beta 90.000000
_cell_angle_gamma 90.000000
_cell_volume 1936.088189
_symmetry_space_group_name_H-M "P M M 2"
_symmetry_group_IT_number 25
_symmetry_cell_setting 'orthorhombic'
loop_
_space_group_symop_operation_xyz
x,y,z
-x,-y,z
-x,y,z
x,-y,z
loop_
_atom_site_type_symbol
_atom_site_label
_atom_site_fract_x
_atom_site_fract_y
_atom_site_fract_z
Si Si1 0.676489 0.283054 0.919720
Si Si2 0.824578 0.107841 0.847294
Si Si3 0.824533 0.720962 0.589130
Si Si4 0.175160 0.610099 0.073891
Si Si5 0.825995 0.389739 0.762553
Si Si6 0.834688 0.387342 0.266893
Si Si7 0.328543 0.387925 0.436366
Si Si8 0.674009 0.108072 0.664392
O O1 0.500000 0.273922 0.915998
O O2 0.747254 0.177745 0.915681
O O3 0.730460 0.347484 0.840386
O O4 0.724671 0.328594 0.009956
O O5 0.761754 0.130341 0.752413
O O6 0.000000 0.128214 0.844625
O O7 0.788307 0.000000 0.875356
O O8 0.779213 0.659961 0.673138
O O9 0.776054 0.664092 0.504635
O O10 0.738483 0.821865 0.591071
O O11 0.000000 0.740371 0.584561
O O12 0.217594 0.500000 0.061291
O O13 0.215466 0.646313 0.171032
O O14 0.000000 0.625625 0.054115
O O15 0.787137 0.500000 0.752827
O O16 0.000000 0.373274 0.783867
O O17 0.844138 0.500000 0.264221
O O18 0.718143 0.353123 0.339989
O O19 0.000000 0.346619 0.288950
O O20 0.500000 0.359614 0.452088
O O21 0.302499 0.500000 0.446422
O O22 0.500000 0.128137 0.680868
O O23 0.701414 0.000000 0.633459
#
# Coordination Sequence:
#
# PCOD8166638 Si02
#       8
#     4   4   4   4   4   4   4   4
#     4  12  23  32  47  72 101 132 164 202 249 296
#     4  10  20  35  54  72  92 124 166 207 246 291
#     4  11  21  33  51  72  96 132 173 206 240 288
#     4   9  18  33  52  72  98 133 170 207 244 287
#     4  10  21  35  48  64  93 134 174 206 237 279
#     4   8  15  30  51  72  94 125 166 208 247 288
#     4  10  20  32  48  72 103 135 165 204 251 295
#     4  10  20  34  52  74  99 125 157 203 255 298
#
# _framework density 16.528172000000001
#
# number of rings (size 3 to 8) (size 9 to 14) (size 15 to 20)
#    0.000    2.000    1.250    4.125    0.000    5.750 
#    0.000    1.250    0.000    0.000    0.000    0.875 
#    0.000    1.000    0.000    0.000    0.000    0.000 
#
# Total GULP energy -396847.139377 kJ/mol
# GULP energy per Si atom -12401.473106 kJ/mol
# Density = 1.649055 g / cm^3
# Si number density = 16.528172 Si / 1000 Ang^3
#
#
#
# Elastic Constant Matrix: (Units=GPa)
#
#
# Indices 1 2 3 4 5 6 
#
# 1 88.3737 46.6647 46.3456 0.0000 0.0000 0.0000
# 2 46.6647 85.7158 42.2082 0.0000 0.0000 0.0000
# 3 46.3456 42.2082 100.4675 0.0000 0.0000 0.0000
# 4 0.0000 0.0000 0.0000 7.6510 0.0000 0.0000
# 5 0.0000 0.0000 0.0000 0.0000 16.1525 0.0000
# 6 0.0000 0.0000 0.0000 0.0000 0.0000 25.0052
#
#
#
# Elastic Compliance Matrix: (Units=1/GPa)
#
#
# Indices 1 2 3 4 5 6 
#
# 1 0.017820 -0.007128 -0.005226 0.000000 0.000000 0.000000
# 2 -0.007128 0.017561 -0.004089 0.000000 0.000000 0.000000
# 3 -0.005226 -0.004089 0.014082 0.000000 0.000000 0.000000
# 4 0.000000 0.000000 0.000000 0.130702 0.000000 0.000000
# 5 0.000000 0.000000 0.000000 0.000000 0.061910 0.000000
# 6 0.000000 0.000000 0.000000 0.000000 0.000000 0.039992
#
#
# Mechanical properties :
#
#
# Convention : Reuss Voigt Hill
#
# Bulk Modulus (GPa) = 60.32668 60.55490 60.44079
# Shear Modulus (GPa) = 15.60169 19.05099 17.32634
#
# Velocity S-wave (km/s) = 3.07570 3.39873 3.24125
# Velocity P-wave (km/s) = 7.01369 7.21933 7.11725
#
# Compressibility (1/GPa) = 0.01657641
#
# Stress axis : x y z
#
# Youngs Moduli (GPa) = 56.11656 56.94488 71.01215
#
# Poissons Ratio (x) = 0.40592 0.37109
# Poissons Ratio (y) = 0.40001 0.29040
# Poissons Ratio (z) = 0.29325 0.23287
#
# Static dielectric constant tensor:
#      x y z
#    x 3.170080 0.000000 0.000000 
#    y 0.000000 3.095330 0.000000 
#    z 0.000000 0.000000 3.135940 
# 
# 
# High freq. dielectric constant tensor:
#      x y z
#    x 1.646150 0.000000 0.000000 
#    y 0.000000 1.619680 0.000000 
#    z 0.000000 0.000000 1.623960 
# 
# From -- ./inp_files/5727.got.cif
#   From: 2010.03.12/outbox.cif.g09.slc.cpg/sg25_3_cif.got.tgz:5727.got - 2010.04.14 03:30:10.
