data_PCOD8166535
_publ_section_title
;
Structure prediction by ZEFSAII (Michael W. Deem and Ramdas Pophale) SiO2 
 PCOD8166535
Probable space group: P M M 2
;
_chemical_formula_sum "Si O2"
_cell_formula_units_Z 24
_cell_length_a 8.361910
_cell_length_b 26.981984
_cell_length_c 5.171670
_cell_angle_alpha 90.000000
_cell_angle_beta 90.000000
_cell_angle_gamma 90.000000
_cell_volume 1166.836953
_symmetry_space_group_name_H-M "P M M 2"
_symmetry_group_IT_number 25
_symmetry_cell_setting 'orthorhombic'
loop_
_space_group_symop_operation_xyz
x,y,z
-x,-y,z
-x,y,z
x,-y,z
loop_
_atom_site_type_symbol
_atom_site_label
_atom_site_fract_x
_atom_site_fract_y
_atom_site_fract_z
Si Si1 0.815649 0.275581 0.344960
Si Si2 0.689594 0.444610 0.837345
Si Si3 0.690840 0.055960 0.333983
Si Si4 0.310129 0.614963 0.339078
Si Si5 0.309576 0.112939 0.834730
Si Si6 0.313426 0.774862 0.846455
O O1 0.778139 0.333184 0.325273
O O2 0.776791 0.257572 0.633534
O O3 0.000000 0.266238 0.283607
O O4 0.713175 0.246044 0.133335
O O5 0.500000 0.448164 0.829817
O O6 0.762790 0.500000 0.831483
O O7 0.750962 0.413916 0.591620
O O8 0.746450 0.417137 0.095167
O O9 0.500000 0.055505 0.333868
O O10 0.756814 0.084883 0.583259
O O11 0.757228 0.000000 0.336140
O O12 0.758321 0.084233 0.083646
O O13 0.500000 0.623785 0.342148
O O14 0.500000 0.112482 0.840336
O O15 0.246763 0.169169 0.834966
O O16 0.500000 0.772977 0.781208
#
# Coordination Sequence:
#
# PCOD8166535 Si02
#       6
#     4   4   4   4   4   4
#     4  12  25  40  58  84 118 151 190 240 292 340
#     4   9  17  30  52  82 110 137 178 230 272 315
#     4   9  15  24  40  67 106 143 170 208 273 339
#     4  10  19  33  55  80 108 145 186 224 271 331
#     4   9  17  28  45  71 102 139 180 222 269 326
#     4  11  22  39  61  83 112 151 196 239 283 339
#
# _framework density 20.568427
#
# number of rings (size 3 to 8) (size 9 to 14) (size 15 to 20)
#    0.000    2.000    0.000    5.000    0.000    8.000 
#    0.000    0.000    0.000    3.000    0.000    0.000 
#    0.000   46.667    0.000    0.000    0.000    0.000 
#
# Total GULP energy -297675.912064 kJ/mol
# GULP energy per Si atom -12403.163003 kJ/mol
# Density = 2.052161 g / cm^3
# Si number density = 20.568427 Si / 1000 Ang^3
#
#
#
# Elastic Constant Matrix: (Units=GPa)
#
#
# Indices 1 2 3 4 5 6 
#
# 1 29.3976 27.2887 16.0912 0.0000 0.0000 0.0000
# 2 27.2887 151.8417 50.0255 0.0000 0.0000 0.0000
# 3 16.0912 50.0255 148.8491 0.0000 0.0000 0.0000
# 4 0.0000 0.0000 0.0000 27.6406 0.0000 0.0000
# 5 0.0000 0.0000 0.0000 0.0000 11.8792 0.0000
# 6 0.0000 0.0000 0.0000 0.0000 0.0000 -5.1617
#
#
#
# Elastic Compliance Matrix: (Units=1/GPa)
#
#
# Indices 1 2 3 4 5 6 
#
# 1 0.041472 -0.006720 -0.002225 0.000000 0.000000 0.000000
# 2 -0.006720 0.008495 -0.002128 0.000000 0.000000 0.000000
# 3 -0.002225 -0.002128 0.007674 0.000000 0.000000 0.000000
# 4 0.000000 0.000000 0.000000 0.036179 0.000000 0.000000
# 5 0.000000 0.000000 0.000000 0.000000 0.084180 0.000000
# 6 0.000000 0.000000 0.000000 0.000000 0.000000 -0.193735
#
#
# Mechanical properties :
#
#
# Convention : Reuss Voigt Hill
#
# Bulk Modulus (GPa) = 28.17366 57.43324 42.80345
# Shear Modulus (GPa) = 274.05747 22.65050 148.35398
#
# Velocity S-wave (km/s) = 11.55556 3.32207 8.50198
# Velocity P-wave (km/s) = 13.84806 6.53441 10.82745
#
# Compressibility (1/GPa) = 0.03549414
#
# Stress axis : x y z
#
# Youngs Moduli (GPa) = 24.11241 117.71886 130.30936
#
# Poissons Ratio (x) = 0.79112 0.28990
# Poissons Ratio (y) = 0.16204 0.27736
# Poissons Ratio (z) = 0.05364 0.25056
#
# Static dielectric constant tensor:
#      x y z
#    x 3.121670 0.000000 0.000000 
#    y 0.000000 3.961810 0.000000 
#    z 0.000000 0.000000 3.974320 
# 
# 
# High freq. dielectric constant tensor:
#      x y z
#    x 1.747070 0.000000 0.000000 
#    y 0.000000 1.824560 0.000000 
#    z 0.000000 0.000000 1.823190 
# 
# From -- ./inp_files/307.got.cif
#   From: 2010.03.12/outbox.cif.g09.slc.cpg/sg25_1_cif.got.tgz:307.got - 2010.04.14 03:30:10.
