data_PCOD8166107
_publ_section_title
;
Structure prediction by ZEFSAII (Michael W. Deem and Ramdas Pophale) SiO2 
 PCOD8166107
Probable space group: I 21 21 21
;
_chemical_formula_sum "Si O2"
_cell_formula_units_Z 40
_cell_length_a 7.517211
_cell_length_b 14.309089
_cell_length_c 15.942156
_cell_angle_alpha 90.000000
_cell_angle_beta 90.000000
_cell_angle_gamma 90.000000
_cell_volume 1714.809102
_symmetry_space_group_name_H-M "I 21 21 21"
_symmetry_group_IT_number 24
_symmetry_cell_setting 'orthorhombic'
loop_
_space_group_symop_operation_xyz
x,y,z
-x,1/2-y,z
x,-y,1/2-z
1/2-x,y,-z
1/2+x,1/2+y,1/2+z
1/2-x,-y,1/2+z
1/2+x,1/2-y,-z
-x,1/2+y,1/2-z
loop_
_atom_site_type_symbol
_atom_site_label
_atom_site_fract_x
_atom_site_fract_y
_atom_site_fract_z
Si Si1 0.410847 0.520827 0.551884
Si Si2 0.446054 0.153340 0.652849
Si Si3 0.885644 0.336520 0.936525
Si Si4 0.623336 0.390477 0.239172
Si Si5 0.774854 0.897234 0.283996
O O1 0.250000 0.473306 0.500000
O O2 0.522916 0.437171 0.594737
O O3 0.527266 0.575557 0.483948
O O4 0.328281 0.595829 0.618001
O O5 0.500000 0.250000 0.604329
O O6 0.241342 0.154352 0.686092
O O7 0.573797 0.157225 0.734093
O O8 0.787645 0.372775 0.852079
O O9 0.000000 0.250000 0.906515
O O10 0.750000 0.289214 0.000000
O O11 0.620813 0.500000 0.250000
O O12 0.419655 0.350486 0.232767
O O13 0.764754 0.000000 0.250000
#
# Coordination Sequence:
#
# PCOD8166107 Si02
#       5
#     8   8   8   8   8
#     4  11  22  46  69  96 138 182 227 283 351 406
#     4  11  25  42  68  99 135 179 229 280 331 407
#     4  12  26  40  67 104 140 176 226 288 352 414
#     4  11  23  43  67  96 131 181 228 276 340 406
#     4   9  20  39  68  94 125 176 226 275 334 402
#
# _framework density 23.326211000000001
#
# number of rings (size 3 to 8) (size 9 to 14) (size 15 to 20)
#    0.000    1.200    2.000    4.800    2.800    1.600 
#    0.000    3.000    0.000    0.000    0.000    0.000 
#    0.000    0.000    0.000    0.000    0.000    0.000 
#
# Total GULP energy -247814.138212 kJ/mol
# GULP energy per Si atom -12390.706911 kJ/mol
# Density = 2.327312 g / cm^3
# Si number density = 23.326211 Si / 1000 Ang^3
#
#
#
# Elastic Constant Matrix: (Units=GPa)
#
#
# Indices 1 2 3 4 5 6 
#
# 1 91.4476 26.3159 14.7412 0.0000 0.0000 0.0000
# 2 26.3159 95.6222 30.3959 0.0000 0.0000 0.0000
# 3 14.7412 30.3959 92.7345 0.0000 0.0000 0.0000
# 4 0.0000 0.0000 0.0000 23.2216 0.0000 0.0000
# 5 0.0000 0.0000 0.0000 0.0000 33.1535 0.0000
# 6 0.0000 0.0000 0.0000 0.0000 0.0000 13.4428
#
#
#
# Elastic Compliance Matrix: (Units=1/GPa)
#
#
# Indices 1 2 3 4 5 6 
#
# 1 0.011945 -0.002996 -0.000917 0.000000 0.000000 0.000000
# 2 -0.002996 0.012426 -0.003597 0.000000 0.000000 0.000000
# 3 -0.000917 -0.003597 0.012108 0.000000 0.000000 0.000000
# 4 0.000000 0.000000 0.000000 0.043063 0.000000 0.000000
# 5 0.000000 0.000000 0.000000 0.000000 0.030163 0.000000
# 6 0.000000 0.000000 0.000000 0.000000 0.000000 0.074390
#
#
# Mechanical properties :
#
#
# Convention : Reuss Voigt Hill
#
# Bulk Modulus (GPa) = 46.59793 46.96780 46.78287
# Shear Modulus (GPa) = 24.24049 27.85366 26.04707
#
# Velocity S-wave (km/s) = 3.22715 3.45931 3.34525
# Velocity P-wave (km/s) = 5.82289 6.01122 5.91780
#
# Compressibility (1/GPa) = 0.02146018
#
# Stress axis : x y z
#
# Youngs Moduli (GPa) = 83.71586 80.47911 82.58962
#
# Poissons Ratio (x) = 0.24111 0.07572
# Poissons Ratio (y) = 0.25081 0.29704
# Poissons Ratio (z) = 0.07675 0.28945
#
# Static dielectric constant tensor:
#      x y z
#    x 4.838750 0.000000 0.000000 
#    y 0.000000 4.388830 0.000000 
#    z 0.000000 0.000000 4.568350 
# 
# 
# High freq. dielectric constant tensor:
#      x y z
#    x 1.928190 0.000000 0.000000 
#    y 0.000000 1.920360 0.000000 
#    z 0.000000 0.000000 1.916050 
# 
# From -- ./inp_files/24530.got.cif
#   From: 2010.03.12/outbox.cif.g09.slc.cpg/sg24_13_cif.got.tgz:24530.got - 2010.04.14 03:06:53.
