data_PCOD8166760
_publ_section_title
;
Structure prediction by ZEFSAII (Michael W. Deem and Ramdas Pophale) SiO2 
 PCOD8166760
Probable space group: P M M 2
;
_chemical_formula_sum "Si O2"
_cell_formula_units_Z 32
_cell_length_a 9.071032
_cell_length_b 8.531773
_cell_length_c 20.856692
_cell_angle_alpha 90.000000
_cell_angle_beta 90.000000
_cell_angle_gamma 90.000000
_cell_volume 1614.140813
_symmetry_space_group_name_H-M "P M M 2"
_symmetry_group_IT_number 25
_symmetry_cell_setting 'orthorhombic'
loop_
_space_group_symop_operation_xyz
x,y,z
-x,-y,z
-x,y,z
x,-y,z
loop_
_atom_site_type_symbol
_atom_site_label
_atom_site_fract_x
_atom_site_fract_y
_atom_site_fract_z
Si Si1 0.324662 0.681607 0.069670
Si Si2 0.663120 0.314350 0.208423
Si Si3 0.664261 0.684615 0.592821
Si Si4 0.165668 0.312705 0.469317
Si Si5 0.667729 0.313754 0.346090
Si Si6 0.670578 0.318526 0.831421
Si Si7 0.831085 0.181772 0.712070
Si Si8 0.829469 0.181302 0.950431
O O1 0.500000 0.708628 0.064915
O O2 0.287073 0.500000 0.056166
O O3 0.263498 0.735524 0.140574
O O4 0.239534 0.790056 0.019980
O O5 0.500000 0.241971 0.210083
O O6 0.650729 0.500000 0.206966
O O7 0.738144 0.262417 0.276339
O O8 0.500000 0.757186 0.598066
O O9 0.653208 0.500000 0.585839
O O10 0.744012 0.754317 0.529963
O O11 0.755919 0.721542 0.655899
O O12 0.167941 0.500000 0.469018
O O13 0.235774 0.243409 0.403922
O O14 0.000000 0.248799 0.474696
O O15 0.500000 0.252742 0.352719
O O16 0.668613 0.500000 0.351262
O O17 0.500000 0.270011 0.834552
O O18 0.688813 0.500000 0.813193
O O19 0.750571 0.213680 0.778740
O O20 0.743102 0.287815 0.900002
O O21 0.000000 0.235975 0.718463
O O22 0.818845 0.000000 0.695319
O O23 0.000000 0.230838 0.950696
O O24 0.810696 0.000000 0.931838
#
# Coordination Sequence:
#
# PCOD8166760 Si02
#       8
#     4   4   4   4   4   4   4   4
#     4   9  17  31  52  77 103 133 173 218 262 311
#     4   7  11  21  39  64  94 127 163 206 256 308
#     4  10  20  34  53  77 104 137 179 221 259 304
#     4   9  16  25  39  63  97 134 170 212 262 311
#     4   8  12  20  36  59  90 128 166 205 254 310
#     4  11  24  41  62  87 110 134 169 211 253 300
#     4  11  24  40  58  82 111 141 172 207 251 304
#     4  11  24  39  54  76 107 141 176 213 255 305
#
# _framework density 19.824788000000002
#
# number of rings (size 3 to 8) (size 9 to 14) (size 15 to 20)
#    0.000    2.500    0.000    4.500    0.000   10.000 
#    0.000    0.625    0.000    2.250    0.000    0.875 
#    0.000    5.000    0.000    0.000    0.000    0.000 
#
# Total GULP energy -396604.157984 kJ/mol
# GULP energy per Si atom -12393.879937 kJ/mol
# Density = 1.977967 g / cm^3
# Si number density = 19.824788 Si / 1000 Ang^3
#
#
#
# Elastic Constant Matrix: (Units=GPa)
#
#
# Indices 1 2 3 4 5 6 
#
# 1 127.6801 19.9674 65.7336 0.0000 0.0000 0.0000
# 2 19.9674 19.5791 6.4114 0.0000 0.0000 0.0000
# 3 65.7336 6.4114 161.6421 0.0000 0.0000 0.0000
# 4 0.0000 0.0000 0.0000 4.0348 0.0000 0.0000
# 5 0.0000 0.0000 0.0000 0.0000 3.0003 0.0000
# 6 0.0000 0.0000 0.0000 0.0000 0.0000 17.3659
#
#
#
# Elastic Compliance Matrix: (Units=1/GPa)
#
#
# Indices 1 2 3 4 5 6 
#
# 1 0.011716 -0.010525 -0.004347 0.000000 0.000000 0.000000
# 2 -0.010525 0.061202 0.001853 0.000000 0.000000 0.000000
# 3 -0.004347 0.001853 0.007881 0.000000 0.000000 0.000000
# 4 0.000000 0.000000 0.000000 0.247841 0.000000 0.000000
# 5 0.000000 0.000000 0.000000 0.000000 0.333301 0.000000
# 6 0.000000 0.000000 0.000000 0.000000 0.000000 0.057584
#
#
# Mechanical properties :
#
#
# Convention : Reuss Voigt Hill
#
# Bulk Modulus (GPa) = 18.26150 54.79178 36.52664
# Shear Modulus (GPa) = 6.54607 19.33281 12.93944
#
# Velocity S-wave (km/s) = 1.81910 3.12618 2.55755
# Velocity P-wave (km/s) = 3.69373 6.38190 5.21403
#
# Compressibility (1/GPa) = 0.05476003
#
# Stress axis : x y z
#
# Youngs Moduli (GPa) = 85.35361 16.33938 126.89101
#
# Poissons Ratio (x) = 0.17197 0.55159
# Poissons Ratio (y) = 0.89833 -0.23507
# Poissons Ratio (z) = 0.37103 -0.03027
#
# Static dielectric constant tensor:
#      x y z
#    x 3.631090 0.000000 0.000000 
#    y 0.000000 3.086970 0.000000 
#    z 0.000000 0.000000 4.011250 
# 
# 
# High freq. dielectric constant tensor:
#      x y z
#    x 1.761140 0.000000 0.000000 
#    y 0.000000 1.724450 0.000000 
#    z 0.000000 0.000000 1.799270 
# 
# From -- ./inp_files/6447.got.cif
#   From: 2010.03.12/outbox.cif.g09.slc.cpg/sg25_4_cif.got.tgz:6447.got - 2010.04.14 03:30:10.
