data_PCOD8166338
_publ_section_title
;
Structure prediction by ZEFSAII (Michael W. Deem and Ramdas Pophale) SiO2 
 PCOD8166338
Probable space group: P M M 2
;
_chemical_formula_sum "Si O2"
_cell_formula_units_Z 32
_cell_length_a 9.324367
_cell_length_b 18.229346
_cell_length_c 11.393947
_cell_angle_alpha 90.000000
_cell_angle_beta 90.000000
_cell_angle_gamma 90.000000
_cell_volume 1936.710208
_symmetry_space_group_name_H-M "P M M 2"
_symmetry_group_IT_number 25
_symmetry_cell_setting 'orthorhombic'
loop_
_space_group_symop_operation_xyz
x,y,z
-x,-y,z
-x,y,z
x,-y,z
loop_
_atom_site_type_symbol
_atom_site_label
_atom_site_fract_x
_atom_site_fract_y
_atom_site_fract_z
Si Si1 0.170935 0.919458 0.862490
Si Si2 0.339983 0.208870 0.289358
Si Si3 0.332115 0.417413 0.403715
Si Si4 0.343420 0.362158 0.161197
Si Si5 0.840838 0.148549 0.099074
Si Si6 0.170469 0.773937 0.747809
Si Si7 0.828497 0.281228 0.493789
Si Si8 0.157738 0.303339 0.973617
O O1 0.229561 0.856520 0.773887
O O2 0.000000 0.917791 0.861311
O O3 0.228485 0.000000 0.824136
O O4 0.221796 0.903163 0.995927
O O5 0.500000 0.183298 0.327854
O O6 0.352935 0.280260 0.209954
O O7 0.264217 0.145319 0.211832
O O8 0.241028 0.225149 0.401785
O O9 0.500000 0.394212 0.413278
O O10 0.307406 0.500000 0.449568
O O11 0.283254 0.412798 0.266974
O O12 0.235334 0.363014 0.480858
O O13 0.500000 0.390385 0.123302
O O14 0.247329 0.364973 0.043959
O O15 0.000000 0.122513 0.138102
O O16 0.852441 0.230655 0.050982
O O17 0.219968 0.747650 0.620836
O O18 0.228545 0.717224 0.847312
O O19 0.000000 0.775152 0.759430
O O20 0.000000 0.283127 0.477620
O O21 0.000000 0.337105 0.954977
#
# Coordination Sequence:
#
# PCOD8166338 Si02
#       8
#     4   4   4   4   4   4   4   4
#     4   8  13  23  42  67  92 116 144 183 231 277
#     4   9  16  26  40  59  84 112 140 172 214 260
#     4   9  18  32  47  63  87 116 144 181 229 275
#     4   8  14  24  39  60  81 101 129 165 207 253
#     4   8  13  22  39  63  85 105 134 173 215 258
#     4   8  15  26  40  62  90 118 148 183 223 260
#     4  10  18  28  44  65  89 117 152 191 222 256
#     4   8  13  23  39  58  82 108 131 162 207 254
#
# _framework density 16.522864999999999
#
# number of rings (size 3 to 8) (size 9 to 14) (size 15 to 20)
#    0.000    3.500    0.000    3.000    0.000    3.250 
#    0.000    1.250    0.000    3.375    0.000    7.000 
#    0.000    0.000    0.000    0.000    0.000    0.000 
#
# Total GULP energy -396451.637185 kJ/mol
# GULP energy per Si atom -12389.113662 kJ/mol
# Density = 1.648526 g / cm^3
# Si number density = 16.522865 Si / 1000 Ang^3
#
#
#
# Elastic Constant Matrix: (Units=GPa)
#
#
# Indices 1 2 3 4 5 6 
#
# 1 67.5809 28.6042 49.3376 0.0000 0.0000 0.0000
# 2 28.6042 66.1684 49.7834 0.0000 0.0000 0.0000
# 3 49.3376 49.7834 117.8633 0.0000 0.0000 0.0000
# 4 0.0000 0.0000 0.0000 15.5802 0.0000 0.0000
# 5 0.0000 0.0000 0.0000 0.0000 11.5142 0.0000
# 6 0.0000 0.0000 0.0000 0.0000 0.0000 11.2041
#
#
#
# Elastic Compliance Matrix: (Units=1/GPa)
#
#
# Indices 1 2 3 4 5 6 
#
# 1 0.021933 -0.003773 -0.007588 0.000000 0.000000 0.000000
# 2 -0.003773 0.022802 -0.008052 0.000000 0.000000 0.000000
# 3 -0.007588 -0.008052 0.015062 0.000000 0.000000 0.000000
# 4 0.000000 0.000000 0.000000 0.064184 0.000000 0.000000
# 5 0.000000 0.000000 0.000000 0.000000 0.086849 0.000000
# 6 0.000000 0.000000 0.000000 0.000000 0.000000 0.089253
#
#
# Mechanical properties :
#
#
# Convention : Reuss Voigt Hill
#
# Bulk Modulus (GPa) = 47.68240 56.34034 52.01137
# Shear Modulus (GPa) = 14.45507 15.91884 15.18696
#
# Velocity S-wave (km/s) = 2.96100 3.10731 3.03503
# Velocity P-wave (km/s) = 6.37268 6.85903 6.62032
#
# Compressibility (1/GPa) = 0.02097210
#
# Stress axis : x y z
#
# Youngs Moduli (GPa) = 45.59249 43.85593 66.39406
#
# Poissons Ratio (x) = 0.16546 0.50378
# Poissons Ratio (y) = 0.17201 0.53459
# Poissons Ratio (z) = 0.34594 0.35312
#
# Static dielectric constant tensor:
#      x y z
#    x 3.160260 0.000000 0.000000 
#    y 0.000000 2.967440 0.000000 
#    z 0.000000 0.000000 3.168370 
# 
# 
# High freq. dielectric constant tensor:
#      x y z
#    x 1.615530 0.000000 0.000000 
#    y 0.000000 1.598990 0.000000 
#    z 0.000000 0.000000 1.623730 
# 
# From -- ./inp_files/4466.got.cif
#   From: 2010.03.12/outbox.cif.g09.slc.cpg/sg25_3_cif.got.tgz:4466.got - 2010.04.14 03:30:10.
