data_PCOD8166875
_publ_section_title
;
Structure prediction by ZEFSAII (Michael W. Deem and Ramdas Pophale) SiO2 
 PCOD8166875
Probable space group: P M M 2
;
_chemical_formula_sum "Si O2"
_cell_formula_units_Z 32
_cell_length_a 9.176486
_cell_length_b 9.773735
_cell_length_c 20.315633
_cell_angle_alpha 90.000000
_cell_angle_beta 90.000000
_cell_angle_gamma 90.000000
_cell_volume 1822.079512
_symmetry_space_group_name_H-M "P M M 2"
_symmetry_group_IT_number 25
_symmetry_cell_setting 'orthorhombic'
loop_
_space_group_symop_operation_xyz
x,y,z
-x,-y,z
-x,y,z
x,-y,z
loop_
_atom_site_type_symbol
_atom_site_label
_atom_site_fract_x
_atom_site_fract_y
_atom_site_fract_z
Si Si1 0.669248 0.842548 0.079030
Si Si2 0.668098 0.839555 0.436161
Si Si3 0.171047 0.657087 0.331997
Si Si4 0.327209 0.650822 0.694520
Si Si5 0.828953 0.157087 0.946656
Si Si6 0.327209 0.849178 0.584132
Si Si7 0.331902 0.660445 0.842491
Si Si8 0.330752 0.657452 0.199622
O O1 0.500000 0.816646 0.064153
O O2 0.723899 0.750000 0.139326
O O3 0.700334 0.000000 0.097212
O O4 0.757557 0.796200 0.015021
O O5 0.500000 0.802862 0.422157
O O6 0.770436 0.751997 0.389640
O O7 0.711772 0.798749 0.510735
O O8 0.695291 0.000000 0.424178
O O9 0.212192 0.500000 0.347726
O O10 0.242443 0.703800 0.263631
O O11 0.000000 0.677932 0.325645
O O12 0.500000 0.644437 0.687265
O O13 0.261588 0.500000 0.682490
O O14 0.258241 0.750000 0.639326
O O15 0.288228 0.701251 0.767917
O O16 0.770436 0.251997 0.889012
O O17 0.000000 0.177932 0.953007
O O18 0.787808 0.000000 0.930927
O O19 0.500000 0.855563 0.591387
O O20 0.261588 0.000000 0.596162
O O21 0.500000 0.697138 0.856495
O O22 0.304709 0.500000 0.854474
O O23 0.500000 0.683354 0.214499
O O24 0.299666 0.500000 0.181440
#
# Coordination Sequence:
#
# PCOD8166875 Si02
#       8
#     4   4   4   4   4   4   4   4
#     4   9  18  33  52  73  97 125 158 197 240 286
#     4   9  18  32  50  73 100 129 163 203 245 291
#     4  10  21  35  50  71 100 132 166 203 241 285
#     4   8  14  25  42  67  97 124 153 194 242 289
#     4  10  21  35  50  71 100 132 166 203 241 285
#     4   8  14  25  42  67  97 124 153 194 242 289
#     4   9  18  32  50  73 100 129 163 203 245 291
#     4   9  18  33  52  73  97 125 158 197 240 286
#
# _framework density 17.562351
#
# number of rings (size 3 to 8) (size 9 to 14) (size 15 to 20)
#    0.000    3.000    0.000    2.250    0.000    4.500 
#    0.000    5.000    0.000    0.750    0.000    0.000 
#    0.000    0.000    0.000    0.000    0.000    0.000 
#
# Total GULP energy -396762.664429 kJ/mol
# GULP energy per Si atom -12398.833263 kJ/mol
# Density = 1.752238 g / cm^3
# Si number density = 17.562351 Si / 1000 Ang^3
#
#
#
# Elastic Constant Matrix: (Units=GPa)
#
#
# Indices 1 2 3 4 5 6 
#
# 1 50.4000 35.0718 52.6593 0.0000 0.0000 0.0000
# 2 35.0718 78.1997 83.0309 0.0000 0.0000 0.0000
# 3 52.6593 83.0309 158.3165 0.0000 0.0000 0.0000
# 4 0.0000 0.0000 0.0000 38.5196 0.0000 0.0000
# 5 0.0000 0.0000 0.0000 0.0000 -1.7259 0.0000
# 6 0.0000 0.0000 0.0000 0.0000 0.0000 21.5893
#
#
#
# Elastic Compliance Matrix: (Units=1/GPa)
#
#
# Indices 1 2 3 4 5 6 
#
# 1 0.031968 -0.006877 -0.007027 0.000000 0.000000 0.000000
# 2 -0.006877 0.030336 -0.013623 0.000000 0.000000 0.000000
# 3 -0.007027 -0.013623 0.015798 0.000000 0.000000 0.000000
# 4 0.000000 0.000000 0.000000 0.025961 0.000000 0.000000
# 5 0.000000 0.000000 0.000000 0.000000 -0.579405 0.000000
# 6 0.000000 0.000000 0.000000 0.000000 0.000000 0.046319
#
#
# Mechanical properties :
#
#
# Convention : Reuss Voigt Hill
#
# Bulk Modulus (GPa) = 43.38311 69.82669 56.60490
# Shear Modulus (GPa) = -13.65054 19.42023 2.88484
#
# Velocity S-wave (km/s) = -2.79097 3.32895 1.28304
# Velocity P-wave (km/s) = 3.79078 7.39063 5.87331
#
# Compressibility (1/GPa) = 0.02305045
#
# Stress axis : x y z
#
# Youngs Moduli (GPa) = 31.28107 32.96360 63.29722
#
# Poissons Ratio (x) = 0.22667 0.44478
# Poissons Ratio (y) = 0.21510 0.86230
# Poissons Ratio (z) = 0.21981 0.44906
#
# Static dielectric constant tensor:
#      x y z
#    x 2.954010 0.000000 0.000000 
#    y 0.000000 3.592990 0.000000 
#    z 0.000000 0.000000 3.387250 
# 
# 
# High freq. dielectric constant tensor:
#      x y z
#    x 1.648530 0.000000 0.000000 
#    y 0.000000 1.678790 0.000000 
#    z 0.000000 0.000000 1.687670 
# 
# From -- ./inp_files/5572.got.cif
#   From: 2010.03.12/outbox.cif.g09.slc.cpg/sg25_3_cif.got.tgz:5572.got - 2010.04.14 03:30:10.
