data_PCOD8166057
_publ_section_title
;
Structure prediction by ZEFSAII (Michael W. Deem and Ramdas Pophale) SiO2 
 PCOD8166057
Probable space group: I 21 21 21
;
_chemical_formula_sum "Si O2"
_cell_formula_units_Z 56
_cell_length_a 11.691982
_cell_length_b 12.581392
_cell_length_c 14.885366
_cell_angle_alpha 90.000000
_cell_angle_beta 90.000000
_cell_angle_gamma 90.000000
_cell_volume 2189.658309
_symmetry_space_group_name_H-M "I 21 21 21"
_symmetry_group_IT_number 24
_symmetry_cell_setting 'orthorhombic'
loop_
_space_group_symop_operation_xyz
x,y,z
-x,1/2-y,z
x,-y,1/2-z
1/2-x,y,-z
1/2+x,1/2+y,1/2+z
1/2-x,-y,1/2+z
1/2+x,1/2-y,-z
-x,1/2+y,1/2-z
loop_
_atom_site_type_symbol
_atom_site_label
_atom_site_fract_x
_atom_site_fract_y
_atom_site_fract_z
Si Si1 0.379340 0.714361 0.089090
Si Si2 0.077729 0.850370 0.544018
Si Si3 0.337625 0.188467 0.665727
Si Si4 0.324014 0.429048 0.836465
Si Si5 0.580038 0.008816 0.153141
Si Si6 0.681759 0.310544 0.864437
Si Si7 0.564028 0.881475 0.903125
O O1 0.500000 0.750000 0.130675
O O2 0.285383 0.803177 0.115471
O O3 0.353305 0.600196 0.131234
O O4 0.391422 0.696744 0.982561
O O5 0.101264 0.868433 0.437952
O O6 0.190391 0.824524 0.600318
O O7 0.000000 0.750000 0.563199
O O8 0.014419 0.957149 0.579930
O O9 0.325318 0.136955 0.765294
O O10 0.425767 0.115080 0.607861
O O11 0.385081 0.310500 0.679882
O O12 0.364379 0.500000 0.750000
O O13 0.187286 0.411437 0.841026
O O14 0.366768 0.310062 0.854531
O O15 0.381064 0.501715 0.915634
O O16 0.518298 0.000000 0.250000
#
# Coordination Sequence:
#
# PCOD8166057 Si02
#       7
#     8   8   8   8   8   8   8
#     4  12  26  43  76 103 144 200 247 316 386 468
#     4  11  26  44  71 109 152 198 261 332 396 471
#     4  11  23  45  69 107 146 195 253 315 399 470
#     4  11  21  41  72 112 141 197 263 320 386 472
#     4  11  25  45  72 109 143 191 262 326 388 476
#     4  11  25  45  74 104 152 208 256 321 405 481
#     4  11  24  40  70 108 150 181 251 321 385 464
#
# _framework density 25.574769
#
# number of rings (size 3 to 8) (size 9 to 14) (size 15 to 20)
#    0.000    0.857    5.714    1.286    6.000    0.000 
#    0.000    2.857    0.000    0.000    0.000    0.000 
#    0.000    0.000    0.000    0.000    0.000    0.000 
#
# Total GULP energy -346934.888766 kJ/mol
# GULP energy per Si atom -12390.531742 kJ/mol
# Density = 2.551656 g / cm^3
# Si number density = 25.574769 Si / 1000 Ang^3
#
#
#
# Elastic Constant Matrix: (Units=GPa)
#
#
# Indices 1 2 3 4 5 6 
#
# 1 140.8446 21.2217 61.3550 0.0000 0.0000 0.0000
# 2 21.2217 56.7451 19.4828 0.0000 0.0000 0.0000
# 3 61.3550 19.4828 170.2652 0.0000 0.0000 0.0000
# 4 0.0000 0.0000 0.0000 23.6656 0.0000 0.0000
# 5 0.0000 0.0000 0.0000 0.0000 30.9199 0.0000
# 6 0.0000 0.0000 0.0000 0.0000 0.0000 39.2700
#
#
#
# Elastic Compliance Matrix: (Units=1/GPa)
#
#
# Indices 1 2 3 4 5 6 
#
# 1 0.008693 -0.002264 -0.002873 0.000000 0.000000 0.000000
# 2 -0.002264 0.018933 -0.001350 0.000000 0.000000 0.000000
# 3 -0.002873 -0.001350 0.007063 0.000000 0.000000 0.000000
# 4 0.000000 0.000000 0.000000 0.042255 0.000000 0.000000
# 5 0.000000 0.000000 0.000000 0.000000 0.032342 0.000000
# 6 0.000000 0.000000 0.000000 0.000000 0.000000 0.025465
#
#
# Mechanical properties :
#
#
# Convention : Reuss Voigt Hill
#
# Bulk Modulus (GPa) = 46.05607 63.55267 54.80437
# Shear Modulus (GPa) = 32.26531 36.49079 34.37805
#
# Velocity S-wave (km/s) = 3.55576 3.78144 3.67033
# Velocity P-wave (km/s) = 5.90808 6.63094 6.27992
#
# Compressibility (1/GPa) = 0.02171267
#
# Stress axis : x y z
#
# Youngs Moduli (GPa) = 115.03601 52.81729 141.58011
#
# Poissons Ratio (x) = 0.11960 0.40681
# Poissons Ratio (y) = 0.26049 0.19120
# Poissons Ratio (z) = 0.33054 0.07133
#
# Static dielectric constant tensor:
#      x y z
#    x 4.589940 0.000000 0.000000 
#    y 0.000000 4.225620 0.000000 
#    z 0.000000 0.000000 4.742130 
# 
# 
# High freq. dielectric constant tensor:
#      x y z
#    x 2.027600 0.000000 0.000000 
#    y 0.000000 1.991820 0.000000 
#    z 0.000000 0.000000 2.028140 
# 
# From -- ./inp_files/25831.got.cif
#   From: 2010.03.12/outbox.cif.g09.slc.cpg/sg24_13_cif.got.tgz:25831.got - 2010.04.14 03:06:53.
