data_PCOD8166643
_publ_section_title
;
Structure prediction by ZEFSAII (Michael W. Deem and Ramdas Pophale) SiO2 
 PCOD8166643
Probable space group: P M M 2
;
_chemical_formula_sum "Si O2"
_cell_formula_units_Z 32
_cell_length_a 9.258801
_cell_length_b 8.923176
_cell_length_c 20.836034
_cell_angle_alpha 90.000000
_cell_angle_beta 90.000000
_cell_angle_gamma 90.000000
_cell_volume 1721.429600
_symmetry_space_group_name_H-M "P M M 2"
_symmetry_group_IT_number 25
_symmetry_cell_setting 'orthorhombic'
loop_
_space_group_symop_operation_xyz
x,y,z
-x,-y,z
-x,y,z
x,-y,z
loop_
_atom_site_type_symbol
_atom_site_label
_atom_site_fract_x
_atom_site_fract_y
_atom_site_fract_z
Si Si1 0.832248 0.175013 0.310830
Si Si2 0.162635 0.678147 0.075008
Si Si3 0.163311 0.321841 0.554229
Si Si4 0.667751 0.824986 0.439428
Si Si5 0.337366 0.678146 0.675251
Si Si6 0.663310 0.321841 0.196030
Si Si7 0.161879 0.321836 0.934109
Si Si8 0.661879 0.678163 0.816150
O O1 0.750002 0.223846 0.375130
O O2 0.762916 0.265635 0.253107
O O3 0.000000 0.218528 0.317736
O O4 0.811807 0.000000 0.297220
O O5 0.158314 0.500000 0.077753
O O6 0.270264 0.740813 0.129336
O O7 0.000000 0.739452 0.087066
O O8 0.219742 0.729476 0.004442
O O9 0.163984 0.500000 0.553519
O O10 0.262918 0.265631 0.497154
O O11 0.229735 0.259190 0.620924
O O12 0.000000 0.260163 0.547232
O O13 0.500000 0.781468 0.432521
O O14 0.688189 0.000000 0.453037
O O15 0.500000 0.739449 0.663192
O O16 0.341690 0.500000 0.672509
O O17 0.280260 0.729478 0.745817
O O18 0.500000 0.260159 0.203027
O O19 0.663986 0.500000 0.196739
O O20 0.168335 0.500000 0.929876
O O21 0.250001 0.249103 0.875130
O O22 0.000000 0.263560 0.926227
O O23 0.500000 0.736432 0.824035
O O24 0.668344 0.500000 0.820383
#
# Coordination Sequence:
#
# PCOD8166643 Si02
#       8
#     4   4   4   4   4   4   4   4
#     4  10  21  37  56  75  95 122 155 191 233 279
#     4   8  14  25  39  56  83 119 155 191 232 275
#     4  10  20  32  48  72  99 127 159 194 234 279
#     4  10  21  37  56  75  95 122 155 191 233 279
#     4   8  14  25  39  56  83 119 155 191 232 275
#     4  10  20  32  48  72  99 127 159 194 234 279
#     4   8  13  20  31  49  75 110 150 188 227 271
#     4   8  13  20  31  49  75 110 150 188 227 271
#
# _framework density 18.589200999999999
#
# number of rings (size 3 to 8) (size 9 to 14) (size 15 to 20)
#    0.000    3.000    0.000    3.000    0.000    4.500 
#    0.000    5.000    0.000    0.000    0.000    0.000 
#    0.000    1.000    0.000    3.250    0.000    6.500 
#
# Total GULP energy -396597.694853 kJ/mol
# GULP energy per Si atom -12393.677964 kJ/mol
# Density = 1.854689 g / cm^3
# Si number density = 18.589201 Si / 1000 Ang^3
#
#
#
# Elastic Constant Matrix: (Units=GPa)
#
#
# Indices 1 2 3 4 5 6 
#
# 1 131.2470 15.3272 89.6520 0.0000 0.0000 0.0000
# 2 15.3272 8.4316 17.7001 0.0000 0.0000 0.0000
# 3 89.6520 17.7001 177.7637 0.0000 0.0000 0.0000
# 4 0.0000 0.0000 0.0000 -6.3062 0.0000 0.0000
# 5 0.0000 0.0000 0.0000 0.0000 44.4220 0.0000
# 6 0.0000 0.0000 0.0000 0.0000 0.0000 15.7472
#
#
#
# Elastic Compliance Matrix: (Units=1/GPa)
#
#
# Indices 1 2 3 4 5 6 
#
# 1 0.012517 -0.012013 -0.005117 0.000000 0.000000 0.000000
# 2 -0.012013 0.161472 -0.010019 0.000000 0.000000 0.000000
# 3 -0.005117 -0.010019 0.009204 0.000000 0.000000 0.000000
# 4 0.000000 0.000000 0.000000 -0.158574 0.000000 0.000000
# 5 0.000000 0.000000 0.000000 0.000000 0.022511 0.000000
# 6 0.000000 0.000000 0.000000 0.000000 0.000000 0.063503
#
#
# Mechanical properties :
#
#
# Convention : Reuss Voigt Hill
#
# Bulk Modulus (GPa) = 7.75826 62.53341 35.14583
# Shear Modulus (GPa) = 24.05046 23.75682 23.90364
#
# Velocity S-wave (km/s) = 3.60083 3.57878 3.58982
# Velocity P-wave (km/s) = 4.63363 7.12668 6.01083
#
# Compressibility (1/GPa) = 0.12889494
#
# Stress axis : x y z
#
# Youngs Moduli (GPa) = 79.89006 6.19302 108.65303
#
# Poissons Ratio (x) = 0.07440 0.55595
# Poissons Ratio (y) = 0.95971 1.08864
# Poissons Ratio (z) = 0.40877 0.06205
#
# Static dielectric constant tensor:
#      x y z
#    x 3.757220 0.000000 0.000000 
#    y 0.000000 2.783630 0.000000 
#    z 0.000000 0.000000 3.873460 
# 
# 
# High freq. dielectric constant tensor:
#      x y z
#    x 1.726120 0.000000 0.000000 
#    y 0.000000 1.652990 0.000000 
#    z 0.000000 0.000000 1.743340 
# 
# From -- ./inp_files/6268.got.cif
#   From: 2010.03.12/outbox.cif.g09.slc.cpg/sg25_4_cif.got.tgz:6268.got - 2010.04.14 03:30:10.
