data_PCOD8166527
_publ_section_title
;
Structure prediction by ZEFSAII (Michael W. Deem and Ramdas Pophale) SiO2 
 PCOD8166527
Probable space group: P M M 2
;
_chemical_formula_sum "Si O2"
_cell_formula_units_Z 24
_cell_length_a 8.704804
_cell_length_b 12.726626
_cell_length_c 11.840221
_cell_angle_alpha 90.000000
_cell_angle_beta 90.000000
_cell_angle_gamma 90.000000
_cell_volume 1311.692656
_symmetry_space_group_name_H-M "P M M 2"
_symmetry_group_IT_number 25
_symmetry_cell_setting 'orthorhombic'
loop_
_space_group_symop_operation_xyz
x,y,z
-x,-y,z
-x,y,z
x,-y,z
loop_
_atom_site_type_symbol
_atom_site_label
_atom_site_fract_x
_atom_site_fract_y
_atom_site_fract_z
Si Si1 0.317216 0.384494 0.897670
Si Si2 0.683197 0.000000 0.893817
Si Si3 0.820183 0.194124 0.509330
Si Si4 0.318162 0.000000 0.640239
Si Si5 0.678527 0.621923 0.642795
Si Si6 0.318497 0.877472 0.283810
Si Si7 0.682920 0.807713 0.039453
O O1 0.500000 0.387134 0.899852
O O2 0.252259 0.500000 0.928693
O O3 0.266778 0.352973 0.770779
O O4 0.253085 0.302318 0.989906
O O5 0.747658 0.000000 0.767027
O O6 0.500000 0.000000 0.893735
O O7 0.747694 0.101548 0.958376
O O8 0.736506 0.104218 0.579174
O O9 0.776919 0.308261 0.557155
O O10 0.767825 0.187488 0.379855
O O11 0.000000 0.176088 0.517807
O O12 0.500000 0.000000 0.638978
O O13 0.500000 0.650402 0.627957
O O14 0.708137 0.500000 0.614122
O O15 0.500000 0.864096 0.298821
O O16 0.259637 0.827115 0.166474
O O17 0.272907 0.000000 0.288236
O O18 0.500000 0.809931 0.037432
#
# Coordination Sequence:
#
# PCOD8166527 Si02
#       7
#     4   2   4   2   4   4   4
#     4   8  14  26  48  79 110 134 161 209 267 315
#     4   9  16  26  47  78 102 123 158 215 274 313
#     4  12  24  36  52  76 109 144 182 224 271 320
#     4  11  21  34  55  80 108 139 174 219 270 323
#     4   9  18  35  59  84 109 140 179 219 263 319
#     4  10  19  33  53  74 101 141 185 224 263 311
#     4   9  15  26  46  75 104 129 168 215 263 314
#
# _framework density 18.296969000000001
#
# number of rings (size 3 to 8) (size 9 to 14) (size 15 to 20)
#    0.000    2.333    1.667    3.750    0.000    3.000 
#    0.000    0.833    0.000    8.000    0.000    0.000 
#    0.000    0.000    0.000    0.000    0.000    0.000 
#
# Total GULP energy -297571.215148 kJ/mol
# GULP energy per Si atom -12398.800631 kJ/mol
# Density = 1.825532 g / cm^3
# Si number density = 18.296969 Si / 1000 Ang^3
#
#
#
# Elastic Constant Matrix: (Units=GPa)
#
#
# Indices 1 2 3 4 5 6 
#
# 1 41.2442 22.8218 29.8920 0.0000 0.0000 0.0000
# 2 22.8218 123.1073 79.2196 0.0000 0.0000 0.0000
# 3 29.8920 79.2196 159.4573 0.0000 0.0000 0.0000
# 4 0.0000 0.0000 0.0000 28.6689 0.0000 0.0000
# 5 0.0000 0.0000 0.0000 0.0000 -2.5169 0.0000
# 6 0.0000 0.0000 0.0000 0.0000 0.0000 10.3445
#
#
#
# Elastic Compliance Matrix: (Units=1/GPa)
#
#
# Indices 1 2 3 4 5 6 
#
# 1 0.028668 -0.002729 -0.004019 0.000000 0.000000 0.000000
# 2 -0.002729 0.012200 -0.005550 0.000000 0.000000 0.000000
# 3 -0.004019 -0.005550 0.009782 0.000000 0.000000 0.000000
# 4 0.000000 0.000000 0.000000 0.034881 0.000000 0.000000
# 5 0.000000 0.000000 0.000000 0.000000 -0.397313 0.000000
# 6 0.000000 0.000000 0.000000 0.000000 0.000000 0.096670
#
#
# Mechanical properties :
#
#
# Convention : Reuss Voigt Hill
#
# Bulk Modulus (GPa) = 38.37836 65.29730 51.83783
# Shear Modulus (GPa) = -27.49772 20.09099 -3.70337
#
# Velocity S-wave (km/s) = -3.88088 3.31728 -1.42423
# Velocity P-wave (km/s) = 0.96912 7.10193 5.06836
#
# Compressibility (1/GPa) = 0.02605635
#
# Stress axis : x y z
#
# Youngs Moduli (GPa) = 34.88194 81.96758 102.23234
#
# Poissons Ratio (x) = 0.22366 0.41083
# Poissons Ratio (y) = 0.09518 0.56734
# Poissons Ratio (z) = 0.14018 0.45488
#
# Static dielectric constant tensor:
#      x y z
#    x 2.882570 0.000000 0.000000 
#    y 0.000000 3.623560 0.000000 
#    z 0.000000 0.000000 3.570130 
# 
# 
# High freq. dielectric constant tensor:
#      x y z
#    x 1.661220 0.000000 0.000000 
#    y 0.000000 1.714460 0.000000 
#    z 0.000000 0.000000 1.715530 
# 
# From -- ./inp_files/3950.got.cif
#   From: 2010.03.12/outbox.cif.g09.slc.cpg/sg25_2_cif.got.tgz:3950.got - 2010.04.14 03:30:10.
