data_PCOD8166992
_publ_section_title
;
Structure prediction by ZEFSAII (Michael W. Deem and Ramdas Pophale) SiO2 
 PCOD8166992
Probable space group: P M M 2
;
_chemical_formula_sum "Si O2"
_cell_formula_units_Z 20
_cell_length_a 12.790660
_cell_length_b 8.656661
_cell_length_c 9.210291
_cell_angle_alpha 90.000000
_cell_angle_beta 90.000000
_cell_angle_gamma 90.000000
_cell_volume 1019.804015
_symmetry_space_group_name_H-M "P M M 2"
_symmetry_group_IT_number 25
_symmetry_cell_setting 'orthorhombic'
loop_
_space_group_symop_operation_xyz
x,y,z
-x,-y,z
-x,y,z
x,-y,z
loop_
_atom_site_type_symbol
_atom_site_label
_atom_site_fract_x
_atom_site_fract_y
_atom_site_fract_z
Si Si1 0.878997 0.320734 0.720140
Si Si2 0.114392 0.683331 0.392928
Si Si3 0.308194 0.317564 0.211391
Si Si4 0.500000 0.182968 0.710394
Si Si5 0.302976 0.818766 0.896246
Si Si6 0.500000 0.817278 0.384090
O O1 0.849290 0.500000 0.739862
O O2 0.856786 0.263645 0.556047
O O3 0.808687 0.218382 0.826041
O O4 0.000000 0.293679 0.761070
O O5 0.109311 0.500000 0.392328
O O6 0.199101 0.744734 0.278458
O O7 0.000000 0.749454 0.349079
O O8 0.318132 0.500000 0.227523
O O9 0.398843 0.239454 0.301450
O O10 0.315195 0.271910 0.045175
O O11 0.603897 0.241249 0.792495
O O12 0.500000 0.251140 0.547517
O O13 0.500000 0.000000 0.704232
O O14 0.312100 0.000000 0.927041
O O15 0.500000 0.000000 0.386804
#
# Coordination Sequence:
#
# PCOD8166992 Si02
#       6
#     4   4   4   2   4   2
#     4   9  18  35  58  82 109 143 184 230 278 326
#     4   8  16  33  57  82 108 141 183 231 279 325
#     4  11  22  36  56  84 114 144 182 226 274 328
#     4   9  21  39  58  78 104 143 184 225 276 330
#     4  11  22  37  56  80 113 149 184 224 274 329
#     4  11  22  39  60  80 106 141 182 227 278 330
#
# _framework density 19.611611
#
# number of rings (size 3 to 8) (size 9 to 14) (size 15 to 20)
#    0.000    2.200    0.000    4.500    0.000    2.000 
#    0.000    7.500    0.000    4.200    0.000    0.000 
#    0.000    0.000    0.000    0.000    0.000    0.000 
#
# Total GULP energy -248017.945176 kJ/mol
# GULP energy per Si atom -12400.897259 kJ/mol
# Density = 1.956697 g / cm^3
# Si number density = 19.611611 Si / 1000 Ang^3
#
#
#
# Elastic Constant Matrix: (Units=GPa)
#
#
# Indices 1 2 3 4 5 6 
#
# 1 142.3762 28.0991 83.1056 0.0000 0.0000 0.0000
# 2 28.0991 40.4715 18.7288 0.0000 0.0000 0.0000
# 3 83.1056 18.7288 148.2728 0.0000 0.0000 0.0000
# 4 0.0000 0.0000 0.0000 28.7501 0.0000 0.0000
# 5 0.0000 0.0000 0.0000 0.0000 42.6059 0.0000
# 6 0.0000 0.0000 0.0000 0.0000 0.0000 21.6483
#
#
#
# Elastic Compliance Matrix: (Units=1/GPa)
#
#
# Indices 1 2 3 4 5 6 
#
# 1 0.011407 -0.005269 -0.005728 0.000000 0.000000 0.000000
# 2 -0.005269 0.028677 -0.000669 0.000000 0.000000 0.000000
# 3 -0.005728 -0.000669 0.010039 0.000000 0.000000 0.000000
# 4 0.000000 0.000000 0.000000 0.034783 0.000000 0.000000
# 5 0.000000 0.000000 0.000000 0.000000 0.023471 0.000000
# 6 0.000000 0.000000 0.000000 0.000000 0.000000 0.046193
#
#
# Mechanical properties :
#
#
# Convention : Reuss Voigt Hill
#
# Bulk Modulus (GPa) = 37.32615 65.66530 51.49572
# Shear Modulus (GPa) = 26.76207 32.01333 29.38770
#
# Velocity S-wave (km/s) = 3.69806 4.04464 3.87523
# Velocity P-wave (km/s) = 6.10804 7.44095 6.80720
#
# Compressibility (1/GPa) = 0.02679087
#
# Stress axis : x y z
#
# Youngs Moduli (GPa) = 87.66566 34.87163 99.60859
#
# Poissons Ratio (x) = 0.18374 0.57055
# Poissons Ratio (y) = 0.46192 0.06663
# Poissons Ratio (z) = 0.50214 0.02333
#
# Static dielectric constant tensor:
#      x y z
#    x 3.651720 0.000000 0.000000 
#    y 0.000000 3.286770 0.000000 
#    z 0.000000 0.000000 3.716410 
# 
# 
# High freq. dielectric constant tensor:
#      x y z
#    x 1.780910 0.000000 0.000000 
#    y 0.000000 1.738170 0.000000 
#    z 0.000000 0.000000 1.771640 
# 
# From -- ./inp_files/2538.got.cif
#   From: 2010.03.12/outbox.cif.g09.slc.cpg/sg25_2_cif.got.tgz:2538.got - 2010.04.14 03:30:10.
