data_PCOD8166500
_publ_section_title
;
Structure prediction by ZEFSAII (Michael W. Deem and Ramdas Pophale) SiO2 
 PCOD8166500
Probable space group: P M M 2
;
_chemical_formula_sum "Si O2"
_cell_formula_units_Z 32
_cell_length_a 18.025492
_cell_length_b 9.012508
_cell_length_c 11.281593
_cell_angle_alpha 90.000000
_cell_angle_beta 90.000000
_cell_angle_gamma 90.000000
_cell_volume 1832.749959
_symmetry_space_group_name_H-M "P M M 2"
_symmetry_group_IT_number 25
_symmetry_cell_setting 'orthorhombic'
loop_
_space_group_symop_operation_xyz
x,y,z
-x,-y,z
-x,y,z
x,-y,z
loop_
_atom_site_type_symbol
_atom_site_label
_atom_site_fract_x
_atom_site_fract_y
_atom_site_fract_z
Si Si1 0.916556 0.826311 0.830010
Si Si2 0.582007 0.169490 0.300267
Si Si3 0.204302 0.665378 0.385898
Si Si4 0.223593 0.676387 0.930470
Si Si5 0.703960 0.834978 0.716253
Si Si6 0.270439 0.174901 0.171253
Si Si7 0.360524 0.664968 0.515317
Si Si8 0.141281 0.163409 0.585729
O O1 0.860298 0.733747 0.910850
O O2 0.910933 0.776141 0.691943
O O3 0.000000 0.796658 0.875363
O O4 0.894889 0.000000 0.839166
O O5 0.500000 0.190985 0.243207
O O6 0.644982 0.218041 0.206663
O O7 0.584173 0.261735 0.421392
O O8 0.597006 0.000000 0.336271
O O9 0.181736 0.500000 0.343625
O O10 0.213859 0.773749 0.273893
O O11 0.279172 0.659319 0.460070
O O12 0.139357 0.728894 0.471565
O O13 0.223700 0.500000 0.926267
O O14 0.279926 0.737725 0.832137
O O15 0.252262 0.732630 0.055616
O O16 0.639891 0.756925 0.638199
O O17 0.776265 0.847296 0.636189
O O18 0.677627 0.000000 0.754264
O O19 0.260384 0.000000 0.148935
O O20 0.389178 0.500000 0.543687
O O21 0.114694 0.000000 0.544806
#
# Coordination Sequence:
#
# PCOD8166500 Si02
#       8
#     4   4   4   4   4   4   4   4
#     4   9  18  33  52  73  98 129 165 203 245 298
#     4   9  18  32  50  72  97 127 164 205 249 299
#     4   9  16  26  42  66  94 120 149 189 234 279
#     4  11  21  32  48  72 101 130 166 211 253 296
#     4   9  16  28  46  67  92 122 156 193 233 280
#     4  10  19  32  50  70  95 129 169 210 249 294
#     4   9  16  26  43  69  97 122 149 187 238 288
#     4   8  14  25  43  67  92 118 148 184 229 279
#
# _framework density 17.460100000000001
#
# number of rings (size 3 to 8) (size 9 to 14) (size 15 to 20)
#    0.000    2.750    0.000    3.375    0.000    7.000 
#    0.000    0.000    0.000    1.500    0.000    3.500 
#    0.000    0.000    0.000    0.000    0.000    0.000 
#
# Total GULP energy -396662.791316 kJ/mol
# GULP energy per Si atom -12395.712229 kJ/mol
# Density = 1.742036 g / cm^3
# Si number density = 17.460100 Si / 1000 Ang^3
#
#
#
# Elastic Constant Matrix: (Units=GPa)
#
#
# Indices 1 2 3 4 5 6 
#
# 1 59.4303 38.4061 43.1464 0.0000 0.0000 0.0000
# 2 38.4061 125.9376 60.6222 0.0000 0.0000 0.0000
# 3 43.1464 60.6222 104.2363 0.0000 0.0000 0.0000
# 4 0.0000 0.0000 0.0000 31.8999 0.0000 0.0000
# 5 0.0000 0.0000 0.0000 0.0000 15.7373 0.0000
# 6 0.0000 0.0000 0.0000 0.0000 0.0000 13.3239
#
#
#
# Elastic Compliance Matrix: (Units=1/GPa)
#
#
# Indices 1 2 3 4 5 6 
#
# 1 0.025242 -0.003706 -0.008293 0.000000 0.000000 0.000000
# 2 -0.003706 0.011572 -0.005196 0.000000 0.000000 0.000000
# 3 -0.008293 -0.005196 0.016048 0.000000 0.000000 0.000000
# 4 0.000000 0.000000 0.000000 0.031348 0.000000 0.000000
# 5 0.000000 0.000000 0.000000 0.000000 0.063543 0.000000
# 6 0.000000 0.000000 0.000000 0.000000 0.000000 0.075053
#
#
# Mechanical properties :
#
#
# Convention : Reuss Voigt Hill
#
# Bulk Modulus (GPa) = 54.13556 63.77261 58.95408
# Shear Modulus (GPa) = 18.98585 22.02086 20.50336
#
# Velocity S-wave (km/s) = 3.30113 3.55520 3.43052
# Velocity P-wave (km/s) = 6.75297 7.31141 7.03773
#
# Compressibility (1/GPa) = 0.01847215
#
# Stress axis : x y z
#
# Youngs Moduli (GPa) = 39.61633 86.41739 62.31190
#
# Poissons Ratio (x) = 0.32024 0.51677
# Poissons Ratio (y) = 0.14681 0.32377
# Poissons Ratio (z) = 0.32855 0.44903
#
# Static dielectric constant tensor:
#      x y z
#    x 3.002820 0.000000 0.000000 
#    y 0.000000 3.469570 0.000000 
#    z 0.000000 0.000000 3.183840 
# 
# 
# High freq. dielectric constant tensor:
#      x y z
#    x 1.633480 0.000000 0.000000 
#    y 0.000000 1.685290 0.000000 
#    z 0.000000 0.000000 1.659390 
# 
# From -- ./inp_files/5050.got.cif
#   From: 2010.03.12/outbox.cif.g09.slc.cpg/sg25_3_cif.got.tgz:5050.got - 2010.04.14 03:30:10.
