data_PCOD8166041
_publ_section_title
;
Structure prediction by ZEFSAII (Michael W. Deem and Ramdas Pophale) SiO2 
 PCOD8166041
Probable space group: I 21 21 21
;
_chemical_formula_sum "Si O2"
_cell_formula_units_Z 36
_cell_length_a 8.163898
_cell_length_b 12.483556
_cell_length_c 16.264715
_cell_angle_alpha 90.000000
_cell_angle_beta 90.000000
_cell_angle_gamma 90.000000
_cell_volume 1657.609937
_symmetry_space_group_name_H-M "I 21 21 21"
_symmetry_group_IT_number 24
_symmetry_cell_setting 'orthorhombic'
loop_
_space_group_symop_operation_xyz
x,y,z
-x,1/2-y,z
x,-y,1/2-z
1/2-x,y,-z
1/2+x,1/2+y,1/2+z
1/2-x,-y,1/2+z
1/2+x,1/2-y,-z
-x,1/2+y,1/2-z
loop_
_atom_site_type_symbol
_atom_site_label
_atom_site_fract_x
_atom_site_fract_y
_atom_site_fract_z
Si Si1 0.805827 0.498956 0.586913
Si Si2 0.318607 0.449969 0.088537
Si Si3 0.686948 0.270277 0.866184
Si Si4 0.126340 0.500000 0.250000
Si Si5 0.382678 0.833282 0.801946
O O1 0.750000 0.452649 0.500000
O O2 0.729072 0.615035 0.596700
O O3 0.736345 0.410055 0.648879
O O4 0.998749 0.506819 0.596762
O O5 0.304356 0.321064 0.095227
O O6 0.226035 0.505510 0.164835
O O7 0.250000 0.488698 0.000000
O O8 0.500000 0.250000 0.892348
O O9 0.721411 0.269615 0.767396
O O10 0.009906 0.397609 0.244235
O O11 0.500000 0.750000 0.854114
#
# Coordination Sequence:
#
# PCOD8166041 Si02
#       5
#     8   8   8   4   8
#     4  12  25  43  70 100 143 184 234 295 349 422
#     4  12  26  43  69 109 141 181 238 290 356 416
#     4  11  20  42  70 101 138 181 228 291 351 414
#     4  12  22  44  72  96 144 180 228 296 346 420
#     4  11  22  44  72  96 137 185 236 279 360 417
#
# _framework density 21.718017
#
# number of rings (size 3 to 8) (size 9 to 14) (size 15 to 20)
#    0.000    0.444    6.667    4.000    3.111    0.000 
#    0.000    4.444    0.000    0.000    0.000    0.000 
#    0.000    0.000    0.000    0.000    0.000    0.000 
#
# Total GULP energy -223084.677489 kJ/mol
# GULP energy per Si atom -12393.593194 kJ/mol
# Density = 2.166859 g / cm^3
# Si number density = 21.718017 Si / 1000 Ang^3
#
#
#
# Elastic Constant Matrix: (Units=GPa)
#
#
# Indices 1 2 3 4 5 6 
#
# 1 155.1320 46.2381 64.6233 0.0000 0.0000 0.0000
# 2 46.2381 70.5956 22.3304 0.0000 0.0000 0.0000
# 3 64.6233 22.3304 145.0841 0.0000 0.0000 0.0000
# 4 0.0000 0.0000 0.0000 25.6648 0.0000 0.0000
# 5 0.0000 0.0000 0.0000 0.0000 31.6668 0.0000
# 6 0.0000 0.0000 0.0000 0.0000 0.0000 36.2973
#
#
#
# Elastic Compliance Matrix: (Units=1/GPa)
#
#
# Indices 1 2 3 4 5 6 
#
# 1 0.009369 -0.005063 -0.003394 0.000000 0.000000 0.000000
# 2 -0.005063 0.017626 -0.000458 0.000000 0.000000 0.000000
# 3 -0.003394 -0.000458 0.008475 0.000000 0.000000 0.000000
# 4 0.000000 0.000000 0.000000 0.038964 0.000000 0.000000
# 5 0.000000 0.000000 0.000000 0.000000 0.031579 0.000000
# 6 0.000000 0.000000 0.000000 0.000000 0.000000 0.027550
#
#
# Mechanical properties :
#
#
# Convention : Reuss Voigt Hill
#
# Bulk Modulus (GPa) = 56.68726 70.79946 63.74336
# Shear Modulus (GPa) = 31.79213 34.56714 33.17963
#
# Velocity S-wave (km/s) = 3.83019 3.99386 3.91288
# Velocity P-wave (km/s) = 6.76156 7.34425 7.05892
#
# Compressibility (1/GPa) = 0.01764065
#
# Stress axis : x y z
#
# Youngs Moduli (GPa) = 106.73599 56.73438 117.99826
#
# Poissons Ratio (x) = 0.28724 0.40047
# Poissons Ratio (y) = 0.54039 0.05402
# Poissons Ratio (z) = 0.36225 0.02597
#
# Static dielectric constant tensor:
#      x y z
#    x 3.937600 0.000000 0.000000 
#    y 0.000000 4.059500 0.000000 
#    z 0.000000 0.000000 3.940880 
# 
# 
# High freq. dielectric constant tensor:
#      x y z
#    x 1.850100 0.000000 0.000000 
#    y 0.000000 1.858030 0.000000 
#    z 0.000000 0.000000 1.855720 
# 
# From -- ./inp_files/24469.got.cif
#   From: 2010.03.12/outbox.cif.g09.slc.cpg/sg24_13_cif.got.tgz:24469.got - 2010.04.14 03:06:53.
