data_PCOD8166284
_publ_section_title
;
Structure prediction by ZEFSAII (Michael W. Deem and Ramdas Pophale) SiO2 
 PCOD8166284
Probable space group: I 21 21 21
;
_chemical_formula_sum "Si O2"
_cell_formula_units_Z 28
_cell_length_a 4.992198
_cell_length_b 27.601118
_cell_length_c 7.921921
_cell_angle_alpha 90.000000
_cell_angle_beta 90.000000
_cell_angle_gamma 90.000000
_cell_volume 1091.563444
_symmetry_space_group_name_H-M "I 21 21 21"
_symmetry_group_IT_number 24
_symmetry_cell_setting 'orthorhombic'
loop_
_space_group_symop_operation_xyz
x,y,z
-x,1/2-y,z
x,-y,1/2-z
1/2-x,y,-z
1/2+x,1/2+y,1/2+z
1/2-x,-y,1/2+z
1/2+x,1/2-y,-z
-x,1/2+y,1/2-z
loop_
_atom_site_type_symbol
_atom_site_label
_atom_site_fract_x
_atom_site_fract_y
_atom_site_fract_z
Si Si1 0.106759 0.947411 0.316238
Si Si2 0.750000 0.824931 0.000000
Si Si3 0.750000 0.882589 0.500000
Si Si4 0.250000 0.891352 0.000000
Si Si5 0.250000 0.813655 0.500000
Si Si6 0.500000 0.750000 0.244339
O O1 0.250000 0.948549 0.500000
O O2 0.829626 0.917165 0.341140
O O3 0.023252 0.000000 0.250000
O O4 0.293464 0.923473 0.169991
O O5 0.670154 0.790132 0.150232
O O6 0.501474 0.858447 0.952483
O O7 0.500978 0.848030 0.468383
O O8 0.260416 0.777106 0.343247
#
# Coordination Sequence:
#
# PCOD8166284 Si02
#       6
#     8   4   4   4   4   4
#     4  12  28  54  86 123 168 217 279 345 426 503
#     4  12  29  53  78 118 162 214 270 345 417 486
#     4  12  27  51  80 122 162 218 278 339 419 500
#     4  12  29  53  82 118 168 214 274 349 411 502
#     4  12  27  51  84 116 160 220 276 337 407 498
#     4  12  28  52  80 120 170 214 284 342 412 494
#
# _framework density 25.65128
#
# number of rings (size 3 to 8) (size 9 to 14) (size 15 to 20)
#    0.000    0.000    2.857    5.143    4.000   10.286 
#    0.000    0.000    0.000    0.000    0.000    0.000 
#    0.000    0.000    0.000    0.000    0.000    0.000 
#
# Total GULP energy -173455.428123 kJ/mol
# GULP energy per Si atom -12389.673437 kJ/mol
# Density = 2.559290 g / cm^3
# Si number density = 25.651280 Si / 1000 Ang^3
#
#
#
# Elastic Constant Matrix: (Units=GPa)
#
#
# Indices 1 2 3 4 5 6 
#
# 1 140.3608 65.0733 50.2283 0.0000 0.0000 0.0000
# 2 65.0733 188.6188 86.6221 0.0001 0.0000 0.0000
# 3 50.2283 86.6221 188.8948 0.0002 0.0000 0.0009
# 4 0.0000 0.0001 0.0002 78.8338 0.0000 0.0003
# 5 0.0000 0.0000 0.0000 0.0000 43.5562 0.0000
# 6 0.0000 0.0000 0.0009 0.0003 0.0000 4.3938
#
#
#
# Elastic Compliance Matrix: (Units=1/GPa)
#
#
# Indices 1 2 3 4 5 6 
#
# 1 0.008685 -0.002452 -0.001185 0.000000 0.000000 0.000000
# 2 -0.002452 0.007408 -0.002745 0.000000 0.000000 0.000000
# 3 -0.001185 -0.002745 0.006868 0.000000 0.000000 -0.000001
# 4 0.000000 0.000000 0.000000 0.012685 0.000000 -0.000001
# 5 0.000000 0.000000 0.000000 0.000000 0.022959 0.000000
# 6 0.000000 0.000000 -0.000001 -0.000001 0.000000 0.227591
#
#
# Mechanical properties :
#
#
# Convention : Reuss Voigt Hill
#
# Bulk Modulus (GPa) = 98.06932 102.41354 100.24143
# Shear Modulus (GPa) = 16.53652 46.42014 31.47833
#
# Velocity S-wave (km/s) = 2.54178 4.25863 3.50689
# Velocity P-wave (km/s) = 6.85047 8.01207 7.45393
#
# Compressibility (1/GPa) = 0.01019687
#
# Stress axis : x y z
#
# Youngs Moduli (GPa) = 115.13500 134.98051 145.60406
#
# Poissons Ratio (x) = 0.33101 0.17254
# Poissons Ratio (y) = 0.28234 0.39972
# Poissons Ratio (z) = 0.13643 0.37056
#
# Static dielectric constant tensor:
#      x y z
#    x 3.750790 0.000000 0.000000 
#    y 0.000000 5.373440 0.000000 
#    z 0.000000 0.000000 4.978760 
# 
# 
# High freq. dielectric constant tensor:
#      x y z
#    x 2.019380 0.000000 0.000000 
#    y 0.000000 2.061230 0.000000 
#    z 0.000000 0.000000 2.034060 
# 
# From -- ./inp_files/1066.got.cif
#   From: 2010.03.12/outbox.cif.g09.slc.cpg/sg24_1_cif.got.tgz:1066.got - 2010.04.14 03:06:53.
