data_PCOD8166642
_publ_section_title
;
Structure prediction by ZEFSAII (Michael W. Deem and Ramdas Pophale) SiO2 
 PCOD8166642
Probable space group: P M M 2
;
_chemical_formula_sum "Si O2"
_cell_formula_units_Z 32
_cell_length_a 9.267725
_cell_length_b 9.195232
_cell_length_c 20.807406
_cell_angle_alpha 90.000000
_cell_angle_beta 90.000000
_cell_angle_gamma 90.000000
_cell_volume 1773.183866
_symmetry_space_group_name_H-M "P M M 2"
_symmetry_group_IT_number 25
_symmetry_cell_setting 'orthorhombic'
loop_
_space_group_symop_operation_xyz
x,y,z
-x,-y,z
-x,y,z
x,-y,z
loop_
_atom_site_type_symbol
_atom_site_label
_atom_site_fract_x
_atom_site_fract_y
_atom_site_fract_z
Si Si1 0.668693 0.168390 0.505250
Si Si2 0.328066 0.664413 0.630713
Si Si3 0.166160 0.170238 0.380095
Si Si4 0.668763 0.330086 0.881108
Si Si5 0.828491 0.336788 0.116688
Si Si6 0.170866 0.664631 0.257723
Si Si7 0.171147 0.166665 0.993490
Si Si8 0.671571 0.835688 0.754031
O O1 0.500000 0.192832 0.494674
O O2 0.727243 0.259072 0.565837
O O3 0.748593 0.228215 0.442108
O O4 0.705043 0.000000 0.518156
O O5 0.500000 0.665447 0.632698
O O6 0.268695 0.500000 0.633339
O O7 0.266223 0.753408 0.691515
O O8 0.235187 0.239096 0.315523
O O9 0.000000 0.215443 0.388891
O O10 0.186165 0.000000 0.372764
O O11 0.500000 0.301989 0.892622
O O12 0.703246 0.500000 0.874428
O O13 0.723768 0.250662 0.816819
O O14 0.756082 0.264585 0.939861
O O15 0.771419 0.500000 0.101648
O O16 0.772016 0.285067 0.187182
O O17 0.773553 0.225387 0.062513
O O18 0.000000 0.340099 0.117777
O O19 0.219127 0.500000 0.270182
O O20 0.000000 0.680291 0.258330
O O21 0.000000 0.182109 0.987006
O O22 0.220863 0.000000 0.986374
O O23 0.500000 0.838364 0.750957
O O24 0.732899 0.000000 0.756017
#
# Coordination Sequence:
#
# PCOD8166642 Si02
#       8
#     4   4   4   4   4   4   4   4
#     4   9  17  29  44  62  86 116 146 176 216 266
#     4   9  16  26  42  65  90 114 145 186 225 261
#     4   9  17  28  43  64  88 113 143 181 222 262
#     4  10  20  33  50  72  97 126 159 194 233 277
#     4   8  14  26  44  65  89 117 150 189 230 269
#     4   8  14  25  42  64  88 114 146 184 224 264
#     4  10  20  32  48  72  99 126 157 193 234 280
#     4   9  16  27  45  68  93 120 150 187 230 272
#
# _framework density 18.046634000000001
#
# number of rings (size 3 to 8) (size 9 to 14) (size 15 to 20)
#    0.000    3.000    0.000    2.250    0.000    5.500 
#    0.000    2.500    0.000    1.500    0.000    5.250 
#    0.000    0.000    0.000    0.000    0.000    0.000 
#
# Total GULP energy -396686.719536 kJ/mol
# GULP energy per Si atom -12396.459985 kJ/mol
# Density = 1.800556 g / cm^3
# Si number density = 18.046634 Si / 1000 Ang^3
#
#
#
# Elastic Constant Matrix: (Units=GPa)
#
#
# Indices 1 2 3 4 5 6 
#
# 1 16.3784 22.7188 30.4301 0.0000 0.0000 0.0000
# 2 22.7188 118.1435 88.5567 0.0000 0.0000 0.0000
# 3 30.4301 88.5567 189.0902 0.0000 0.0000 0.0000
# 4 0.0000 0.0000 0.0000 42.7121 0.0000 0.0000
# 5 0.0000 0.0000 0.0000 0.0000 24.7848 0.0000
# 6 0.0000 0.0000 0.0000 0.0000 0.0000 15.2267
#
#
#
# Elastic Compliance Matrix: (Units=1/GPa)
#
#
# Indices 1 2 3 4 5 6 
#
# 1 0.094821 -0.010472 -0.010355 0.000000 0.000000 0.000000
# 2 -0.010472 0.014200 -0.004965 0.000000 0.000000 0.000000
# 3 -0.010355 -0.004965 0.009280 0.000000 0.000000 0.000000
# 4 0.000000 0.000000 0.000000 0.023413 0.000000 0.000000
# 5 0.000000 0.000000 0.000000 0.000000 0.040347 0.000000
# 6 0.000000 0.000000 0.000000 0.000000 0.000000 0.065674
#
#
# Mechanical properties :
#
#
# Convention : Reuss Voigt Hill
#
# Bulk Modulus (GPa) = 14.98872 67.44704 41.21788
# Shear Modulus (GPa) = 15.54930 28.67181 22.11055
#
# Velocity S-wave (km/s) = 2.93852 3.99025 3.50407
# Velocity P-wave (km/s) = 4.45385 7.66057 6.26582
#
# Compressibility (1/GPa) = 0.06671684
#
# Stress axis : x y z
#
# Youngs Moduli (GPa) = 10.54616 70.42496 107.75771
#
# Poissons Ratio (x) = 0.73750 1.11584
# Poissons Ratio (y) = 0.11044 0.53499
# Poissons Ratio (z) = 0.10921 0.34965
#
# Static dielectric constant tensor:
#      x y z
#    x 2.757610 0.000000 0.000000 
#    y 0.000000 3.472910 0.000000 
#    z 0.000000 0.000000 3.815090 
# 
# 
# High freq. dielectric constant tensor:
#      x y z
#    x 1.632740 0.000000 0.000000 
#    y 0.000000 1.703920 0.000000 
#    z 0.000000 0.000000 1.719470 
# 
# From -- ./inp_files/6275.got.cif
#   From: 2010.03.12/outbox.cif.g09.slc.cpg/sg25_4_cif.got.tgz:6275.got - 2010.04.14 03:30:10.
