data_PCOD8166283
_publ_section_title
;
Structure prediction by ZEFSAII (Michael W. Deem and Ramdas Pophale) SiO2 
 PCOD8166283
Probable space group: I 21 21 21
;
_chemical_formula_sum "Si O2"
_cell_formula_units_Z 16
_cell_length_a 24.292250
_cell_length_b 4.979590
_cell_length_c 5.127419
_cell_angle_alpha 90.000000
_cell_angle_beta 90.000000
_cell_angle_gamma 90.000000
_cell_volume 620.240522
_symmetry_space_group_name_H-M "I 21 21 21"
_symmetry_group_IT_number 24
_symmetry_cell_setting 'orthorhombic'
loop_
_space_group_symop_operation_xyz
x,y,z
-x,1/2-y,z
x,-y,1/2-z
1/2-x,y,-z
1/2+x,1/2+y,1/2+z
1/2-x,-y,1/2+z
1/2+x,1/2-y,-z
-x,1/2+y,1/2-z
loop_
_atom_site_type_symbol
_atom_site_label
_atom_site_fract_x
_atom_site_fract_y
_atom_site_fract_z
Si Si1 0.369612 0.768022 0.920989
Si Si2 0.464703 0.000000 0.250000
Si Si3 0.713815 0.000000 0.250000
O O1 0.377401 0.500000 0.750000
O O2 0.341943 0.000000 0.750000
O O3 0.327363 0.735754 0.160883
O O4 0.428524 0.870828 0.020326
O O5 0.500000 0.250000 0.135537
O O6 0.750000 0.907831 0.500000
#
# Coordination Sequence:
#
# PCOD8166283 Si02
#       3
#     8   4   4
#     4  12  27  54  81 119 168 213 278 341 402 501
#     4  12  27  50  82 118 164 218 271 342 418 478
#     4  12  27  56  84 126 166 224 269 340 414 488
#
# _framework density 25.796444000000001
#
# number of rings (size 3 to 8) (size 9 to 14) (size 15 to 20)
#    0.000    0.000    2.500    7.500    0.000    4.000 
#   13.500    5.000    0.000    0.000    0.000    0.000 
#    0.000    0.000    0.000    0.000    0.000    0.000 
#
# Total GULP energy -99174.295359 kJ/mol
# GULP energy per Si atom -12396.786920 kJ/mol
# Density = 2.573773 g / cm^3
# Si number density = 25.796444 Si / 1000 Ang^3
#
#
#
# Elastic Constant Matrix: (Units=GPa)
#
#
# Indices 1 2 3 4 5 6 
#
# 1 182.7242 89.5247 87.9291 0.0000 0.0000 0.0001
# 2 89.5247 219.9954 93.8325 0.0000 0.0000 0.0001
# 3 87.9291 93.8325 187.8624 0.0001 0.0000 0.0004
# 4 0.0000 0.0000 0.0001 63.4811 0.0000 0.0004
# 5 0.0000 0.0000 0.0000 0.0000 23.3799 0.0007
# 6 0.0001 0.0001 0.0004 0.0004 0.0007 889.7144
#
#
#
# Elastic Compliance Matrix: (Units=1/GPa)
#
#
# Indices 1 2 3 4 5 6 
#
# 1 0.007719 -0.002033 -0.002597 0.000000 0.000000 0.000000
# 2 -0.002033 0.006312 -0.002201 0.000000 0.000000 0.000000
# 3 -0.002597 -0.002201 0.007638 0.000000 0.000000 0.000000
# 4 0.000000 0.000000 0.000000 0.015753 0.000000 0.000000
# 5 0.000000 0.000000 0.000000 0.000000 0.042772 0.000000
# 6 0.000000 0.000000 0.000000 0.000000 0.000000 0.001124
#
#
# Mechanical properties :
#
#
# Convention : Reuss Voigt Hill
#
# Bulk Modulus (GPa) = 124.91100 125.90607 125.40853
# Shear Modulus (GPa) = 51.20435 216.60145 133.90290
#
# Velocity S-wave (km/s) = 4.46010 9.17322 7.21250
# Velocity P-wave (km/s) = 8.66315 12.69294 10.86648
#
# Compressibility (1/GPa) = 0.00800570
#
# Stress axis : x y z
#
# Youngs Moduli (GPa) = 129.55508 158.43633 130.92579
#
# Poissons Ratio (x) = 0.32215 0.34004
# Poissons Ratio (y) = 0.26343 0.28815
# Poissons Ratio (z) = 0.33648 0.34869
#
# Static dielectric constant tensor:
#      x y z
#    x 4.908230 0.000000 0.000000 
#    y 0.000000 4.792680 0.000000 
#    z 0.000000 0.000000 4.892050 
# 
# 
# High freq. dielectric constant tensor:
#      x y z
#    x 2.040250 0.000000 0.000000 
#    y 0.000000 2.042850 0.000000 
#    z 0.000000 0.000000 2.041560 
# 
# From -- ./inp_files/203.got.cif
#   From: 2010.03.12/outbox.cif.g09.slc.cpg/sg24_1_cif.got.tgz:203.got - 2010.04.14 03:06:53.
