data_PCOD8166468
_publ_section_title
;
Structure prediction by ZEFSAII (Michael W. Deem and Ramdas Pophale) SiO2 
 PCOD8166468
Probable space group: P M M 2
;
_chemical_formula_sum "Si O2"
_cell_formula_units_Z 32
_cell_length_a 17.760678
_cell_length_b 9.174610
_cell_length_c 11.416819
_cell_angle_alpha 90.000000
_cell_angle_beta 90.000000
_cell_angle_gamma 90.000000
_cell_volume 1860.339762
_symmetry_space_group_name_H-M "P M M 2"
_symmetry_group_IT_number 25
_symmetry_cell_setting 'orthorhombic'
loop_
_space_group_symop_operation_xyz
x,y,z
-x,-y,z
-x,y,z
x,-y,z
loop_
_atom_site_type_symbol
_atom_site_label
_atom_site_fract_x
_atom_site_fract_y
_atom_site_fract_z
Si Si1 0.858165 0.341005 0.226870
Si Si2 0.774360 0.828589 0.556787
Si Si3 0.200274 0.159112 0.034761
Si Si4 0.715181 0.171241 0.813967
Si Si5 0.300580 0.336923 0.350395
Si Si6 0.084736 0.328750 0.467910
Si Si7 0.585369 0.332381 0.933461
Si Si8 0.638939 0.163004 0.152103
O O1 0.889230 0.500000 0.194167
O O2 0.862118 0.250267 0.106276
O O3 0.773349 0.350281 0.272213
O O4 0.908427 0.274678 0.332512
O O5 0.744735 0.794813 0.685735
O O6 0.716703 0.751524 0.468629
O O7 0.858325 0.762473 0.548238
O O8 0.777427 0.000000 0.529324
O O9 0.275715 0.149946 0.110165
O O10 0.164482 0.000000 0.017661
O O11 0.221484 0.225863 0.907428
O O12 0.637717 0.257276 0.835627
O O13 0.699424 0.000000 0.835023
O O14 0.329934 0.500000 0.381178
O O15 0.363491 0.249260 0.275983
O O16 0.106602 0.500000 0.474002
O O17 0.000000 0.300839 0.512754
O O18 0.500000 0.321767 0.887511
O O19 0.610348 0.500000 0.950538
O O20 0.590346 0.251399 0.057928
O O21 0.605316 0.000000 0.168792
#
# Coordination Sequence:
#
# PCOD8166468 Si02
#       8
#     4   4   4   4   4   4   4   4
#     4   8  14  24  40  63  87 112 142 178 225 276
#     4  10  19  31  48  71  97 126 166 210 248 291
#     4   8  14  25  41  62  87 113 143 181 223 268
#     4   9  19  33  48  68  95 129 167 204 243 290
#     4   9  16  27  44  67  94 121 150 188 234 280
#     4   9  18  32  48  67  94 126 158 197 249 305
#     4  10  20  32  48  72  99 126 159 201 248 296
#     4   9  16  27  45  68  93 121 151 185 230 282
#
# _framework density 17.201159000000001
#
# number of rings (size 3 to 8) (size 9 to 14) (size 15 to 20)
#    0.000    3.000    0.000    3.000    0.000    8.250 
#    0.000    0.000    0.000    1.500    0.000    7.000 
#    0.000    0.000    0.000    0.000    0.000    0.000 
#
# Total GULP energy -396602.256505 kJ/mol
# GULP energy per Si atom -12393.820516 kJ/mol
# Density = 1.716201 g / cm^3
# Si number density = 17.201159 Si / 1000 Ang^3
#
#
#
# Elastic Constant Matrix: (Units=GPa)
#
#
# Indices 1 2 3 4 5 6 
#
# 1 56.2563 41.9173 41.5176 0.0000 0.0000 0.0000
# 2 41.9173 114.6936 65.6924 0.0000 0.0000 0.0000
# 3 41.5176 65.6924 118.7704 0.0000 0.0000 0.0000
# 4 0.0000 0.0000 0.0000 22.9588 0.0000 0.0000
# 5 0.0000 0.0000 0.0000 0.0000 14.5537 0.0000
# 6 0.0000 0.0000 0.0000 0.0000 0.0000 15.8256
#
#
#
# Elastic Compliance Matrix: (Units=1/GPa)
#
#
# Indices 1 2 3 4 5 6 
#
# 1 0.026912 -0.006509 -0.005807 0.000000 0.000000 0.000000
# 2 -0.006509 0.014336 -0.005654 0.000000 0.000000 0.000000
# 3 -0.005807 -0.005654 0.013577 0.000000 0.000000 0.000000
# 4 0.000000 0.000000 0.000000 0.043556 0.000000 0.000000
# 5 0.000000 0.000000 0.000000 0.000000 0.068711 0.000000
# 6 0.000000 0.000000 0.000000 0.000000 0.000000 0.063189
#
#
# Mechanical properties :
#
#
# Convention : Reuss Voigt Hill
#
# Bulk Modulus (GPa) = 52.95504 65.33055 59.14280
# Shear Modulus (GPa) = 18.34755 20.04049 19.19402
#
# Velocity S-wave (km/s) = 3.26950 3.41701 3.34407
# Velocity P-wave (km/s) = 6.71606 7.32330 7.02624
#
# Compressibility (1/GPa) = 0.01888394
#
# Stress axis : x y z
#
# Youngs Moduli (GPa) = 37.15875 69.75281 73.65557
#
# Poissons Ratio (x) = 0.45406 0.42771
# Poissons Ratio (y) = 0.24188 0.41645
# Poissons Ratio (z) = 0.21577 0.39438
#
# Static dielectric constant tensor:
#      x y z
#    x 2.854290 0.000000 0.000000 
#    y 0.000000 3.488040 0.000000 
#    z 0.000000 0.000000 3.171320 
# 
# 
# High freq. dielectric constant tensor:
#      x y z
#    x 1.619290 0.000000 0.000000 
#    y 0.000000 1.674320 0.000000 
#    z 0.000000 0.000000 1.650930 
# 
# From -- ./inp_files/4488.got.cif
#   From: 2010.03.12/outbox.cif.g09.slc.cpg/sg25_3_cif.got.tgz:4488.got - 2010.04.14 03:30:10.
