data_PCOD8166751
_publ_section_title
;
Structure prediction by ZEFSAII (Michael W. Deem and Ramdas Pophale) SiO2 
 PCOD8166751
Probable space group: P M M 2
;
_chemical_formula_sum "Si O2"
_cell_formula_units_Z 32
_cell_length_a 14.115250
_cell_length_b 8.959856
_cell_length_c 14.113821
_cell_angle_alpha 90.000000
_cell_angle_beta 90.000000
_cell_angle_gamma 90.000000
_cell_volume 1784.983515
_symmetry_space_group_name_H-M "P M M 2"
_symmetry_group_IT_number 25
_symmetry_cell_setting 'orthorhombic'
loop_
_space_group_symop_operation_xyz
x,y,z
-x,-y,z
-x,y,z
x,-y,z
loop_
_atom_site_type_symbol
_atom_site_label
_atom_site_fract_x
_atom_site_fract_y
_atom_site_fract_z
Si Si1 0.607055 0.675283 0.677390
Si Si2 0.747749 0.823212 0.313027
Si Si3 0.250607 0.174180 0.807764
Si Si4 0.604337 0.824328 0.154403
Si Si5 0.110847 0.673847 0.176314
Si Si6 0.891282 0.826270 0.644141
Si Si7 0.749484 0.324534 0.513381
Si Si8 0.230536 0.823156 0.021067
O O1 0.500000 0.734848 0.667478
O O2 0.609798 0.500000 0.692700
O O3 0.654796 0.748149 0.769290
O O4 0.663540 0.720674 0.582733
O O5 0.656374 0.776095 0.251172
O O6 0.841370 0.753442 0.266318
O O7 0.730217 0.759483 0.416424
O O8 0.761278 0.000000 0.317015
O O9 0.160804 0.213809 0.742313
O O10 0.272120 0.000000 0.809894
O O11 0.227566 0.232372 0.912927
O O12 0.500000 0.748578 0.148835
O O13 0.668183 0.774394 0.065137
O O14 0.592189 0.000000 0.152761
O O15 0.136277 0.500000 0.178709
O O16 0.146440 0.742898 0.077426
O O17 0.000000 0.703125 0.184421
O O18 0.848119 0.730512 0.558486
O O19 0.000000 0.780616 0.656563
O O20 0.879172 0.000000 0.619141
O O21 0.755335 0.500000 0.495175
O O22 0.214890 0.000000 0.030651
#
# Coordination Sequence:
#
# PCOD8166751 Si02
#       8
#     4   4   4   4   4   4   4   4
#     4   9  19  35  52  72 102 139 174 207 248 298
#     4  10  20  34  53  75  99 130 166 205 251 300
#     4   9  18  32  51  77 104 131 168 210 251 294
#     4   8  15  29  48  71  99 128 159 196 238 286
#     4  10  21  36  53  74 101 133 169 208 248 294
#     4   9  18  33  51  71  98 131 166 205 247 294
#     4  10  20  34  52  73  99 130 164 207 253 298
#     4   9  18  32  52  77 104 134 166 204 250 296
#
# _framework density 17.927337999999999
#
# number of rings (size 3 to 8) (size 9 to 14) (size 15 to 20)
#    0.000    2.750    0.000    1.875    0.000    4.500 
#    0.000    2.500    0.000    9.000    0.000    0.000 
#    0.000    0.000    0.000    0.000    0.000    0.000 
#
# Total GULP energy -396814.498700 kJ/mol
# GULP energy per Si atom -12400.453084 kJ/mol
# Density = 1.788653 g / cm^3
# Si number density = 17.927338 Si / 1000 Ang^3
#
#
#
# Elastic Constant Matrix: (Units=GPa)
#
#
# Indices 1 2 3 4 5 6 
#
# 1 102.3757 28.5378 13.5744 0.0000 0.0000 0.0000
# 2 28.5378 50.6843 24.6133 0.0000 0.0000 0.0000
# 3 13.5744 24.6133 83.2400 0.0000 0.0000 0.0000
# 4 0.0000 0.0000 0.0000 24.8884 0.0000 0.0000
# 5 0.0000 0.0000 0.0000 0.0000 11.5206 0.0000
# 6 0.0000 0.0000 0.0000 0.0000 0.0000 24.8164
#
#
#
# Elastic Compliance Matrix: (Units=1/GPa)
#
#
# Indices 1 2 3 4 5 6 
#
# 1 0.011587 -0.006546 0.000046 0.000000 0.000000 0.000000
# 2 -0.006546 0.026737 -0.006838 0.000000 0.000000 0.000000
# 3 0.000046 -0.006838 0.014028 0.000000 0.000000 0.000000
# 4 0.000000 0.000000 0.000000 0.040179 0.000000 0.000000
# 5 0.000000 0.000000 0.000000 0.000000 0.086801 0.000000
# 6 0.000000 0.000000 0.000000 0.000000 0.000000 0.040296
#
#
# Mechanical properties :
#
#
# Convention : Reuss Voigt Hill
#
# Bulk Modulus (GPa) = 38.94913 41.08345 40.01629
# Shear Modulus (GPa) = 19.61844 23.55006 21.58425
#
# Velocity S-wave (km/s) = 3.31166 3.62835 3.47361
# Velocity P-wave (km/s) = 6.03291 6.36550 6.20144
#
# Compressibility (1/GPa) = 0.02567451
#
# Stress axis : x y z
#
# Youngs Moduli (GPa) = 86.30631 37.40185 71.28639
#
# Poissons Ratio (x) = 0.24484 -0.00329
# Poissons Ratio (y) = 0.56499 0.48747
# Poissons Ratio (z) = -0.00399 0.25576
#
# Static dielectric constant tensor:
#      x y z
#    x 3.495170 0.000000 0.000000 
#    y 0.000000 3.204690 0.000000 
#    z 0.000000 0.000000 3.391370 
# 
# 
# High freq. dielectric constant tensor:
#      x y z
#    x 1.695870 0.000000 0.000000 
#    y 0.000000 1.683280 0.000000 
#    z 0.000000 0.000000 1.697310 
# 
# From -- ./inp_files/5938.got.cif
#   From: 2010.03.12/outbox.cif.g09.slc.cpg/sg25_3_cif.got.tgz:5938.got - 2010.04.14 03:30:10.
