data_PCOD8166484
_publ_section_title
;
Structure prediction by ZEFSAII (Michael W. Deem and Ramdas Pophale) SiO2 
 PCOD8166484
Probable space group: P M M 2
;
_chemical_formula_sum "Si O2"
_cell_formula_units_Z 28
_cell_length_a 19.849425
_cell_length_b 7.920010
_cell_length_c 9.449229
_cell_angle_alpha 90.000000
_cell_angle_beta 90.000000
_cell_angle_gamma 90.000000
_cell_volume 1485.491033
_symmetry_space_group_name_H-M "P M M 2"
_symmetry_group_IT_number 25
_symmetry_cell_setting 'orthorhombic'
loop_
_space_group_symop_operation_xyz
x,y,z
-x,-y,z
-x,y,z
x,-y,z
loop_
_atom_site_type_symbol
_atom_site_label
_atom_site_fract_x
_atom_site_fract_y
_atom_site_fract_z
Si Si1 0.785033 0.689925 0.966810
Si Si2 0.336391 0.811864 0.470644
Si Si3 0.335574 0.811674 0.797037
Si Si4 0.784271 0.694049 0.298069
Si Si5 0.072770 0.809163 0.956164
Si Si6 0.071864 0.305996 0.262893
Si Si7 0.575392 0.500000 0.802339
Si Si8 0.424833 0.500000 0.466092
O O1 0.760926 0.500000 0.940969
O O2 0.734232 0.809026 0.882132
O O3 0.781667 0.738348 0.131874
O O4 0.861138 0.708033 0.904856
O O5 0.319168 0.773775 0.633485
O O6 0.267202 0.809464 0.383176
O O7 0.387695 0.670026 0.411684
O O8 0.368020 0.000000 0.453196
O O9 0.387227 0.670202 0.855936
O O10 0.367049 0.000000 0.814838
O O11 0.764918 0.500000 0.326408
O O12 0.860828 0.734706 0.354113
O O13 0.070732 0.810934 0.125990
O O14 0.000000 0.735417 0.900612
O O15 0.080463 0.000000 0.902877
O O16 0.078989 0.500000 0.209515
O O17 0.000000 0.281467 0.346496
O O18 0.500000 0.500000 0.866440
O O19 0.571618 0.500000 0.634155
O O20 0.500000 0.500000 0.401582
#
# Coordination Sequence:
#
# PCOD8166484 Si02
#       8
#     4   4   4   4   4   4   2   2
#     4  10  19  31  50  74  99 133 173 210 251 298
#     4  10  20  33  53  78 103 133 166 201 248 299
#     4  10  20  34  53  78 104 132 167 205 247 297
#     4   9  17  29  48  73 101 133 169 209 250 293
#     4   9  16  25  39  63  95 128 163 208 255 293
#     4   8  14  25  41  63  92 126 165 208 249 290
#     4   9  18  34  55  79 104 131 162 200 249 297
#     4   9  18  34  55  77 104 131 160 204 247 289
#
# _framework density 18.848986
#
# number of rings (size 3 to 8) (size 9 to 14) (size 15 to 20)
#    0.000    2.714    1.429    1.714    0.000    4.286 
#    0.000    2.857    0.000    2.571    0.000    6.000 
#    0.000    0.000    0.000    0.000    0.000    0.000 
#
# Total GULP energy -346898.616449 kJ/mol
# GULP energy per Si atom -12389.236302 kJ/mol
# Density = 1.880608 g / cm^3
# Si number density = 18.848986 Si / 1000 Ang^3
#
#
#
# Elastic Constant Matrix: (Units=GPa)
#
#
# Indices 1 2 3 4 5 6 
#
# 1 157.5683 58.4055 28.6351 0.0000 0.0000 0.0000
# 2 58.4055 104.2939 20.9616 0.0000 0.0000 0.0000
# 3 28.6351 20.9616 25.9935 0.0000 0.0000 0.0000
# 4 0.0000 0.0000 0.0000 17.0425 0.0000 0.0000
# 5 0.0000 0.0000 0.0000 0.0000 15.8758 0.0000
# 6 0.0000 0.0000 0.0000 0.0000 0.0000 21.9531
#
#
#
# Elastic Compliance Matrix: (Units=1/GPa)
#
#
# Indices 1 2 3 4 5 6 
#
# 1 0.008948 -0.003616 -0.006942 0.000000 0.000000 0.000000
# 2 -0.003616 0.012904 -0.006423 0.000000 0.000000 0.000000
# 3 -0.006942 -0.006423 0.051298 0.000000 0.000000 0.000000
# 4 0.000000 0.000000 0.000000 0.058677 0.000000 0.000000
# 5 0.000000 0.000000 0.000000 0.000000 0.062989 0.000000
# 6 0.000000 0.000000 0.000000 0.000000 0.000000 0.045552
#
#
# Mechanical properties :
#
#
# Convention : Reuss Voigt Hill
#
# Bulk Modulus (GPa) = 25.51709 55.98444 40.75076
# Shear Modulus (GPa) = 17.39788 22.96452 20.18120
#
# Velocity S-wave (km/s) = 3.04141 3.49426 3.27567
# Velocity P-wave (km/s) = 5.08926 6.78571 5.99777
#
# Compressibility (1/GPa) = 0.03918943
#
# Stress axis : x y z
#
# Youngs Moduli (GPa) = 111.75329 77.49466 19.49405
#
# Poissons Ratio (x) = 0.28022 0.13532
# Poissons Ratio (y) = 0.40409 0.12520
# Poissons Ratio (z) = 0.77576 0.49773
#
# Static dielectric constant tensor:
#      x y z
#    x 3.758650 0.000000 0.000000 
#    y 0.000000 3.495990 0.000000 
#    z 0.000000 0.000000 2.839190 
# 
# 
# High freq. dielectric constant tensor:
#      x y z
#    x 1.742540 0.000000 0.000000 
#    y 0.000000 1.739470 0.000000 
#    z 0.000000 0.000000 1.658400 
# 
# From -- ./inp_files/3569.got.cif
#   From: 2010.03.12/outbox.cif.g09.slc.cpg/sg25_2_cif.got.tgz:3569.got - 2010.04.14 03:30:10.
