data_PCOD8166376
_publ_section_title
;
Structure prediction by ZEFSAII (Michael W. Deem and Ramdas Pophale) SiO2 
 PCOD8166376
Probable space group: P M M 2
;
_chemical_formula_sum "Si O2"
_cell_formula_units_Z 28
_cell_length_a 14.185888
_cell_length_b 9.176513
_cell_length_c 12.836898
_cell_angle_alpha 90.000000
_cell_angle_beta 90.000000
_cell_angle_gamma 90.000000
_cell_volume 1671.068687
_symmetry_space_group_name_H-M "P M M 2"
_symmetry_group_IT_number 25
_symmetry_cell_setting 'orthorhombic'
loop_
_space_group_symop_operation_xyz
x,y,z
-x,-y,z
-x,y,z
x,-y,z
loop_
_atom_site_type_symbol
_atom_site_label
_atom_site_fract_x
_atom_site_fract_y
_atom_site_fract_z
Si Si1 0.891899 0.671384 0.310970
Si Si2 0.607599 0.669853 0.807233
Si Si3 0.224287 0.172289 0.721897
Si Si4 0.605466 0.833859 0.018574
Si Si5 0.891615 0.168371 0.520220
Si Si6 0.208235 0.168879 0.127251
Si Si7 0.105346 0.827051 0.918083
O O1 0.877708 0.500000 0.315528
O O2 0.861065 0.736766 0.421471
O O3 0.824077 0.735979 0.223884
O O4 0.000000 0.714093 0.285663
O O5 0.500000 0.701398 0.774493
O O6 0.630530 0.500000 0.807762
O O7 0.674032 0.750257 0.723745
O O8 0.628247 0.730257 0.922207
O O9 0.171891 0.218848 0.616643
O O10 0.163519 0.231715 0.819372
O O11 0.238591 0.000000 0.727991
O O12 0.500000 0.805882 0.062301
O O13 0.679873 0.804660 0.110944
O O14 0.617152 0.000000 0.978293
O O15 0.000000 0.196314 0.551185
O O16 0.874697 0.000000 0.492376
O O17 0.185415 0.000000 0.149839
O O18 0.154279 0.224478 0.024439
O O19 0.000000 0.761617 0.914090
O O20 0.101905 0.000000 0.912920
#
# Coordination Sequence:
#
# PCOD8166376 Si02
#       7
#     4   4   4   4   4   4   4
#     4  10  21  35  50  70  99 134 170 207 245 288
#     4  10  20  32  47  70 101 135 167 200 242 294
#     4  10  18  31  51  75 100 128 164 205 246 289
#     4   9  17  31  51  74  99 127 163 206 248 292
#     4   9  18  33  54  77  99 127 166 208 246 290
#     4  10  18  30  50  74  99 130 165 202 247 295
#     4   9  16  26  43  71 103 129 154 191 242 295
#
# _framework density 16.755745000000001
#
# number of rings (size 3 to 8) (size 9 to 14) (size 15 to 20)
#    0.000    2.429    1.429    1.714    0.000    5.143 
#    0.000    0.000    0.000    2.143    0.000    2.000 
#    0.000    0.000    0.000    0.000    0.000    0.000 
#
# Total GULP energy -347228.553836 kJ/mol
# GULP energy per Si atom -12401.019780 kJ/mol
# Density = 1.671761 g / cm^3
# Si number density = 16.755745 Si / 1000 Ang^3
#
#
#
# Elastic Constant Matrix: (Units=GPa)
#
#
# Indices 1 2 3 4 5 6 
#
# 1 120.1659 47.8442 72.9251 0.0000 0.0000 0.0000
# 2 47.8442 60.0716 54.0868 0.0000 0.0000 0.0000
# 3 72.9251 54.0868 125.5132 0.0000 0.0000 0.0000
# 4 0.0000 0.0000 0.0000 12.8898 0.0000 0.0000
# 5 0.0000 0.0000 0.0000 0.0000 24.7846 0.0000
# 6 0.0000 0.0000 0.0000 0.0000 0.0000 20.9445
#
#
#
# Elastic Compliance Matrix: (Units=1/GPa)
#
#
# Indices 1 2 3 4 5 6 
#
# 1 0.014192 -0.006338 -0.005514 0.000000 0.000000 0.000000
# 2 -0.006338 0.030031 -0.009259 0.000000 0.000000 0.000000
# 3 -0.005514 -0.009259 0.015161 0.000000 0.000000 0.000000
# 4 0.000000 0.000000 0.000000 0.077581 0.000000 0.000000
# 5 0.000000 0.000000 0.000000 0.000000 0.040348 0.000000
# 6 0.000000 0.000000 0.000000 0.000000 0.000000 0.047745
#
#
# Mechanical properties :
#
#
# Convention : Reuss Voigt Hill
#
# Bulk Modulus (GPa) = 58.26955 72.82923 65.54939
# Shear Modulus (GPa) = 18.31497 20.45007 19.38252
#
# Velocity S-wave (km/s) = 3.30973 3.49733 3.40482
# Velocity P-wave (km/s) = 7.03257 7.73744 7.39341
#
# Compressibility (1/GPa) = 0.01716162
#
# Stress axis : x y z
#
# Youngs Moduli (GPa) = 70.46255 33.29893 65.95859
#
# Poissons Ratio (x) = 0.21105 0.36373
# Poissons Ratio (y) = 0.44660 0.61068
# Poissons Ratio (z) = 0.38856 0.30830
#
# Static dielectric constant tensor:
#      x y z
#    x 3.343630 0.000000 0.000000 
#    y 0.000000 2.990630 0.000000 
#    z 0.000000 0.000000 2.999090 
# 
# 
# High freq. dielectric constant tensor:
#      x y z
#    x 1.650470 0.000000 0.000000 
#    y 0.000000 1.630890 0.000000 
#    z 0.000000 0.000000 1.627210 
# 
# From -- ./inp_files/4809.got.cif
#   From: 2010.03.12/outbox.cif.g09.slc.cpg/sg25_3_cif.got.tgz:4809.got - 2010.04.14 03:30:10.
