data_PCOD8166703
_publ_section_title
;
Structure prediction by ZEFSAII (Michael W. Deem and Ramdas Pophale) SiO2 
 PCOD8166703
Probable space group: P M M 2
;
_chemical_formula_sum "Si O2"
_cell_formula_units_Z 32
_cell_length_a 8.924610
_cell_length_b 9.202615
_cell_length_c 20.572492
_cell_angle_alpha 90.000000
_cell_angle_beta 90.000000
_cell_angle_gamma 90.000000
_cell_volume 1689.613622
_symmetry_space_group_name_H-M "P M M 2"
_symmetry_group_IT_number 25
_symmetry_cell_setting 'orthorhombic'
loop_
_space_group_symop_operation_xyz
x,y,z
-x,-y,z
-x,y,z
x,-y,z
loop_
_atom_site_type_symbol
_atom_site_label
_atom_site_fract_x
_atom_site_fract_y
_atom_site_fract_z
Si Si1 0.177724 0.339179 0.938290
Si Si2 0.174682 0.830535 0.564573
Si Si3 0.676565 0.665527 0.448434
Si Si4 0.821692 0.663940 0.691993
Si Si5 0.175181 0.333367 0.314499
Si Si6 0.326925 0.169823 0.198355
Si Si7 0.178934 0.163146 0.816470
Si Si8 0.172138 0.671206 0.083640
O O1 0.244252 0.500000 0.925602
O O2 0.241825 0.230896 0.883603
O O3 0.000000 0.348053 0.933300
O O4 0.221095 0.285044 0.010421
O O5 0.263929 0.772416 0.503153
O O6 0.235363 0.748800 0.628474
O O7 0.000000 0.798976 0.553500
O O8 0.207012 0.000000 0.573786
O O9 0.500000 0.679395 0.444151
O O10 0.726662 0.500000 0.463879
O O11 0.743502 0.717395 0.380037
O O12 0.758693 0.500000 0.690287
O O13 0.758667 0.743956 0.755952
O O14 0.000000 0.663784 0.693822
O O15 0.215159 0.500000 0.297772
O O16 0.228455 0.233499 0.256110
O O17 0.000000 0.311621 0.324939
O O18 0.500000 0.203929 0.212243
O O19 0.280878 0.242245 0.130775
O O20 0.294870 0.000000 0.193320
O O21 0.000000 0.163602 0.816236
O O22 0.241012 0.000000 0.810440
O O23 0.192202 0.500000 0.094643
O O24 0.000000 0.715611 0.097089
#
# Coordination Sequence:
#
# PCOD8166703 Si02
#       8
#     4   4   4   4   4   4   4   4
#     4   8  14  25  41  63  93 127 163 205 253 305
#     4  10  20  33  50  74 104 137 173 214 260 308
#     4  10  21  37  57  80 105 135 171 209 251 302
#     4   9  16  26  42  64  93 131 172 214 259 305
#     4  10  21  38  61  85 106 132 169 211 254 302
#     4  11  24  38  52  75 107 140 173 210 254 305
#     4   9  15  22  35  60  95 131 166 206 254 307
#     4   9  18  33  53  76 101 132 173 218 261 307
#
# _framework density 18.939242
#
# number of rings (size 3 to 8) (size 9 to 14) (size 15 to 20)
#    0.000    2.500    0.000    3.375    0.000    9.000 
#    0.000    1.250    0.000    0.000    0.000    0.875 
#    0.000    3.000    0.000    0.000    0.000    0.000 
#
# Total GULP energy -396829.870151 kJ/mol
# GULP energy per Si atom -12400.933442 kJ/mol
# Density = 1.889614 g / cm^3
# Si number density = 18.939242 Si / 1000 Ang^3
#
#
#
# Elastic Constant Matrix: (Units=GPa)
#
#
# Indices 1 2 3 4 5 6 
#
# 1 36.5057 30.7530 31.1578 0.0000 0.0000 0.0000
# 2 30.7530 115.1175 79.1126 0.0000 0.0000 0.0000
# 3 31.1578 79.1126 157.2214 0.0000 0.0000 0.0000
# 4 0.0000 0.0000 0.0000 17.1793 0.0000 0.0000
# 5 0.0000 0.0000 0.0000 0.0000 -2.8727 0.0000
# 6 0.0000 0.0000 0.0000 0.0000 0.0000 20.9052
#
#
#
# Elastic Compliance Matrix: (Units=1/GPa)
#
#
# Indices 1 2 3 4 5 6 
#
# 1 0.036612 -0.007329 -0.003568 0.000000 0.000000 0.000000
# 2 -0.007329 0.014746 -0.005968 0.000000 0.000000 0.000000
# 3 -0.003568 -0.005968 0.010070 0.000000 0.000000 0.000000
# 4 0.000000 0.000000 0.000000 0.058210 0.000000 0.000000
# 5 0.000000 0.000000 0.000000 0.000000 -0.348101 0.000000
# 6 0.000000 0.000000 0.000000 0.000000 0.000000 0.047835
#
#
# Mechanical properties :
#
#
# Convention : Reuss Voigt Hill
#
# Bulk Modulus (GPa) = 36.10137 65.65459 50.87798
# Shear Modulus (GPa) = -36.31974 18.23042 -9.04466
#
# Velocity S-wave (km/s) = -4.38390 3.10590 -2.18769
# Velocity P-wave (km/s) = 2.55377 6.89952 4.53220
#
# Compressibility (1/GPa) = 0.02769978
#
# Stress axis : x y z
#
# Youngs Moduli (GPa) = 27.31333 67.81642 99.30128
#
# Poissons Ratio (x) = 0.49701 0.35430
# Poissons Ratio (y) = 0.20017 0.59258
# Poissons Ratio (z) = 0.09745 0.40470
#
# Static dielectric constant tensor:
#      x y z
#    x 3.045820 0.000000 0.000000 
#    y 0.000000 3.585230 0.000000 
#    z 0.000000 0.000000 3.695770 
# 
# 
# High freq. dielectric constant tensor:
#      x y z
#    x 1.691710 0.000000 0.000000 
#    y 0.000000 1.738870 0.000000 
#    z 0.000000 0.000000 1.753260 
# 
# From -- ./inp_files/6575.got.cif
#   From: 2010.03.12/outbox.cif.g09.slc.cpg/sg25_4_cif.got.tgz:6575.got - 2010.04.14 03:30:10.
