data_PCOD8166755
_publ_section_title
;
Structure prediction by ZEFSAII (Michael W. Deem and Ramdas Pophale) SiO2 
 PCOD8166755
Probable space group: P M M 2
;
_chemical_formula_sum "Si O2"
_cell_formula_units_Z 32
_cell_length_a 8.520008
_cell_length_b 9.344869
_cell_length_c 20.689959
_cell_angle_alpha 90.000000
_cell_angle_beta 90.000000
_cell_angle_gamma 90.000000
_cell_volume 1647.300576
_symmetry_space_group_name_H-M "P M M 2"
_symmetry_group_IT_number 25
_symmetry_cell_setting 'orthorhombic'
loop_
_space_group_symop_operation_xyz
x,y,z
-x,-y,z
-x,y,z
x,-y,z
loop_
_atom_site_type_symbol
_atom_site_label
_atom_site_fract_x
_atom_site_fract_y
_atom_site_fract_z
Si Si1 0.687665 0.660130 0.083300
Si Si2 0.314979 0.839116 0.579449
Si Si3 0.686656 0.160798 0.821085
Si Si4 0.312527 0.338525 0.700969
Si Si5 0.683057 0.166647 0.346965
Si Si6 0.817431 0.664301 0.462218
Si Si7 0.686618 0.160469 0.963859
Si Si8 0.313700 0.158209 0.202037
O O1 0.500000 0.663350 0.083145
O O2 0.752995 0.500000 0.082930
O O3 0.754470 0.735481 0.147880
O O4 0.755797 0.737346 0.019376
O O5 0.500000 0.850038 0.586116
O O6 0.246145 0.752739 0.640734
O O7 0.276364 0.754968 0.514586
O O8 0.243355 0.000000 0.577676
O O9 0.500000 0.160284 0.818293
O O10 0.753718 0.268040 0.766934
O O11 0.742569 0.211777 0.892500
O O12 0.748083 0.000000 0.807207
O O13 0.500000 0.338916 0.700753
O O14 0.247485 0.500000 0.695877
O O15 0.500000 0.197815 0.358671
O O16 0.785258 0.267676 0.392485
O O17 0.734015 0.207968 0.273991
O O18 0.719291 0.000000 0.360834
O O19 0.759136 0.500000 0.463174
O O20 0.000000 0.673584 0.478220
O O21 0.500000 0.162499 0.966634
O O22 0.747581 0.000000 0.976933
O O23 0.500000 0.152215 0.197791
O O24 0.245866 0.000000 0.188222
#
# Coordination Sequence:
#
# PCOD8166755 Si02
#       8
#     4   4   4   4   4   4   4   4
#     4   9  15  20  28  46  72 102 139 181 221 263
#     4  10  20  34  53  74  94 120 157 197 233 274
#     4   8  13  21  32  47  70 103 144 185 222 264
#     4   9  16  25  39  60  85 112 143 183 230 274
#     4   9  18  33  53  75  95 119 156 197 234 276
#     4  11  24  38  51  71  99 127 153 185 230 282
#     4   8  13  20  29  41  63 101 144 181 219 263
#     4   8  14  25  40  57  79 107 140 180 223 266
#
# _framework density 19.425720999999999
#
# number of rings (size 3 to 8) (size 9 to 14) (size 15 to 20)
#    0.000    3.000    0.000    3.375    0.000    7.500 
#    0.000    3.750    0.000    0.000    0.000    0.000 
#    0.000    0.000    0.000    1.125    0.000   20.000 
#
# Total GULP energy -396656.571585 kJ/mol
# GULP energy per Si atom -12395.517862 kJ/mol
# Density = 1.938151 g / cm^3
# Si number density = 19.425721 Si / 1000 Ang^3
#
#
#
# Elastic Constant Matrix: (Units=GPa)
#
#
# Indices 1 2 3 4 5 6 
#
# 1 7.2400 8.0786 3.2103 0.0000 0.0000 0.0000
# 2 8.0786 161.1663 103.8360 0.0000 0.0000 0.0000
# 3 3.2103 103.8360 175.0723 0.0000 0.0000 0.0000
# 4 0.0000 0.0000 0.0000 28.3841 0.0000 0.0000
# 5 0.0000 0.0000 0.0000 0.0000 -1.0432 0.0000
# 6 0.0000 0.0000 0.0000 0.0000 0.0000 9.7775
#
#
#
# Elastic Compliance Matrix: (Units=1/GPa)
#
#
# Indices 1 2 3 4 5 6 
#
# 1 0.147096 -0.009121 0.002712 0.000000 0.000000 0.000000
# 2 -0.009121 0.010608 -0.006124 0.000000 0.000000 0.000000
# 3 0.002712 -0.006124 0.009294 0.000000 0.000000 0.000000
# 4 0.000000 0.000000 0.000000 0.035231 0.000000 0.000000
# 5 0.000000 0.000000 0.000000 0.000000 -0.958564 0.000000
# 6 0.000000 0.000000 0.000000 0.000000 0.000000 0.102276
#
#
# Mechanical properties :
#
#
# Convention : Reuss Voigt Hill
#
# Bulk Modulus (GPa) = 7.04560 63.74758 35.39659
# Shear Modulus (GPa) = -8.59574 22.64726 7.02576
#
# Velocity S-wave (km/s) = -2.10583 3.41814 1.90383
# Velocity P-wave (km/s) = 1.50927 6.96172 4.80560
#
# Compressibility (1/GPa) = 0.14193253
#
# Stress axis : x y z
#
# Youngs Moduli (GPa) = 6.79829 94.27175 107.59095
#
# Poissons Ratio (x) = 0.85983 -0.29182
# Poissons Ratio (y) = 0.06201 0.65891
# Poissons Ratio (z) = -0.01844 0.57734
#
# Static dielectric constant tensor:
#      x y z
#    x 2.748090 0.000000 0.000000 
#    y 0.000000 3.779320 0.000000 
#    z 0.000000 0.000000 3.879990 
# 
# 
# High freq. dielectric constant tensor:
#      x y z
#    x 1.678500 0.000000 0.000000 
#    y 0.000000 1.759850 0.000000 
#    z 0.000000 0.000000 1.775200 
# 
# From -- ./inp_files/6441.got.cif
#   From: 2010.03.12/outbox.cif.g09.slc.cpg/sg25_4_cif.got.tgz:6441.got - 2010.04.14 03:30:10.
