data_PCOD8166563
_publ_section_title
;
Structure prediction by ZEFSAII (Michael W. Deem and Ramdas Pophale) SiO2 
 PCOD8166563
Probable space group: P M M 2
;
_chemical_formula_sum "Si O2"
_cell_formula_units_Z 24
_cell_length_a 11.704565
_cell_length_b 8.753370
_cell_length_c 12.585756
_cell_angle_alpha 90.000000
_cell_angle_beta 90.000000
_cell_angle_gamma 90.000000
_cell_volume 1289.465930
_symmetry_space_group_name_H-M "P M M 2"
_symmetry_group_IT_number 25
_symmetry_cell_setting 'orthorhombic'
loop_
_space_group_symop_operation_xyz
x,y,z
-x,-y,z
-x,y,z
x,-y,z
loop_
_atom_site_type_symbol
_atom_site_label
_atom_site_fract_x
_atom_site_fract_y
_atom_site_fract_z
Si Si1 0.500000 0.180914 0.160761
Si Si2 0.132159 0.177591 0.663918
Si Si3 0.869715 0.677351 0.441806
Si Si4 0.133139 0.175154 0.035269
Si Si5 0.260229 0.821795 0.251013
Si Si6 0.729508 0.322073 0.850683
Si Si7 0.500000 0.819471 0.921083
O O1 0.611956 0.235517 0.224119
O O2 0.500000 0.000000 0.150233
O O3 0.500000 0.248960 0.041178
O O4 0.164024 0.225160 0.544697
O O5 0.208386 0.275050 0.743011
O O6 0.000000 0.214187 0.688050
O O7 0.158955 0.000000 0.679928
O O8 0.854347 0.500000 0.468863
O O9 0.784426 0.723368 0.348588
O O10 0.000000 0.713943 0.407416
O O11 0.179765 0.212529 0.151347
O O12 0.000000 0.209573 0.034699
O O13 0.160416 0.000000 0.004165
O O14 0.191765 0.284338 0.950928
O O15 0.257686 0.000000 0.281329
O O16 0.704106 0.500000 0.848550
O O17 0.610224 0.234842 0.857367
O O18 0.500000 0.000000 0.925578
#
# Coordination Sequence:
#
# PCOD8166563 Si02
#       7
#     2   4   4   4   4   4   2
#     4   9  18  35  60  83 108 147 195 241 281 324
#     4  10  21  39  63  87 112 150 198 241 285 344
#     4  10  21  37  57  84 118 152 186 234 297 351
#     4  10  20  34  55  83 114 151 195 239 283 340
#     4  10  19  35  58  84 111 147 196 240 280 336
#     4  12  24  37  56  86 120 151 188 237 295 349
#     4  11  21  41  64  81 110 155 201 241 283 336
#
# _framework density 18.612355999999998
#
# number of rings (size 3 to 8) (size 9 to 14) (size 15 to 20)
#    0.000    1.667    1.667    3.750    0.000    5.667 
#    0.000    1.250    0.000    1.000    0.000    0.000 
#    0.000    0.000    0.000    0.000    0.000    0.000 
#
# Total GULP energy -297716.996771 kJ/mol
# GULP energy per Si atom -12404.874865 kJ/mol
# Density = 1.856999 g / cm^3
# Si number density = 18.612356 Si / 1000 Ang^3
#
#
#
# Elastic Constant Matrix: (Units=GPa)
#
#
# Indices 1 2 3 4 5 6 
#
# 1 113.5100 40.2190 55.3243 0.0000 0.0000 0.0000
# 2 40.2190 66.7163 36.3962 0.0000 0.0000 0.0000
# 3 55.3243 36.3962 88.1572 0.0000 0.0000 0.0000
# 4 0.0000 0.0000 0.0000 18.9864 0.0000 0.0000
# 5 0.0000 0.0000 0.0000 0.0000 95.9001 0.0000
# 6 0.0000 0.0000 0.0000 0.0000 0.0000 22.9502
#
#
#
# Elastic Compliance Matrix: (Units=1/GPa)
#
#
# Indices 1 2 3 4 5 6 
#
# 1 0.013708 -0.004609 -0.006700 0.000000 0.000000 0.000000
# 2 -0.004609 0.020896 -0.005735 0.000000 0.000000 0.000000
# 3 -0.006700 -0.005735 0.017916 0.000000 0.000000 0.000000
# 4 0.000000 0.000000 0.000000 0.052669 0.000000 0.000000
# 5 0.000000 0.000000 0.000000 0.000000 0.010428 0.000000
# 6 0.000000 0.000000 0.000000 0.000000 0.000000 0.043573
#
#
# Mechanical properties :
#
#
# Convention : Reuss Voigt Hill
#
# Bulk Modulus (GPa) = 54.25132 59.14030 56.69581
# Shear Modulus (GPa) = 25.07266 36.66360 30.86813
#
# Velocity S-wave (km/s) = 3.67426 4.44312 4.07686
# Velocity P-wave (km/s) = 6.87107 7.62663 7.25869
#
# Compressibility (1/GPa) = 0.01843273
#
# Stress axis : x y z
#
# Youngs Moduli (GPa) = 72.94797 47.85694 55.81693
#
# Poissons Ratio (x) = 0.22056 0.37398
# Poissons Ratio (y) = 0.33620 0.32009
# Poissons Ratio (z) = 0.48876 0.27444
#
# Static dielectric constant tensor:
#      x y z
#    x 3.489780 0.000000 0.000000 
#    y 0.000000 3.343710 0.000000 
#    z 0.000000 0.000000 3.400970 
# 
# 
# High freq. dielectric constant tensor:
#      x y z
#    x 1.727260 0.000000 0.000000 
#    y 0.000000 1.717290 0.000000 
#    z 0.000000 0.000000 1.723770 
# 
# From -- ./inp_files/3945.got.cif
#   From: 2010.03.12/outbox.cif.g09.slc.cpg/sg25_2_cif.got.tgz:3945.got - 2010.04.14 03:30:10.
