data_PCOD8166639
_publ_section_title
;
Structure prediction by ZEFSAII (Michael W. Deem and Ramdas Pophale) SiO2 
 PCOD8166639
Probable space group: P M M 2
;
_chemical_formula_sum "Si O2"
_cell_formula_units_Z 28
_cell_length_a 9.436302
_cell_length_b 9.648644
_cell_length_c 17.884202
_cell_angle_alpha 90.000000
_cell_angle_beta 90.000000
_cell_angle_gamma 90.000000
_cell_volume 1628.312216
_symmetry_space_group_name_H-M "P M M 2"
_symmetry_group_IT_number 25
_symmetry_cell_setting 'orthorhombic'
loop_
_space_group_symop_operation_xyz
x,y,z
-x,-y,z
-x,y,z
x,-y,z
loop_
_atom_site_type_symbol
_atom_site_label
_atom_site_fract_x
_atom_site_fract_y
_atom_site_fract_z
Si Si1 0.332310 0.347583 0.943660
Si Si2 0.167956 0.160411 0.656967
Si Si3 0.334891 0.661434 0.775140
Si Si4 0.337116 0.162776 0.238243
Si Si5 0.835519 0.660029 0.354597
Si Si6 0.168222 0.346387 0.521514
Si Si7 0.331343 0.846700 0.071974
O O1 0.500000 0.354154 0.953124
O O2 0.267529 0.500000 0.956313
O O3 0.296423 0.296201 0.860170
O O4 0.264894 0.248757 0.006884
O O5 0.240875 0.238473 0.725140
O O6 0.222356 0.232134 0.580366
O O7 0.000000 0.175800 0.665978
O O8 0.214306 0.000000 0.655547
O O9 0.500000 0.687873 0.758429
O O10 0.297706 0.500000 0.760664
O O11 0.500000 0.202083 0.251319
O O12 0.245559 0.244475 0.297289
O O13 0.289089 0.207576 0.154512
O O14 0.312689 0.000000 0.249164
O O15 0.807852 0.500000 0.334932
O O16 0.778548 0.692679 0.438364
O O17 0.000000 0.696802 0.348468
O O18 0.225012 0.500000 0.544164
O O19 0.000000 0.351281 0.520060
O O20 0.500000 0.851757 0.066366
O O21 0.269118 0.000000 0.059351
#
# Coordination Sequence:
#
# PCOD8166639 Si02
#       7
#     4   4   4   4   4   4   4
#     4   8  14  25  42  65  90 115 148 189 227 265
#     4  10  20  32  48  72  97 120 152 192 230 272
#     4   9  18  32  49  70  96 124 154 189 230 276
#     4   9  18  31  46  68  98 127 155 188 227 274
#     4   9  18  32  50  72  94 117 152 195 233 273
#     4   8  15  30  50  68  88 118 155 192 229 271
#     4   8  14  25  41  62  89 120 152 185 222 266
#
# _framework density 17.195720999999999
#
# number of rings (size 3 to 8) (size 9 to 14) (size 15 to 20)
#    0.000    3.286    0.000    3.000    0.000    3.429 
#    0.000    5.000    0.000    1.714    0.000    0.000 
#    0.000    0.000    0.000    0.000    0.000    0.000 
#
# Total GULP energy -347026.751756 kJ/mol
# GULP energy per Si atom -12393.812563 kJ/mol
# Density = 1.715658 g / cm^3
# Si number density = 17.195721 Si / 1000 Ang^3
#
#
#
# Elastic Constant Matrix: (Units=GPa)
#
#
# Indices 1 2 3 4 5 6 
#
# 1 28.3465 33.6530 36.7252 0.0000 0.0000 0.0000
# 2 33.6530 105.6335 89.5557 0.0000 0.0000 0.0000
# 3 36.7252 89.5557 151.8146 0.0000 0.0000 0.0000
# 4 0.0000 0.0000 0.0000 26.2845 0.0000 0.0000
# 5 0.0000 0.0000 0.0000 0.0000 39.9026 0.0000
# 6 0.0000 0.0000 0.0000 0.0000 0.0000 24.9187
#
#
#
# Elastic Compliance Matrix: (Units=1/GPa)
#
#
# Indices 1 2 3 4 5 6 
#
# 1 0.059736 -0.013562 -0.006450 0.000000 0.000000 0.000000
# 2 -0.013562 0.022017 -0.009707 0.000000 0.000000 0.000000
# 3 -0.006450 -0.009707 0.013873 0.000000 0.000000 0.000000
# 4 0.000000 0.000000 0.000000 0.038045 0.000000 0.000000
# 5 0.000000 0.000000 0.000000 0.000000 0.025061 0.000000
# 6 0.000000 0.000000 0.000000 0.000000 0.000000 0.040130
#
#
# Mechanical properties :
#
#
# Convention : Reuss Voigt Hill
#
# Bulk Modulus (GPa) = 27.63414 67.29583 47.46499
# Shear Modulus (GPa) = 18.49358 26.61188 22.55273
#
# Velocity S-wave (km/s) = 3.28300 3.93821 3.62544
# Velocity P-wave (km/s) = 5.52051 7.73948 6.72218
#
# Compressibility (1/GPa) = 0.03618712
#
# Stress axis : x y z
#
# Youngs Moduli (GPa) = 16.74045 45.41940 72.07999
#
# Poissons Ratio (x) = 0.61600 0.46492
# Poissons Ratio (y) = 0.22704 0.69968
# Poissons Ratio (z) = 0.10798 0.44089
#
# Static dielectric constant tensor:
#      x y z
#    x 2.718510 0.000000 0.000000 
#    y 0.000000 3.649800 0.000000 
#    z 0.000000 0.000000 3.452570 
# 
# 
# High freq. dielectric constant tensor:
#      x y z
#    x 1.612990 0.000000 0.000000 
#    y 0.000000 1.665030 0.000000 
#    z 0.000000 0.000000 1.677810 
# 
# From -- ./inp_files/6323.got.cif
#   From: 2010.03.12/outbox.cif.g09.slc.cpg/sg25_4_cif.got.tgz:6323.got - 2010.04.14 03:30:10.
