data_PCOD8166274
_publ_section_title
;
Structure prediction by ZEFSAII (Michael W. Deem and Ramdas Pophale) SiO2 
 PCOD8166274
Probable space group: I 21 21 21
;
_chemical_formula_sum "Si O2"
_cell_formula_units_Z 32
_cell_length_a 5.145844
_cell_length_b 13.467020
_cell_length_c 19.311744
_cell_angle_alpha 90.000000
_cell_angle_beta 90.000000
_cell_angle_gamma 90.000000
_cell_volume 1338.288102
_symmetry_space_group_name_H-M "I 21 21 21"
_symmetry_group_IT_number 24
_symmetry_cell_setting 'orthorhombic'
loop_
_space_group_symop_operation_xyz
x,y,z
-x,1/2-y,z
x,-y,1/2-z
1/2-x,y,-z
1/2+x,1/2+y,1/2+z
1/2-x,-y,1/2+z
1/2+x,1/2-y,-z
-x,1/2+y,1/2-z
loop_
_atom_site_type_symbol
_atom_site_label
_atom_site_fract_x
_atom_site_fract_y
_atom_site_fract_z
Si Si1 0.250000 0.315558 0.500000
Si Si2 0.654105 0.938198 0.870686
Si Si3 0.174691 0.904545 0.788904
Si Si4 0.328971 0.347902 0.919872
Si Si5 0.000000 0.250000 0.812779
O O1 0.500000 0.250000 0.510370
O O2 0.290941 0.384394 0.434099
O O3 0.387809 0.882665 0.848515
O O4 0.880332 0.931036 0.812616
O O5 0.553469 0.047210 0.895948
O O6 0.192634 0.809107 0.738471
O O7 0.291262 0.000000 0.750000
O O8 0.500000 0.250000 0.908360
O O9 0.099943 0.335265 0.864581
O O10 0.250000 0.352955 0.000000
#
# Coordination Sequence:
#
# PCOD8166274 Si02
#       5
#     4   8   8   8   4
#     4  12  28  52  78 112 152 202 264 322 378 452
#     4  12  28  51  76 112 152 204 255 322 384 455
#     4  12  27  48  75 109 155 198 251 307 386 464
#     4  12  26  49  79 113 154 202 261 325 394 461
#     4  12  28  48  74 112 154 204 252 322 382 472
#
# _framework density 23.911142999999999
#
# number of rings (size 3 to 8) (size 9 to 14) (size 15 to 20)
#    0.000    0.000    5.000    3.750    8.750    0.000 
#    2.250    0.000    0.000    0.000    0.000    0.000 
#    0.000    0.000    0.000    0.000    0.000    0.000 
#
# Total GULP energy -198274.340289 kJ/mol
# GULP energy per Si atom -12392.146268 kJ/mol
# Density = 2.385672 g / cm^3
# Si number density = 23.911143 Si / 1000 Ang^3
#
#
#
# Elastic Constant Matrix: (Units=GPa)
#
#
# Indices 1 2 3 4 5 6 
#
# 1 99.3428 6.4587 28.4591 0.0000 0.0000 0.0000
# 2 6.4587 94.8571 48.6590 0.0000 0.0000 0.0000
# 3 28.4591 48.6590 145.8810 0.0000 0.0000 0.0000
# 4 0.0000 0.0000 0.0000 28.1837 0.0000 0.0000
# 5 0.0000 0.0000 0.0000 0.0000 24.9660 0.0000
# 6 0.0000 0.0000 0.0000 0.0000 0.0000 30.2668
#
#
#
# Elastic Compliance Matrix: (Units=1/GPa)
#
#
# Indices 1 2 3 4 5 6 
#
# 1 0.010675 0.000412 -0.002220 0.000000 0.000000 0.000000
# 2 0.000412 0.012734 -0.004328 0.000000 0.000000 0.000000
# 3 -0.002220 -0.004328 0.008732 0.000000 0.000000 0.000000
# 4 0.000000 0.000000 0.000000 0.035482 0.000000 0.000000
# 5 0.000000 0.000000 0.000000 0.000000 0.040054 0.000000
# 6 0.000000 0.000000 0.000000 0.000000 0.000000 0.033040
#
#
# Mechanical properties :
#
#
# Convention : Reuss Voigt Hill
#
# Bulk Modulus (GPa) = 50.32913 56.35938 53.34426
# Shear Modulus (GPa) = 31.32605 33.78358 32.55481
#
# Velocity S-wave (km/s) = 3.62346 3.76291 3.69384
# Velocity P-wave (km/s) = 6.21289 6.51926 6.36792
#
# Compressibility (1/GPa) = 0.01986921
#
# Stress axis : x y z
#
# Youngs Moduli (GPa) = 93.67383 78.52861 114.52697
#
# Poissons Ratio (x) = -0.03235 0.25425
# Poissons Ratio (y) = -0.03859 0.49566
# Poissons Ratio (z) = 0.20795 0.33986
#
# Static dielectric constant tensor:
#      x y z
#    x 3.924630 0.000000 0.000000 
#    y 0.000000 4.550730 0.000000 
#    z 0.000000 0.000000 4.674720 
# 
# 
# High freq. dielectric constant tensor:
#      x y z
#    x 1.929990 0.000000 0.000000 
#    y 0.000000 1.964620 0.000000 
#    z 0.000000 0.000000 1.973660 
# 
# From -- ./inp_files/3105.got.cif
#   From: 2010.03.12/outbox.cif.g09.slc.cpg/sg24_2_cif.got.tgz:3105.got - 2010.04.14 03:06:53.
