data_PCOD8166636
_publ_section_title
;
Structure prediction by ZEFSAII (Michael W. Deem and Ramdas Pophale) SiO2 
 PCOD8166636
Probable space group: P M M 2
;
_chemical_formula_sum "Si O2"
_cell_formula_units_Z 24
_cell_length_a 8.828469
_cell_length_b 9.471864
_cell_length_c 15.456787
_cell_angle_alpha 90.000000
_cell_angle_beta 90.000000
_cell_angle_gamma 90.000000
_cell_volume 1292.528334
_symmetry_space_group_name_H-M "P M M 2"
_symmetry_group_IT_number 25
_symmetry_cell_setting 'orthorhombic'
loop_
_space_group_symop_operation_xyz
x,y,z
-x,-y,z
-x,y,z
x,-y,z
loop_
_atom_site_type_symbol
_atom_site_label
_atom_site_fract_x
_atom_site_fract_y
_atom_site_fract_z
Si Si1 0.680092 0.341738 0.601670
Si Si2 0.680509 0.840972 0.252662
Si Si3 0.319998 0.840366 0.759590
Si Si4 0.822789 0.662090 0.909956
Si Si5 0.319767 0.341491 0.410000
Si Si6 0.675348 0.662684 0.089506
O O1 0.500000 0.340853 0.604771
O O2 0.739376 0.500000 0.621397
O O3 0.746248 0.236161 0.673897
O O4 0.734592 0.293569 0.505916
O O5 0.500000 0.840028 0.255801
O O6 0.747130 0.764790 0.338287
O O7 0.736619 0.757621 0.168109
O O8 0.744039 0.000000 0.249631
O O9 0.500000 0.837281 0.759128
O O10 0.264315 0.761448 0.844304
O O11 0.258426 0.000000 0.760105
O O12 0.777843 0.500000 0.890932
O O13 0.000000 0.687302 0.900253
O O14 0.772666 0.704472 0.006160
O O15 0.500000 0.340315 0.406168
O O16 0.261429 0.500000 0.390572
O O17 0.500000 0.693885 0.069029
O O18 0.699211 0.500000 0.115768
#
# Coordination Sequence:
#
# PCOD8166636 Si02
#       6
#     4   4   4   4   4   4
#     4   8  14  25  42  64  91 124 159 193 230 274
#     4   9  16  24  37  61  92 123 153 187 228 274
#     4  10  20  32  48  72 100 129 160 195 238 288
#     4  10  21  36  53  72  93 121 160 203 245 289
#     4   8  13  22  37  59  89 123 155 187 226 271
#     4   9  17  30  48  68  91 121 155 191 233 281
#
# _framework density 18.568259000000001
#
# number of rings (size 3 to 8) (size 9 to 14) (size 15 to 20)
#    0.000    3.000    0.000    2.500    0.000    5.333 
#    0.000    5.000    0.000    0.000    0.000    1.167 
#    0.000    4.000    0.000    0.000    0.000    0.000 
#
# Total GULP energy -297530.381121 kJ/mol
# GULP energy per Si atom -12397.099213 kJ/mol
# Density = 1.852600 g / cm^3
# Si number density = 18.568259 Si / 1000 Ang^3
#
#
#
# Elastic Constant Matrix: (Units=GPa)
#
#
# Indices 1 2 3 4 5 6 
#
# 1 7.5074 11.6735 7.2511 0.0000 0.0000 0.0000
# 2 11.6735 137.8297 99.5390 0.0000 0.0000 0.0000
# 3 7.2511 99.5390 151.6881 0.0000 0.0000 0.0000
# 4 0.0000 0.0000 0.0000 18.0176 0.0000 0.0000
# 5 0.0000 0.0000 0.0000 0.0000 -1.0783 0.0000
# 6 0.0000 0.0000 0.0000 0.0000 0.0000 10.4051
#
#
#
# Elastic Compliance Matrix: (Units=1/GPa)
#
#
# Indices 1 2 3 4 5 6 
#
# 1 0.153816 -0.014669 0.002273 0.000000 0.000000 0.000000
# 2 -0.014669 0.015190 -0.009267 0.000000 0.000000 0.000000
# 3 0.002273 -0.009267 0.012565 0.000000 0.000000 0.000000
# 4 0.000000 0.000000 0.000000 0.055501 0.000000 0.000000
# 5 0.000000 0.000000 0.000000 0.000000 -0.927380 0.000000
# 6 0.000000 0.000000 0.000000 0.000000 0.000000 0.096107
#
#
# Mechanical properties :
#
#
# Convention : Reuss Voigt Hill
#
# Bulk Modulus (GPa) = 7.23351 59.32802 33.28076
# Shear Modulus (GPa) = -9.90503 17.37298 3.73397
#
# Velocity S-wave (km/s) = -2.31213 3.06212 1.41962
# Velocity P-wave (km/s) = 1.79551 6.67254 4.54417
#
# Compressibility (1/GPa) = 0.13824547
#
# Stress axis : x y z
#
# Youngs Moduli (GPa) = 6.50128 65.83318 79.58880
#
# Poissons Ratio (x) = 0.96571 -0.18092
# Poissons Ratio (y) = 0.09537 0.73751
# Poissons Ratio (z) = -0.01478 0.61004
#
# Static dielectric constant tensor:
#      x y z
#    x 2.804770 0.000000 0.000000 
#    y 0.000000 3.609160 0.000000 
#    z 0.000000 0.000000 3.688420 
# 
# 
# High freq. dielectric constant tensor:
#      x y z
#    x 1.656730 0.000000 0.000000 
#    y 0.000000 1.720150 0.000000 
#    z 0.000000 0.000000 1.737230 
# 
# From -- ./inp_files/5965.got.cif
#   From: 2010.03.12/outbox.cif.g09.slc.cpg/sg25_3_cif.got.tgz:5965.got - 2010.04.14 03:30:10.
