data_PCOD8166712
_publ_section_title
;
Structure prediction by ZEFSAII (Michael W. Deem and Ramdas Pophale) SiO2 
 PCOD8166712
Probable space group: P M M 2
;
_chemical_formula_sum "Si O2"
_cell_formula_units_Z 20
_cell_length_a 9.135643
_cell_length_b 9.101365
_cell_length_c 12.906072
_cell_angle_alpha 90.000000
_cell_angle_beta 90.000000
_cell_angle_gamma 90.000000
_cell_volume 1073.098864
_symmetry_space_group_name_H-M "P M M 2"
_symmetry_group_IT_number 25
_symmetry_cell_setting 'orthorhombic'
loop_
_space_group_symop_operation_xyz
x,y,z
-x,-y,z
-x,y,z
x,-y,z
loop_
_atom_site_type_symbol
_atom_site_label
_atom_site_fract_x
_atom_site_fract_y
_atom_site_fract_z
Si Si1 0.832256 0.173004 0.246510
Si Si2 0.169807 0.330387 0.037139
Si Si3 0.665128 0.324926 0.834162
Si Si4 0.834894 0.325107 0.634699
Si Si5 0.671343 0.329691 0.429738
O O1 0.781896 0.238006 0.136727
O O2 0.727316 0.237392 0.333258
O O3 0.000000 0.218195 0.270302
O O4 0.812519 0.000000 0.242367
O O5 0.206719 0.500000 0.059627
O O6 0.000000 0.308751 0.010724
O O7 0.260000 0.268816 0.939549
O O8 0.500000 0.264882 0.829591
O O9 0.668222 0.500000 0.831096
O O10 0.753135 0.261248 0.735712
O O11 0.834442 0.500000 0.638711
O O12 0.751234 0.270178 0.532473
O O13 0.000000 0.263590 0.632577
O O14 0.500000 0.304037 0.444730
O O15 0.708357 0.500000 0.410036
#
# Coordination Sequence:
#
# PCOD8166712 Si02
#       5
#     4   4   4   4   4
#     4  10  21  36  53  73  99 133 172 212 254 300
#     4   9  17  30  49  72  98 129 165 204 246 294
#     4   9  16  26  43  70 102 130 158 198 247 296
#     4   9  16  27  46  72 101 131 162 199 246 298
#     4  10  20  33  51  76 104 133 167 208 253 300
#
# _framework density 18.637609999999999
#
# number of rings (size 3 to 8) (size 9 to 14) (size 15 to 20)
#    0.000    2.600    0.000    2.400    0.000    8.000 
#    0.000    2.000    0.000    1.200    0.000    2.800 
#    0.000    0.000    0.000    0.000    0.000    0.000 
#
# Total GULP energy -248037.206476 kJ/mol
# GULP energy per Si atom -12401.860324 kJ/mol
# Density = 1.859519 g / cm^3
# Si number density = 18.637610 Si / 1000 Ang^3
#
#
#
# Elastic Constant Matrix: (Units=GPa)
#
#
# Indices 1 2 3 4 5 6 
#
# 1 128.9490 31.4019 94.0901 0.0000 0.0000 0.0000
# 2 31.4019 36.9881 41.6141 0.0000 0.0000 0.0000
# 3 94.0901 41.6141 179.5911 0.0000 0.0000 0.0000
# 4 0.0000 0.0000 0.0000 -3.1292 0.0000 0.0000
# 5 0.0000 0.0000 0.0000 0.0000 30.3036 0.0000
# 6 0.0000 0.0000 0.0000 0.0000 0.0000 15.2149
#
#
#
# Elastic Compliance Matrix: (Units=1/GPa)
#
#
# Indices 1 2 3 4 5 6 
#
# 1 0.013109 -0.004602 -0.005802 0.000000 0.000000 0.000000
# 2 -0.004602 0.038185 -0.006437 0.000000 0.000000 0.000000
# 3 -0.005802 -0.006437 0.010099 0.000000 0.000000 0.000000
# 4 0.000000 0.000000 0.000000 -0.319572 0.000000 0.000000
# 5 0.000000 0.000000 0.000000 0.000000 0.032999 0.000000
# 6 0.000000 0.000000 0.000000 0.000000 0.000000 0.065725
#
#
# Mechanical properties :
#
#
# Convention : Reuss Voigt Hill
#
# Bulk Modulus (GPa) = 36.08559 75.52672 55.80615
# Shear Modulus (GPa) = -42.90515 20.37266 -11.26624
#
# Velocity S-wave (km/s) = -4.80320 3.30978 -2.46130
# Velocity P-wave (km/s) = 3.37005 7.43088 4.68299
#
# Compressibility (1/GPa) = 0.02771189
#
# Stress axis : x y z
#
# Youngs Moduli (GPa) = 76.28387 26.18845 99.01693
#
# Poissons Ratio (x) = 0.12052 0.57446
# Poissons Ratio (y) = 0.35106 0.63737
# Poissons Ratio (z) = 0.44257 0.16857
#
# Static dielectric constant tensor:
#      x y z
#    x 3.536510 0.000000 0.000000 
#    y 0.000000 2.922090 0.000000 
#    z 0.000000 0.000000 3.600890 
# 
# 
# High freq. dielectric constant tensor:
#      x y z
#    x 1.730960 0.000000 0.000000 
#    y 0.000000 1.668910 0.000000 
#    z 0.000000 0.000000 1.740480 
# 
# From -- ./inp_files/3760.got.cif
#   From: 2010.03.12/outbox.cif.g09.slc.cpg/sg25_2_cif.got.tgz:3760.got - 2010.04.14 03:30:10.
