data_PCOD8166109
_publ_section_title
;
Structure prediction by ZEFSAII (Michael W. Deem and Ramdas Pophale) SiO2 
 PCOD8166109
Probable space group: I 21 21 21
;
_chemical_formula_sum "Si O2"
_cell_formula_units_Z 48
_cell_length_a 9.365754
_cell_length_b 13.849941
_cell_length_c 17.479761
_cell_angle_alpha 90.000000
_cell_angle_beta 90.000000
_cell_angle_gamma 90.000000
_cell_volume 2267.389651
_symmetry_space_group_name_H-M "I 21 21 21"
_symmetry_group_IT_number 24
_symmetry_cell_setting 'orthorhombic'
loop_
_space_group_symop_operation_xyz
x,y,z
-x,1/2-y,z
x,-y,1/2-z
1/2-x,y,-z
1/2+x,1/2+y,1/2+z
1/2-x,-y,1/2+z
1/2+x,1/2-y,-z
-x,1/2+y,1/2-z
loop_
_atom_site_type_symbol
_atom_site_label
_atom_site_fract_x
_atom_site_fract_y
_atom_site_fract_z
Si Si1 0.472695 0.060028 0.173942
Si Si2 0.620351 0.408814 0.551405
Si Si3 0.140860 0.939780 0.326890
Si Si4 0.238994 0.261979 0.345349
Si Si5 0.500000 0.250000 0.769720
Si Si6 0.500000 0.250000 0.245493
Si Si7 0.629860 0.930849 0.054543
O O1 0.307180 0.074126 0.153559
O O2 0.546457 0.162754 0.190722
O O3 0.495748 0.000000 0.250000
O O4 0.555653 0.014338 0.102979
O O5 0.750000 0.445848 0.500000
O O6 0.570815 0.497295 0.605325
O O7 0.670393 0.317010 0.599736
O O8 0.488075 0.377532 0.498139
O O9 0.063520 0.835910 0.321980
O O10 0.120289 0.000000 0.250000
O O11 0.369888 0.213189 0.299126
O O12 0.295742 0.352701 0.391676
O O13 0.121743 0.296612 0.284194
O O14 0.750000 0.977874 0.000000
#
# Coordination Sequence:
#
# PCOD8166109 Si02
#       7
#     8   8   8   8   4   4   8
#     4  11  22  47  72 101 144 192 238 288 350 436
#     4  12  24  46  72  99 150 192 229 290 361 434
#     4  11  23  46  73 101 142 190 242 286 353 433
#     4  12  24  43  69 111 144 180 235 302 361 424
#     4  12  24  44  76 108 140 184 248 300 346 414
#     4  12  22  42  78 104 134 192 246 294 346 418
#     4  12  27  44  68 107 150 187 231 295 366 422
#
# _framework density 21.169719000000001
#
# number of rings (size 3 to 8) (size 9 to 14) (size 15 to 20)
#    0.000    0.333    6.667    3.500    0.000    2.667 
#    0.000    0.833    0.000    0.000    0.000    0.000 
#    0.000    0.000    0.000    0.000    0.000    0.000 
#
# Total GULP energy -297670.393339 kJ/mol
# GULP energy per Si atom -12402.933056 kJ/mol
# Density = 2.112154 g / cm^3
# Si number density = 21.169719 Si / 1000 Ang^3
#
#
#
# Elastic Constant Matrix: (Units=GPa)
#
#
# Indices 1 2 3 4 5 6 
#
# 1 121.8574 46.9162 51.6323 0.0000 0.0000 0.0000
# 2 46.9162 146.1036 57.3828 0.0000 0.0000 0.0000
# 3 51.6323 57.3828 94.9633 0.0000 0.0000 0.0000
# 4 0.0000 0.0000 0.0000 10.5855 0.0000 0.0000
# 5 0.0000 0.0000 0.0000 0.0000 39.2033 0.0000
# 6 0.0000 0.0000 0.0000 0.0000 0.0000 34.4863
#
#
#
# Elastic Compliance Matrix: (Units=1/GPa)
#
#
# Indices 1 2 3 4 5 6 
#
# 1 0.010921 -0.001540 -0.005007 0.000000 0.000000 0.000000
# 2 -0.001540 0.009192 -0.004717 0.000000 0.000000 0.000000
# 3 -0.005007 -0.004717 0.016103 0.000000 0.000000 0.000000
# 4 0.000000 0.000000 0.000000 0.094469 0.000000 0.000000
# 5 0.000000 0.000000 0.000000 0.000000 0.025508 0.000000
# 6 0.000000 0.000000 0.000000 0.000000 0.000000 0.028997
#
#
# Mechanical properties :
#
#
# Convention : Reuss Voigt Hill
#
# Bulk Modulus (GPa) = 73.06033 74.97632 74.01832
# Shear Modulus (GPa) = 23.55386 30.65455 27.10421
#
# Velocity S-wave (km/s) = 3.33922 3.80944 3.58205
# Velocity P-wave (km/s) = 7.03234 7.40559 7.22138
#
# Compressibility (1/GPa) = 0.01368732
#
# Stress axis : x y z
#
# Youngs Moduli (GPa) = 91.56777 108.79544 62.10107
#
# Poissons Ratio (x) = 0.16758 0.31094
# Poissons Ratio (y) = 0.14105 0.29291
# Poissons Ratio (z) = 0.45848 0.51315
#
# Static dielectric constant tensor:
#      x y z
#    x 4.172610 0.000000 0.000000 
#    y 0.000000 4.140210 0.000000 
#    z 0.000000 0.000000 4.096210 
# 
# 
# High freq. dielectric constant tensor:
#      x y z
#    x 1.843360 0.000000 0.000000 
#    y 0.000000 1.816810 0.000000 
#    z 0.000000 0.000000 1.831080 
# 
# From -- ./inp_files/29518.got.cif
#   From: 2010.03.12/outbox.cif.g09.slc.cpg/sg24_15_cif.got.tgz:29518.got - 2010.04.14 03:06:53.
