data_PCOD8166856
_publ_section_title
;
Structure prediction by ZEFSAII (Michael W. Deem and Ramdas Pophale) SiO2 
 PCOD8166856
Probable space group: P M M 2
;
_chemical_formula_sum "Si O2"
_cell_formula_units_Z 28
_cell_length_a 15.296370
_cell_length_b 13.217785
_cell_length_c 7.894859
_cell_angle_alpha 90.000000
_cell_angle_beta 90.000000
_cell_angle_gamma 90.000000
_cell_volume 1596.215198
_symmetry_space_group_name_H-M "P M M 2"
_symmetry_group_IT_number 25
_symmetry_cell_setting 'orthorhombic'
loop_
_space_group_symop_operation_xyz
x,y,z
-x,-y,z
-x,y,z
x,-y,z
loop_
_atom_site_type_symbol
_atom_site_label
_atom_site_fract_x
_atom_site_fract_y
_atom_site_fract_z
Si Si1 0.400081 0.884907 0.839650
Si Si2 0.252621 0.257153 0.350933
Si Si3 0.901006 0.884688 0.249715
Si Si4 0.097127 0.780903 0.910550
Si Si5 0.788082 0.618495 0.032724
Si Si6 0.740275 0.735741 0.724980
Si Si7 0.400040 0.884398 0.231375
O O1 0.500000 0.851824 0.811644
O O2 0.339929 0.813097 0.727706
O O3 0.386672 0.000000 0.779529
O O4 0.373550 0.873772 0.035392
O O5 0.165730 0.189103 0.343543
O O6 0.254227 0.310455 0.535833
O O7 0.337590 0.186716 0.339381
O O8 0.256415 0.342938 0.206502
O O9 0.000000 0.860029 0.310081
O O10 0.875846 0.000000 0.291653
O O11 0.894650 0.870905 0.046492
O O12 0.118423 0.674571 0.008637
O O13 0.169140 0.797275 0.763609
O O14 0.000000 0.775631 0.831734
O O15 0.802462 0.500000 0.043183
O O16 0.728056 0.648066 0.868243
O O17 0.500000 0.850449 0.260550
O O18 0.387596 0.000000 0.290311
#
# Coordination Sequence:
#
# PCOD8166856 Si02
#       7
#     4   4   4   4   4   4   4
#     4   9  17  32  54  78 108 145 181 216 256 306
#     4  11  20  33  54  79 105 140 171 215 264 316
#     4   9  17  31  51  74 105 144 177 206 246 304
#     4   8  17  34  54  76 102 137 174 213 258 308
#     4   9  20  38  56  75 101 133 172 220 270 313
#     4  10  21  33  52  81 106 136 172 218 266 314
#     4   9  17  31  53  79 109 144 179 214 254 305
#
# _framework density 17.541495999999999
#
# number of rings (size 3 to 8) (size 9 to 14) (size 15 to 20)
#    0.857    1.857    1.429    1.286    0.000    4.857 
#    0.000    1.429    0.000    3.429    0.000    2.000 
#    0.000    0.000    0.000    0.000    0.000    0.000 
#
# Total GULP energy -346967.344557 kJ/mol
# GULP energy per Si atom -12391.690877 kJ/mol
# Density = 1.750157 g / cm^3
# Si number density = 17.541496 Si / 1000 Ang^3
#
#
#
# Elastic Constant Matrix: (Units=GPa)
#
#
# Indices 1 2 3 4 5 6 
#
# 1 81.1657 22.8492 23.9109 0.0000 0.0000 0.0000
# 2 22.8492 66.5883 22.9486 0.0000 0.0000 0.0000
# 3 23.9109 22.9486 106.6721 0.0000 0.0000 0.0000
# 4 0.0000 0.0000 0.0000 8.1612 0.0000 0.0000
# 5 0.0000 0.0000 0.0000 0.0000 13.3329 0.0000
# 6 0.0000 0.0000 0.0000 0.0000 0.0000 14.0088
#
#
#
# Elastic Compliance Matrix: (Units=1/GPa)
#
#
# Indices 1 2 3 4 5 6 
#
# 1 0.014140 -0.004061 -0.002296 0.000000 0.000000 0.000000
# 2 -0.004061 0.017386 -0.002830 0.000000 0.000000 0.000000
# 3 -0.002296 -0.002830 0.010498 0.000000 0.000000 0.000000
# 4 0.000000 0.000000 0.000000 0.122531 0.000000 0.000000
# 5 0.000000 0.000000 0.000000 0.000000 0.075002 0.000000
# 6 0.000000 0.000000 0.000000 0.000000 0.000000 0.071384
#
#
# Mechanical properties :
#
#
# Convention : Reuss Voigt Hill
#
# Bulk Modulus (GPa) = 42.28191 43.76039 43.02115
# Shear Modulus (GPa) = 14.82804 19.41507 17.12155
#
# Velocity S-wave (km/s) = 2.91058 3.33048 3.12759
# Velocity P-wave (km/s) = 5.95412 6.30796 6.13360
#
# Compressibility (1/GPa) = 0.02365078
#
# Stress axis : x y z
#
# Youngs Moduli (GPa) = 70.72134 57.51605 95.25602
#
# Poissons Ratio (x) = 0.23356 0.21870
# Poissons Ratio (y) = 0.28718 0.26959
# Poissons Ratio (z) = 0.16237 0.16278
#
# Static dielectric constant tensor:
#      x y z
#    x 3.248890 0.000000 0.000000 
#    y 0.000000 2.850430 0.000000 
#    z 0.000000 0.000000 3.113710 
# 
# 
# High freq. dielectric constant tensor:
#      x y z
#    x 1.678550 0.000000 0.000000 
#    y 0.000000 1.640590 0.000000 
#    z 0.000000 0.000000 1.669040 
# 
# From -- ./inp_files/3498.got.cif
#   From: 2010.03.12/outbox.cif.g09.slc.cpg/sg25_2_cif.got.tgz:3498.got - 2010.04.14 03:30:10.
