data_PCOD8166488
_publ_section_title
;
Structure prediction by ZEFSAII (Michael W. Deem and Ramdas Pophale) SiO2 
 PCOD8166488
Probable space group: P M M 2
;
_chemical_formula_sum "Si O2"
_cell_formula_units_Z 32
_cell_length_a 14.785666
_cell_length_b 9.523196
_cell_length_c 12.196859
_cell_angle_alpha 90.000000
_cell_angle_beta 90.000000
_cell_angle_gamma 90.000000
_cell_volume 1717.400629
_symmetry_space_group_name_H-M "P M M 2"
_symmetry_group_IT_number 25
_symmetry_cell_setting 'orthorhombic'
loop_
_space_group_symop_operation_xyz
x,y,z
-x,-y,z
-x,y,z
x,-y,z
loop_
_atom_site_type_symbol
_atom_site_label
_atom_site_fract_x
_atom_site_fract_y
_atom_site_fract_z
Si Si1 0.402932 0.665290 0.782430
Si Si2 0.105445 0.834795 0.523061
Si Si3 0.346669 0.338815 0.020935
Si Si4 0.098096 0.656175 0.913156
Si Si5 0.600248 0.338578 0.263109
Si Si6 0.178377 0.836907 0.077884
Si Si7 0.787047 0.335150 0.704527
Si Si8 0.770775 0.837681 0.319574
O O1 0.500000 0.723536 0.737133
O O2 0.399369 0.500000 0.768121
O O3 0.316972 0.722249 0.712442
O O4 0.402238 0.700840 0.912186
O O5 0.154806 0.752750 0.619456
O O6 0.159008 0.792365 0.413064
O O7 0.000000 0.789810 0.512832
O O8 0.112653 0.000000 0.546258
O O9 0.312441 0.500000 0.014641
O O10 0.403382 0.314411 0.131945
O O11 0.264004 0.233374 0.021406
O O12 0.115629 0.500000 0.959076
O O13 0.173260 0.694567 0.824269
O O14 0.000000 0.665777 0.855507
O O15 0.095265 0.762460 0.016563
O O16 0.500000 0.297775 0.307395
O O17 0.622200 0.500000 0.290240
O O18 0.676761 0.247891 0.324598
O O19 0.175974 0.806878 0.207216
O O20 0.177715 0.000000 0.051236
O O21 0.792770 0.500000 0.673839
O O22 0.743303 0.000000 0.329105
#
# Coordination Sequence:
#
# PCOD8166488 Si02
#       8
#     4   4   4   4   4   4   4   4
#     4   9  16  28  51  80 107 140 179 212 251 308
#     4  10  22  41  62  79  98 133 183 233 277 323
#     4   9  15  28  49  73 107 147 182 213 253 305
#     4  10  20  34  52  76 107 142 175 211 266 331
#     4   9  17  29  50  82 114 144 181 222 260 306
#     4  10  19  31  50  77 109 141 175 215 264 317
#     4  10  20  36  57  81 109 138 174 222 270 318
#     4   9  20  37  55  77 106 142 181 223 272 322
#
# _framework density 18.632812000000001
#
# number of rings (size 3 to 8) (size 9 to 14) (size 15 to 20)
#    0.000    2.500    1.250    1.125    0.000    4.750 
#    0.000    1.875    0.000    4.500    0.000    0.000 
#    0.000    0.000    0.000    0.000    0.000    0.000 
#
# Total GULP energy -396524.258888 kJ/mol
# GULP energy per Si atom -12391.383090 kJ/mol
# Density = 1.859040 g / cm^3
# Si number density = 18.632812 Si / 1000 Ang^3
#
#
#
# Elastic Constant Matrix: (Units=GPa)
#
#
# Indices 1 2 3 4 5 6 
#
# 1 156.5896 50.1587 60.3861 0.0000 0.0000 0.0000
# 2 50.1587 68.6178 52.6650 0.0000 0.0000 0.0000
# 3 60.3861 52.6650 79.5073 0.0000 0.0000 0.0000
# 4 0.0000 0.0000 0.0000 27.7280 0.0000 0.0000
# 5 0.0000 0.0000 0.0000 0.0000 23.5453 0.0000
# 6 0.0000 0.0000 0.0000 0.0000 0.0000 21.4714
#
#
#
# Elastic Compliance Matrix: (Units=1/GPa)
#
#
# Indices 1 2 3 4 5 6 
#
# 1 0.009288 -0.002797 -0.005201 0.000000 0.000000 0.000000
# 2 -0.002797 0.030487 -0.018070 0.000000 0.000000 0.000000
# 3 -0.005201 -0.018070 0.028497 0.000000 0.000000 0.000000
# 4 0.000000 0.000000 0.000000 0.036065 0.000000 0.000000
# 5 0.000000 0.000000 0.000000 0.000000 0.042471 0.000000
# 6 0.000000 0.000000 0.000000 0.000000 0.000000 0.046574
#
#
# Mechanical properties :
#
#
# Convention : Reuss Voigt Hill
#
# Bulk Modulus (GPa) = 61.97586 70.12604 66.05095
# Shear Modulus (GPa) = 19.92850 23.98261 21.95555
#
# Velocity S-wave (km/s) = 3.27393 3.59153 3.43640
# Velocity P-wave (km/s) = 6.90111 7.41055 7.16036
#
# Compressibility (1/GPa) = 0.01613532
#
# Stress axis : x y z
#
# Youngs Moduli (GPa) = 107.66636 32.80083 35.09119
#
# Poissons Ratio (x) = 0.09175 0.18252
# Poissons Ratio (y) = 0.30117 0.63409
# Poissons Ratio (z) = 0.56001 0.59270
#
# Static dielectric constant tensor:
#      x y z
#    x 3.797060 0.000000 0.000000 
#    y 0.000000 3.306870 0.000000 
#    z 0.000000 0.000000 3.356730 
# 
# 
# High freq. dielectric constant tensor:
#      x y z
#    x 1.735390 0.000000 0.000000 
#    y 0.000000 1.701480 0.000000 
#    z 0.000000 0.000000 1.704920 
# 
# From -- ./inp_files/4295.got.cif
#   From: 2010.03.12/outbox.cif.g09.slc.cpg/sg25_3_cif.got.tgz:4295.got - 2010.04.14 03:30:10.
