data_PCOD8166373
_publ_section_title
;
Structure prediction by ZEFSAII (Michael W. Deem and Ramdas Pophale) SiO2 
 PCOD8166373
Probable space group: P M M 2
;
_chemical_formula_sum "Si O2"
_cell_formula_units_Z 32
_cell_length_a 8.916491
_cell_length_b 14.548098
_cell_length_c 12.614694
_cell_angle_alpha 90.000000
_cell_angle_beta 90.000000
_cell_angle_gamma 90.000000
_cell_volume 1636.352686
_symmetry_space_group_name_H-M "P M M 2"
_symmetry_group_IT_number 25
_symmetry_cell_setting 'orthorhombic'
loop_
_space_group_symop_operation_xyz
x,y,z
-x,-y,z
-x,y,z
x,-y,z
loop_
_atom_site_type_symbol
_atom_site_label
_atom_site_fract_x
_atom_site_fract_y
_atom_site_fract_z
Si Si1 0.679072 0.227872 0.670710
Si Si2 0.173916 0.395307 0.574411
Si Si3 0.332156 0.363906 0.351785
Si Si4 0.667250 0.159085 0.273527
Si Si5 0.677095 0.901533 0.489137
Si Si6 0.821785 0.892610 0.854796
Si Si7 0.173573 0.599139 0.140343
Si Si8 0.823485 0.206521 0.066234
O O1 0.500000 0.230949 0.679381
O O2 0.744001 0.330994 0.662188
O O3 0.739913 0.178065 0.564222
O O4 0.742646 0.169062 0.767045
O O5 0.195959 0.500000 0.613142
O O6 0.240794 0.384165 0.457649
O O7 0.000000 0.368214 0.570445
O O8 0.500000 0.403009 0.366881
O O9 0.337517 0.257342 0.328310
O O10 0.256072 0.412604 0.251943
O O11 0.500000 0.127605 0.239983
O O12 0.739014 0.098339 0.368194
O O13 0.769994 0.152675 0.170394
O O14 0.500000 0.887997 0.480559
O O15 0.719125 0.000000 0.540595
O O16 0.000000 0.883975 0.843096
O O17 0.772686 0.000000 0.848600
O O18 0.762207 0.847839 0.964492
O O19 0.195440 0.500000 0.080477
O O20 0.234246 0.686287 0.071079
O O21 0.000000 0.617591 0.165219
O O22 0.000000 0.203629 0.063242
#
# Coordination Sequence:
#
# PCOD8166373 Si02
#       8
#     4   4   4   4   4   4   4   4
#     4  11  22  39  61  85 113 145 189 242 290 341
#     4  11  23  37  55  81 114 153 193 231 279 342
#     4  10  18  30  49  77 113 152 191 230 276 331
#     4   9  17  31  50  77 113 148 182 226 280 335
#     4   9  17  31  52  79 111 144 176 220 282 343
#     4  10  22  41  62  83 111 148 191 241 295 348
#     4   9  17  30  49  75 107 145 189 232 279 338
#     4   9  19  35  54  77 107 145 188 235 284 334
#
# _framework density 19.555686999999999
#
# number of rings (size 3 to 8) (size 9 to 14) (size 15 to 20)
#    0.000    2.250    1.250    1.875    0.000    5.000 
#    0.000    0.625    0.000    3.750    0.000    0.000 
#    0.000    0.000    0.000    0.000    0.000    0.000 
#
# Total GULP energy -396514.780414 kJ/mol
# GULP energy per Si atom -12391.086888 kJ/mol
# Density = 1.951118 g / cm^3
# Si number density = 19.555687 Si / 1000 Ang^3
#
#
#
# Elastic Constant Matrix: (Units=GPa)
#
#
# Indices 1 2 3 4 5 6 
#
# 1 51.4835 41.3372 36.6708 0.0000 0.0000 0.0000
# 2 41.3372 123.2586 68.7815 0.0000 0.0000 0.0000
# 3 36.6708 68.7815 120.2943 0.0000 0.0000 0.0000
# 4 0.0000 0.0000 0.0000 17.0637 0.0000 0.0000
# 5 0.0000 0.0000 0.0000 0.0000 26.3496 0.0000
# 6 0.0000 0.0000 0.0000 0.0000 0.0000 16.0112
#
#
#
# Elastic Compliance Matrix: (Units=1/GPa)
#
#
# Indices 1 2 3 4 5 6 
#
# 1 0.028280 -0.006863 -0.004697 0.000000 0.000000 0.000000
# 2 -0.006863 0.013580 -0.005673 0.000000 0.000000 0.000000
# 3 -0.004697 -0.005673 0.012988 0.000000 0.000000 0.000000
# 4 0.000000 0.000000 0.000000 0.058604 0.000000 0.000000
# 5 0.000000 0.000000 0.000000 0.000000 0.037951 0.000000
# 6 0.000000 0.000000 0.000000 0.000000 0.000000 0.062456
#
#
# Mechanical properties :
#
#
# Convention : Reuss Voigt Hill
#
# Bulk Modulus (GPa) = 49.06047 65.40172 57.23109
# Shear Modulus (GPa) = 19.59870 21.76803 20.68336
#
# Velocity S-wave (km/s) = 3.16919 3.33998 3.25570
# Velocity P-wave (km/s) = 6.20755 6.95632 6.59258
#
# Compressibility (1/GPa) = 0.02038301
#
# Stress axis : x y z
#
# Youngs Moduli (GPa) = 35.36105 73.63621 76.99340
#
# Poissons Ratio (x) = 0.50539 0.36160
# Poissons Ratio (y) = 0.24270 0.43676
# Poissons Ratio (z) = 0.16607 0.41771
#
# Static dielectric constant tensor:
#      x y z
#    x 3.469440 0.000000 0.000000 
#    y 0.000000 3.928350 0.000000 
#    z 0.000000 0.000000 3.560540 
# 
# 
# High freq. dielectric constant tensor:
#      x y z
#    x 1.744530 0.000000 0.000000 
#    y 0.000000 1.779050 0.000000 
#    z 0.000000 0.000000 1.741380 
# 
# From -- ./inp_files/4254.got.cif
#   From: 2010.03.12/outbox.cif.g09.slc.cpg/sg25_3_cif.got.tgz:4254.got - 2010.04.14 03:30:10.
