data_PCOD8166742
_publ_section_title
;
Structure prediction by ZEFSAII (Michael W. Deem and Ramdas Pophale) SiO2 
 PCOD8166742
Probable space group: P M M 2
;
_chemical_formula_sum "Si O2"
_cell_formula_units_Z 32
_cell_length_a 14.645966
_cell_length_b 8.942300
_cell_length_c 12.309146
_cell_angle_alpha 90.000000
_cell_angle_beta 90.000000
_cell_angle_gamma 90.000000
_cell_volume 1612.111887
_symmetry_space_group_name_H-M "P M M 2"
_symmetry_group_IT_number 25
_symmetry_cell_setting 'orthorhombic'
loop_
_space_group_symop_operation_xyz
x,y,z
-x,-y,z
-x,y,z
x,-y,z
loop_
_atom_site_type_symbol
_atom_site_label
_atom_site_fract_x
_atom_site_fract_y
_atom_site_fract_z
Si Si1 0.664750 0.832926 0.813650
Si Si2 0.716736 0.677325 0.596517
Si Si3 0.606734 0.823290 0.403369
Si Si4 0.285575 0.677060 0.208354
Si Si5 0.863811 0.166155 0.891010
Si Si6 0.899914 0.673869 0.112706
Si Si7 0.599858 0.666287 0.005017
Si Si8 0.898888 0.824746 0.651524
O O1 0.674013 0.726310 0.710525
O O2 0.755346 0.834918 0.885624
O O3 0.637365 0.000000 0.775176
O O4 0.591589 0.767456 0.897321
O O5 0.719501 0.500000 0.586712
O O6 0.649700 0.742373 0.506578
O O7 0.820900 0.738246 0.583592
O O8 0.500000 0.778179 0.391224
O O9 0.665096 0.770850 0.300654
O O10 0.617086 0.000000 0.417025
O O11 0.296405 0.500000 0.232416
O O12 0.179200 0.728648 0.195957
O O13 0.330542 0.725916 0.094885
O O14 0.901089 0.231655 0.776532
O O15 0.903012 0.000000 0.908008
O O16 0.896405 0.261885 0.991898
O O17 0.884603 0.500000 0.095886
O O18 0.000000 0.710467 0.163288
O O19 0.500000 0.665160 0.059592
O O20 0.629942 0.500000 0.968865
O O21 0.000000 0.796609 0.600607
O O22 0.872422 0.000000 0.650085
#
# Coordination Sequence:
#
# PCOD8166742 Si02
#       8
#     4   4   4   4   4   4   4   4
#     4  10  20  35  55  81 118 159 196 238 292 349
#     4  11  23  39  62  89 119 154 197 246 299 358
#     4  11  25  45  68  90 111 143 195 253 306 364
#     4  10  21  39  61  85 119 155 192 241 297 353
#     4   9  17  30  50  78 114 157 199 236 277 331
#     4  10  20  33  53  83 118 156 196 237 282 335
#     4  10  20  34  55  84 116 152 193 236 292 360
#     4   9  18  34  56  85 124 165 202 242 290 344
#
# _framework density 19.849737999999999
#
# number of rings (size 3 to 8) (size 9 to 14) (size 15 to 20)
#    0.000    2.000    1.250    3.375    0.000    6.250 
#    0.000    0.625    0.000    2.250    0.000    0.000 
#    0.000    0.000    0.000    0.000    0.000    0.000 
#
# Total GULP energy -396637.499164 kJ/mol
# GULP energy per Si atom -12394.921849 kJ/mol
# Density = 1.980456 g / cm^3
# Si number density = 19.849738 Si / 1000 Ang^3
#
#
#
# Elastic Constant Matrix: (Units=GPa)
#
#
# Indices 1 2 3 4 5 6 
#
# 1 141.3661 55.7207 61.5715 0.0000 0.0000 0.0000
# 2 55.7207 89.3329 47.4028 0.0000 0.0000 0.0000
# 3 61.5715 47.4028 86.5908 0.0000 0.0000 0.0000
# 4 0.0000 0.0000 0.0000 33.9709 0.0000 0.0000
# 5 0.0000 0.0000 0.0000 0.0000 18.8354 0.0000
# 6 0.0000 0.0000 0.0000 0.0000 0.0000 23.2953
#
#
#
# Elastic Compliance Matrix: (Units=1/GPa)
#
#
# Indices 1 2 3 4 5 6 
#
# 1 0.011119 -0.003862 -0.005792 0.000000 0.000000 0.000000
# 2 -0.003862 0.017118 -0.006625 0.000000 0.000000 0.000000
# 3 -0.005792 -0.006625 0.019294 0.000000 0.000000 0.000000
# 4 0.000000 0.000000 0.000000 0.029437 0.000000 0.000000
# 5 0.000000 0.000000 0.000000 0.000000 0.053092 0.000000
# 6 0.000000 0.000000 0.000000 0.000000 0.000000 0.042927
#
#
# Mechanical properties :
#
#
# Convention : Reuss Voigt Hill
#
# Bulk Modulus (GPa) = 66.78701 71.85330 69.32016
# Shear Modulus (GPa) = 23.74895 25.39331 24.57113
#
# Velocity S-wave (km/s) = 3.46271 3.58058 3.52214
# Velocity P-wave (km/s) = 7.05028 7.30556 7.17906
#
# Compressibility (1/GPa) = 0.01497297
#
# Stress axis : x y z
#
# Youngs Moduli (GPa) = 89.93875 58.41677 51.82978
#
# Poissons Ratio (x) = 0.22559 0.30020
# Poissons Ratio (y) = 0.34732 0.34338
# Poissons Ratio (z) = 0.52093 0.38702
#
# Static dielectric constant tensor:
#      x y z
#    x 3.968620 0.000000 0.000000 
#    y 0.000000 3.623200 0.000000 
#    z 0.000000 0.000000 3.412890 
# 
# 
# High freq. dielectric constant tensor:
#      x y z
#    x 1.790380 0.000000 0.000000 
#    y 0.000000 1.766970 0.000000 
#    z 0.000000 0.000000 1.749380 
# 
# From -- ./inp_files/4913.got.cif
#   From: 2010.03.12/outbox.cif.g09.slc.cpg/sg25_3_cif.got.tgz:4913.got - 2010.04.14 03:30:10.
