data_PCOD8166470
_publ_section_title
;
Structure prediction by ZEFSAII (Michael W. Deem and Ramdas Pophale) SiO2 
 PCOD8166470
Probable space group: P M M 2
;
_chemical_formula_sum "Si O2"
_cell_formula_units_Z 32
_cell_length_a 9.663833
_cell_length_b 13.162045
_cell_length_c 14.403974
_cell_angle_alpha 90.000000
_cell_angle_beta 90.000000
_cell_angle_gamma 90.000000
_cell_volume 1832.125066
_symmetry_space_group_name_H-M "P M M 2"
_symmetry_group_IT_number 25
_symmetry_cell_setting 'orthorhombic'
loop_
_space_group_symop_operation_xyz
x,y,z
-x,-y,z
-x,y,z
x,-y,z
loop_
_atom_site_type_symbol
_atom_site_label
_atom_site_fract_x
_atom_site_fract_y
_atom_site_fract_z
Si Si1 0.341675 0.203432 0.117670
Si Si2 0.157758 0.116246 0.483178
Si Si3 0.658868 0.384963 0.985546
Si Si4 0.841132 0.615037 0.809712
Si Si5 0.652710 0.883360 0.819473
Si Si6 0.657758 0.883754 0.312080
Si Si7 0.152710 0.116640 0.975785
Si Si8 0.841675 0.796568 0.677588
O O1 0.500000 0.170257 0.094883
O O2 0.310570 0.315460 0.076227
O O3 0.315698 0.194845 0.227684
O O4 0.232629 0.125888 0.072746
O O5 0.250000 0.153441 0.397629
O O6 0.184303 0.194845 0.567574
O O7 0.000000 0.122438 0.450120
O O8 0.194554 0.000000 0.512594
O O9 0.500000 0.375158 0.954704
O O10 0.695782 0.500000 0.015155
O O11 0.750000 0.350496 0.897629
O O12 0.804218 0.500000 0.780103
O O13 0.810570 0.684540 0.719031
O O14 0.000000 0.624842 0.840554
O O15 0.500000 0.831323 0.817107
O O16 0.750000 0.830307 0.897629
O O17 0.732629 0.874112 0.722512
O O18 0.631586 0.000000 0.844513
O O19 0.500000 0.877562 0.345138
O O20 0.694554 0.000000 0.282664
O O21 0.000000 0.168677 0.978150
O O22 0.131587 0.000000 0.950745
O O23 0.000000 0.829743 0.700375
#
# Coordination Sequence:
#
# PCOD8166470 Si02
#       8
#     4   4   4   4   4   4   4   4
#     4  10  19  31  49  70  92 121 157 196 237 279
#     4   9  18  32  49  69  93 121 154 193 236 282
#     4   9  18  32  49  70  96 125 157 193 234 280
#     4   9  18  32  49  70  96 125 157 193 234 280
#     4  10  20  31  43  63  93 126 156 187 226 275
#     4   9  18  32  49  69  93 121 154 193 236 282
#     4  10  20  31  43  63  93 126 156 187 226 275
#     4  10  19  31  49  70  92 121 157 196 237 279
#
# _framework density 17.466055999999998
#
# number of rings (size 3 to 8) (size 9 to 14) (size 15 to 20)
#    0.000    2.500    0.000    2.250    0.000    6.500 
#    0.000    2.500    0.000    0.750    0.000    0.000 
#    0.000    0.000    0.000    0.000    0.000    0.000 
#
# Total GULP energy -396630.285185 kJ/mol
# GULP energy per Si atom -12394.696412 kJ/mol
# Density = 1.742630 g / cm^3
# Si number density = 17.466056 Si / 1000 Ang^3
#
#
#
# Elastic Constant Matrix: (Units=GPa)
#
#
# Indices 1 2 3 4 5 6 
#
# 1 118.1804 33.6190 74.7299 0.0000 0.0000 0.0000
# 2 33.6190 71.8593 50.4192 0.0000 0.0000 0.0000
# 3 74.7299 50.4192 134.0463 0.0000 0.0000 0.0000
# 4 0.0000 0.0000 0.0000 27.2563 0.0000 0.0000
# 5 0.0000 0.0000 0.0000 0.0000 33.2436 0.0000
# 6 0.0000 0.0000 0.0000 0.0000 0.0000 13.9093
#
#
#
# Elastic Compliance Matrix: (Units=1/GPa)
#
#
# Indices 1 2 3 4 5 6 
#
# 1 0.013167 -0.001372 -0.006825 0.000000 0.000000 0.000000
# 2 -0.001372 0.019048 -0.006400 0.000000 0.000000 0.000000
# 3 -0.006825 -0.006400 0.013672 0.000000 0.000000 0.000000
# 4 0.000000 0.000000 0.000000 0.036689 0.000000 0.000000
# 5 0.000000 0.000000 0.000000 0.000000 0.030081 0.000000
# 6 0.000000 0.000000 0.000000 0.000000 0.000000 0.071894
#
#
# Mechanical properties :
#
#
# Convention : Reuss Voigt Hill
#
# Bulk Modulus (GPa) = 59.89876 71.29136 65.59506
# Shear Modulus (GPa) = 22.79882 25.90304 24.35093
#
# Velocity S-wave (km/s) = 3.61684 3.85522 3.73793
# Velocity P-wave (km/s) = 7.19798 7.79247 7.50112
#
# Compressibility (1/GPa) = 0.01669484
#
# Stress axis : x y z
#
# Youngs Moduli (GPa) = 75.94492 52.49813 73.14171
#
# Poissons Ratio (x) = 0.07202 0.49918
# Poissons Ratio (y) = 0.10418 0.46810
# Poissons Ratio (z) = 0.51831 0.33598
#
# Static dielectric constant tensor:
#      x y z
#    x 3.522440 0.000000 0.000000 
#    y 0.000000 3.152280 0.000000 
#    z 0.000000 0.000000 3.084640 
# 
# 
# High freq. dielectric constant tensor:
#      x y z
#    x 1.687040 0.000000 0.000000 
#    y 0.000000 1.655950 0.000000 
#    z 0.000000 0.000000 1.652320 
# 
# From -- ./inp_files/5713.got.cif
#   From: 2010.03.12/outbox.cif.g09.slc.cpg/sg25_3_cif.got.tgz:5713.got - 2010.04.14 03:30:10.
