data_PCOD8166834
_publ_section_title
;
Structure prediction by ZEFSAII (Michael W. Deem and Ramdas Pophale) SiO2 
 PCOD8166834
Probable space group: P M M 2
;
_chemical_formula_sum "Si O2"
_cell_formula_units_Z 32
_cell_length_a 13.847054
_cell_length_b 9.136820
_cell_length_c 12.877764
_cell_angle_alpha 90.000000
_cell_angle_beta 90.000000
_cell_angle_gamma 90.000000
_cell_volume 1629.269460
_symmetry_space_group_name_H-M "P M M 2"
_symmetry_group_IT_number 25
_symmetry_cell_setting 'orthorhombic'
loop_
_space_group_symop_operation_xyz
x,y,z
-x,-y,z
-x,y,z
x,-y,z
loop_
_atom_site_type_symbol
_atom_site_label
_atom_site_fract_x
_atom_site_fract_y
_atom_site_fract_z
Si Si1 0.787472 0.173063 0.350390
Si Si2 0.226366 0.672386 0.744415
Si Si3 0.390055 0.672143 0.274180
Si Si4 0.385472 0.661127 0.042444
Si Si5 0.115118 0.334857 0.167110
Si Si6 0.112682 0.330227 0.538589
Si Si7 0.611577 0.829679 0.841007
Si Si8 0.893698 0.671959 0.937595
O O1 0.679671 0.241642 0.353104
O O2 0.842141 0.217862 0.245686
O O3 0.849292 0.231215 0.446063
O O4 0.779373 0.000000 0.357237
O O5 0.242030 0.500000 0.749752
O O6 0.168953 0.717720 0.641870
O O7 0.330772 0.750367 0.747883
O O8 0.170176 0.736398 0.844643
O O9 0.500000 0.727511 0.290104
O O10 0.384057 0.500000 0.296559
O O11 0.350332 0.707464 0.157662
O O12 0.500000 0.652399 0.050049
O O13 0.344171 0.500000 0.013291
O O14 0.352095 0.773056 0.953744
O O15 0.146998 0.500000 0.199215
O O16 0.000000 0.325194 0.166590
O O17 0.153936 0.297280 0.050823
O O18 0.130856 0.500000 0.511524
O O19 0.000000 0.299746 0.556773
O O20 0.500000 0.790735 0.823986
O O21 0.631816 0.000000 0.836273
O O22 0.904951 0.500000 0.920871
O O23 0.000000 0.744437 0.931357
#
# Coordination Sequence:
#
# PCOD8166834 Si02
#       8
#     4   4   4   4   4   4   4   4
#     4  12  25  37  55  84 118 154 192 235 288 349
#     4  10  20  35  60  89 111 139 188 243 291 339
#     4   9  19  37  60  84 112 149 195 243 288 338
#     4   8  15  30  53  79 107 144 190 236 277 321
#     4   9  18  34  56  81 112 150 189 230 281 343
#     4  10  22  42  66  88 111 144 192 247 295 343
#     4  10  21  35  51  77 118 161 194 227 274 336
#     4   8  15  30  54  84 113 139 173 224 285 342
#
# _framework density 19.640705000000001
#
# number of rings (size 3 to 8) (size 9 to 14) (size 15 to 20)
#    0.000    2.500    0.000    3.750    1.750    5.500 
#    0.000    1.875    0.000    2.625    0.000    0.000 
#    0.000    0.000    0.000    0.000    0.000    0.000 
#
# Total GULP energy -396763.101608 kJ/mol
# GULP energy per Si atom -12398.846925 kJ/mol
# Density = 1.959600 g / cm^3
# Si number density = 19.640705 Si / 1000 Ang^3
#
#
#
# Elastic Constant Matrix: (Units=GPa)
#
#
# Indices 1 2 3 4 5 6 
#
# 1 69.0218 44.5168 47.8633 0.0000 0.0000 0.0000
# 2 44.5168 75.7103 46.3247 0.0000 0.0000 0.0000
# 3 47.8633 46.3247 101.9979 0.0000 0.0000 0.0000
# 4 0.0000 0.0000 0.0000 5.7832 0.0000 0.0000
# 5 0.0000 0.0000 0.0000 0.0000 37.2148 0.0000
# 6 0.0000 0.0000 0.0000 0.0000 0.0000 20.0050
#
#
#
# Elastic Compliance Matrix: (Units=1/GPa)
#
#
# Indices 1 2 3 4 5 6 
#
# 1 0.026975 -0.011239 -0.007554 0.000000 0.000000 0.000000
# 2 -0.011239 0.022974 -0.005160 0.000000 0.000000 0.000000
# 3 -0.007554 -0.005160 0.015692 0.000000 0.000000 0.000000
# 4 0.000000 0.000000 0.000000 0.172914 0.000000 0.000000
# 5 0.000000 0.000000 0.000000 0.000000 0.026871 0.000000
# 6 0.000000 0.000000 0.000000 0.000000 0.000000 0.049987
#
#
# Mechanical properties :
#
#
# Convention : Reuss Voigt Hill
#
# Bulk Modulus (GPa) = 56.38421 58.23775 57.31098
# Shear Modulus (GPa) = 13.54161 19.80229 16.67195
#
# Velocity S-wave (km/s) = 2.62862 3.17870 2.91666
# Velocity P-wave (km/s) = 6.16303 6.57177 6.37068
#
# Compressibility (1/GPa) = 0.01773546
#
# Stress axis : x y z
#
# Youngs Moduli (GPa) = 37.07093 43.52730 63.72505
#
# Poissons Ratio (x) = 0.48921 0.48137
# Poissons Ratio (y) = 0.41665 0.32883
# Poissons Ratio (z) = 0.28003 0.22461
#
# Static dielectric constant tensor:
#      x y z
#    x 3.790260 0.000000 0.000000 
#    y 0.000000 3.248420 0.000000 
#    z 0.000000 0.000000 3.587000 
# 
# 
# High freq. dielectric constant tensor:
#      x y z
#    x 1.782430 0.000000 0.000000 
#    y 0.000000 1.730660 0.000000 
#    z 0.000000 0.000000 1.752680 
# 
# From -- ./inp_files/4942.got.cif
#   From: 2010.03.12/outbox.cif.g09.slc.cpg/sg25_3_cif.got.tgz:4942.got - 2010.04.14 03:30:10.
