data_PCOD8166090
_publ_section_title
;
Structure prediction by ZEFSAII (Michael W. Deem and Ramdas Pophale) SiO2 
 PCOD8166090
Probable space group: I 21 21 21
;
_chemical_formula_sum "Si O2"
_cell_formula_units_Z 40
_cell_length_a 11.443690
_cell_length_b 9.446264
_cell_length_c 17.466287
_cell_angle_alpha 90.000000
_cell_angle_beta 90.000000
_cell_angle_gamma 90.000000
_cell_volume 1888.107666
_symmetry_space_group_name_H-M "I 21 21 21"
_symmetry_group_IT_number 24
_symmetry_cell_setting 'orthorhombic'
loop_
_space_group_symop_operation_xyz
x,y,z
-x,1/2-y,z
x,-y,1/2-z
1/2-x,y,-z
1/2+x,1/2+y,1/2+z
1/2-x,-y,1/2+z
1/2+x,1/2-y,-z
-x,1/2+y,1/2-z
loop_
_atom_site_type_symbol
_atom_site_label
_atom_site_fract_x
_atom_site_fract_y
_atom_site_fract_z
Si Si1 0.658318 0.789359 0.232686
Si Si2 0.142417 0.500000 0.250000
Si Si3 0.037946 0.908867 0.360742
Si Si4 0.500000 0.750000 0.366954
Si Si5 0.236120 0.000000 0.250000
Si Si6 0.500000 0.250000 0.399332
Si Si7 0.886982 0.481949 0.976433
O O1 0.588753 0.831657 0.309963
O O2 0.677738 0.622210 0.221759
O O3 0.588612 0.837006 0.156361
O O4 0.782858 0.860127 0.240149
O O5 0.062439 0.494067 0.325040
O O6 0.161771 0.944845 0.322040
O O7 0.000000 0.750000 0.343266
O O8 0.038355 0.941505 0.449715
O O9 0.578004 0.638510 0.414906
O O10 0.427869 0.138262 0.450784
O O11 0.750000 0.479023 0.000000
#
# Coordination Sequence:
#
# PCOD8166090 Si02
#       7
#     8   4   8   4   4   4   8
#     4  11  22  43  67  98 132 169 223 273 327 390
#     4  11  24  39  70  96 126 169 216 277 328 384
#     4  11  23  43  64  97 132 169 224 267 323 405
#     4  11  24  42  72  99 130 178 226 267 326 412
#     4  11  22  41  72  94 128 179 212 273 336 380
#     4  11  26  44  64  99 134 172 226 273 328 400
#     4  12  26  45  69  96 139 180 217 277 339 389
#
# _framework density 21.185231999999999
#
# number of rings (size 3 to 8) (size 9 to 14) (size 15 to 20)
#    0.000    0.800    3.000    4.800    0.000    6.400 
#    0.000    3.000    0.000    0.000    0.000    0.000 
#    0.000    0.000    0.000    0.000    0.000    0.000 
#
# Total GULP energy -247966.345710 kJ/mol
# GULP energy per Si atom -12398.317285 kJ/mol
# Density = 2.113701 g / cm^3
# Si number density = 21.185232 Si / 1000 Ang^3
#
#
#
# Elastic Constant Matrix: (Units=GPa)
#
#
# Indices 1 2 3 4 5 6 
#
# 1 132.2933 42.1529 44.9158 0.0000 0.0000 0.0000
# 2 42.1529 96.6161 25.8145 0.0000 0.0000 0.0000
# 3 44.9158 25.8145 114.1217 0.0000 0.0000 0.0000
# 4 0.0000 0.0000 0.0000 21.5547 0.0000 0.0000
# 5 0.0000 0.0000 0.0000 0.0000 157.7137 0.0000
# 6 0.0000 0.0000 0.0000 0.0000 0.0000 42.3720
#
#
#
# Elastic Compliance Matrix: (Units=1/GPa)
#
#
# Indices 1 2 3 4 5 6 
#
# 1 0.009677 -0.003410 -0.003037 0.000000 0.000000 0.000000
# 2 -0.003410 0.012218 -0.001421 0.000000 0.000000 0.000000
# 3 -0.003037 -0.001421 0.010279 0.000000 0.000000 0.000000
# 4 0.000000 0.000000 0.000000 0.046394 0.000000 0.000000
# 5 0.000000 0.000000 0.000000 0.000000 0.006341 0.000000
# 6 0.000000 0.000000 0.000000 0.000000 0.000000 0.023600
#
#
# Mechanical properties :
#
#
# Convention : Reuss Voigt Hill
#
# Bulk Modulus (GPa) = 60.84132 63.19974 62.02053
# Shear Modulus (GPa) = 38.54284 59.67127 49.10706
#
# Velocity S-wave (km/s) = 4.26998 5.31296 4.81977
# Velocity P-wave (km/s) = 7.28639 8.21788 7.76611
#
# Compressibility (1/GPa) = 0.01643620
#
# Stress axis : x y z
#
# Youngs Moduli (GPa) = 103.34004 81.84655 97.28140
#
# Poissons Ratio (x) = 0.27913 0.29546
# Poissons Ratio (y) = 0.35243 0.13828
# Poissons Ratio (z) = 0.31386 0.11634
#
# Static dielectric constant tensor:
#      x y z
#    x 3.968280 0.000000 0.000000 
#    y 0.000000 3.269250 0.000000 
#    z 0.000000 0.000000 3.943660 
# 
# 
# High freq. dielectric constant tensor:
#      x y z
#    x 1.847650 0.000000 0.000000 
#    y 0.000000 1.828170 0.000000 
#    z 0.000000 0.000000 1.839330 
# 
# From -- ./inp_files/13882.got.cif
#   From: 2010.03.12/outbox.cif.g09.slc.cpg/sg24_7_cif.got.tgz:13882.got - 2010.04.14 03:06:53.
