data_PCOD8166807
_publ_section_title
;
Structure prediction by ZEFSAII (Michael W. Deem and Ramdas Pophale) SiO2 
 PCOD8166807
Probable space group: P M M 2
;
_chemical_formula_sum "Si O2"
_cell_formula_units_Z 24
_cell_length_a 15.839688
_cell_length_b 10.455585
_cell_length_c 7.874971
_cell_angle_alpha 90.000000
_cell_angle_beta 90.000000
_cell_angle_gamma 90.000000
_cell_volume 1304.199181
_symmetry_space_group_name_H-M "P M M 2"
_symmetry_group_IT_number 25
_symmetry_cell_setting 'orthorhombic'
loop_
_space_group_symop_operation_xyz
x,y,z
-x,-y,z
-x,y,z
x,-y,z
loop_
_atom_site_type_symbol
_atom_site_label
_atom_site_fract_x
_atom_site_fract_y
_atom_site_fract_z
Si Si1 0.098700 0.856256 0.098530
Si Si2 0.331602 0.640827 0.905308
Si Si3 0.215850 0.643132 0.220559
Si Si4 0.906280 0.851123 0.707670
Si Si5 0.593592 0.143816 0.715710
Si Si6 0.745004 0.275353 0.578783
O O1 0.143342 0.750106 0.214049
O O2 0.000000 0.846525 0.134335
O O3 0.130274 0.000000 0.145062
O O4 0.119420 0.827062 0.902634
O O5 0.374361 0.500000 0.919402
O O6 0.399228 0.754124 0.871468
O O7 0.266434 0.635324 0.745014
O O8 0.284801 0.675575 0.078737
O O9 0.178916 0.500000 0.190945
O O10 0.260361 0.646148 0.404498
O O11 0.837283 0.788458 0.586089
O O12 0.000000 0.793540 0.671395
O O13 0.908501 0.000000 0.667732
O O14 0.500000 0.158548 0.634077
O O15 0.667376 0.172303 0.577939
O O16 0.606153 0.000000 0.786467
#
# Coordination Sequence:
#
# PCOD8166807 Si02
#       6
#     4   4   4   4   4   4
#     4   9  18  34  55  79 108 144 189 236 283 336
#     4   9  20  37  57  79 110 146 181 223 275 330
#     4  11  22  36  55  81 112 146 189 231 274 332
#     4   9  17  32  55  82 111 146 189 232 276 330
#     4   9  19  37  62  88 113 143 183 229 279 335
#     4  10  20  34  58  79 112 149 183 226 277 325
#
# _framework density 18.402097999999999
#
# number of rings (size 3 to 8) (size 9 to 14) (size 15 to 20)
#    1.000    1.500    1.667    2.000    0.000    3.333 
#    0.000    2.500    0.000    4.500    0.000    0.000 
#    0.000    0.000    0.000    0.000    0.000    0.000 
#
# Total GULP energy -297331.177555 kJ/mol
# GULP energy per Si atom -12388.799065 kJ/mol
# Density = 1.836021 g / cm^3
# Si number density = 18.402098 Si / 1000 Ang^3
#
#
#
# Elastic Constant Matrix: (Units=GPa)
#
#
# Indices 1 2 3 4 5 6 
#
# 1 93.0674 49.4540 25.2146 0.0000 0.0000 0.0000
# 2 49.4540 113.6279 22.9361 0.0000 0.0000 0.0000
# 3 25.2146 22.9361 89.8047 0.0000 0.0000 0.0000
# 4 0.0000 0.0000 0.0000 16.0822 0.0000 0.0000
# 5 0.0000 0.0000 0.0000 0.0000 8.6192 0.0000
# 6 0.0000 0.0000 0.0000 0.0000 0.0000 21.0633
#
#
#
# Elastic Compliance Matrix: (Units=1/GPa)
#
#
# Indices 1 2 3 4 5 6 
#
# 1 0.014531 -0.005800 -0.002599 0.000000 0.000000 0.000000
# 2 -0.005800 0.011594 -0.001333 0.000000 0.000000 0.000000
# 3 -0.002599 -0.001333 0.012205 0.000000 0.000000 0.000000
# 4 0.000000 0.000000 0.000000 0.062180 0.000000 0.000000
# 5 0.000000 0.000000 0.000000 0.000000 0.116020 0.000000
# 6 0.000000 0.000000 0.000000 0.000000 0.000000 0.047476
#
#
# Mechanical properties :
#
#
# Convention : Reuss Voigt Hill
#
# Bulk Modulus (GPa) = 52.99985 54.63437 53.81711
# Shear Modulus (GPa) = 17.25581 22.41263 19.83422
#
# Velocity S-wave (km/s) = 3.06553 3.49368 3.28658
# Velocity P-wave (km/s) = 6.43377 6.78440 6.61141
#
# Compressibility (1/GPa) = 0.01886798
#
# Stress axis : x y z
#
# Youngs Moduli (GPa) = 68.81963 86.25276 81.93197
#
# Poissons Ratio (x) = 0.50024 0.21291
# Poissons Ratio (y) = 0.39913 0.10919
# Poissons Ratio (z) = 0.17883 0.11495
#
# Static dielectric constant tensor:
#      x y z
#    x 3.218180 0.000000 0.000000 
#    y 0.000000 3.361030 0.000000 
#    z 0.000000 0.000000 3.177100 
# 
# 
# High freq. dielectric constant tensor:
#      x y z
#    x 1.695860 0.000000 0.000000 
#    y 0.000000 1.714710 0.000000 
#    z 0.000000 0.000000 1.694280 
# 
# From -- ./inp_files/3487.got.cif
#   From: 2010.03.12/outbox.cif.g09.slc.cpg/sg25_2_cif.got.tgz:3487.got - 2010.04.14 03:30:10.
