data_PCOD8166768
_publ_section_title
;
Structure prediction by ZEFSAII (Michael W. Deem and Ramdas Pophale) SiO2 
 PCOD8166768
Probable space group: P M M 2
;
_chemical_formula_sum "Si O2"
_cell_formula_units_Z 20
_cell_length_a 9.468823
_cell_length_b 9.079391
_cell_length_c 12.846381
_cell_angle_alpha 90.000000
_cell_angle_beta 90.000000
_cell_angle_gamma 90.000000
_cell_volume 1104.418101
_symmetry_space_group_name_H-M "P M M 2"
_symmetry_group_IT_number 25
_symmetry_cell_setting 'orthorhombic'
loop_
_space_group_symop_operation_xyz
x,y,z
-x,-y,z
-x,y,z
x,-y,z
loop_
_atom_site_type_symbol
_atom_site_label
_atom_site_fract_x
_atom_site_fract_y
_atom_site_fract_z
Si Si1 0.835522 0.328649 0.493800
Si Si2 0.665556 0.171619 0.673595
Si Si3 0.163386 0.169497 0.283512
Si Si4 0.332091 0.333959 0.879434
Si Si5 0.663702 0.828589 0.083853
O O1 0.797954 0.500000 0.499633
O O2 0.745773 0.241985 0.577651
O O3 0.791815 0.268887 0.380806
O O4 0.000000 0.298706 0.515156
O O5 0.500000 0.201542 0.658737
O O6 0.723397 0.245151 0.779413
O O7 0.700217 0.000000 0.679248
O O8 0.252436 0.225308 0.185107
O O9 0.000000 0.190195 0.255519
O O10 0.198516 0.000000 0.310337
O O11 0.500000 0.330112 0.880756
O O12 0.273884 0.500000 0.873350
O O13 0.275108 0.258470 0.984519
O O14 0.500000 0.793032 0.102921
O O15 0.688930 0.000000 0.061912
#
# Coordination Sequence:
#
# PCOD8166768 Si02
#       5
#     4   4   4   4   4
#     4  10  21  36  53  74 102 135 169 207 254 304
#     4  10  20  34  54  78 102 131 169 210 251 298
#     4   9  18  33  51  70  96 131 167 203 247 297
#     4   9  17  30  49  73 101 131 162 200 249 299
#     4   9  17  30  49  72  97 126 163 205 245 290
#
# _framework density 18.109082999999998
#
# number of rings (size 3 to 8) (size 9 to 14) (size 15 to 20)
#    0.000    2.600    0.000    1.800    0.000    6.400 
#    0.000    3.000    0.000    3.600    0.000    0.000 
#    0.000    0.000    0.000    0.000    0.000    0.000 
#
# Total GULP energy -248046.798648 kJ/mol
# GULP energy per Si atom -12402.339932 kJ/mol
# Density = 1.806787 g / cm^3
# Si number density = 18.109083 Si / 1000 Ang^3
#
#
#
# Elastic Constant Matrix: (Units=GPa)
#
#
# Indices 1 2 3 4 5 6 
#
# 1 44.9833 45.4803 64.1322 0.0000 0.0000 0.0000
# 2 45.4803 120.8615 92.5525 0.0000 0.0000 0.0000
# 3 64.1322 92.5525 178.9764 0.0000 0.0000 0.0000
# 4 0.0000 0.0000 0.0000 18.0983 0.0000 0.0000
# 5 0.0000 0.0000 0.0000 0.0000 -21.4558 0.0000
# 6 0.0000 0.0000 0.0000 0.0000 0.0000 19.3900
#
#
#
# Elastic Compliance Matrix: (Units=1/GPa)
#
#
# Indices 1 2 3 4 5 6 
#
# 1 0.050188 -0.008467 -0.013605 0.000000 0.000000 0.000000
# 2 -0.008467 0.015127 -0.004788 0.000000 0.000000 0.000000
# 3 -0.013605 -0.004788 0.012939 0.000000 0.000000 0.000000
# 4 0.000000 0.000000 0.000000 0.055254 0.000000 0.000000
# 5 0.000000 0.000000 0.000000 0.000000 -0.046607 0.000000
# 6 0.000000 0.000000 0.000000 0.000000 0.000000 0.051573
#
#
# Mechanical properties :
#
#
# Convention : Reuss Voigt Hill
#
# Bulk Modulus (GPa) = 40.76327 83.23904 62.00115
# Shear Modulus (GPa) = 24.95354 12.71690 18.83522
#
# Velocity S-wave (km/s) = 3.71611 2.65285 3.22855
# Velocity P-wave (km/s) = 6.40089 7.44639 6.94334
#
# Compressibility (1/GPa) = 0.02453189
#
# Stress axis : x y z
#
# Youngs Moduli (GPa) = 19.92505 66.10658 77.28815
#
# Poissons Ratio (x) = 0.55975 1.05151
# Poissons Ratio (y) = 0.16871 0.37009
# Poissons Ratio (z) = 0.27108 0.31655
#
# Static dielectric constant tensor:
#      x y z
#    x 3.127210 0.000000 0.000000 
#    y 0.000000 3.487880 0.000000 
#    z 0.000000 0.000000 3.512300 
# 
# 
# High freq. dielectric constant tensor:
#      x y z
#    x 1.671990 0.000000 0.000000 
#    y 0.000000 1.709010 0.000000 
#    z 0.000000 0.000000 1.715120 
# 
# From -- ./inp_files/3754.got.cif
#   From: 2010.03.12/outbox.cif.g09.slc.cpg/sg25_2_cif.got.tgz:3754.got - 2010.04.14 03:30:10.
