data_PCOD8166264
_publ_section_title
;
Structure prediction by ZEFSAII (Michael W. Deem and Ramdas Pophale) SiO2 
 PCOD8166264
Probable space group: I 21 21 21
;
_chemical_formula_sum "Si O2"
_cell_formula_units_Z 24
_cell_length_a 9.459516
_cell_length_b 5.317760
_cell_length_c 19.672691
_cell_angle_alpha 90.000000
_cell_angle_beta 90.000000
_cell_angle_gamma 90.000000
_cell_volume 989.603949
_symmetry_space_group_name_H-M "I 21 21 21"
_symmetry_group_IT_number 24
_symmetry_cell_setting 'orthorhombic'
loop_
_space_group_symop_operation_xyz
x,y,z
-x,1/2-y,z
x,-y,1/2-z
1/2-x,y,-z
1/2+x,1/2+y,1/2+z
1/2-x,-y,1/2+z
1/2+x,1/2-y,-z
-x,1/2+y,1/2-z
loop_
_atom_site_type_symbol
_atom_site_label
_atom_site_fract_x
_atom_site_fract_y
_atom_site_fract_z
Si Si1 0.500000 0.250000 0.057587
Si Si2 0.223095 0.606761 0.873349
Si Si3 0.500000 0.250000 0.288554
Si Si4 0.750000 0.423670 0.500000
Si Si5 0.588821 0.000000 0.750000
O O1 0.400565 0.416811 0.104660
O O2 0.391908 0.086919 0.011050
O O3 0.328099 0.467510 0.821458
O O4 0.138923 0.825294 0.832355
O O5 0.294754 0.740675 0.937712
O O6 0.453605 0.500000 0.250000
O O7 0.500000 0.750000 0.758442
#
# Coordination Sequence:
#
# PCOD8166264 Si02
#       5
#     4   8   4   4   4
#     4  12  27  52  84 118 166 223 274 350 417 508
#     4  12  28  51  82 118 164 212 282 339 426 490
#     4  12  25  46  88 118 152 207 272 340 403 494
#     4  12  28  50  80 128 160 224 276 350 414 504
#     4  12  34  54  82 124 170 224 274 352 422 506
#
# _framework density 24.252126000000001
#
# number of rings (size 3 to 8) (size 9 to 14) (size 15 to 20)
#    0.000    0.000    5.000    2.000    7.000    5.333 
#    3.000    0.000    0.000    0.000    0.000    0.000 
#    0.000    0.000    0.000    0.000    0.000    0.000 
#
# Total GULP energy -148689.501450 kJ/mol
# GULP energy per Si atom -12390.791787 kJ/mol
# Density = 2.419693 g / cm^3
# Si number density = 24.252126 Si / 1000 Ang^3
#
#
#
# Elastic Constant Matrix: (Units=GPa)
#
#
# Indices 1 2 3 4 5 6 
#
# 1 143.7211 66.4811 73.2312 0.0000 0.0000 0.0000
# 2 66.4811 129.4619 61.3488 0.0000 0.0000 0.0000
# 3 73.2312 61.3488 171.0699 0.0000 0.0000 0.0000
# 4 0.0000 0.0000 0.0000 7.9476 0.0000 0.0000
# 5 0.0000 0.0000 0.0000 0.0000 61.4695 0.0000
# 6 0.0000 0.0000 0.0000 0.0000 0.0000 43.6451
#
#
#
# Elastic Compliance Matrix: (Units=1/GPa)
#
#
# Indices 1 2 3 4 5 6 
#
# 1 0.010275 -0.003846 -0.003020 0.000000 0.000000 0.000000
# 2 -0.003846 0.010745 -0.002207 0.000000 0.000000 0.000000
# 3 -0.003020 -0.002207 0.007930 0.000000 0.000000 0.000000
# 4 0.000000 0.000000 0.000000 0.125825 0.000000 0.000000
# 5 0.000000 0.000000 0.000000 0.000000 0.016268 0.000000
# 6 0.000000 0.000000 0.000000 0.000000 0.000000 0.022912
#
#
# Mechanical properties :
#
#
# Convention : Reuss Voigt Hill
#
# Bulk Modulus (GPa) = 92.54640 94.04170 93.29405
# Shear Modulus (GPa) = 23.18016 38.82520 31.00268
#
# Velocity S-wave (km/s) = 3.09495 4.00546 3.57928
# Velocity P-wave (km/s) = 7.14245 7.76225 7.45879
#
# Compressibility (1/GPa) = 0.01080539
#
# Stress axis : x y z
#
# Youngs Moduli (GPa) = 97.31981 93.06639 126.10887
#
# Poissons Ratio (x) = 0.35791 0.38079
# Poissons Ratio (y) = 0.37427 0.27833
# Poissons Ratio (z) = 0.29386 0.20541
#
# Static dielectric constant tensor:
#      x y z
#    x 4.530560 0.000000 0.000000 
#    y 0.000000 4.367320 0.000000 
#    z 0.000000 0.000000 4.812380 
# 
# 
# High freq. dielectric constant tensor:
#      x y z
#    x 1.970300 0.000000 0.000000 
#    y 0.000000 1.963520 0.000000 
#    z 0.000000 0.000000 1.987340 
# 
# From -- ./inp_files/887.got.cif
#   From: 2010.03.12/outbox.cif.g09.slc.cpg/sg24_1_cif.got.tgz:887.got - 2010.04.14 03:06:53.
