data_PCOD8166918
_publ_section_title
;
Structure prediction by ZEFSAII (Michael W. Deem and Ramdas Pophale) SiO2 
 PCOD8166918
Probable space group: P M M 2
;
_chemical_formula_sum "Si O2"
_cell_formula_units_Z 32
_cell_length_a 9.140233
_cell_length_b 13.872173
_cell_length_c 12.973261
_cell_angle_alpha 90.000000
_cell_angle_beta 90.000000
_cell_angle_gamma 90.000000
_cell_volume 1644.943246
_symmetry_space_group_name_H-M "P M M 2"
_symmetry_group_IT_number 25
_symmetry_cell_setting 'orthorhombic'
loop_
_space_group_symop_operation_xyz
x,y,z
-x,-y,z
-x,y,z
x,-y,z
loop_
_atom_site_type_symbol
_atom_site_label
_atom_site_fract_x
_atom_site_fract_y
_atom_site_fract_z
Si Si1 0.330675 0.201911 0.422900
Si Si2 0.172820 0.394614 0.942607
Si Si3 0.668273 0.393058 0.522767
Si Si4 0.666567 0.885411 0.815037
Si Si5 0.833704 0.114230 0.614132
Si Si6 0.332067 0.112375 0.209462
Si Si7 0.839000 0.613769 0.717962
Si Si8 0.827242 0.806310 0.014428
O O1 0.500000 0.174070 0.439702
O O2 0.306131 0.317809 0.429760
O O3 0.238365 0.147090 0.508149
O O4 0.278341 0.169536 0.310236
O O5 0.235437 0.500000 0.978655
O O6 0.234663 0.364099 0.829417
O O7 0.000000 0.405134 0.928627
O O8 0.211694 0.308587 0.021326
O O9 0.500000 0.401492 0.551973
O O10 0.728541 0.500000 0.492184
O O11 0.744356 0.345947 0.623269
O O12 0.500000 0.846970 0.816770
O O13 0.748150 0.842970 0.713781
O O14 0.668498 0.000000 0.812556
O O15 0.750543 0.852560 0.916513
O O16 0.000000 0.151324 0.618487
O O17 0.826515 0.000000 0.617728
O O18 0.500000 0.137055 0.181819
O O19 0.229268 0.143377 0.116604
O O20 0.312031 0.000000 0.231479
O O21 0.848889 0.500000 0.705066
O O22 0.000000 0.660717 0.709867
O O23 0.000000 0.823029 0.004377
#
# Coordination Sequence:
#
# PCOD8166918 Si02
#       8
#     4   4   4   4   4   4   4   4
#     4  10  21  37  58  81 107 145 190 229 274 333
#     4   8  16  32  52  76 109 147 183 219 268 328
#     4   9  18  32  50  77 112 144 178 224 274 320
#     4  10  21  37  56  79 112 151 184 218 271 340
#     4  10  21  36  55  82 114 143 176 226 284 335
#     4  10  22  41  61  79 105 145 190 233 280 340
#     4   8  14  27  48  72 101 141 182 215 254 314
#     4  11  22  35  57  86 112 141 184 236 284 325
#
# _framework density 19.45356
#
# number of rings (size 3 to 8) (size 9 to 14) (size 15 to 20)
#    0.000    2.500    0.000    2.625    1.750    4.750 
#    0.000    1.250    0.000    3.000    0.000    0.000 
#    0.000    0.000    0.000    0.000    0.000    0.000 
#
# Total GULP energy -396671.921319 kJ/mol
# GULP energy per Si atom -12395.997541 kJ/mol
# Density = 1.940928 g / cm^3
# Si number density = 19.453560 Si / 1000 Ang^3
#
#
#
# Elastic Constant Matrix: (Units=GPa)
#
#
# Indices 1 2 3 4 5 6 
#
# 1 94.9930 25.4905 59.3361 0.0000 0.0000 0.0000
# 2 25.4905 50.3361 37.5975 0.0000 0.0000 0.0000
# 3 59.3361 37.5975 117.8950 0.0000 0.0000 0.0000
# 4 0.0000 0.0000 0.0000 33.5982 0.0000 0.0000
# 5 0.0000 0.0000 0.0000 0.0000 -20.4313 0.0000
# 6 0.0000 0.0000 0.0000 0.0000 0.0000 17.5894
#
#
#
# Elastic Compliance Matrix: (Units=1/GPa)
#
#
# Indices 1 2 3 4 5 6 
#
# 1 0.015624 -0.002676 -0.007010 0.000000 0.000000 0.000000
# 2 -0.002676 0.026537 -0.007116 0.000000 0.000000 0.000000
# 3 -0.007010 -0.007116 0.014280 0.000000 0.000000 0.000000
# 4 0.000000 0.000000 0.000000 0.029763 0.000000 0.000000
# 5 0.000000 0.000000 0.000000 0.000000 -0.048944 0.000000
# 6 0.000000 0.000000 0.000000 0.000000 0.000000 0.056853
#
#
# Mechanical properties :
#
#
# Convention : Reuss Voigt Hill
#
# Bulk Modulus (GPa) = 43.79008 56.45249 50.12129
# Shear Modulus (GPa) = 36.94733 15.53792 26.24262
#
# Velocity S-wave (km/s) = 4.36278 2.82923 3.67684
# Velocity P-wave (km/s) = 6.92368 6.30514 6.62164
#
# Compressibility (1/GPa) = 0.02283622
#
# Stress axis : x y z
#
# Youngs Moduli (GPa) = 64.00444 37.68366 70.03010
#
# Poissons Ratio (x) = 0.10084 0.49092
# Poissons Ratio (y) = 0.17128 0.49833
# Poissons Ratio (z) = 0.44868 0.26815
#
# Static dielectric constant tensor:
#      x y z
#    x 3.653830 0.000000 0.000000 
#    y 0.000000 3.817100 0.000000 
#    z 0.000000 0.000000 3.466560 
# 
# 
# High freq. dielectric constant tensor:
#      x y z
#    x 1.744220 0.000000 0.000000 
#    y 0.000000 1.772470 0.000000 
#    z 0.000000 0.000000 1.739130 
# 
# From -- ./inp_files/4165.got.cif
#   From: 2010.03.12/outbox.cif.g09.slc.cpg/sg25_3_cif.got.tgz:4165.got - 2010.04.14 03:30:10.
