data_PCOD8166497
_publ_section_title
;
Structure prediction by ZEFSAII (Michael W. Deem and Ramdas Pophale) SiO2 
 PCOD8166497
Probable space group: P M M 2
;
_chemical_formula_sum "Si O2"
_cell_formula_units_Z 32
_cell_length_a 9.610141
_cell_length_b 14.465494
_cell_length_c 12.366495
_cell_angle_alpha 90.000000
_cell_angle_beta 90.000000
_cell_angle_gamma 90.000000
_cell_volume 1719.133706
_symmetry_space_group_name_H-M "P M M 2"
_symmetry_group_IT_number 25
_symmetry_cell_setting 'orthorhombic'
loop_
_space_group_symop_operation_xyz
x,y,z
-x,-y,z
-x,y,z
x,-y,z
loop_
_atom_site_type_symbol
_atom_site_label
_atom_site_fract_x
_atom_site_fract_y
_atom_site_fract_z
Si Si1 0.836348 0.795009 0.125000
Si Si2 0.338166 0.892736 0.308085
Si Si3 0.837052 0.395899 0.584630
Si Si4 0.154324 0.639795 0.819909
Si Si5 0.336044 0.769262 0.513920
Si Si6 0.152874 0.846888 0.884398
Si Si7 0.655715 0.898683 0.705045
Si Si8 0.835427 0.399497 0.051022
O O1 0.751184 0.853844 0.209854
O O2 0.784133 0.686817 0.124162
O O3 0.000000 0.801285 0.151830
O O4 0.801335 0.838626 0.008653
O O5 0.500000 0.882005 0.279144
O O6 0.298104 0.832701 0.412141
O O7 0.300328 0.000000 0.328873
O O8 0.816371 0.500000 0.540252
O O9 0.774006 0.390567 0.707207
O O10 0.750223 0.326333 0.508146
O O11 0.000000 0.367474 0.581868
O O12 0.150447 0.749246 0.825168
O O13 0.000000 0.597025 0.815710
O O14 0.229992 0.602285 0.929177
O O15 0.500000 0.747543 0.517361
O O16 0.284774 0.825155 0.619618
O O17 0.259373 0.907829 0.816389
O O18 0.000000 0.892460 0.878813
O O19 0.500000 0.869342 0.736822
O O20 0.657255 0.000000 0.649611
O O21 0.800306 0.500000 0.104332
O O22 0.000000 0.384437 0.036390
#
# Coordination Sequence:
#
# PCOD8166497 Si02
#       8
#     4   4   4   4   4   4   4   4
#     4   9  19  34  54  82 111 137 172 221 269 312
#     4  10  22  41  62  78  95 132 185 231 272 321
#     4  10  19  31  52  82 112 142 177 216 257 309
#     4   8  13  24  44  72 106 141 174 206 241 293
#     4  10  21  38  57  76 103 138 178 226 272 315
#     4   9  17  31  50  75 110 145 172 207 260 319
#     4  10  20  33  51  76 104 136 175 219 268 321
#     4   8  13  24  46  76 108 142 176 206 245 303
#
# _framework density 18.614025999999999
#
# number of rings (size 3 to 8) (size 9 to 14) (size 15 to 20)
#    0.000    2.750    1.250    2.250    0.000    5.250 
#    0.000    3.125    0.000    4.875    0.000    0.000 
#    0.000    0.000    0.000    0.000    0.000    0.000 
#
# Total GULP energy -396510.533265 kJ/mol
# GULP energy per Si atom -12390.954165 kJ/mol
# Density = 1.857166 g / cm^3
# Si number density = 18.614026 Si / 1000 Ang^3
#
#
#
# Elastic Constant Matrix: (Units=GPa)
#
#
# Indices 1 2 3 4 5 6 
#
# 1 54.9126 45.0552 50.7313 0.0000 0.0000 0.0000
# 2 45.0552 124.8217 55.9949 0.0000 0.0000 0.0000
# 3 50.7313 55.9949 99.7018 0.0000 0.0000 0.0000
# 4 0.0000 0.0000 0.0000 23.4679 0.0000 0.0000
# 5 0.0000 0.0000 0.0000 0.0000 26.0332 0.0000
# 6 0.0000 0.0000 0.0000 0.0000 0.0000 24.5791
#
#
#
# Elastic Compliance Matrix: (Units=1/GPa)
#
#
# Indices 1 2 3 4 5 6 
#
# 1 0.038225 -0.006781 -0.015642 0.000000 0.000000 0.000000
# 2 -0.006781 0.011912 -0.003240 0.000000 0.000000 0.000000
# 3 -0.015642 -0.003240 0.019809 0.000000 0.000000 0.000000
# 4 0.000000 0.000000 0.000000 0.042611 0.000000 0.000000
# 5 0.000000 0.000000 0.000000 0.000000 0.038412 0.000000
# 6 0.000000 0.000000 0.000000 0.000000 0.000000 0.040685
#
#
# Mechanical properties :
#
#
# Convention : Reuss Voigt Hill
#
# Bulk Modulus (GPa) = 53.70313 64.77767 59.24040
# Shear Modulus (GPa) = 20.06524 23.32637 21.69580
#
# Velocity S-wave (km/s) = 3.28680 3.54384 3.41774
# Velocity P-wave (km/s) = 6.58161 7.18478 6.88980
#
# Compressibility (1/GPa) = 0.01862089
#
# Stress axis : x y z
#
# Youngs Moduli (GPa) = 26.16087 83.94570 50.48283
#
# Poissons Ratio (x) = 0.56921 0.78965
# Poissons Ratio (y) = 0.17739 0.16357
# Poissons Ratio (z) = 0.40921 0.27200
#
# Static dielectric constant tensor:
#      x y z
#    x 3.109750 0.000000 0.000000 
#    y 0.000000 3.514420 0.000000 
#    z 0.000000 0.000000 3.259900 
# 
# 
# High freq. dielectric constant tensor:
#      x y z
#    x 1.681280 0.000000 0.000000 
#    y 0.000000 1.735220 0.000000 
#    z 0.000000 0.000000 1.705370 
# 
# From -- ./inp_files/4183.got.cif
#   From: 2010.03.12/outbox.cif.g09.slc.cpg/sg25_3_cif.got.tgz:4183.got - 2010.04.14 03:30:10.
