data_PCOD8166237
_publ_section_title
;
Structure prediction by ZEFSAII (Michael W. Deem and Ramdas Pophale) SiO2 
 PCOD8166237
Probable space group: I 21 21 21
;
_chemical_formula_sum "Si O2"
_cell_formula_units_Z 36
_cell_length_a 10.489476
_cell_length_b 10.827854
_cell_length_c 12.072985
_cell_angle_alpha 90.000000
_cell_angle_beta 90.000000
_cell_angle_gamma 90.000000
_cell_volume 1371.231704
_symmetry_space_group_name_H-M "I 21 21 21"
_symmetry_group_IT_number 24
_symmetry_cell_setting 'orthorhombic'
loop_
_space_group_symop_operation_xyz
x,y,z
-x,1/2-y,z
x,-y,1/2-z
1/2-x,y,-z
1/2+x,1/2+y,1/2+z
1/2-x,-y,1/2+z
1/2+x,1/2-y,-z
-x,1/2+y,1/2-z
loop_
_atom_site_type_symbol
_atom_site_label
_atom_site_fract_x
_atom_site_fract_y
_atom_site_fract_z
Si Si1 0.471968 0.053486 0.037670
Si Si2 0.250000 0.604578 0.500000
Si Si3 0.166711 0.777480 0.695566
Si Si4 0.074516 0.872875 0.299259
Si Si5 0.627283 0.708522 0.065919
O O1 0.454355 0.151216 0.138935
O O2 0.383970 0.939362 0.071176
O O3 0.620958 0.022030 0.008854
O O4 0.417075 0.123229 0.931894
O O5 0.241948 0.684963 0.612851
O O6 0.278716 0.868455 0.740049
O O7 0.120942 0.722544 0.813629
O O8 0.000000 0.750000 0.258621
O O9 0.013086 0.000000 0.250000
O O10 0.500000 0.750000 0.999744
O O11 0.750000 0.753001 0.000000
#
# Coordination Sequence:
#
# PCOD8166237 Si02
#       5
#     8   4   8   8   8
#     4  12  24  47  74 115 151 205 269 331 397 488
#     4  12  24  44  82 112 154 198 276 334 398 480
#     4  12  23  48  78 114 151 209 266 333 409 485
#     4  12  24  44  73 112 157 208 269 332 403 489
#     4  12  29  50  77 111 164 212 263 332 418 495
#
# _framework density 26.253768999999998
#
# number of rings (size 3 to 8) (size 9 to 14) (size 15 to 20)
#    0.000    0.000    4.444    6.667    1.556    3.556 
#    0.000    0.000    0.000    0.000    0.000    0.000 
#    0.000    0.000    0.000    0.000    0.000    0.000 
#
# Total GULP energy -223031.702345 kJ/mol
# GULP energy per Si atom -12390.650130 kJ/mol
# Density = 2.619401 g / cm^3
# Si number density = 26.253769 Si / 1000 Ang^3
#
#
#
# Elastic Constant Matrix: (Units=GPa)
#
#
# Indices 1 2 3 4 5 6 
#
# 1 167.9669 4.3891 41.7082 0.0000 0.0000 0.0000
# 2 4.3891 79.4541 17.6614 0.0001 0.0000 0.0000
# 3 41.7082 17.6614 137.4227 0.0001 0.0000 0.0000
# 4 0.0000 0.0001 0.0001 24.4881 0.0000 0.0000
# 5 0.0000 0.0000 0.0000 0.0000 30.4274 0.0000
# 6 0.0000 0.0000 0.0000 0.0000 0.0000 44.4465
#
#
#
# Elastic Compliance Matrix: (Units=1/GPa)
#
#
# Indices 1 2 3 4 5 6 
#
# 1 0.006439 0.000081 -0.001965 0.000000 0.000000 0.000000
# 2 0.000081 0.012957 -0.001690 0.000000 0.000000 0.000000
# 3 -0.001965 -0.001690 0.008090 0.000000 0.000000 0.000000
# 4 0.000000 0.000000 0.000000 0.040836 0.000000 0.000000
# 5 0.000000 0.000000 0.000000 0.000000 0.032865 0.000000
# 6 0.000000 0.000000 0.000000 0.000000 0.000000 0.022499
#
#
# Mechanical properties :
#
#
# Convention : Reuss Voigt Hill
#
# Bulk Modulus (GPa) = 49.16535 56.92903 53.04719
# Shear Modulus (GPa) = 36.33355 41.27806 38.80581
#
# Velocity S-wave (km/s) = 3.72417 3.96949 3.84878
# Velocity P-wave (km/s) = 6.10411 6.53761 6.32458
#
# Compressibility (1/GPa) = 0.02033953
#
# Stress axis : x y z
#
# Youngs Moduli (GPa) = 155.29613 77.17822 123.60480
#
# Poissons Ratio (x) = -0.00625 0.24285
# Poissons Ratio (y) = -0.01258 0.20887
# Poissons Ratio (z) = 0.30512 0.13042
#
# Static dielectric constant tensor:
#      x y z
#    x 5.095460 0.000000 0.000000 
#    y 0.000000 4.470250 0.000000 
#    z 0.000000 0.000000 4.597080 
# 
# 
# High freq. dielectric constant tensor:
#      x y z
#    x 2.080230 0.000000 0.000000 
#    y 0.000000 2.028410 0.000000 
#    z 0.000000 0.000000 2.049690 
# 
# From -- ./inp_files/19209.got.cif
#   From: 2010.03.12/outbox.cif.g09.slc.cpg/sg24_10_cif.got.tgz:19209.got - 2010.04.14 03:06:53.
