data_PCOD8166762
_publ_section_title
;
Structure prediction by ZEFSAII (Michael W. Deem and Ramdas Pophale) SiO2 
 PCOD8166762
Probable space group: P M M 2
;
_chemical_formula_sum "Si O2"
_cell_formula_units_Z 32
_cell_length_a 9.069110
_cell_length_b 28.248130
_cell_length_c 6.942101
_cell_angle_alpha 90.000000
_cell_angle_beta 90.000000
_cell_angle_gamma 90.000000
_cell_volume 1778.464909
_symmetry_space_group_name_H-M "P M M 2"
_symmetry_group_IT_number 25
_symmetry_cell_setting 'orthorhombic'
loop_
_space_group_symop_operation_xyz
x,y,z
-x,-y,z
-x,y,z
x,-y,z
loop_
_atom_site_type_symbol
_atom_site_label
_atom_site_fract_x
_atom_site_fract_y
_atom_site_fract_z
Si Si1 0.328660 0.445730 0.000000
Si Si2 0.827906 0.869227 0.653232
Si Si3 0.329066 0.881648 0.251533
Si Si4 0.670790 0.196206 0.937165
Si Si5 0.329291 0.697052 0.999807
Si Si6 0.331794 0.374884 0.667646
Si Si7 0.170452 0.054131 0.966262
Si Si8 0.174300 0.374383 0.269356
O O1 0.500000 0.440099 0.054205
O O2 0.279960 0.500000 0.983329
O O3 0.236201 0.421587 0.169496
O O4 0.296601 0.421119 0.795579
O O5 0.753366 0.874956 0.449517
O O6 0.791560 0.916189 0.775591
O O7 0.000000 0.861655 0.623661
O O8 0.763951 0.823034 0.758107
O O9 0.500000 0.889825 0.292136
O O10 0.299225 0.835033 0.125534
O O11 0.266916 0.927895 0.144752
O O12 0.500000 0.195142 0.876804
O O13 0.724354 0.249091 0.982524
O O14 0.500000 0.693709 0.061062
O O15 0.303723 0.671744 0.795422
O O16 0.235446 0.672580 0.167085
O O17 0.500000 0.376184 0.592119
O O18 0.220313 0.374047 0.491364
O O19 0.000000 0.060236 0.023505
O O20 0.211326 0.000000 0.922443
O O21 0.000000 0.374541 0.254023
#
# Coordination Sequence:
#
# PCOD8166762 Si02
#       8
#     4   4   4   4   4   4   4   4
#     4   9  19  37  59  79 100 133 178 220 254 297
#     4  10  20  34  53  77 106 139 173 211 257 310
#     4  10  20  34  53  78 107 136 169 212 260 308
#     4   9  19  36  56  77 102 134 174 219 262 304
#     4   9  19  37  58  76  98 135 180 219 255 301
#     4   9  18  34  55  77 101 132 173 215 252 297
#     4   9  19  36  55  74  99 134 175 215 255 302
#     4  11  22  34  51  78 111 140 166 206 261 313
#
# _framework density 17.993046
#
# number of rings (size 3 to 8) (size 9 to 14) (size 15 to 20)
#    0.000    2.500    0.000    2.625    0.000    6.000 
#    0.000    7.500    0.000    0.000    0.000    0.000 
#    0.000    0.000    0.000    0.000    0.000    0.000 
#
# Total GULP energy -396910.639032 kJ/mol
# GULP energy per Si atom -12403.457470 kJ/mol
# Density = 1.795209 g / cm^3
# Si number density = 17.993046 Si / 1000 Ang^3
#
#
#
# Elastic Constant Matrix: (Units=GPa)
#
#
# Indices 1 2 3 4 5 6 
#
# 1 92.9774 47.4848 63.8808 0.0000 0.0000 0.0000
# 2 47.4848 143.3172 49.6331 0.0000 0.0000 0.0000
# 3 63.8808 49.6331 118.5922 0.0000 0.0000 0.0000
# 4 0.0000 0.0000 0.0000 12.8543 0.0000 0.0000
# 5 0.0000 0.0000 0.0000 0.0000 29.6034 0.0000
# 6 0.0000 0.0000 0.0000 0.0000 0.0000 23.4043
#
#
#
# Elastic Compliance Matrix: (Units=1/GPa)
#
#
# Indices 1 2 3 4 5 6 
#
# 1 0.018164 -0.003076 -0.008497 0.000000 0.000000 0.000000
# 2 -0.003076 0.008681 -0.001977 0.000000 0.000000 0.000000
# 3 -0.008497 -0.001977 0.013836 0.000000 0.000000 0.000000
# 4 0.000000 0.000000 0.000000 0.077795 0.000000 0.000000
# 5 0.000000 0.000000 0.000000 0.000000 0.033780 0.000000
# 6 0.000000 0.000000 0.000000 0.000000 0.000000 0.042727
#
#
# Mechanical properties :
#
#
# Convention : Reuss Voigt Hill
#
# Bulk Modulus (GPa) = 73.61970 75.20937 74.41453
# Shear Modulus (GPa) = 22.06438 26.09826 24.08132
#
# Velocity S-wave (km/s) = 3.50562 3.81263 3.66234
# Velocity P-wave (km/s) = 7.57564 7.82760 7.70265
#
# Compressibility (1/GPa) = 0.01358332
#
# Stress axis : x y z
#
# Youngs Moduli (GPa) = 55.05402 115.19356 72.27276
#
# Poissons Ratio (x) = 0.35428 0.61410
# Poissons Ratio (y) = 0.16932 0.14285
# Poissons Ratio (z) = 0.46780 0.22768
#
# Static dielectric constant tensor:
#      x y z
#    x 3.310160 0.000000 0.000000 
#    y 0.000000 3.538450 0.000000 
#    z 0.000000 0.000000 3.240480 
# 
# 
# High freq. dielectric constant tensor:
#      x y z
#    x 1.695110 0.000000 0.000000 
#    y 0.000000 1.701110 0.000000 
#    z 0.000000 0.000000 1.696000 
# 
# From -- ./inp_files/375.got.cif
#   From: 2010.03.12/outbox.cif.g09.slc.cpg/sg25_1_cif.got.tgz:375.got - 2010.04.14 03:30:10.
