data_PCOD8166858
_publ_section_title
;
Structure prediction by ZEFSAII (Michael W. Deem and Ramdas Pophale) SiO2 
 PCOD8166858
Probable space group: P M M 2
;
_chemical_formula_sum "Si O2"
_cell_formula_units_Z 28
_cell_length_a 14.230736
_cell_length_b 8.856956
_cell_length_c 12.822921
_cell_angle_alpha 90.000000
_cell_angle_beta 90.000000
_cell_angle_gamma 90.000000
_cell_volume 1616.213819
_symmetry_space_group_name_H-M "P M M 2"
_symmetry_group_IT_number 25
_symmetry_cell_setting 'orthorhombic'
loop_
_space_group_symop_operation_xyz
x,y,z
-x,-y,z
-x,y,z
x,-y,z
loop_
_atom_site_type_symbol
_atom_site_label
_atom_site_fract_x
_atom_site_fract_y
_atom_site_fract_z
Si Si1 0.391055 0.174223 0.654260
Si Si2 0.893538 0.675052 0.520782
Si Si3 0.898072 0.679100 0.756806
Si Si4 0.392235 0.323095 0.257079
Si Si5 0.716304 0.176769 0.445098
Si Si6 0.392441 0.822052 0.042039
Si Si7 0.705199 0.678594 0.847303
O O1 0.500000 0.202885 0.630841
O O2 0.334004 0.225035 0.552376
O O3 0.360673 0.275447 0.751420
O O4 0.371438 0.000000 0.682202
O O5 0.864082 0.500000 0.513292
O O6 0.883635 0.736243 0.638818
O O7 0.825220 0.774933 0.449228
O O8 0.000000 0.697816 0.480772
O O9 0.899147 0.500000 0.753676
O O10 0.812122 0.736633 0.827685
O O11 0.000000 0.737483 0.799247
O O12 0.500000 0.279622 0.279859
O O13 0.378559 0.500000 0.242590
O O14 0.330632 0.266174 0.351819
O O15 0.357107 0.243179 0.151743
O O16 0.706427 0.000000 0.423839
O O17 0.500000 0.773363 0.020587
O O18 0.381389 0.000000 0.043906
O O19 0.327537 0.755708 0.952551
O O20 0.700297 0.500000 0.860391
#
# Coordination Sequence:
#
# PCOD8166858 Si02
#       7
#     4   4   4   4   4   4   4
#     4  10  21  34  46  67 104 144 173 201 249 312
#     4   9  17  32  53  75 103 139 178 218 260 309
#     4   8  15  29  49  73 102 135 170 210 256 304
#     4  10  21  37  57  79 102 132 177 225 261 304
#     4  11  21  33  52  77 108 141 173 213 263 318
#     4  10  21  37  55  74 102 139 174 210 259 316
#     4  11  20  31  52  78 103 132 172 218 258 302
#
# _framework density 17.324441
#
# number of rings (size 3 to 8) (size 9 to 14) (size 15 to 20)
#    0.000    2.143    1.429    3.429    0.000    5.143 
#    0.000    0.000    0.000    2.571    0.000    2.000 
#    0.000    0.000    0.000    0.000    0.000    0.000 
#
# Total GULP energy -347227.959520 kJ/mol
# GULP energy per Si atom -12400.998554 kJ/mol
# Density = 1.728501 g / cm^3
# Si number density = 17.324441 Si / 1000 Ang^3
#
#
#
# Elastic Constant Matrix: (Units=GPa)
#
#
# Indices 1 2 3 4 5 6 
#
# 1 107.3360 30.5862 52.5653 0.0000 0.0000 0.0000
# 2 30.5862 48.3955 29.2732 0.0000 0.0000 0.0000
# 3 52.5653 29.2732 97.3416 0.0000 0.0000 0.0000
# 4 0.0000 0.0000 0.0000 31.3997 0.0000 0.0000
# 5 0.0000 0.0000 0.0000 0.0000 12.8566 0.0000
# 6 0.0000 0.0000 0.0000 0.0000 0.0000 22.7785
#
#
#
# Elastic Compliance Matrix: (Units=1/GPa)
#
#
# Indices 1 2 3 4 5 6 
#
# 1 0.013618 -0.005083 -0.005825 0.000000 0.000000 0.000000
# 2 -0.005083 0.027155 -0.005421 0.000000 0.000000 0.000000
# 3 -0.005825 -0.005421 0.015049 0.000000 0.000000 0.000000
# 4 0.000000 0.000000 0.000000 0.031847 0.000000 0.000000
# 5 0.000000 0.000000 0.000000 0.000000 0.077781 0.000000
# 6 0.000000 0.000000 0.000000 0.000000 0.000000 0.043901
#
#
# Mechanical properties :
#
#
# Convention : Reuss Voigt Hill
#
# Bulk Modulus (GPa) = 43.17282 53.10250 48.13766
# Shear Modulus (GPa) = 20.02158 22.78352 21.40255
#
# Velocity S-wave (km/s) = 3.40322 3.63038 3.51863
# Velocity P-wave (km/s) = 6.35742 6.94918 6.65988
#
# Compressibility (1/GPa) = 0.02316272
#
# Stress axis : x y z
#
# Youngs Moduli (GPa) = 73.43401 36.82592 66.44957
#
# Poissons Ratio (x) = 0.18719 0.38707
# Poissons Ratio (y) = 0.37327 0.36024
# Poissons Ratio (z) = 0.42776 0.19964
#
# Static dielectric constant tensor:
#      x y z
#    x 3.487880 0.000000 0.000000 
#    y 0.000000 3.148860 0.000000 
#    z 0.000000 0.000000 3.142940 
# 
# 
# High freq. dielectric constant tensor:
#      x y z
#    x 1.672450 0.000000 0.000000 
#    y 0.000000 1.665900 0.000000 
#    z 0.000000 0.000000 1.653240 
# 
# From -- ./inp_files/4793.got.cif
#   From: 2010.03.12/outbox.cif.g09.slc.cpg/sg25_3_cif.got.tgz:4793.got - 2010.04.14 03:30:10.
