data_PCOD8166526
_publ_section_title
;
Structure prediction by ZEFSAII (Michael W. Deem and Ramdas Pophale) SiO2 
 PCOD8166526
Probable space group: P M M 2
;
_chemical_formula_sum "Si O2"
_cell_formula_units_Z 32
_cell_length_a 18.155006
_cell_length_b 13.680174
_cell_length_c 7.050213
_cell_angle_alpha 90.000000
_cell_angle_beta 90.000000
_cell_angle_gamma 90.000000
_cell_volume 1751.016571
_symmetry_space_group_name_H-M "P M M 2"
_symmetry_group_IT_number 25
_symmetry_cell_setting 'orthorhombic'
loop_
_space_group_symop_operation_xyz
x,y,z
-x,-y,z
-x,y,z
x,-y,z
loop_
_atom_site_type_symbol
_atom_site_label
_atom_site_fract_x
_atom_site_fract_y
_atom_site_fract_z
Si Si1 0.205878 0.611573 0.901190
Si Si2 0.680604 0.612059 0.219641
Si Si3 0.802797 0.114042 0.619210
Si Si4 0.917254 0.198462 0.339594
Si Si5 0.415354 0.386911 0.877100
Si Si6 0.081269 0.112212 0.932769
Si Si7 0.915621 0.607954 0.173178
Si Si8 0.701391 0.286365 0.615039
O O1 0.224903 0.500000 0.859774
O O2 0.225026 0.665340 0.704812
O O3 0.254931 0.646965 0.079701
O O4 0.123008 0.630677 0.970246
O O5 0.689957 0.500000 0.286121
O O6 0.682299 0.680130 0.403569
O O7 0.604938 0.625819 0.099675
O O8 0.854317 0.136351 0.439221
O O9 0.724490 0.171505 0.611951
O O10 0.782844 0.000000 0.621897
O O11 0.852594 0.146472 0.797326
O O12 0.914007 0.176481 0.118262
O O13 0.898964 0.315142 0.343242
O O14 0.000000 0.175868 0.419133
O O15 0.500000 0.358781 0.848659
O O16 0.400022 0.500000 0.816086
O O17 0.368274 0.312548 0.747231
O O18 0.000000 0.126231 0.837290
O O19 0.092522 0.000000 0.990285
O O20 0.891039 0.500000 0.246780
O O21 0.000000 0.611294 0.117073
#
# Coordination Sequence:
#
# PCOD8166526 Si02
#       8
#     4   4   4   4   4   4   4   4
#     4   9  17  30  48  71 101 134 169 208 247 299
#     4   9  17  30  51  79 107 134 162 194 239 298
#     4  11  23  35  49  74 105 136 177 228 271 305
#     4  10  19  33  53  72  96 135 179 224 274 318
#     4   9  19  36  58  86 114 132 154 194 241 298
#     4   9  18  33  53  75  98 129 175 230 281 319
#     4   9  17  29  46  68  96 134 177 219 264 312
#     4  11  20  32  52  76 105 140 171 199 247 308
#
# _framework density 18.275098
#
# number of rings (size 3 to 8) (size 9 to 14) (size 15 to 20)
#    0.000    2.375    0.000    4.125    0.000    2.750 
#    0.000    3.125    0.000    1.875    0.000    7.000 
#    0.000    0.000    0.000    0.000    0.000    0.000 
#
# Total GULP energy -396536.880942 kJ/mol
# GULP energy per Si atom -12391.777529 kJ/mol
# Density = 1.823350 g / cm^3
# Si number density = 18.275098 Si / 1000 Ang^3
#
#
#
# Elastic Constant Matrix: (Units=GPa)
#
#
# Indices 1 2 3 4 5 6 
#
# 1 90.5216 46.7135 28.5337 0.0000 0.0000 0.0000
# 2 46.7135 78.6391 37.6986 0.0000 0.0000 0.0000
# 3 28.5337 37.6986 76.5086 0.0000 0.0000 0.0000
# 4 0.0000 0.0000 0.0000 19.6031 0.0000 0.0000
# 5 0.0000 0.0000 0.0000 0.0000 21.3082 0.0000
# 6 0.0000 0.0000 0.0000 0.0000 0.0000 23.8746
#
#
#
# Elastic Compliance Matrix: (Units=1/GPa)
#
#
# Indices 1 2 3 4 5 6 
#
# 1 0.016096 -0.008751 -0.001691 0.000000 0.000000 0.000000
# 2 -0.008751 0.021406 -0.007284 0.000000 0.000000 0.000000
# 3 -0.001691 -0.007284 0.017290 0.000000 0.000000 0.000000
# 4 0.000000 0.000000 0.000000 0.051012 0.000000 0.000000
# 5 0.000000 0.000000 0.000000 0.000000 0.046930 0.000000
# 6 0.000000 0.000000 0.000000 0.000000 0.000000 0.041885
#
#
# Mechanical properties :
#
#
# Convention : Reuss Voigt Hill
#
# Bulk Modulus (GPa) = 51.70460 52.39566 52.05013
# Shear Modulus (GPa) = 21.13992 21.80543 21.47268
#
# Velocity S-wave (km/s) = 3.40481 3.45799 3.43150
# Velocity P-wave (km/s) = 6.61897 6.68404 6.65158
#
# Compressibility (1/GPa) = 0.01934064
#
# Stress axis : x y z
#
# Youngs Moduli (GPa) = 62.12752 46.71516 57.83586
#
# Poissons Ratio (x) = 0.40879 0.09781
# Poissons Ratio (y) = 0.54366 0.42128
# Poissons Ratio (z) = 0.10507 0.34028
#
# Static dielectric constant tensor:
#      x y z
#    x 3.351700 0.000000 0.000000 
#    y 0.000000 3.490210 0.000000 
#    z 0.000000 0.000000 3.237780 
# 
# 
# High freq. dielectric constant tensor:
#      x y z
#    x 1.690650 0.000000 0.000000 
#    y 0.000000 1.698010 0.000000 
#    z 0.000000 0.000000 1.697590 
# 
# From -- ./inp_files/980.got.cif
#   From: 2010.03.12/outbox.cif.g09.slc.cpg/sg25_1_cif.got.tgz:980.got - 2010.04.14 03:30:10.
