data_PCOD8166428
_publ_section_title
;
Structure prediction by ZEFSAII (Michael W. Deem and Ramdas Pophale) SiO2 
 PCOD8166428
Probable space group: P M M 2
;
_chemical_formula_sum "Si O2"
_cell_formula_units_Z 32
_cell_length_a 8.933769
_cell_length_b 13.302986
_cell_length_c 16.863323
_cell_angle_alpha 90.000000
_cell_angle_beta 90.000000
_cell_angle_gamma 90.000000
_cell_volume 2004.135179
_symmetry_space_group_name_H-M "P M M 2"
_symmetry_group_IT_number 25
_symmetry_cell_setting 'orthorhombic'
loop_
_space_group_symop_operation_xyz
x,y,z
-x,-y,z
-x,y,z
x,-y,z
loop_
_atom_site_type_symbol
_atom_site_label
_atom_site_fract_x
_atom_site_fract_y
_atom_site_fract_z
Si Si1 0.833600 0.743678 0.663720
Si Si2 0.324359 0.384469 0.537615
Si Si3 0.833091 0.118272 0.952027
Si Si4 0.677386 0.115321 0.788838
Si Si5 0.176420 0.884376 0.268472
Si Si6 0.838183 0.109304 0.521414
Si Si7 0.327612 0.770734 0.406209
Si Si8 0.332923 0.118644 0.105286
O O1 0.751047 0.650330 0.620470
O O2 0.741237 0.796324 0.733507
O O3 0.850407 0.826468 0.598339
O O4 0.000000 0.710501 0.693373
O O5 0.500000 0.365395 0.547582
O O6 0.283215 0.500000 0.523921
O O7 0.269467 0.326236 0.457265
O O8 0.733830 0.144320 0.875935
O O9 0.000000 0.164355 0.942750
O O10 0.846316 0.000000 0.963464
O O11 0.753466 0.165523 0.029633
O O12 0.500000 0.121775 0.786414
O O13 0.728430 0.000000 0.766774
O O14 0.234092 0.797416 0.327925
O O15 0.244059 0.853341 0.184352
O O16 0.000000 0.877130 0.262177
O O17 0.223693 0.000000 0.292121
O O18 0.700057 0.136360 0.465068
O O19 0.000000 0.115132 0.475385
O O20 0.804517 0.000000 0.553948
O O21 0.500000 0.760393 0.382408
O O22 0.500000 0.164716 0.109627
O O23 0.343517 0.000000 0.095133
#
# Coordination Sequence:
#
# PCOD8166428 Si02
#       8
#     4   4   4   4   4   4   4   4
#     4  10  19  30  45  65  87 111 143 182 222 264
#     4   9  19  36  53  66  84 111 142 180 227 275
#     4   9  16  26  40  58  83 117 154 187 219 254
#     4  10  19  29  42  62  90 123 156 187 218 255
#     4  10  19  29  41  59  87 121 151 179 214 255
#     4   9  17  28  40  55  80 113 142 168 204 251
#     4  10  19  29  43  63  83 106 140 179 217 257
#     4   9  16  26  40  58  82 114 152 188 217 248
#
# _framework density 15.966986
#
# number of rings (size 3 to 8) (size 9 to 14) (size 15 to 20)
#    0.000    2.500    0.000    3.000    0.000    8.000 
#    0.000    0.000    0.000    0.000    0.000    0.000 
#    0.000    1.000    0.000    6.000    0.000    4.625 
#
# Total GULP energy -396437.362475 kJ/mol
# GULP energy per Si atom -12388.667577 kJ/mol
# Density = 1.593064 g / cm^3
# Si number density = 15.966986 Si / 1000 Ang^3
#
#
#
# Elastic Constant Matrix: (Units=GPa)
#
#
# Indices 1 2 3 4 5 6 
#
# 1 85.9957 27.3986 49.6534 0.0000 0.0000 0.0000
# 2 27.3986 54.5413 33.4834 0.0000 0.0000 0.0000
# 3 49.6534 33.4834 105.9474 0.0000 0.0000 0.0000
# 4 0.0000 0.0000 0.0000 17.0727 0.0000 0.0000
# 5 0.0000 0.0000 0.0000 0.0000 31.1186 0.0000
# 6 0.0000 0.0000 0.0000 0.0000 0.0000 15.6912
#
#
#
# Elastic Compliance Matrix: (Units=1/GPa)
#
#
# Indices 1 2 3 4 5 6 
#
# 1 0.016776 -0.004468 -0.006450 0.000000 0.000000 0.000000
# 2 -0.004468 0.023938 -0.005472 0.000000 0.000000 0.000000
# 3 -0.006450 -0.005472 0.014191 0.000000 0.000000 0.000000
# 4 0.000000 0.000000 0.000000 0.058573 0.000000 0.000000
# 5 0.000000 0.000000 0.000000 0.000000 0.032135 0.000000
# 6 0.000000 0.000000 0.000000 0.000000 0.000000 0.063730
#
#
# Mechanical properties :
#
#
# Convention : Reuss Voigt Hill
#
# Bulk Modulus (GPa) = 45.19543 51.95060 48.57302
# Shear Modulus (GPa) = 20.04024 21.83976 20.94000
#
# Velocity S-wave (km/s) = 3.54659 3.70240 3.62533
# Velocity P-wave (km/s) = 6.71849 7.13330 6.92900
#
# Compressibility (1/GPa) = 0.02212613
#
# Stress axis : x y z
#
# Youngs Moduli (GPa) = 59.60780 41.77460 70.46740
#
# Poissons Ratio (x) = 0.18663 0.45455
# Poissons Ratio (y) = 0.26630 0.38557
# Poissons Ratio (z) = 0.38450 0.22857
#
# Static dielectric constant tensor:
#      x y z
#    x 12.384900 0.000000 0.000000 
#    y 0.000000 2.665510 0.000000 
#    z 0.000000 0.000000 3.208430 
# 
# 
# High freq. dielectric constant tensor:
#      x y z
#    x 1.629950 0.000000 0.000000 
#    y 0.000000 1.554770 0.000000 
#    z 0.000000 0.000000 1.613360 
# 
# From -- ./inp_files/5721.got.cif
#   From: 2010.03.12/outbox.cif.g09.slc.cpg/sg25_3_cif.got.tgz:5721.got - 2010.04.14 03:30:10.
