data_PCOD8166660
_publ_section_title
;
Structure prediction by ZEFSAII (Michael W. Deem and Ramdas Pophale) SiO2 
 PCOD8166660
Probable space group: P M M 2
;
_chemical_formula_sum "Si O2"
_cell_formula_units_Z 32
_cell_length_a 15.618689
_cell_length_b 9.263573
_cell_length_c 11.708191
_cell_angle_alpha 90.000000
_cell_angle_beta 90.000000
_cell_angle_gamma 90.000000
_cell_volume 1693.998043
_symmetry_space_group_name_H-M "P M M 2"
_symmetry_group_IT_number 25
_symmetry_cell_setting 'orthorhombic'
loop_
_space_group_symop_operation_xyz
x,y,z
-x,-y,z
-x,y,z
x,-y,z
loop_
_atom_site_type_symbol
_atom_site_label
_atom_site_fract_x
_atom_site_fract_y
_atom_site_fract_z
Si Si1 0.598403 0.655659 0.693690
Si Si2 0.101028 0.671755 0.888734
Si Si3 0.235869 0.168059 0.044321
Si Si4 0.218823 0.834077 0.306931
Si Si5 0.321347 0.160162 0.523460
Si Si6 0.094534 0.658500 0.447713
Si Si7 0.853872 0.166362 0.656661
Si Si8 0.597410 0.168199 0.908775
O O1 0.500000 0.630795 0.715676
O O2 0.645629 0.500000 0.697093
O O3 0.609077 0.727718 0.569220
O O4 0.632855 0.756205 0.794817
O O5 0.115600 0.500000 0.879897
O O6 0.159782 0.735945 0.990586
O O7 0.133663 0.748344 0.774038
O O8 0.000000 0.705546 0.910418
O O9 0.331668 0.208832 0.002890
O O10 0.215012 0.000000 0.019273
O O11 0.243354 0.201038 0.178201
O O12 0.297146 0.800233 0.393419
O O13 0.141265 0.733145 0.342286
O O14 0.190637 0.000000 0.323754
O O15 0.242751 0.174973 0.611721
O O16 0.360179 0.000000 0.527909
O O17 0.135029 0.500000 0.474898
O O18 0.089638 0.755996 0.560843
O O19 0.000000 0.637387 0.401249
O O20 0.882858 0.000000 0.672615
O O21 0.500000 0.216272 0.944961
O O22 0.597276 0.000000 0.882009
#
# Coordination Sequence:
#
# PCOD8166660 Si02
#       8
#     4   4   4   4   4   4   4   4
#     4  10  20  32  49  77 109 136 165 204 251 309
#     4  11  24  38  52  76 111 147 182 221 267 319
#     4  10  21  38  58  79 105 140 183 227 268 313
#     4   9  20  37  54  74 101 134 176 220 259 308
#     4   9  18  33  52  75 102 132 167 209 259 313
#     4  10  20  33  51  76 104 134 171 216 265 316
#     4  10  20  34  54  79 105 134 172 218 267 319
#     4   9  18  34  57  83 109 137 171 215 268 322
#
# _framework density 18.890224
#
# number of rings (size 3 to 8) (size 9 to 14) (size 15 to 20)
#    0.000    2.250    0.000    3.375    0.000   11.250 
#    0.000    3.125    0.000    2.250    0.000    1.750 
#    0.000    0.000    0.000    0.000    0.000    0.000 
#
# Total GULP energy -396590.167940 kJ/mol
# GULP energy per Si atom -12393.442748 kJ/mol
# Density = 1.884723 g / cm^3
# Si number density = 18.890224 Si / 1000 Ang^3
#
#
#
# Elastic Constant Matrix: (Units=GPa)
#
#
# Indices 1 2 3 4 5 6 
#
# 1 54.7081 37.9506 50.2746 0.0000 0.0000 0.0000
# 2 37.9506 106.7553 67.5663 0.0000 0.0000 0.0000
# 3 50.2746 67.5663 146.2936 0.0000 0.0000 0.0000
# 4 0.0000 0.0000 0.0000 15.2547 0.0000 0.0000
# 5 0.0000 0.0000 0.0000 0.0000 13.3421 0.0000
# 6 0.0000 0.0000 0.0000 0.0000 0.0000 22.3961
#
#
#
# Elastic Compliance Matrix: (Units=1/GPa)
#
#
# Indices 1 2 3 4 5 6 
#
# 1 0.028936 -0.005642 -0.007338 0.000000 0.000000 0.000000
# 2 -0.005642 0.014336 -0.004682 0.000000 0.000000 0.000000
# 3 -0.007338 -0.004682 0.011520 0.000000 0.000000 0.000000
# 4 0.000000 0.000000 0.000000 0.065554 0.000000 0.000000
# 5 0.000000 0.000000 0.000000 0.000000 0.074951 0.000000
# 6 0.000000 0.000000 0.000000 0.000000 0.000000 0.044651
#
#
# Mechanical properties :
#
#
# Convention : Reuss Voigt Hill
#
# Bulk Modulus (GPa) = 51.36866 68.81557 60.09211
# Shear Modulus (GPa) = 17.74545 20.32962 19.03753
#
# Velocity S-wave (km/s) = 3.06829 3.28410 3.17803
# Velocity P-wave (km/s) = 6.30910 7.13363 6.73400
#
# Compressibility (1/GPa) = 0.01946712
#
# Stress axis : x y z
#
# Youngs Moduli (GPa) = 34.55867 69.75207 86.80559
#
# Poissons Ratio (x) = 0.39355 0.63700
# Poissons Ratio (y) = 0.19499 0.40646
# Poissons Ratio (z) = 0.25360 0.32661
#
# Static dielectric constant tensor:
#      x y z
#    x 3.434170 0.000000 0.000000 
#    y 0.000000 3.826460 0.000000 
#    z 0.000000 0.000000 3.423740 
# 
# 
# High freq. dielectric constant tensor:
#      x y z
#    x 1.724060 0.000000 0.000000 
#    y 0.000000 1.743920 0.000000 
#    z 0.000000 0.000000 1.724470 
# 
# From -- ./inp_files/4941.got.cif
#   From: 2010.03.12/outbox.cif.g09.slc.cpg/sg25_3_cif.got.tgz:4941.got - 2010.04.14 03:30:10.
