data_PCOD8166846
_publ_section_title
;
Structure prediction by ZEFSAII (Michael W. Deem and Ramdas Pophale) SiO2 
 PCOD8166846
Probable space group: P M M 2
;
_chemical_formula_sum "Si O2"
_cell_formula_units_Z 20
_cell_length_a 15.053030
_cell_length_b 8.685762
_cell_length_c 7.363194
_cell_angle_alpha 90.000000
_cell_angle_beta 90.000000
_cell_angle_gamma 90.000000
_cell_volume 962.715791
_symmetry_space_group_name_H-M "P M M 2"
_symmetry_group_IT_number 25
_symmetry_cell_setting 'orthorhombic'
loop_
_space_group_symop_operation_xyz
x,y,z
-x,-y,z
-x,y,z
x,-y,z
loop_
_atom_site_type_symbol
_atom_site_label
_atom_site_fract_x
_atom_site_fract_y
_atom_site_fract_z
Si Si1 0.095674 0.321749 0.109830
Si Si2 0.602168 0.320197 0.408549
Si Si3 0.096588 0.820340 0.719367
Si Si4 0.727224 0.679265 0.733093
Si Si5 0.729471 0.819862 0.127731
O O1 0.108847 0.500000 0.057022
O O2 0.182551 0.261936 0.217838
O O3 0.000000 0.299522 0.212805
O O4 0.093529 0.217872 0.931430
O O5 0.500000 0.272444 0.425186
O O6 0.614440 0.500000 0.368176
O O7 0.648506 0.274206 0.597584
O O8 0.643677 0.227295 0.241963
O O9 0.178881 0.724727 0.635296
O O10 0.000000 0.775529 0.632885
O O11 0.115353 0.000000 0.692405
O O12 0.726460 0.500000 0.778427
O O13 0.713713 0.770818 0.919741
O O14 0.743950 0.000000 0.138476
#
# Coordination Sequence:
#
# PCOD8166846 Si02
#       5
#     4   4   4   4   4
#     4   9  16  28  50  79 111 149 191 230 268 318
#     4  10  23  43  63  82 107 143 190 241 287 333
#     4   9  16  27  47  77 113 150 184 221 271 329
#     4  10  20  36  60  86 112 147 190 233 279 331
#     4  11  22  36  58  87 119 152 184 226 283 341
#
# _framework density 20.774562
#
# number of rings (size 3 to 8) (size 9 to 14) (size 15 to 20)
#    0.000    2.200    0.000    6.000    0.000    5.200 
#    0.000    3.000    0.000    1.200    0.000    0.000 
#    0.000    0.000    0.000    0.000    0.000    0.000 
#
# Total GULP energy -247847.974652 kJ/mol
# GULP energy per Si atom -12392.398733 kJ/mol
# Density = 2.072728 g / cm^3
# Si number density = 20.774562 Si / 1000 Ang^3
#
#
#
# Elastic Constant Matrix: (Units=GPa)
#
#
# Indices 1 2 3 4 5 6 
#
# 1 201.2715 59.0497 60.5006 0.0000 0.0000 0.0000
# 2 59.0497 76.1058 33.5745 0.0000 0.0000 0.0000
# 3 60.5006 33.5745 65.0934 0.0000 0.0000 0.0000
# 4 0.0000 0.0000 0.0000 4.3883 0.0000 0.0000
# 5 0.0000 0.0000 0.0000 0.0000 -71.5210 0.0000
# 6 0.0000 0.0000 0.0000 0.0000 0.0000 25.3864
#
#
#
# Elastic Compliance Matrix: (Units=1/GPa)
#
#
# Indices 1 2 3 4 5 6 
#
# 1 0.007584 -0.003592 -0.005196 0.000000 0.000000 0.000000
# 2 -0.003592 0.018712 -0.006312 0.000000 0.000000 0.000000
# 3 -0.005196 -0.006312 0.023448 0.000000 0.000000 0.000000
# 4 0.000000 0.000000 0.000000 0.227877 0.000000 0.000000
# 5 0.000000 0.000000 0.000000 0.000000 -0.013982 0.000000
# 6 0.000000 0.000000 0.000000 0.000000 0.000000 0.039391
#
#
# Mechanical properties :
#
#
# Convention : Reuss Voigt Hill
#
# Bulk Modulus (GPa) = 51.17195 72.08003 61.62599
# Shear Modulus (GPa) = 14.71687 4.27379 9.49533
#
# Velocity S-wave (km/s) = 2.66448 1.43586 2.14023
# Velocity P-wave (km/s) = 5.84392 6.12540 5.98632
#
# Compressibility (1/GPa) = 0.01954195
#
# Stress axis : x y z
#
# Youngs Moduli (GPa) = 131.85172 53.44300 42.64731
#
# Poissons Ratio (x) = 0.19198 0.22161
# Poissons Ratio (y) = 0.47363 0.26921
# Poissons Ratio (z) = 0.68515 0.33736
#
# Static dielectric constant tensor:
#      x y z
#    x 4.562970 0.000000 0.000000 
#    y 0.000000 3.680010 0.000000 
#    z 0.000000 0.000000 3.298410 
# 
# 
# High freq. dielectric constant tensor:
#      x y z
#    x 1.830380 0.000000 0.000000 
#    y 0.000000 1.816160 0.000000 
#    z 0.000000 0.000000 1.775220 
# 
# From -- ./inp_files/2982.got.cif
#   From: 2010.03.12/outbox.cif.g09.slc.cpg/sg25_2_cif.got.tgz:2982.got - 2010.04.14 03:30:10.
