data_PCOD8166360
_publ_section_title
;
Structure prediction by ZEFSAII (Michael W. Deem and Ramdas Pophale) SiO2 
 PCOD8166360
Probable space group: P M M 2
;
_chemical_formula_sum "Si O2"
_cell_formula_units_Z 28
_cell_length_a 14.315524
_cell_length_b 8.833485
_cell_length_c 13.030159
_cell_angle_alpha 90.000000
_cell_angle_beta 90.000000
_cell_angle_gamma 90.000000
_cell_volume 1647.741350
_symmetry_space_group_name_H-M "P M M 2"
_symmetry_group_IT_number 25
_symmetry_cell_setting 'orthorhombic'
loop_
_space_group_symop_operation_xyz
x,y,z
-x,-y,z
-x,y,z
x,-y,z
loop_
_atom_site_type_symbol
_atom_site_label
_atom_site_fract_x
_atom_site_fract_y
_atom_site_fract_z
Si Si1 0.282881 0.320782 0.714240
Si Si2 0.293962 0.322991 0.095515
Si Si3 0.894568 0.176250 0.787264
Si Si4 0.395208 0.320278 0.295272
Si Si5 0.604945 0.320079 0.520941
Si Si6 0.896360 0.326793 0.001190
Si Si7 0.608227 0.177967 0.903079
O O1 0.288171 0.500000 0.718897
O O2 0.175409 0.268090 0.714461
O O3 0.327795 0.255456 0.609404
O O4 0.337430 0.257120 0.811321
O O5 0.317383 0.500000 0.082895
O O6 0.325316 0.260900 0.207090
O O7 0.182564 0.292812 0.086224
O O8 0.351378 0.233350 0.010675
O O9 0.000000 0.218098 0.754341
O O10 0.874197 0.000000 0.775022
O O11 0.876876 0.219242 0.905221
O O12 0.500000 0.261002 0.272039
O O13 0.395714 0.500000 0.296366
O O14 0.362329 0.262116 0.407996
O O15 0.500000 0.262065 0.542914
O O16 0.606612 0.500000 0.523284
O O17 0.888440 0.500000 0.962525
O O18 0.000000 0.295860 0.047709
O O19 0.500000 0.223558 0.896368
O O20 0.623256 0.000000 0.893865
#
# Coordination Sequence:
#
# PCOD8166360 Si02
#       7
#     4   4   4   4   4   4   4
#     4  11  20  31  50  73  96 125 162 204 245 288
#     4  10  18  29  49  73  95 125 161 198 240 288
#     4  10  20  33  49  69  95 128 162 196 239 293
#     4   8  14  26  45  69  95 123 160 202 239 281
#     4   8  15  28  46  69  96 126 161 201 241 281
#     4   9  17  29  45  68  97 126 158 196 236 280
#     4  11  23  34  44  65 100 134 159 192 242 295
#
# _framework density 16.992958000000002
#
# number of rings (size 3 to 8) (size 9 to 14) (size 15 to 20)
#    0.000    2.429    1.429    3.000    0.000    3.143 
#    0.000    0.000    0.000    2.571    0.000   10.000 
#    0.000    2.286    0.000    0.000    0.000    0.000 
#
# Total GULP energy -347095.776673 kJ/mol
# GULP energy per Si atom -12396.277738 kJ/mol
# Density = 1.695428 g / cm^3
# Si number density = 16.992958 Si / 1000 Ang^3
#
#
#
# Elastic Constant Matrix: (Units=GPa)
#
#
# Indices 1 2 3 4 5 6 
#
# 1 132.4052 32.8420 79.3765 0.0000 0.0000 0.0000
# 2 32.8420 40.9638 26.5660 0.0000 0.0000 0.0000
# 3 79.3765 26.5660 134.5576 0.0000 0.0000 0.0000
# 4 0.0000 0.0000 0.0000 -1.8571 0.0000 0.0000
# 5 0.0000 0.0000 0.0000 0.0000 25.1895 0.0000
# 6 0.0000 0.0000 0.0000 0.0000 0.0000 22.2203
#
#
#
# Elastic Compliance Matrix: (Units=1/GPa)
#
#
# Indices 1 2 3 4 5 6 
#
# 1 0.012932 -0.006217 -0.006401 0.000000 0.000000 0.000000
# 2 -0.006217 0.030985 -0.002450 0.000000 0.000000 0.000000
# 3 -0.006401 -0.002450 0.011692 0.000000 0.000000 0.000000
# 4 0.000000 0.000000 0.000000 -0.538471 0.000000 0.000000
# 5 0.000000 0.000000 0.000000 0.000000 0.039699 0.000000
# 6 0.000000 0.000000 0.000000 0.000000 0.000000 0.045004
#
#
# Mechanical properties :
#
#
# Convention : Reuss Voigt Hill
#
# Bulk Modulus (GPa) = 39.25830 65.05506 52.15668
# Shear Modulus (GPa) = -13.90698 20.38669 3.23985
#
# Velocity S-wave (km/s) = -2.86387 3.46745 1.38229
# Velocity P-wave (km/s) = 3.49531 7.37547 5.77125
#
# Compressibility (1/GPa) = 0.02547232
#
# Stress axis : x y z
#
# Youngs Moduli (GPa) = 77.32632 32.27381 85.53046
#
# Poissons Ratio (x) = 0.20064 0.54752
# Poissons Ratio (y) = 0.48071 0.20956
# Poissons Ratio (z) = 0.49500 0.07908
#
# Static dielectric constant tensor:
#      x y z
#    x 3.474030 0.000000 0.000000 
#    y 0.000000 2.971020 0.000000 
#    z 0.000000 0.000000 3.370650 
# 
# 
# High freq. dielectric constant tensor:
#      x y z
#    x 1.661280 0.000000 0.000000 
#    y 0.000000 1.634110 0.000000 
#    z 0.000000 0.000000 1.639480 
# 
# From -- ./inp_files/4803.got.cif
#   From: 2010.03.12/outbox.cif.g09.slc.cpg/sg25_3_cif.got.tgz:4803.got - 2010.04.14 03:30:10.
