data_PCOD8166279
_publ_section_title
;
Structure prediction by ZEFSAII (Michael W. Deem and Ramdas Pophale) SiO2 
 PCOD8166279
Probable space group: I 21 21 21
;
_chemical_formula_sum "Si O2"
_cell_formula_units_Z 24
_cell_length_a 20.610506
_cell_length_b 4.865876
_cell_length_c 10.498246
_cell_angle_alpha 90.000000
_cell_angle_beta 90.000000
_cell_angle_gamma 90.000000
_cell_volume 1052.849843
_symmetry_space_group_name_H-M "I 21 21 21"
_symmetry_group_IT_number 24
_symmetry_cell_setting 'orthorhombic'
loop_
_space_group_symop_operation_xyz
x,y,z
-x,1/2-y,z
x,-y,1/2-z
1/2-x,y,-z
1/2+x,1/2+y,1/2+z
1/2-x,-y,1/2+z
1/2+x,1/2-y,-z
-x,1/2+y,1/2-z
loop_
_atom_site_type_symbol
_atom_site_label
_atom_site_fract_x
_atom_site_fract_y
_atom_site_fract_z
Si Si1 0.500000 0.750000 0.659239
Si Si2 0.275650 0.000000 0.750000
Si Si3 0.633445 0.677552 0.521750
Si Si4 0.337279 0.672939 0.139825
O O1 0.482325 0.500000 0.750000
O O2 0.560280 0.696606 0.568317
O O3 0.320240 0.080706 0.866982
O O4 0.232798 0.255991 0.700603
O O5 0.631740 0.462472 0.403572
O O6 0.663750 0.969845 0.481046
O O7 0.376294 0.500000 0.250000
#
# Coordination Sequence:
#
# PCOD8166279 Si02
#       4
#     4   4   8   8
#     4  12  26  54  76 108 144 188 252 308 352 430
#     4  12  28  44  78 112 150 186 242 310 362 440
#     4  12  28  47  78 108 147 193 246 299 368 424
#     4  12  27  46  72 112 152 193 233 299 370 439
#
# _framework density 22.795275
#
# number of rings (size 3 to 8) (size 9 to 14) (size 15 to 20)
#    0.000    0.000    5.000    3.000    9.333    0.000 
#    0.000    3.333    3.667    0.000    0.000    0.000 
#    0.000    0.000    0.000    0.000    0.000    0.000 
#
# Total GULP energy -148749.663316 kJ/mol
# GULP energy per Si atom -12395.805276 kJ/mol
# Density = 2.274339 g / cm^3
# Si number density = 22.795275 Si / 1000 Ang^3
#
#
#
# Elastic Constant Matrix: (Units=GPa)
#
#
# Indices 1 2 3 4 5 6 
#
# 1 132.3694 46.2000 65.2540 0.0000 0.0000 0.0000
# 2 46.2000 130.8926 20.4739 0.0000 0.0000 0.0000
# 3 65.2540 20.4739 76.8330 0.0000 0.0000 0.0000
# 4 0.0000 0.0000 0.0000 64.9143 0.0000 0.0000
# 5 0.0000 0.0000 0.0000 0.0000 5.7509 0.0000
# 6 0.0000 0.0000 0.0000 0.0000 0.0000 27.3992
#
#
#
# Elastic Compliance Matrix: (Units=1/GPa)
#
#
# Indices 1 2 3 4 5 6 
#
# 1 0.014218 -0.003266 -0.011205 0.000000 0.000000 0.000000
# 2 -0.003266 0.008722 0.000449 0.000000 0.000000 0.000000
# 3 -0.011205 0.000449 0.022412 0.000000 0.000000 0.000000
# 4 0.000000 0.000000 0.000000 0.015405 0.000000 0.000000
# 5 0.000000 0.000000 0.000000 0.000000 0.173887 0.000000
# 6 0.000000 0.000000 0.000000 0.000000 0.000000 0.036497
#
#
# Mechanical properties :
#
#
# Convention : Reuss Voigt Hill
#
# Bulk Modulus (GPa) = 57.77261 67.10562 62.43911
# Shear Modulus (GPa) = 16.39585 33.49068 24.94326
#
# Velocity S-wave (km/s) = 2.68482 3.83716 3.31150
# Velocity P-wave (km/s) = 5.91694 7.00957 6.48630
#
# Compressibility (1/GPa) = 0.01730924
#
# Stress axis : x y z
#
# Youngs Moduli (GPa) = 70.33173 114.64917 44.61873
#
# Poissons Ratio (x) = 0.37442 0.49997
# Poissons Ratio (y) = 0.22969 -0.02005
# Poissons Ratio (z) = 0.78809 -0.05152
#
# Static dielectric constant tensor:
#      x y z
#    x 3.872860 0.000000 0.000000 
#    y 0.000000 4.619170 0.000000 
#    z 0.000000 0.000000 4.522400 
# 
# 
# High freq. dielectric constant tensor:
#      x y z
#    x 1.863940 0.000000 0.000000 
#    y 0.000000 1.932550 0.000000 
#    z 0.000000 0.000000 1.927790 
# 
# From -- ./inp_files/21828.got.cif
#   From: 2010.03.12/outbox.cif.g09.slc.cpg/sg24_11_cif.got.tgz:21828.got - 2010.04.14 03:06:53.
