data_PCOD8166552
_publ_section_title
;
Structure prediction by ZEFSAII (Michael W. Deem and Ramdas Pophale) SiO2 
 PCOD8166552
Probable space group: P M M 2
;
_chemical_formula_sum "Si O2"
_cell_formula_units_Z 32
_cell_length_a 9.070107
_cell_length_b 14.615820
_cell_length_c 12.505976
_cell_angle_alpha 90.000000
_cell_angle_beta 90.000000
_cell_angle_gamma 90.000000
_cell_volume 1657.880362
_symmetry_space_group_name_H-M "P M M 2"
_symmetry_group_IT_number 25
_symmetry_cell_setting 'orthorhombic'
loop_
_space_group_symop_operation_xyz
x,y,z
-x,-y,z
-x,y,z
x,-y,z
loop_
_atom_site_type_symbol
_atom_site_label
_atom_site_fract_x
_atom_site_fract_y
_atom_site_fract_z
Si Si1 0.332809 0.655466 0.586890
Si Si2 0.166099 0.601033 0.390200
Si Si3 0.673149 0.607257 0.995123
Si Si4 0.334313 0.138434 0.520160
Si Si5 0.175316 0.294890 0.798893
Si Si6 0.829081 0.901106 0.729856
Si Si7 0.673744 0.290055 0.208934
Si Si8 0.325347 0.099448 0.285244
O O1 0.500000 0.620785 0.606541
O O2 0.247562 0.591226 0.504138
O O3 0.331712 0.753563 0.532200
O O4 0.246151 0.653628 0.698435
O O5 0.163988 0.500000 0.338958
O O6 0.251229 0.667394 0.311699
O O7 0.000000 0.637971 0.407286
O O8 0.500000 0.621450 0.974684
O O9 0.713051 0.500000 0.002152
O O10 0.764126 0.656107 0.903092
O O11 0.725683 0.657752 0.102930
O O12 0.500000 0.100293 0.528365
O O13 0.243132 0.091979 0.613939
O O14 0.262838 0.113505 0.405412
O O15 0.226160 0.187060 0.798125
O O16 0.000000 0.305193 0.795228
O O17 0.000000 0.886780 0.708911
O O18 0.798093 0.000000 0.787925
O O19 0.500000 0.301132 0.224518
O O20 0.722467 0.182441 0.206175
O O21 0.500000 0.101225 0.293980
O O22 0.270821 0.000000 0.241018
#
# Coordination Sequence:
#
# PCOD8166552 Si02
#       8
#     4   4   4   4   4   4   4   4
#     4  10  19  34  56  81 112 149 186 224 271 328
#     4  11  23  36  53  81 115 148 182 225 281 338
#     4  10  22  40  61  82 105 140 188 239 286 335
#     4   9  16  28  48  76 109 146 185 221 260 311
#     4  10  21  37  58  83 112 144 182 231 283 331
#     4   9  18  32  50  76 111 149 185 219 264 323
#     4  10  20  38  60  82 110 145 187 232 277 327
#     4   9  16  28  50  81 114 145 179 221 270 321
#
# _framework density 19.301753999999999
#
# number of rings (size 3 to 8) (size 9 to 14) (size 15 to 20)
#    0.000    2.250    1.250    1.875    0.000    4.500 
#    0.000    0.625    0.000    1.125    0.000    0.000 
#    0.000    0.000    0.000    0.000    0.000    0.000 
#
# Total GULP energy -396604.746511 kJ/mol
# GULP energy per Si atom -12393.898328 kJ/mol
# Density = 1.925782 g / cm^3
# Si number density = 19.301754 Si / 1000 Ang^3
#
#
#
# Elastic Constant Matrix: (Units=GPa)
#
#
# Indices 1 2 3 4 5 6 
#
# 1 57.7108 34.9727 48.2709 0.0000 0.0000 0.0000
# 2 34.9727 134.0506 67.4316 0.0000 0.0000 0.0000
# 3 48.2709 67.4316 118.2238 0.0000 0.0000 0.0000
# 4 0.0000 0.0000 0.0000 22.0694 0.0000 0.0000
# 5 0.0000 0.0000 0.0000 0.0000 7.5134 0.0000
# 6 0.0000 0.0000 0.0000 0.0000 0.0000 16.2179
#
#
#
# Elastic Compliance Matrix: (Units=1/GPa)
#
#
# Indices 1 2 3 4 5 6 
#
# 1 0.026722 -0.002080 -0.009724 0.000000 0.000000 0.000000
# 2 -0.002080 0.010623 -0.005210 0.000000 0.000000 0.000000
# 3 -0.009724 -0.005210 0.015401 0.000000 0.000000 0.000000
# 4 0.000000 0.000000 0.000000 0.045312 0.000000 0.000000
# 5 0.000000 0.000000 0.000000 0.000000 0.133096 0.000000
# 6 0.000000 0.000000 0.000000 0.000000 0.000000 0.061660
#
#
# Mechanical properties :
#
#
# Convention : Reuss Voigt Hill
#
# Bulk Modulus (GPa) = 53.42620 67.92618 60.67619
# Shear Modulus (GPa) = 15.01135 19.78080 17.39608
#
# Velocity S-wave (km/s) = 2.79179 3.20475 3.00537
# Velocity P-wave (km/s) = 6.17508 6.99729 6.59900
#
# Compressibility (1/GPa) = 0.01871741
#
# Stress axis : x y z
#
# Youngs Moduli (GPa) = 37.42268 94.13278 64.93271
#
# Poissons Ratio (x) = 0.19579 0.63142
# Poissons Ratio (y) = 0.07784 0.33830
# Poissons Ratio (z) = 0.36391 0.49043
#
# Static dielectric constant tensor:
#      x y z
#    x 3.426160 0.000000 0.000000 
#    y 0.000000 3.993010 0.000000 
#    z 0.000000 0.000000 3.364090 
# 
# 
# High freq. dielectric constant tensor:
#      x y z
#    x 1.735610 0.000000 0.000000 
#    y 0.000000 1.768580 0.000000 
#    z 0.000000 0.000000 1.726450 
# 
# From -- ./inp_files/4218.got.cif
#   From: 2010.03.12/outbox.cif.g09.slc.cpg/sg25_3_cif.got.tgz:4218.got - 2010.04.14 03:30:10.
