data_PCOD8166871
_publ_section_title
;
Structure prediction by ZEFSAII (Michael W. Deem and Ramdas Pophale) SiO2 
 PCOD8166871
Probable space group: P M M 2
;
_chemical_formula_sum "Si O2"
_cell_formula_units_Z 28
_cell_length_a 9.642682
_cell_length_b 9.318504
_cell_length_c 17.983880
_cell_angle_alpha 90.000000
_cell_angle_beta 90.000000
_cell_angle_gamma 90.000000
_cell_volume 1615.948206
_symmetry_space_group_name_H-M "P M M 2"
_symmetry_group_IT_number 25
_symmetry_cell_setting 'orthorhombic'
loop_
_space_group_symop_operation_xyz
x,y,z
-x,-y,z
-x,y,z
x,-y,z
loop_
_atom_site_type_symbol
_atom_site_label
_atom_site_fract_x
_atom_site_fract_y
_atom_site_fract_z
Si Si1 0.344274 0.829462 0.520730
Si Si2 0.159171 0.667338 0.801231
Si Si3 0.339172 0.331113 0.941819
Si Si4 0.152866 0.170240 0.228325
Si Si5 0.655219 0.170858 0.356824
Si Si6 0.160305 0.168249 0.061020
Si Si7 0.159870 0.832569 0.654506
O O1 0.500000 0.772925 0.535167
O O2 0.292479 0.779264 0.438750
O O3 0.244373 0.768058 0.584669
O O4 0.342336 0.000000 0.523326
O O5 0.175360 0.500000 0.784389
O O6 0.259683 0.717243 0.867322
O O7 0.208631 0.751951 0.728506
O O8 0.000000 0.705714 0.822233
O O9 0.500000 0.284610 0.936296
O O10 0.324431 0.500000 0.954134
O O11 0.266299 0.254049 0.010299
O O12 0.251644 0.238703 0.291301
O O13 0.201916 0.210511 0.145323
O O14 0.000000 0.233154 0.242507
O O15 0.149196 0.000000 0.235652
O O16 0.500000 0.227453 0.344043
O O17 0.658346 0.000000 0.352430
O O18 0.000000 0.210969 0.045024
O O19 0.180644 0.000000 0.046854
O O20 0.000000 0.801957 0.637414
O O21 0.189693 0.000000 0.666513
#
# Coordination Sequence:
#
# PCOD8166871 Si02
#       7
#     4   4   4   4   4   4   4
#     4   8  14  24  37  56  85 118 147 175 212 259
#     4   9  18  33  50  65  85 116 149 180 221 272
#     4  10  21  35  50  70  94 119 152 192 230 273
#     4   8  14  24  38  59  87 116 146 181 219 258
#     4   8  13  21  34  54  82 116 149 177 210 256
#     4   9  18  32  49  70  96 124 154 189 230 276
#     4   9  17  28  43  65  89 111 141 182 222 259
#
# _framework density 17.327287999999999
#
# number of rings (size 3 to 8) (size 9 to 14) (size 15 to 20)
#    0.000    3.286    0.000    2.143    0.000    3.429 
#    0.000    5.714    0.000    0.000    0.000    1.000 
#    0.000    3.429    0.000    0.000    0.000    0.000 
#
# Total GULP energy -347047.981844 kJ/mol
# GULP energy per Si atom -12394.570780 kJ/mol
# Density = 1.728785 g / cm^3
# Si number density = 17.327288 Si / 1000 Ang^3
#
#
#
# Elastic Constant Matrix: (Units=GPa)
#
#
# Indices 1 2 3 4 5 6 
#
# 1 113.8244 27.0989 105.9797 0.0000 0.0000 0.0000
# 2 27.0989 18.5309 36.0056 0.0000 0.0000 0.0000
# 3 105.9797 36.0056 182.9789 0.0000 0.0000 0.0000
# 4 0.0000 0.0000 0.0000 -3.0107 0.0000 0.0000
# 5 0.0000 0.0000 0.0000 0.0000 33.6617 0.0000
# 6 0.0000 0.0000 0.0000 0.0000 0.0000 16.8530
#
#
#
# Elastic Compliance Matrix: (Units=1/GPa)
#
#
# Indices 1 2 3 4 5 6 
#
# 1 0.020394 -0.011127 -0.009622 0.000000 0.000000 0.000000
# 2 -0.011127 0.093438 -0.011942 0.000000 0.000000 0.000000
# 3 -0.009622 -0.011942 0.013388 0.000000 0.000000 0.000000
# 4 0.000000 0.000000 0.000000 -0.332151 0.000000 0.000000
# 5 0.000000 0.000000 0.000000 0.000000 0.029707 0.000000
# 6 0.000000 0.000000 0.000000 0.000000 0.000000 0.059337
#
#
# Mechanical properties :
#
#
# Convention : Reuss Voigt Hill
#
# Bulk Modulus (GPa) = 16.17124 72.61139 44.39131
# Shear Modulus (GPa) = -167.26370 19.25081 -74.00644
#
# Velocity S-wave (km/s) = -9.83573 3.33680 -6.54245
# Velocity P-wave (km/s) = 10.93781 7.53939 5.60327
#
# Compressibility (1/GPa) = 0.06183818
#
# Stress axis : x y z
#
# Youngs Moduli (GPa) = 49.03485 10.70229 74.69306
#
# Poissons Ratio (x) = 0.11908 0.71872
# Poissons Ratio (y) = 0.54559 0.89196
# Poissons Ratio (z) = 0.47183 0.12780
#
# Static dielectric constant tensor:
#      x y z
#    x 3.426730 0.000000 0.000000 
#    y 0.000000 2.730630 0.000000 
#    z 0.000000 0.000000 3.523600 
# 
# 
# High freq. dielectric constant tensor:
#      x y z
#    x 1.669140 0.000000 0.000000 
#    y 0.000000 1.614300 0.000000 
#    z 0.000000 0.000000 1.683380 
# 
# From -- ./inp_files/6223.got.cif
#   From: 2010.03.12/outbox.cif.g09.slc.cpg/sg25_4_cif.got.tgz:6223.got - 2010.04.14 03:30:10.
