data_PCOD8166461
_publ_section_title
;
Structure prediction by ZEFSAII (Michael W. Deem and Ramdas Pophale) SiO2 
 PCOD8166461
Probable space group: P M M 2
;
_chemical_formula_sum "Si O2"
_cell_formula_units_Z 32
_cell_length_a 18.401126
_cell_length_b 8.948632
_cell_length_c 12.977821
_cell_angle_alpha 90.000000
_cell_angle_beta 90.000000
_cell_angle_gamma 90.000000
_cell_volume 2136.991662
_symmetry_space_group_name_H-M "P M M 2"
_symmetry_group_IT_number 25
_symmetry_cell_setting 'orthorhombic'
loop_
_space_group_symop_operation_xyz
x,y,z
-x,-y,z
-x,y,z
x,-y,z
loop_
_atom_site_type_symbol
_atom_site_label
_atom_site_fract_x
_atom_site_fract_y
_atom_site_fract_z
Si Si1 0.415337 0.828121 0.510980
Si Si2 0.337533 0.176318 0.115057
Si Si3 0.585650 0.327411 0.921416
Si Si4 0.650047 0.827210 0.723386
Si Si5 0.213919 0.671826 0.026054
Si Si6 0.791680 0.827948 0.827159
Si Si7 0.414649 0.672223 0.302794
Si Si8 0.081166 0.672961 0.903899
O O1 0.500000 0.807990 0.533863
O O2 0.372757 0.768381 0.611194
O O3 0.390143 0.727354 0.415385
O O4 0.396127 0.000000 0.486464
O O5 0.252987 0.234232 0.116417
O O6 0.374076 0.228214 0.219810
O O7 0.339185 0.000000 0.109085
O O8 0.378701 0.242576 0.017106
O O9 0.500000 0.306849 0.932455
O O10 0.608617 0.500000 0.927785
O O11 0.609087 0.263737 0.811081
O O12 0.738290 0.809074 0.729779
O O13 0.627507 0.000000 0.736596
O O14 0.234531 0.500000 0.040867
O O15 0.248347 0.736311 0.919298
O O16 0.125807 0.693595 0.012870
O O17 0.873437 0.759026 0.813338
O O18 0.799933 0.000000 0.859575
O O19 0.500000 0.696946 0.287489
O O20 0.392743 0.500000 0.289343
O O21 0.078122 0.500000 0.872892
O O22 0.000000 0.739234 0.915470
#
# Coordination Sequence:
#
# PCOD8166461 Si02
#       8
#     4   4   4   4   4   4   4   4
#     4   9  18  33  50  66  85 114 153 194 235 275
#     4  12  22  32  47  65  87 116 150 187 228 276
#     4  11  22  31  41  61  87 115 148 184 224 271
#     4  10  19  31  47  65  90 120 150 185 226 273
#     4   9  17  29  44  62  89 121 147 179 217 260
#     4   9  16  26  41  65  91 119 150 180 216 260
#     4  10  21  36  51  66  85 112 150 196 241 281
#     4   8  15  27  42  61  89 126 158 182 215 261
#
# _framework density 14.974321
#
# number of rings (size 3 to 8) (size 9 to 14) (size 15 to 20)
#    0.750    1.500    1.250    3.000    0.000    5.000 
#    0.000    1.250    0.000    0.000    0.000    0.000 
#    0.000    1.000    0.000    7.250    0.000    3.750 
#
# Total GULP energy -396455.143555 kJ/mol
# GULP energy per Si atom -12389.223236 kJ/mol
# Density = 1.494024 g / cm^3
# Si number density = 14.974321 Si / 1000 Ang^3
#
#
#
# Elastic Constant Matrix: (Units=GPa)
#
#
# Indices 1 2 3 4 5 6 
#
# 1 83.5945 45.5153 47.1593 0.0000 0.0000 0.0000
# 2 45.5153 96.9103 44.9841 0.0000 0.0000 0.0000
# 3 47.1593 44.9841 84.5948 0.0000 0.0000 0.0000
# 4 0.0000 0.0000 0.0000 13.2501 0.0000 0.0000
# 5 0.0000 0.0000 0.0000 0.0000 14.6889 0.0000
# 6 0.0000 0.0000 0.0000 0.0000 0.0000 20.9470
#
#
#
# Elastic Compliance Matrix: (Units=1/GPa)
#
#
# Indices 1 2 3 4 5 6 
#
# 1 0.019387 -0.005428 -0.007921 0.000000 0.000000 0.000000
# 2 -0.005428 0.015221 -0.005067 0.000000 0.000000 0.000000
# 3 -0.007921 -0.005067 0.018931 0.000000 0.000000 0.000000
# 4 0.000000 0.000000 0.000000 0.075471 0.000000 0.000000
# 5 0.000000 0.000000 0.000000 0.000000 0.068079 0.000000
# 6 0.000000 0.000000 0.000000 0.000000 0.000000 0.047739
#
#
# Mechanical properties :
#
#
# Convention : Reuss Voigt Hill
#
# Bulk Modulus (GPa) = 59.86229 60.04633 59.95431
# Shear Modulus (GPa) = 17.40765 18.27327 17.84046
#
# Velocity S-wave (km/s) = 3.41324 3.49708 3.45542
# Velocity P-wave (km/s) = 7.45634 7.51616 7.48631
#
# Compressibility (1/GPa) = 0.01670501
#
# Stress axis : x y z
#
# Youngs Moduli (GPa) = 51.58165 65.70040 52.82215
#
# Poissons Ratio (x) = 0.35665 0.41840
# Poissons Ratio (y) = 0.28001 0.26767
# Poissons Ratio (z) = 0.40858 0.33293
#
# Static dielectric constant tensor:
#      x y z
#    x 2.967350 0.000000 0.000000 
#    y 0.000000 2.991440 0.000000 
#    z 0.000000 0.000000 2.712810 
# 
# 
# High freq. dielectric constant tensor:
#      x y z
#    x 1.560960 0.000000 0.000000 
#    y 0.000000 1.587160 0.000000 
#    z 0.000000 0.000000 1.539810 
# 
# From -- ./inp_files/5096.got.cif
#   From: 2010.03.12/outbox.cif.g09.slc.cpg/sg25_3_cif.got.tgz:5096.got - 2010.04.14 03:30:10.
