data_PCOD8166069
_publ_section_title
;
Structure prediction by ZEFSAII (Michael W. Deem and Ramdas Pophale) SiO2 
 PCOD8166069
Probable space group: I 21 21 21
;
_chemical_formula_sum "Si O2"
_cell_formula_units_Z 32
_cell_length_a 17.164499
_cell_length_b 10.215204
_cell_length_c 8.883025
_cell_angle_alpha 90.000000
_cell_angle_beta 90.000000
_cell_angle_gamma 90.000000
_cell_volume 1557.539467
_symmetry_space_group_name_H-M "I 21 21 21"
_symmetry_group_IT_number 24
_symmetry_cell_setting 'orthorhombic'
loop_
_space_group_symop_operation_xyz
x,y,z
-x,1/2-y,z
x,-y,1/2-z
1/2-x,y,-z
1/2+x,1/2+y,1/2+z
1/2-x,-y,1/2+z
1/2+x,1/2-y,-z
-x,1/2+y,1/2-z
loop_
_atom_site_type_symbol
_atom_site_label
_atom_site_fract_x
_atom_site_fract_y
_atom_site_fract_z
Si Si1 0.091367 0.780233 0.624437
Si Si2 0.165822 0.234804 0.559469
Si Si3 0.595007 0.998796 0.423960
Si Si4 0.935975 0.523809 0.075973
O O1 0.144136 0.808978 0.770693
O O2 0.124461 0.649090 0.540880
O O3 0.102440 0.903530 0.515818
O O4 0.000000 0.750000 0.664387
O O5 0.250000 0.190508 0.500000
O O6 0.161109 0.392822 0.546703
O O7 0.104831 0.161669 0.453780
O O8 0.566284 0.000000 0.250000
O O9 0.525332 0.038765 0.532510
O O10 0.927235 0.500000 0.250000
#
# Coordination Sequence:
#
# PCOD8166069 Si02
#       4
#     8   8   8   8
#     4   9  19  40  66  85 109 151 197 243 291 341
#     4  11  22  37  58  85 116 154 193 231 285 352
#     4   9  19  39  63  85 110 149 197 242 292 343
#     4  11  22  36  59  89 116 148 193 244 289 336
#
# _framework density 20.545226
#
# number of rings (size 3 to 8) (size 9 to 14) (size 15 to 20)
#    0.000    2.000    0.000    6.000    0.000    8.000 
#    0.000   12.500    0.000    0.000    0.000    0.000 
#    0.000    0.000    0.000    0.000    0.000    0.000 
#
# Total GULP energy -198294.757717 kJ/mol
# GULP energy per Si atom -12393.422357 kJ/mol
# Density = 2.049846 g / cm^3
# Si number density = 20.545226 Si / 1000 Ang^3
#
#
#
# Elastic Constant Matrix: (Units=GPa)
#
#
# Indices 1 2 3 4 5 6 
#
# 1 55.0927 15.4267 51.7244 0.0000 0.0000 0.0000
# 2 15.4267 93.6033 39.1259 0.0000 0.0000 0.0000
# 3 51.7244 39.1259 118.2810 0.0000 0.0000 0.0000
# 4 0.0000 0.0000 0.0000 20.7811 0.0000 0.0000
# 5 0.0000 0.0000 0.0000 0.0000 14.3591 0.0000
# 6 0.0000 0.0000 0.0000 0.0000 0.0000 11.6188
#
#
#
# Elastic Compliance Matrix: (Units=1/GPa)
#
#
# Indices 1 2 3 4 5 6 
#
# 1 0.030828 0.000643 -0.013694 0.000000 0.000000 0.000000
# 2 0.000643 0.012411 -0.004387 0.000000 0.000000 0.000000
# 3 -0.013694 -0.004387 0.015894 0.000000 0.000000 0.000000
# 4 0.000000 0.000000 0.000000 0.048121 0.000000 0.000000
# 5 0.000000 0.000000 0.000000 0.000000 0.069642 0.000000
# 6 0.000000 0.000000 0.000000 0.000000 0.000000 0.086067
#
#
# Mechanical properties :
#
#
# Convention : Reuss Voigt Hill
#
# Bulk Modulus (GPa) = 41.22339 53.28120 47.25230
# Shear Modulus (GPa) = 16.34400 20.06514 18.20457
#
# Velocity S-wave (km/s) = 2.82354 3.12850 2.97993
# Velocity P-wave (km/s) = 5.54420 6.24820 5.90669
#
# Compressibility (1/GPa) = 0.02425807
#
# Stress axis : x y z
#
# Youngs Moduli (GPa) = 32.43845 80.57373 62.91769
#
# Poissons Ratio (x) = -0.05183 0.86158
# Poissons Ratio (y) = -0.02087 0.27600
# Poissons Ratio (z) = 0.44420 0.35345
#
# Static dielectric constant tensor:
#      x y z
#    x 3.293750 0.000000 0.000000 
#    y 0.000000 4.293210 0.000000 
#    z 0.000000 0.000000 3.566770 
# 
# 
# High freq. dielectric constant tensor:
#      x y z
#    x 1.762750 0.000000 0.000000 
#    y 0.000000 1.833450 0.000000 
#    z 0.000000 0.000000 1.789870 
# 
# From -- ./inp_files/10201.got.cif
#   From: 2010.03.12/outbox.cif.g09.slc.cpg/sg24_6_cif.got.tgz:10201.got - 2010.04.14 03:06:53.
