data_PCOD8166878
_publ_section_title
;
Structure prediction by ZEFSAII (Michael W. Deem and Ramdas Pophale) SiO2 
 PCOD8166878
Probable space group: P M M 2
;
_chemical_formula_sum "Si O2"
_cell_formula_units_Z 32
_cell_length_a 9.397106
_cell_length_b 9.836492
_cell_length_c 20.032590
_cell_angle_alpha 90.000000
_cell_angle_beta 90.000000
_cell_angle_gamma 90.000000
_cell_volume 1851.703602
_symmetry_space_group_name_H-M "P M M 2"
_symmetry_group_IT_number 25
_symmetry_cell_setting 'orthorhombic'
loop_
_space_group_symop_operation_xyz
x,y,z
-x,-y,z
-x,y,z
x,-y,z
loop_
_atom_site_type_symbol
_atom_site_label
_atom_site_fract_x
_atom_site_fract_y
_atom_site_fract_z
Si Si1 0.166974 0.653665 0.515350
Si Si2 0.833451 0.344647 0.364156
Si Si3 0.336707 0.842686 0.766841
Si Si4 0.334781 0.656930 0.997985
Si Si5 0.335692 0.841683 0.263751
Si Si6 0.330917 0.849443 0.114866
Si Si7 0.336725 0.154986 0.612373
Si Si8 0.166535 0.657700 0.865904
O O1 0.214902 0.500000 0.530763
O O2 0.210220 0.692329 0.439870
O O3 0.241224 0.751090 0.567180
O O4 0.000000 0.669344 0.524869
O O5 0.791322 0.500000 0.348298
O O6 0.752247 0.245335 0.315443
O O7 0.000000 0.322949 0.353742
O O8 0.500000 0.807883 0.785261
O O9 0.307912 0.812135 0.689524
O O10 0.229770 0.747708 0.806952
O O11 0.305167 0.000000 0.783489
O O12 0.500000 0.689355 0.983181
O O13 0.312192 0.500000 0.016150
O O14 0.274694 0.742424 0.060506
O O15 0.243862 0.700238 0.934091
O O16 0.500000 0.801197 0.270882
O O17 0.279205 0.808154 0.189010
O O18 0.313123 0.000000 0.279588
O O19 0.500000 0.851733 0.115673
O O20 0.273750 0.000000 0.096284
O O21 0.500000 0.182592 0.594555
O O22 0.295910 0.000000 0.596966
O O23 0.195600 0.500000 0.849324
O O24 0.000000 0.688016 0.873368
#
# Coordination Sequence:
#
# PCOD8166878 Si02
#       8
#     4   4   4   4   4   4   4   4
#     4   9  19  35  52  71  98 131 166 203 242 288
#     4   9  19  35  51  69  97 132 168 204 242 287
#     4   9  19  36  55  74  98 129 164 201 242 289
#     4   9  17  30  49  71  94 124 163 202 239 284
#     4   9  18  32  50  74 102 129 160 201 247 293
#     4   8  15  29  48  70  96 124 156 197 243 289
#     4   9  19  35  53  75 102 128 158 200 246 291
#     4  10  21  35  50  72 103 134 163 199 243 289
#
# _framework density 17.281382000000001
#
# number of rings (size 3 to 8) (size 9 to 14) (size 15 to 20)
#    0.000    3.000    0.000    2.625    0.000    5.000 
#    0.000   10.625    0.000    2.250    0.000    0.000 
#    0.000    0.000    0.000    0.000    0.000    0.000 
#
# Total GULP energy -396753.579385 kJ/mol
# GULP energy per Si atom -12398.549356 kJ/mol
# Density = 1.724205 g / cm^3
# Si number density = 17.281382 Si / 1000 Ang^3
#
#
#
# Elastic Constant Matrix: (Units=GPa)
#
#
# Indices 1 2 3 4 5 6 
#
# 1 55.7189 41.9224 47.7676 0.0000 0.0000 0.0000
# 2 41.9224 81.4890 68.5670 0.0000 0.0000 0.0000
# 3 47.7676 68.5670 106.1991 0.0000 0.0000 0.0000
# 4 0.0000 0.0000 0.0000 42.0173 0.0000 0.0000
# 5 0.0000 0.0000 0.0000 0.0000 -170.1264 0.0000
# 6 0.0000 0.0000 0.0000 0.0000 0.0000 31.3086
#
#
#
# Elastic Compliance Matrix: (Units=1/GPa)
#
#
# Indices 1 2 3 4 5 6 
#
# 1 0.032327 -0.009625 -0.008326 0.000000 0.000000 0.000000
# 2 -0.009625 0.029734 -0.014868 0.000000 0.000000 0.000000
# 3 -0.008326 -0.014868 0.022761 0.000000 0.000000 0.000000
# 4 0.000000 0.000000 0.000000 0.023800 0.000000 0.000000
# 5 0.000000 0.000000 0.000000 0.000000 -0.005878 0.000000
# 6 0.000000 0.000000 0.000000 0.000000 0.000000 0.031940
#
#
# Mechanical properties :
#
#
# Convention : Reuss Voigt Hill
#
# Bulk Modulus (GPa) = 52.12949 62.21345 57.17147
# Shear Modulus (GPa) = 24.18776 -13.68343 5.25216
#
# Velocity S-wave (km/s) = 3.74524 -2.81695 1.74522
# Velocity P-wave (km/s) = 6.99521 5.04957 6.10046
#
# Compressibility (1/GPa) = 0.01918300
#
# Stress axis : x y z
#
# Youngs Moduli (GPa) = 30.93402 33.63192 43.93490
#
# Poissons Ratio (x) = 0.32370 0.36581
# Poissons Ratio (y) = 0.29773 0.65323
# Poissons Ratio (z) = 0.25756 0.50005
#
# Static dielectric constant tensor:
#      x y z
#    x 3.049740 0.000000 0.000000 
#    y 0.000000 3.247350 0.000000 
#    z 0.000000 0.000000 3.455510 
# 
# 
# High freq. dielectric constant tensor:
#      x y z
#    x 1.651190 0.000000 0.000000 
#    y 0.000000 1.669640 0.000000 
#    z 0.000000 0.000000 1.673800 
# 
# From -- ./inp_files/6550.got.cif
#   From: 2010.03.12/outbox.cif.g09.slc.cpg/sg25_4_cif.got.tgz:6550.got - 2010.04.14 03:30:10.
