data_PCOD8166990
_publ_section_title
;
Structure prediction by ZEFSAII (Michael W. Deem and Ramdas Pophale) SiO2 
 PCOD8166990
Probable space group: P M M 2
;
_chemical_formula_sum "Si O2"
_cell_formula_units_Z 28
_cell_length_a 18.087308
_cell_length_b 8.763122
_cell_length_c 10.189861
_cell_angle_alpha 90.000000
_cell_angle_beta 90.000000
_cell_angle_gamma 90.000000
_cell_volume 1615.106079
_symmetry_space_group_name_H-M "P M M 2"
_symmetry_group_IT_number 25
_symmetry_cell_setting 'orthorhombic'
loop_
_space_group_symop_operation_xyz
x,y,z
-x,-y,z
-x,y,z
x,-y,z
loop_
_atom_site_type_symbol
_atom_site_label
_atom_site_fract_x
_atom_site_fract_y
_atom_site_fract_z
Si Si1 0.210870 0.674549 0.545430
Si Si2 0.363241 0.175163 0.162680
Si Si3 0.082533 0.677354 0.372494
Si Si4 0.413644 0.326419 0.425641
Si Si5 0.333990 0.177423 0.669739
Si Si6 0.414767 0.676342 0.903835
Si Si7 0.782415 0.824250 0.287748
O O1 0.228096 0.500000 0.577512
O O2 0.122681 0.700627 0.515981
O O3 0.246123 0.776959 0.661724
O O4 0.252007 0.726921 0.409704
O O5 0.395599 0.216802 0.303996
O O6 0.273318 0.196653 0.165567
O O7 0.383497 0.000000 0.131114
O O8 0.397971 0.284383 0.054420
O O9 0.079789 0.500000 0.335689
O O10 0.133488 0.762024 0.261850
O O11 0.000000 0.747116 0.376824
O O12 0.500000 0.317022 0.454019
O O13 0.389331 0.500000 0.394011
O O14 0.376006 0.273690 0.560270
O O15 0.363677 0.219214 0.813023
O O16 0.345033 0.000000 0.644693
O O17 0.500000 0.711532 0.873067
O O18 0.396280 0.500000 0.879348
O O19 0.787156 0.000000 0.330560
#
# Coordination Sequence:
#
# PCOD8166990 Si02
#       7
#     4   4   4   4   4   4   4
#     4   9  17  30  50  73 103 137 169 208 252 300
#     4  11  22  36  54  76 104 135 172 219 265 314
#     4   8  15  27  45  74 110 143 173 209 255 305
#     4  11  22  34  51  74  99 130 169 211 260 316
#     4  12  23  36  54  76 102 133 173 220 266 317
#     4  11  25  42  57  74 100 136 179 224 273 327
#     4   9  17  29  47  75 105 134 169 208 254 303
#
# _framework density 17.336323
#
# number of rings (size 3 to 8) (size 9 to 14) (size 15 to 20)
#    0.857    1.000    1.429    3.857    0.000    7.714 
#    0.000    0.000    0.000    0.000    0.000    1.000 
#    0.000    5.714    0.000    0.000    0.000    0.000 
#
# Total GULP energy -346922.620129 kJ/mol
# GULP energy per Si atom -12390.093576 kJ/mol
# Density = 1.729686 g / cm^3
# Si number density = 17.336323 Si / 1000 Ang^3
#
#
#
# Elastic Constant Matrix: (Units=GPa)
#
#
# Indices 1 2 3 4 5 6 
#
# 1 74.7721 39.9083 7.3980 0.0000 0.0000 0.0000
# 2 39.9083 74.2816 8.7458 0.0000 0.0000 0.0000
# 3 7.3980 8.7458 43.3229 0.0000 0.0000 0.0000
# 4 0.0000 0.0000 0.0000 27.2375 0.0000 0.0000
# 5 0.0000 0.0000 0.0000 0.0000 20.4067 0.0000
# 6 0.0000 0.0000 0.0000 0.0000 0.0000 21.4786
#
#
#
# Elastic Compliance Matrix: (Units=1/GPa)
#
#
# Indices 1 2 3 4 5 6 
#
# 1 0.018812 -0.009965 -0.001201 0.000000 0.000000 0.000000
# 2 -0.009965 0.019069 -0.002148 0.000000 0.000000 0.000000
# 3 -0.001201 -0.002148 0.023721 0.000000 0.000000 0.000000
# 4 0.000000 0.000000 0.000000 0.036714 0.000000 0.000000
# 5 0.000000 0.000000 0.000000 0.000000 0.049004 0.000000
# 6 0.000000 0.000000 0.000000 0.000000 0.000000 0.046558
#
#
# Mechanical properties :
#
#
# Convention : Reuss Voigt Hill
#
# Bulk Modulus (GPa) = 28.59243 33.83117 31.21180
# Shear Modulus (GPa) = 21.53659 22.91285 22.22472
#
# Velocity S-wave (km/s) = 3.52843 3.63942 3.58435
# Velocity P-wave (km/s) = 5.75572 6.10061 5.93067
#
# Compressibility (1/GPa) = 0.03497429
#
# Stress axis : x y z
#
# Youngs Moduli (GPa) = 53.15880 52.44090 42.15655
#
# Poissons Ratio (x) = 0.52259 0.05061
# Poissons Ratio (y) = 0.52974 0.09055
# Poissons Ratio (z) = 0.06382 0.11263
#
# Static dielectric constant tensor:
#      x y z
#    x 3.461610 0.000000 0.000000 
#    y 0.000000 3.287890 0.000000 
#    z 0.000000 0.000000 2.869170 
# 
# 
# High freq. dielectric constant tensor:
#      x y z
#    x 1.667870 0.000000 0.000000 
#    y 0.000000 1.684290 0.000000 
#    z 0.000000 0.000000 1.625250 
# 
# From -- ./inp_files/3561.got.cif
#   From: 2010.03.12/outbox.cif.g09.slc.cpg/sg25_2_cif.got.tgz:3561.got - 2010.04.14 03:30:10.
