data_PCOD8166185
_publ_section_title
;
Structure prediction by ZEFSAII (Michael W. Deem and Ramdas Pophale) SiO2 
 PCOD8166185
Probable space group: I 21 21 21
;
_chemical_formula_sum "Si O2"
_cell_formula_units_Z 48
_cell_length_a 9.319074
_cell_length_b 27.624628
_cell_length_c 8.523166
_cell_angle_alpha 90.000000
_cell_angle_beta 90.000000
_cell_angle_gamma 90.000000
_cell_volume 2194.169358
_symmetry_space_group_name_H-M "I 21 21 21"
_symmetry_group_IT_number 24
_symmetry_cell_setting 'orthorhombic'
loop_
_space_group_symop_operation_xyz
x,y,z
-x,1/2-y,z
x,-y,1/2-z
1/2-x,y,-z
1/2+x,1/2+y,1/2+z
1/2-x,-y,1/2+z
1/2+x,1/2-y,-z
-x,1/2+y,1/2-z
loop_
_atom_site_type_symbol
_atom_site_label
_atom_site_fract_x
_atom_site_fract_y
_atom_site_fract_z
Si Si1 0.912467 0.201170 0.941074
Si Si2 0.113264 0.971573 0.911189
Si Si3 0.901515 0.795316 0.925296
Si Si4 0.892058 0.023483 0.083837
Si Si5 0.891788 0.369343 0.454099
Si Si6 0.403468 0.114477 0.911571
O O1 0.899339 0.191277 0.756853
O O2 0.000000 0.250000 0.977894
O O3 0.750000 0.206021 0.000000
O O4 0.998762 0.158167 0.024791
O O5 0.112796 0.000000 0.750000
O O6 0.250000 0.994369 0.000000
O O7 0.122709 0.913326 0.917844
O O8 0.959794 0.978864 0.991771
O O9 0.000000 0.750000 0.960879
O O10 0.750000 0.783136 0.000000
O O11 0.961536 0.841334 0.018688
O O12 0.010762 0.064946 0.069004
O O13 0.853742 0.000000 0.250000
O O14 0.750000 0.043278 0.000000
O O15 0.750000 0.337334 0.500000
O O16 0.879740 0.383132 0.273283
O O17 0.250000 0.113512 0.000000
#
# Coordination Sequence:
#
# PCOD8166185 Si02
#       6
#     8   8   8   8   8   8
#     4  11  25  46  73 109 143 190 236 289 352 419
#     4  11  25  43  71 101 137 183 235 287 346 416
#     4  11  25  45  72 103 146 186 233 288 351 416
#     4  12  26  47  66  99 140 186 233 289 354 414
#     4  11  25  44  68 106 139 183 235 289 349 417
#     4  12  26  46  74 104 142 187 237 293 351 422
#
# _framework density 21.876159999999999
#
# number of rings (size 3 to 8) (size 9 to 14) (size 15 to 20)
#    0.000    0.667    1.667    5.000    9.333    6.000 
#    3.000    0.000    0.000    0.000    0.000    0.000 
#    0.000    0.000    0.000    0.000    0.000    0.000 
#
# Total GULP energy -297416.930155 kJ/mol
# GULP energy per Si atom -12392.372090 kJ/mol
# Density = 2.182637 g / cm^3
# Si number density = 21.876160 Si / 1000 Ang^3
#
#
#
# Elastic Constant Matrix: (Units=GPa)
#
#
# Indices 1 2 3 4 5 6 
#
# 1 185.8191 56.8127 65.6811 0.0019 0.0013 -0.0181
# 2 56.8127 97.6554 58.1214 0.0005 -0.0011 -0.0180
# 3 65.6811 58.1214 135.7170 0.0117 0.0047 -0.0666
# 4 0.0019 0.0005 0.0117 35.0503 -0.0006 -0.0243
# 5 0.0013 -0.0011 0.0047 -0.0006 42.3595 -0.0193
# 6 -0.0181 -0.0180 -0.0666 -0.0243 -0.0193 -38.5746
#
#
#
# Elastic Compliance Matrix: (Units=1/GPa)
#
#
# Indices 1 2 3 4 5 6 
#
# 1 0.007007 -0.002762 -0.002208 0.000000 0.000000 0.000002
# 2 -0.002762 0.014832 -0.005015 0.000002 0.000001 0.000003
# 3 -0.002208 -0.005015 0.010585 -0.000003 -0.000001 -0.000015
# 4 0.000000 0.000002 -0.000003 0.028530 0.000000 -0.000018
# 5 0.000000 0.000001 -0.000001 0.000000 0.023607 -0.000012
# 6 0.000002 0.000003 -0.000015 -0.000018 -0.000012 -0.025924
#
#
# Mechanical properties :
#
#
# Convention : Reuss Voigt Hill
#
# Bulk Modulus (GPa) = 80.30414 86.71355 83.50885
# Shear Modulus (GPa) = 60.41721 23.67214 42.04467
#
# Velocity S-wave (km/s) = 5.26097 3.29309 4.38875
# Velocity P-wave (km/s) = 8.58440 7.36096 7.99611
#
# Compressibility (1/GPa) = 0.01245266
#
# Stress axis : x y z
#
# Youngs Moduli (GPa) = 142.72455 67.42297 94.47729
#
# Poissons Ratio (x) = 0.18622 0.20861
# Poissons Ratio (y) = 0.39421 0.47381
# Poissons Ratio (z) = 0.31513 0.33813
#
# Static dielectric constant tensor:
#      x y z
#    x 4.470710 0.000000 0.000060 
#    y 0.000000 3.971100 0.000000 
#    z 0.000060 0.000000 4.130940 
# 
# 
# High freq. dielectric constant tensor:
#      x y z
#    x 1.885400 0.000000 0.000000 
#    y 0.000000 1.862270 0.000000 
#    z 0.000000 0.000000 1.872010 
# 
# From -- ./inp_files/9721.got.cif
#   From: 2010.03.12/outbox.cif.g09.slc.cpg/sg24_5_cif.got.tgz:9721.got - 2010.04.14 03:06:53.
