data_PCOD8166176
_publ_section_title
;
Structure prediction by ZEFSAII (Michael W. Deem and Ramdas Pophale) SiO2 
 PCOD8166176
Probable space group: I 21 21 21
;
_chemical_formula_sum "Si O2"
_cell_formula_units_Z 28
_cell_length_a 9.048276
_cell_length_b 10.460138
_cell_length_c 12.092729
_cell_angle_alpha 90.000000
_cell_angle_beta 90.000000
_cell_angle_gamma 90.000000
_cell_volume 1144.531036
_symmetry_space_group_name_H-M "I 21 21 21"
_symmetry_group_IT_number 24
_symmetry_cell_setting 'orthorhombic'
loop_
_space_group_symop_operation_xyz
x,y,z
-x,1/2-y,z
x,-y,1/2-z
1/2-x,y,-z
1/2+x,1/2+y,1/2+z
1/2-x,-y,1/2+z
1/2+x,1/2-y,-z
-x,1/2+y,1/2-z
loop_
_atom_site_type_symbol
_atom_site_label
_atom_site_fract_x
_atom_site_fract_y
_atom_site_fract_z
Si Si1 0.085594 0.921120 0.648440
Si Si2 0.536123 0.000000 0.750000
Si Si3 0.770673 0.832183 0.624451
Si Si4 0.914015 0.379610 0.465459
O O1 0.219922 0.823154 0.619773
O O2 0.927519 0.862185 0.681701
O O3 0.150562 0.000000 0.750000
O O4 0.037057 0.006294 0.544554
O O5 0.638843 0.112331 0.801321
O O6 0.433660 0.069444 0.659531
O O7 0.750000 0.884715 0.500000
O O8 0.750000 0.342905 0.500000
O O9 0.000000 0.250000 0.487509
#
# Coordination Sequence:
#
# PCOD8166176 Si02
#       4
#     8   4   8   8
#     4  11  26  45  79 118 166 206 264 324 402 475
#     4  12  28  54  84 116 164 212 274 328 404 476
#     4  11  24  48  81 118 160 214 263 325 397 480
#     4  12  32  51  82 118 163 209 271 333 406 477
#
# _framework density 24.464171
#
# number of rings (size 3 to 8) (size 9 to 14) (size 15 to 20)
#    0.000    0.571    4.286    0.857   14.000    2.286 
#    0.000    0.000    0.000    0.000    0.000    0.000 
#    0.000    0.000    0.000    0.000    0.000    0.000 
#
# Total GULP energy -173511.557313 kJ/mol
# GULP energy per Si atom -12393.682665 kJ/mol
# Density = 2.440849 g / cm^3
# Si number density = 24.464171 Si / 1000 Ang^3
#
#
#
# Elastic Constant Matrix: (Units=GPa)
#
#
# Indices 1 2 3 4 5 6 
#
# 1 140.7170 58.6414 59.5496 0.0000 0.0000 0.0000
# 2 58.6414 152.8739 73.1160 0.0000 0.0000 0.0000
# 3 59.5496 73.1160 169.7315 0.0000 0.0000 0.0000
# 4 0.0000 0.0000 0.0000 47.9415 0.0000 0.0000
# 5 0.0000 0.0000 0.0000 0.0000 20.5565 0.0000
# 6 0.0000 0.0000 0.0000 0.0000 0.0000 30.9688
#
#
#
# Elastic Compliance Matrix: (Units=1/GPa)
#
#
# Indices 1 2 3 4 5 6 
#
# 1 0.009021 -0.002452 -0.002109 0.000000 0.000000 0.000000
# 2 -0.002452 0.008905 -0.002976 0.000000 0.000000 0.000000
# 3 -0.002109 -0.002976 0.007913 0.000000 0.000000 0.000000
# 4 0.000000 0.000000 0.000000 0.020859 0.000000 0.000000
# 5 0.000000 0.000000 0.000000 0.000000 0.048646 0.000000
# 6 0.000000 0.000000 0.000000 0.000000 0.000000 0.032291
#
#
# Mechanical properties :
#
#
# Convention : Reuss Voigt Hill
#
# Bulk Modulus (GPa) = 92.88098 93.99294 93.43696
# Shear Modulus (GPa) = 34.17725 38.02774 36.10249
#
# Velocity S-wave (km/s) = 3.74175 3.94690 3.84569
# Velocity P-wave (km/s) = 7.53101 7.69901 7.61547
#
# Compressibility (1/GPa) = 0.01076647
#
# Stress axis : x y z
#
# Youngs Moduli (GPa) = 110.85830 112.29521 126.36724
#
# Poissons Ratio (x) = 0.27531 0.26647
# Poissons Ratio (y) = 0.27179 0.37606
# Poissons Ratio (z) = 0.23377 0.33418
#
# Static dielectric constant tensor:
#      x y z
#    x 4.348670 0.000000 0.000000 
#    y 0.000000 4.744110 0.000000 
#    z 0.000000 0.000000 4.364600 
# 
# 
# High freq. dielectric constant tensor:
#      x y z
#    x 1.979260 0.000000 0.000000 
#    y 0.000000 1.985600 0.000000 
#    z 0.000000 0.000000 1.975570 
# 
# From -- ./inp_files/24268.got.cif
#   From: 2010.03.12/outbox.cif.g09.slc.cpg/sg24_13_cif.got.tgz:24268.got - 2010.04.14 03:06:53.
