data_PCOD8166025
_publ_section_title
;
Structure prediction by ZEFSAII (Michael W. Deem and Ramdas Pophale) SiO2 
 PCOD8166025
Probable space group: I 21 21 21
;
_chemical_formula_sum "Si O2"
_cell_formula_units_Z 36
_cell_length_a 12.207707
_cell_length_b 15.545380
_cell_length_c 8.636742
_cell_angle_alpha 90.000000
_cell_angle_beta 90.000000
_cell_angle_gamma 90.000000
_cell_volume 1639.024276
_symmetry_space_group_name_H-M "I 21 21 21"
_symmetry_group_IT_number 24
_symmetry_cell_setting 'orthorhombic'
loop_
_space_group_symop_operation_xyz
x,y,z
-x,1/2-y,z
x,-y,1/2-z
1/2-x,y,-z
1/2+x,1/2+y,1/2+z
1/2-x,-y,1/2+z
1/2+x,1/2-y,-z
-x,1/2+y,1/2-z
loop_
_atom_site_type_symbol
_atom_site_label
_atom_site_fract_x
_atom_site_fract_y
_atom_site_fract_z
Si Si1 0.238860 0.332586 0.825715
Si Si2 0.174186 0.814912 0.875289
Si Si3 0.000000 0.750000 0.088864
Si Si4 0.999905 0.351868 0.858079
Si Si5 0.532493 0.093131 0.805446
O O1 0.254186 0.245412 0.726761
O O2 0.120718 0.378046 0.794755
O O3 0.335342 0.400752 0.796446
O O4 0.250000 0.298901 0.000000
O O5 0.096063 0.875797 0.767065
O O6 0.250000 0.867939 0.000000
O O7 0.102640 0.746550 0.972904
O O8 0.015009 0.834760 0.192317
O O9 0.000000 0.250000 0.885294
O O10 0.980871 0.396692 0.023196
O O11 0.494218 0.000000 0.750000
#
# Coordination Sequence:
#
# PCOD8166025 Si02
#       5
#     8   8   4   8   8
#     4   9  18  35  57  92 130 173 211 266 342 411
#     4  11  20  35  64  98 128 175 227 279 330 406
#     4  12  22  38  64  96 132 170 228 276 336 408
#     4   9  18  38  61  89 137 180 216 266 341 411
#     4  11  23  40  63  97 136 177 222 278 344 412
#
# _framework density 21.964288
#
# number of rings (size 3 to 8) (size 9 to 14) (size 15 to 20)
#    0.000    1.778    6.667    0.000    0.000    0.000 
#   12.000    1.111    0.000    2.667    0.000    0.000 
#    0.000    0.000    0.000    0.000    0.000    0.000 
#
# Total GULP energy -223000.065693 kJ/mol
# GULP energy per Si atom -12388.892538 kJ/mol
# Density = 2.191430 g / cm^3
# Si number density = 21.964288 Si / 1000 Ang^3
#
#
#
# Elastic Constant Matrix: (Units=GPa)
#
#
# Indices 1 2 3 4 5 6 
#
# 1 88.7344 15.9493 60.1903 0.0000 0.0000 0.0000
# 2 15.9493 83.9949 42.3403 0.0000 0.0000 0.0000
# 3 60.1903 42.3403 147.9574 0.0000 0.0000 0.0000
# 4 0.0000 0.0000 0.0000 12.1119 0.0000 0.0000
# 5 0.0000 0.0000 0.0000 0.0000 52.6511 0.0000
# 6 0.0000 0.0000 0.0000 0.0000 0.0000 16.7495
#
#
#
# Elastic Compliance Matrix: (Units=1/GPa)
#
#
# Indices 1 2 3 4 5 6 
#
# 1 0.015570 0.000276 -0.006413 0.000000 0.000000 0.000000
# 2 0.000276 0.013917 -0.004095 0.000000 0.000000 0.000000
# 3 -0.006413 -0.004095 0.010539 0.000000 0.000000 0.000000
# 4 0.000000 0.000000 0.000000 0.082563 0.000000 0.000000
# 5 0.000000 0.000000 0.000000 0.000000 0.018993 0.000000
# 6 0.000000 0.000000 0.000000 0.000000 0.000000 0.059703
#
#
# Mechanical properties :
#
#
# Convention : Reuss Voigt Hill
#
# Bulk Modulus (GPa) = 51.11688 61.96073 56.53881
# Shear Modulus (GPa) = 21.90380 29.78297 25.84338
#
# Velocity S-wave (km/s) = 3.16135 3.68635 3.43390
# Velocity P-wave (km/s) = 6.05382 6.81101 6.44355
#
# Compressibility (1/GPa) = 0.01956301
#
# Stress axis : x y z
#
# Youngs Moduli (GPa) = 64.22591 71.85330 94.88176
#
# Poissons Ratio (x) = -0.01985 0.60848
# Poissons Ratio (y) = -0.01774 0.38854
# Poissons Ratio (z) = 0.41188 0.29424
#
# Static dielectric constant tensor:
#      x y z
#    x 4.504650 0.000000 0.000000 
#    y 0.000000 3.149680 0.000000 
#    z 0.000000 0.000000 4.400640 
# 
# 
# High freq. dielectric constant tensor:
#      x y z
#    x 1.874150 0.000000 0.000000 
#    y 0.000000 1.781140 0.000000 
#    z 0.000000 0.000000 1.891590 
# 
# From -- ./inp_files/12233.got.cif
#   From: 2010.03.12/outbox.cif.g09.slc.cpg/sg24_7_cif.got.tgz:12233.got - 2010.04.14 03:06:53.
