data_PCOD8166328
_publ_section_title
;
Structure prediction by ZEFSAII (Michael W. Deem and Ramdas Pophale) SiO2 
 PCOD8166328
Probable space group: P M M 2
;
_chemical_formula_sum "Si O2"
_cell_formula_units_Z 32
_cell_length_a 8.993180
_cell_length_b 18.483566
_cell_length_c 13.036901
_cell_angle_alpha 90.000000
_cell_angle_beta 90.000000
_cell_angle_gamma 90.000000
_cell_volume 2167.072376
_symmetry_space_group_name_H-M "P M M 2"
_symmetry_group_IT_number 25
_symmetry_cell_setting 'orthorhombic'
loop_
_space_group_symop_operation_xyz
x,y,z
-x,-y,z
-x,y,z
x,-y,z
loop_
_atom_site_type_symbol
_atom_site_label
_atom_site_fract_x
_atom_site_fract_y
_atom_site_fract_z
Si Si1 0.673442 0.415846 0.935810
Si Si2 0.823518 0.207916 0.044845
Si Si3 0.328709 0.214339 0.842626
Si Si4 0.325246 0.667841 0.140975
Si Si5 0.174734 0.582739 0.546025
Si Si6 0.675069 0.417678 0.340742
Si Si7 0.175938 0.335211 0.747991
Si Si8 0.671718 0.081018 0.959025
O O1 0.500000 0.403251 0.914203
O O2 0.714206 0.500000 0.940346
O O3 0.764555 0.380735 0.843368
O O4 0.719532 0.382583 0.045425
O O5 0.763422 0.255474 0.139406
O O6 0.000000 0.208380 0.038931
O O7 0.748803 0.246878 0.945445
O O8 0.764646 0.124104 0.047076
O O9 0.500000 0.237914 0.840534
O O10 0.242993 0.252892 0.748949
O O11 0.312141 0.126256 0.850813
O O12 0.500000 0.684073 0.142989
O O13 0.271012 0.628634 0.244030
O O14 0.223475 0.500000 0.565038
O O15 0.251007 0.614033 0.443745
O O16 0.231021 0.628734 0.642824
O O17 0.000000 0.589658 0.531916
O O18 0.500000 0.413170 0.354044
O O19 0.727600 0.500000 0.322801
O O20 0.000000 0.331354 0.753722
O O21 0.500000 0.079231 0.993094
O O22 0.734781 0.000000 0.944237
#
# Coordination Sequence:
#
# PCOD8166328 Si02
#       8
#     4   4   4   4   4   4   4   4
#     4  10  19  28  40  59  82 111 143 174 216 267
#     4  10  18  27  41  64  90 117 146 176 210 255
#     4   9  17  29  43  61  86 117 146 175 211 256
#     4  10  18  30  45  61  87 117 144 181 226 267
#     4   9  19  34  47  60  83 114 147 188 236 276
#     4   9  18  32  49  66  82 107 150 197 233 269
#     4  11  20  30  44  62  86 115 146 183 224 265
#     4   8  15  28  44  62  89 124 153 176 208 252
#
# _framework density 14.766465
#
# number of rings (size 3 to 8) (size 9 to 14) (size 15 to 20)
#    0.750    1.750    1.250    2.250    0.000    4.000 
#    0.000    1.250    0.000    2.250    0.000    0.000 
#    0.000    1.000    0.000    5.500    0.000    3.750 
#
# Total GULP energy -396488.098497 kJ/mol
# GULP energy per Si atom -12390.253078 kJ/mol
# Density = 1.473286 g / cm^3
# Si number density = 14.766465 Si / 1000 Ang^3
#
#
#
# Elastic Constant Matrix: (Units=GPa)
#
#
# Indices 1 2 3 4 5 6 
#
# 1 60.1746 38.0410 39.2798 0.0000 0.0000 0.0000
# 2 38.0410 110.5840 55.9862 0.0000 0.0000 0.0000
# 3 39.2798 55.9862 101.6968 0.0000 0.0000 0.0000
# 4 0.0000 0.0000 0.0000 16.0930 0.0000 0.0000
# 5 0.0000 0.0000 0.0000 0.0000 20.3633 0.0000
# 6 0.0000 0.0000 0.0000 0.0000 0.0000 18.5458
#
#
#
# Elastic Compliance Matrix: (Units=1/GPa)
#
#
# Indices 1 2 3 4 5 6 
#
# 1 0.024024 -0.004945 -0.006557 0.000000 0.000000 0.000000
# 2 -0.004945 0.013555 -0.005552 0.000000 0.000000 0.000000
# 3 -0.006557 -0.005552 0.015423 0.000000 0.000000 0.000000
# 4 0.000000 0.000000 0.000000 0.062139 0.000000 0.000000
# 5 0.000000 0.000000 0.000000 0.000000 0.049108 0.000000
# 6 0.000000 0.000000 0.000000 0.000000 0.000000 0.053921
#
#
# Mechanical properties :
#
#
# Convention : Reuss Voigt Hill
#
# Bulk Modulus (GPa) = 52.92845 59.89658 56.41251
# Shear Modulus (GPa) = 19.33670 20.27698 19.80684
#
# Velocity S-wave (km/s) = 3.62263 3.70966 3.66640
# Velocity P-wave (km/s) = 7.30886 7.68111 7.49729
#
# Compressibility (1/GPa) = 0.01889343
#
# Stress axis : x y z
#
# Youngs Moduli (GPa) = 41.62418 73.77380 64.84015
#
# Poissons Ratio (x) = 0.36479 0.42517
# Poissons Ratio (y) = 0.20582 0.36002
# Poissons Ratio (z) = 0.27294 0.40962
#
# Static dielectric constant tensor:
#      x y z
#    x 2.802090 0.000000 0.000000 
#    y 0.000000 2.927030 0.000000 
#    z 0.000000 0.000000 2.740420 
# 
# 
# High freq. dielectric constant tensor:
#      x y z
#    x 1.568320 0.000000 0.000000 
#    y 0.000000 1.553650 0.000000 
#    z 0.000000 0.000000 1.532900 
# 
# From -- ./inp_files/4491.got.cif
#   From: 2010.03.12/outbox.cif.g09.slc.cpg/sg25_3_cif.got.tgz:4491.got - 2010.04.14 03:30:10.
