data_PCOD8166163
_publ_section_title
;
Structure prediction by ZEFSAII (Michael W. Deem and Ramdas Pophale) SiO2 
 PCOD8166163
Probable space group: I 21 21 21
;
_chemical_formula_sum "Si O2"
_cell_formula_units_Z 36
_cell_length_a 25.985292
_cell_length_b 5.193470
_cell_length_c 11.286068
_cell_angle_alpha 90.000000
_cell_angle_beta 90.000000
_cell_angle_gamma 90.000000
_cell_volume 1523.098152
_symmetry_space_group_name_H-M "I 21 21 21"
_symmetry_group_IT_number 24
_symmetry_cell_setting 'orthorhombic'
loop_
_space_group_symop_operation_xyz
x,y,z
-x,1/2-y,z
x,-y,1/2-z
1/2-x,y,-z
1/2+x,1/2+y,1/2+z
1/2-x,-y,1/2+z
1/2+x,1/2-y,-z
-x,1/2+y,1/2-z
loop_
_atom_site_type_symbol
_atom_site_label
_atom_site_fract_x
_atom_site_fract_y
_atom_site_fract_z
Si Si1 0.470912 0.000000 0.750000
Si Si2 0.032930 0.500000 0.750000
Si Si3 0.383674 0.151946 0.585885
Si Si4 0.199692 0.000000 0.250000
Si Si5 0.619568 0.148310 0.071168
Si Si6 0.233347 0.365790 0.870796
O O1 0.500000 0.750000 0.695507
O O2 0.438823 0.864992 0.853359
O O3 0.068970 0.635958 0.652146
O O4 0.000000 0.250000 0.703226
O O5 0.381331 0.394542 0.504295
O O6 0.339002 0.195810 0.683314
O O7 0.377655 0.894809 0.510748
O O8 0.235840 0.901618 0.358081
O O9 0.672246 0.158479 0.146097
O O10 0.254327 0.500000 0.750000
O O11 0.250000 0.486337 0.000000
#
# Coordination Sequence:
#
# PCOD8166163 Si02
#       6
#     4   4   8   4   8   8
#     4  11  24  44  74 108 140 188 248 319 388 458
#     4  12  28  49  74 106 146 197 260 324 384 458
#     4  11  26  46  73 104 152 191 251 315 387 464
#     4  11  26  43  72 110 152 201 254 309 392 462
#     4  12  26  48  72 108 146 201 253 317 383 467
#     4  12  26  46  77 111 158 206 259 318 389 470
#
# _framework density 23.636033999999999
#
# number of rings (size 3 to 8) (size 9 to 14) (size 15 to 20)
#    0.000    0.444    3.333    4.000    3.111    8.889 
#    0.000    0.000    0.000    0.000    0.000    0.000 
#    0.000    0.000    0.000    0.000    0.000    0.000 
#
# Total GULP energy -222987.464854 kJ/mol
# GULP energy per Si atom -12388.192492 kJ/mol
# Density = 2.358224 g / cm^3
# Si number density = 23.636034 Si / 1000 Ang^3
#
#
#
# Elastic Constant Matrix: (Units=GPa)
#
#
# Indices 1 2 3 4 5 6 
#
# 1 157.4894 39.7429 41.7075 0.0000 0.0000 0.0000
# 2 39.7429 131.6895 33.1223 0.0000 0.0000 0.0000
# 3 41.7075 33.1223 127.7202 0.0000 0.0000 0.0000
# 4 0.0000 0.0000 0.0000 33.9695 0.0000 0.0000
# 5 0.0000 0.0000 0.0000 0.0000 63.3290 0.0000
# 6 0.0000 0.0000 0.0000 0.0000 0.0000 -29.0947
#
#
#
# Elastic Compliance Matrix: (Units=1/GPa)
#
#
# Indices 1 2 3 4 5 6 
#
# 1 0.007295 -0.001714 -0.001938 0.000000 0.000000 0.000000
# 2 -0.001714 0.008526 -0.001651 0.000000 0.000000 0.000000
# 3 -0.001938 -0.001651 0.008891 0.000000 0.000000 0.000000
# 4 0.000000 0.000000 0.000000 0.029438 0.000000 0.000000
# 5 0.000000 0.000000 0.000000 0.000000 0.015791 0.000000
# 6 0.000000 0.000000 0.000000 0.000000 0.000000 -0.034371
#
#
# Mechanical properties :
#
#
# Convention : Reuss Voigt Hill
#
# Bulk Modulus (GPa) = 70.89420 71.78271 71.33845
# Shear Modulus (GPa) = 98.27182 33.79587 66.03384
#
# Velocity S-wave (km/s) = 6.45503 3.78543 5.29135
# Velocity P-wave (km/s) = 9.25288 7.03860 8.22064
#
# Compressibility (1/GPa) = 0.01410553
#
# Stress axis : x y z
#
# Youngs Moduli (GPa) = 137.07238 117.28369 112.47767
#
# Poissons Ratio (x) = 0.20106 0.21795
# Poissons Ratio (y) = 0.23499 0.18574
# Poissons Ratio (z) = 0.26561 0.19368
#
# Static dielectric constant tensor:
#      x y z
#    x 4.648840 0.000000 0.000000 
#    y 0.000000 4.345690 0.000000 
#    z 0.000000 0.000000 6.537000 
# 
# 
# High freq. dielectric constant tensor:
#      x y z
#    x 1.961420 0.000000 0.000000 
#    y 0.000000 1.932160 0.000000 
#    z 0.000000 0.000000 1.939800 
# 
# From -- ./inp_files/22467.got.cif
#   From: 2010.03.12/outbox.cif.g09.slc.cpg/sg24_12_cif.got.tgz:22467.got - 2010.04.14 03:06:53.
