data_PCOD8166440
_publ_section_title
;
Structure prediction by ZEFSAII (Michael W. Deem and Ramdas Pophale) SiO2 
 PCOD8166440
Probable space group: P M M 2
;
_chemical_formula_sum "Si O2"
_cell_formula_units_Z 32
_cell_length_a 9.058580
_cell_length_b 14.200951
_cell_length_c 15.585851
_cell_angle_alpha 90.000000
_cell_angle_beta 90.000000
_cell_angle_gamma 90.000000
_cell_volume 2004.970897
_symmetry_space_group_name_H-M "P M M 2"
_symmetry_group_IT_number 25
_symmetry_cell_setting 'orthorhombic'
loop_
_space_group_symop_operation_xyz
x,y,z
-x,-y,z
-x,y,z
x,-y,z
loop_
_atom_site_type_symbol
_atom_site_label
_atom_site_fract_x
_atom_site_fract_y
_atom_site_fract_z
Si Si1 0.172295 0.110018 0.225660
Si Si2 0.666267 0.888128 0.056555
Si Si3 0.671844 0.795549 0.727960
Si Si4 0.170042 0.111214 0.569594
Si Si5 0.669034 0.604757 0.646383
Si Si6 0.826318 0.109113 0.885659
Si Si7 0.825525 0.793369 0.395735
Si Si8 0.174164 0.603441 0.470906
O O1 0.255682 0.150292 0.142306
O O2 0.240289 0.163653 0.308274
O O3 0.000000 0.130625 0.212513
O O4 0.202065 0.000000 0.239585
O O5 0.500000 0.848846 0.052261
O O6 0.668695 0.000000 0.058739
O O7 0.754800 0.852762 0.973440
O O8 0.500000 0.819254 0.741620
O O9 0.727236 0.848248 0.643585
O O10 0.698919 0.683036 0.719057
O O11 0.763681 0.829155 0.809033
O O12 0.230771 0.149868 0.478883
O O13 0.000000 0.142025 0.585317
O O14 0.184868 0.000000 0.569021
O O15 0.500000 0.609019 0.616195
O O16 0.708236 0.500000 0.682028
O O17 0.765694 0.630096 0.564030
O O18 0.000000 0.123670 0.892084
O O19 0.786041 0.000000 0.869122
O O20 0.776510 0.683627 0.403313
O O21 0.000000 0.804985 0.391060
O O22 0.231403 0.500000 0.440907
O O23 0.000000 0.603568 0.479974
#
# Coordination Sequence:
#
# PCOD8166440 Si02
#       8
#     4   4   4   4   4   4   4   4
#     4   9  16  27  44  64  87 118 153 184 218 266
#     4   9  17  30  47  67  91 116 144 185 231 267
#     4  11  21  31  45  66  91 120 152 188 229 269
#     4  10  19  30  43  60  88 126 161 188 217 260
#     4   9  18  32  47  63  86 117 152 189 230 274
#     4  10  20  33  49  68  91 121 154 185 220 269
#     4   9  16  27  43  64  89 118 153 189 223 264
#     4   9  16  27  45  66  86 112 150 196 237 267
#
# _framework density 15.960331999999999
#
# number of rings (size 3 to 8) (size 9 to 14) (size 15 to 20)
#    0.000    2.500    1.250    1.875    0.000    6.000 
#    0.000    1.250    0.000    1.500    0.000    0.875 
#    0.000    3.000    0.000    0.000    0.000    0.000 
#
# Total GULP energy -396714.985775 kJ/mol
# GULP energy per Si atom -12397.343305 kJ/mol
# Density = 1.592401 g / cm^3
# Si number density = 15.960332 Si / 1000 Ang^3
#
#
#
# Elastic Constant Matrix: (Units=GPa)
#
#
# Indices 1 2 3 4 5 6 
#
# 1 52.9717 31.2167 41.4266 0.0000 0.0000 0.0000
# 2 31.2167 78.0871 53.6028 0.0000 0.0000 0.0000
# 3 41.4266 53.6028 134.1702 0.0000 0.0000 0.0000
# 4 0.0000 0.0000 0.0000 8.5211 0.0000 0.0000
# 5 0.0000 0.0000 0.0000 0.0000 3.5330 0.0000
# 6 0.0000 0.0000 0.0000 0.0000 0.0000 16.2167
#
#
#
# Elastic Compliance Matrix: (Units=1/GPa)
#
#
# Indices 1 2 3 4 5 6 
#
# 1 0.027484 -0.007113 -0.005644 0.000000 0.000000 0.000000
# 2 -0.007113 0.019486 -0.005589 0.000000 0.000000 0.000000
# 3 -0.005644 -0.005589 0.011429 0.000000 0.000000 0.000000
# 4 0.000000 0.000000 0.000000 0.117356 0.000000 0.000000
# 5 0.000000 0.000000 0.000000 0.000000 0.283049 0.000000
# 6 0.000000 0.000000 0.000000 0.000000 0.000000 0.061665
#
#
# Mechanical properties :
#
#
# Convention : Reuss Voigt Hill
#
# Bulk Modulus (GPa) = 46.06804 57.52457 51.79631
# Shear Modulus (GPa) = 8.85905 14.91968 11.88936
#
# Velocity S-wave (km/s) = 2.35854 3.06076 2.73231
# Velocity P-wave (km/s) = 6.02857 6.97219 6.51748
#
# Compressibility (1/GPa) = 0.02170702
#
# Stress axis : x y z
#
# Youngs Moduli (GPa) = 36.38530 51.31878 87.49820
#
# Poissons Ratio (x) = 0.36501 0.49387
# Poissons Ratio (y) = 0.25879 0.48902
# Poissons Ratio (z) = 0.20537 0.28681
#
# Static dielectric constant tensor:
#      x y z
#    x 3.015630 0.000000 0.000000 
#    y 0.000000 3.173570 0.000000 
#    z 0.000000 0.000000 3.094930 
# 
# 
# High freq. dielectric constant tensor:
#      x y z
#    x 1.608400 0.000000 0.000000 
#    y 0.000000 1.597210 0.000000 
#    z 0.000000 0.000000 1.602270 
# 
# From -- ./inp_files/5663.got.cif
#   From: 2010.03.12/outbox.cif.g09.slc.cpg/sg25_3_cif.got.tgz:5663.got - 2010.04.14 03:30:10.
