data_PCOD8166915
_publ_section_title
;
Structure prediction by ZEFSAII (Michael W. Deem and Ramdas Pophale) SiO2 
 PCOD8166915
Probable space group: P M M 2
;
_chemical_formula_sum "Si O2"
_cell_formula_units_Z 32
_cell_length_a 13.794517
_cell_length_b 9.189929
_cell_length_c 12.866324
_cell_angle_alpha 90.000000
_cell_angle_beta 90.000000
_cell_angle_gamma 90.000000
_cell_volume 1631.072023
_symmetry_space_group_name_H-M "P M M 2"
_symmetry_group_IT_number 25
_symmetry_cell_setting 'orthorhombic'
loop_
_space_group_symop_operation_xyz
x,y,z
-x,-y,z
-x,y,z
x,-y,z
loop_
_atom_site_type_symbol
_atom_site_label
_atom_site_fract_x
_atom_site_fract_y
_atom_site_fract_z
Si Si1 0.384567 0.836821 0.438820
Si Si2 0.886945 0.668530 0.765236
Si Si3 0.386835 0.668509 0.043397
Si Si4 0.725205 0.172809 0.864021
Si Si5 0.393287 0.171268 0.667179
Si Si6 0.285111 0.330551 0.258547
Si Si7 0.109524 0.829281 0.332814
Si Si8 0.885092 0.839681 0.564342
O O1 0.500000 0.832719 0.444302
O O2 0.345031 0.794228 0.554443
O O3 0.347396 0.722479 0.355912
O O4 0.349402 0.000000 0.408554
O O5 0.860600 0.500000 0.772099
O O6 0.831970 0.755668 0.856867
O O7 0.853049 0.725553 0.651782
O O8 0.000000 0.697930 0.782688
O O9 0.500000 0.707514 0.041753
O O10 0.369074 0.500000 0.015283
O O11 0.345646 0.706749 0.156264
O O12 0.331804 0.770994 0.963379
O O13 0.671600 0.231616 0.760627
O O14 0.734198 0.000000 0.870712
O O15 0.500000 0.243571 0.676197
O O16 0.404673 0.000000 0.679684
O O17 0.265965 0.500000 0.270699
O O18 0.180515 0.251888 0.252731
O O19 0.151540 0.795607 0.448997
O O20 0.000000 0.769647 0.318305
O O21 0.111644 0.000000 0.310390
O O22 0.000000 0.849049 0.554761
O O23 0.844438 0.000000 0.595800
#
# Coordination Sequence:
#
# PCOD8166915 Si02
#       8
#     4   4   4   4   4   4   4   4
#     4   9  18  34  56  81 112 150 188 228 281 346
#     4  10  21  36  54  80 118 159 196 235 282 341
#     4  10  23  44  64  82 112 153 194 239 291 347
#     4  11  22  36  60  89 114 145 193 246 292 343
#     4   8  16  32  53  80 113 144 176 223 284 343
#     4  11  23  37  57  85 116 151 193 239 289 346
#     4   9  19  36  57  82 115 154 196 241 287 338
#     4   8  15  30  52  77 108 149 193 235 279 328
#
# _framework density 19.618998000000001
#
# number of rings (size 3 to 8) (size 9 to 14) (size 15 to 20)
#    0.000    2.500    0.000    3.375    1.750    4.000 
#    0.000    2.500    0.000    2.250    0.000    0.000 
#    0.000    0.000    0.000    0.000    0.000    0.000 
#
# Total GULP energy -396774.393746 kJ/mol
# GULP energy per Si atom -12399.199805 kJ/mol
# Density = 1.957434 g / cm^3
# Si number density = 19.618998 Si / 1000 Ang^3
#
#
#
# Elastic Constant Matrix: (Units=GPa)
#
#
# Indices 1 2 3 4 5 6 
#
# 1 66.8732 51.3066 44.1232 0.0000 0.0000 0.0000
# 2 51.3066 90.2083 56.6853 0.0000 0.0000 0.0000
# 3 44.1232 56.6853 100.3719 0.0000 0.0000 0.0000
# 4 0.0000 0.0000 0.0000 30.9367 0.0000 0.0000
# 5 0.0000 0.0000 0.0000 0.0000 36.2725 0.0000
# 6 0.0000 0.0000 0.0000 0.0000 0.0000 29.3326
#
#
#
# Elastic Compliance Matrix: (Units=1/GPa)
#
#
# Indices 1 2 3 4 5 6 
#
# 1 0.028160 -0.012769 -0.005168 0.000000 0.000000 0.000000
# 2 -0.012769 0.022973 -0.007361 0.000000 0.000000 0.000000
# 3 -0.005168 -0.007361 0.016392 0.000000 0.000000 0.000000
# 4 0.000000 0.000000 0.000000 0.032324 0.000000 0.000000
# 5 0.000000 0.000000 0.000000 0.000000 0.027569 0.000000
# 6 0.000000 0.000000 0.000000 0.000000 0.000000 0.034092
#
#
# Mechanical properties :
#
#
# Convention : Reuss Voigt Hill
#
# Bulk Modulus (GPa) = 59.06771 62.40932 60.73852
# Shear Modulus (GPa) = 22.96222 26.33091 24.64656
#
# Velocity S-wave (km/s) = 3.42483 3.66746 3.54822
# Velocity P-wave (km/s) = 6.76846 7.05786 6.91468
#
# Compressibility (1/GPa) = 0.01692972
#
# Stress axis : x y z
#
# Youngs Moduli (GPa) = 35.51152 43.52854 61.00557
#
# Poissons Ratio (x) = 0.55581 0.31526
# Poissons Ratio (y) = 0.45344 0.44907
# Poissons Ratio (z) = 0.18352 0.32042
#
# Static dielectric constant tensor:
#      x y z
#    x 3.811830 0.000000 0.000000 
#    y 0.000000 3.376910 0.000000 
#    z 0.000000 0.000000 3.532580 
# 
# 
# High freq. dielectric constant tensor:
#      x y z
#    x 1.781640 0.000000 0.000000 
#    y 0.000000 1.744540 0.000000 
#    z 0.000000 0.000000 1.749540 
# 
# From -- ./inp_files/4270.got.cif
#   From: 2010.03.12/outbox.cif.g09.slc.cpg/sg25_3_cif.got.tgz:4270.got - 2010.04.14 03:30:10.
