data_PCOD8166570
_publ_section_title
;
Structure prediction by ZEFSAII (Michael W. Deem and Ramdas Pophale) SiO2 
 PCOD8166570
Probable space group: P M M 2
;
_chemical_formula_sum "Si O2"
_cell_formula_units_Z 32
_cell_length_a 9.289661
_cell_length_b 15.143751
_cell_length_c 14.760854
_cell_angle_alpha 90.000000
_cell_angle_beta 90.000000
_cell_angle_gamma 90.000000
_cell_volume 2076.561562
_symmetry_space_group_name_H-M "P M M 2"
_symmetry_group_IT_number 25
_symmetry_cell_setting 'orthorhombic'
loop_
_space_group_symop_operation_xyz
x,y,z
-x,-y,z
-x,y,z
x,-y,z
loop_
_atom_site_type_symbol
_atom_site_label
_atom_site_fract_x
_atom_site_fract_y
_atom_site_fract_z
Si Si1 0.338133 0.597655 0.491250
Si Si2 0.161627 0.104998 0.787878
Si Si3 0.338636 0.597080 0.275995
Si Si4 0.331938 0.103671 0.611047
Si Si5 0.660158 0.105140 0.955870
Si Si6 0.165432 0.765171 0.489653
Si Si7 0.668348 0.101662 0.157676
Si Si8 0.835874 0.762731 0.274880
O O1 0.500000 0.618347 0.525714
O O2 0.289670 0.500000 0.525802
O O3 0.336250 0.598117 0.383643
O O4 0.229731 0.672678 0.527735
O O5 0.258607 0.136498 0.703964
O O6 0.230429 0.143007 0.880672
O O7 0.000000 0.142738 0.777656
O O8 0.158733 0.000000 0.791749
O O9 0.500000 0.617129 0.241269
O O10 0.288676 0.500000 0.241615
O O11 0.232822 0.671751 0.237532
O O12 0.500000 0.127423 0.614782
O O13 0.256087 0.153391 0.528388
O O14 0.307595 0.000000 0.595515
O O15 0.500000 0.141447 0.934790
O O16 0.655467 0.000000 0.952593
O O17 0.709451 0.134707 0.056342
O O18 0.180362 0.770580 0.382190
O O19 0.000000 0.771875 0.520800
O O20 0.500000 0.115847 0.175246
O O21 0.756854 0.154549 0.231598
O O22 0.711127 0.000000 0.169870
O O23 0.000000 0.763327 0.243748
#
# Coordination Sequence:
#
# PCOD8166570 Si02
#       8
#     4   4   4   4   4   4   4   4
#     4   8  14  26  44  63  81 103 134 172 212 253
#     4   9  16  26  42  63  84 105 130 166 214 260
#     4   8  14  26  44  62  79 103 136 173 212 253
#     4  10  20  32  45  60  80 111 149 183 212 246
#     4   8  14  26  43  61  80 103 134 172 212 251
#     4  10  20  31  42  59  85 115 145 178 215 253
#     4   9  18  31  45  60  81 113 150 183 211 243
#     4  10  20  30  41  60  86 115 144 177 216 254
#
# _framework density 15.410088999999999
#
# number of rings (size 3 to 8) (size 9 to 14) (size 15 to 20)
#    0.000    3.000    0.000    3.000    0.000    5.500 
#    0.000    6.250    0.000    0.000    0.000    0.000 
#    0.000    1.000    0.000    8.750    0.000    5.625 
#
# Total GULP energy -396651.645865 kJ/mol
# GULP energy per Si atom -12395.363933 kJ/mol
# Density = 1.537501 g / cm^3
# Si number density = 15.410089 Si / 1000 Ang^3
#
#
#
# Elastic Constant Matrix: (Units=GPa)
#
#
# Indices 1 2 3 4 5 6 
#
# 1 114.1350 57.1007 38.7126 0.0000 0.0000 0.0000
# 2 57.1007 74.4124 30.4688 0.0000 0.0000 0.0000
# 3 38.7126 30.4688 39.5487 0.0000 0.0000 0.0000
# 4 0.0000 0.0000 0.0000 1.0979 0.0000 0.0000
# 5 0.0000 0.0000 0.0000 0.0000 23.9323 0.0000
# 6 0.0000 0.0000 0.0000 0.0000 0.0000 21.5290
#
#
#
# Elastic Compliance Matrix: (Units=1/GPa)
#
#
# Indices 1 2 3 4 5 6 
#
# 1 0.016224 -0.008688 -0.009188 0.000000 0.000000 0.000000
# 2 -0.008688 0.024283 -0.010204 0.000000 0.000000 0.000000
# 3 -0.009188 -0.010204 0.042141 0.000000 0.000000 0.000000
# 4 0.000000 0.000000 0.000000 0.910837 0.000000 0.000000
# 5 0.000000 0.000000 0.000000 0.000000 0.041784 0.000000
# 6 0.000000 0.000000 0.000000 0.000000 0.000000 0.046449
#
#
# Mechanical properties :
#
#
# Convention : Reuss Voigt Hill
#
# Bulk Modulus (GPa) = 37.75265 53.40668 45.57967
# Shear Modulus (GPa) = 4.36030 16.09944 10.22987
#
# Velocity S-wave (km/s) = 1.68394 3.23574 2.57931
# Velocity P-wave (km/s) = 5.32285 6.97798 6.20584
#
# Compressibility (1/GPa) = 0.02648821
#
# Stress axis : x y z
#
# Youngs Moduli (GPa) = 61.63545 41.18051 23.72997
#
# Poissons Ratio (x) = 0.35776 0.21804
# Poissons Ratio (y) = 0.53547 0.24214
# Poissons Ratio (z) = 0.56633 0.42021
#
# Static dielectric constant tensor:
#      x y z
#    x 3.151970 0.000000 0.000000 
#    y 0.000000 2.899750 0.000000 
#    z 0.000000 0.000000 2.770630 
# 
# 
# High freq. dielectric constant tensor:
#      x y z
#    x 1.601720 0.000000 0.000000 
#    y 0.000000 1.564330 0.000000 
#    z 0.000000 0.000000 1.559010 
# 
# From -- ./inp_files/5700.got.cif
#   From: 2010.03.12/outbox.cif.g09.slc.cpg/sg25_3_cif.got.tgz:5700.got - 2010.04.14 03:30:10.
