data_PCOD8166208
_publ_section_title
;
Structure prediction by ZEFSAII (Michael W. Deem and Ramdas Pophale) SiO2 
 PCOD8166208
Probable space group: I 21 21 21
;
_chemical_formula_sum "Si O2"
_cell_formula_units_Z 28
_cell_length_a 11.782106
_cell_length_b 8.235628
_cell_length_c 15.421393
_cell_angle_alpha 90.000000
_cell_angle_beta 90.000000
_cell_angle_gamma 90.000000
_cell_volume 1496.384676
_symmetry_space_group_name_H-M "I 21 21 21"
_symmetry_group_IT_number 24
_symmetry_cell_setting 'orthorhombic'
loop_
_space_group_symop_operation_xyz
x,y,z
-x,1/2-y,z
x,-y,1/2-z
1/2-x,y,-z
1/2+x,1/2+y,1/2+z
1/2-x,-y,1/2+z
1/2+x,1/2-y,-z
-x,1/2+y,1/2-z
loop_
_atom_site_type_symbol
_atom_site_label
_atom_site_fract_x
_atom_site_fract_y
_atom_site_fract_z
Si Si1 0.500000 0.250000 0.659334
Si Si2 0.141595 0.486836 0.055579
Si Si3 0.263199 0.818689 0.398231
Si Si4 0.650428 0.500000 0.750000
Si Si5 0.500000 0.250000 0.058172
O O1 0.416971 0.362506 0.602554
O O2 0.575171 0.348866 0.725523
O O3 0.193312 0.348318 0.119958
O O4 0.250000 0.550947 0.000000
O O5 0.042152 0.401827 0.999877
O O6 0.250000 0.866769 0.500000
O O7 0.396921 0.801021 0.379434
O O8 0.223737 0.959826 0.334826
#
# Coordination Sequence:
#
# PCOD8166208 Si02
#       5
#     4   8   8   4   4
#     4  12  22  35  52  83 116 142 184 231 272 321
#     4   9  19  35  59  83 108 144 181 224 275 330
#     4   9  19  38  58  80 108 144 184 224 278 330
#     4  12  24  34  56  84 112 148 184 228 272 326
#     4   8  16  37  60  77 108 146 176 223 278 323
#
# _framework density 18.711766999999998
#
# number of rings (size 3 to 8) (size 9 to 14) (size 15 to 20)
#    0.000    2.857    0.000    5.143    0.000    4.571 
#    0.000    5.714    0.000    1.714    0.000    0.000 
#    0.000    0.000    0.000    0.000    0.000    0.000 
#
# Total GULP energy -173454.948717 kJ/mol
# GULP energy per Si atom -12389.639194 kJ/mol
# Density = 1.866918 g / cm^3
# Si number density = 18.711767 Si / 1000 Ang^3
#
#
#
# Elastic Constant Matrix: (Units=GPa)
#
#
# Indices 1 2 3 4 5 6 
#
# 1 141.8329 63.7182 49.4830 0.0000 0.0000 0.0000
# 2 63.7182 101.5470 59.5313 0.0000 0.0000 0.0000
# 3 49.4830 59.5313 93.7203 0.0000 0.0000 0.0000
# 4 0.0000 0.0000 0.0000 13.4808 0.0000 0.0000
# 5 0.0000 0.0000 0.0000 0.0000 16.1837 0.0000
# 6 0.0000 0.0000 0.0000 0.0000 0.0000 41.5971
#
#
#
# Elastic Compliance Matrix: (Units=1/GPa)
#
#
# Indices 1 2 3 4 5 6 
#
# 1 0.010065 -0.005099 -0.002075 0.000000 0.000000 0.000000
# 2 -0.005099 0.018274 -0.008915 0.000000 0.000000 0.000000
# 3 -0.002075 -0.008915 0.017429 0.000000 0.000000 0.000000
# 4 0.000000 0.000000 0.000000 0.074180 0.000000 0.000000
# 5 0.000000 0.000000 0.000000 0.000000 0.061790 0.000000
# 6 0.000000 0.000000 0.000000 0.000000 0.000000 0.024040
#
#
# Mechanical properties :
#
#
# Convention : Reuss Voigt Hill
#
# Bulk Modulus (GPa) = 73.59218 75.84057 74.71638
# Shear Modulus (GPa) = 20.61964 25.21016 22.91490
#
# Velocity S-wave (km/s) = 3.32318 3.67453 3.50326
# Velocity P-wave (km/s) = 7.35795 7.65649 7.50870
#
# Compressibility (1/GPa) = 0.01358840
#
# Stress axis : x y z
#
# Youngs Moduli (GPa) = 99.35049 54.72346 57.37612
#
# Poissons Ratio (x) = 0.27904 0.11908
# Poissons Ratio (y) = 0.50659 0.51152
# Poissons Ratio (z) = 0.20620 0.48787
#
# Static dielectric constant tensor:
#      x y z
#    x 3.854480 0.000000 0.000000 
#    y 0.000000 3.340400 0.000000 
#    z 0.000000 0.000000 3.145980 
# 
# 
# High freq. dielectric constant tensor:
#      x y z
#    x 1.751740 0.000000 0.000000 
#    y 0.000000 1.716530 0.000000 
#    z 0.000000 0.000000 1.700050 
# 
# From -- ./inp_files/10169.got.cif
#   From: 2010.03.12/outbox.cif.g09.slc.cpg/sg24_6_cif.got.tgz:10169.got - 2010.04.14 03:06:53.
