data_PCOD8166431
_publ_section_title
;
Structure prediction by ZEFSAII (Michael W. Deem and Ramdas Pophale) SiO2 
 PCOD8166431
Probable space group: P M M 2
;
_chemical_formula_sum "Si O2"
_cell_formula_units_Z 24
_cell_length_a 9.086162
_cell_length_b 13.722834
_cell_length_c 12.922823
_cell_angle_alpha 90.000000
_cell_angle_beta 90.000000
_cell_angle_gamma 90.000000
_cell_volume 1611.319569
_symmetry_space_group_name_H-M "P M M 2"
_symmetry_group_IT_number 25
_symmetry_cell_setting 'orthorhombic'
loop_
_space_group_symop_operation_xyz
x,y,z
-x,-y,z
-x,y,z
x,-y,z
loop_
_atom_site_type_symbol
_atom_site_label
_atom_site_fract_x
_atom_site_fract_y
_atom_site_fract_z
Si Si1 0.337712 0.115466 0.066550
Si Si2 0.829296 0.113830 0.266522
Si Si3 0.667003 0.609153 0.570614
Si Si4 0.332829 0.792245 0.455621
Si Si5 0.671036 0.113452 0.836179
Si Si6 0.174010 0.222429 0.655646
O O1 0.500000 0.156349 0.094630
O O2 0.222928 0.150367 0.153530
O O3 0.345244 0.000000 0.062688
O O4 0.290540 0.150943 0.952196
O O5 0.744213 0.175516 0.351304
O O6 0.000000 0.136486 0.276980
O O7 0.793969 0.000000 0.282549
O O8 0.500000 0.606309 0.613358
O O9 0.726253 0.500000 0.549671
O O10 0.671489 0.673374 0.464268
O O11 0.769731 0.664589 0.654934
O O12 0.500000 0.831644 0.456823
O O13 0.247127 0.834271 0.557042
O O14 0.500000 0.133291 0.810788
O O15 0.776049 0.172948 0.761019
O O16 0.708029 0.000000 0.823627
O O17 0.000000 0.217993 0.645406
#
# Coordination Sequence:
#
# PCOD8166431 Si02
#       6
#     4   4   4   4   4   4
#     4   8  15  28  45  62  81 113 156 190 214 248
#     4  10  19  29  42  63  92 121 148 182 221 259
#     4   8  16  32  50  66  85 111 145 182 218 262
#     4   9  18  31  46  64  86 115 150 181 217 262
#     4   9  17  30  46  63  87 121 157 187 215 253
#     4  10  19  29  43  67  94 116 144 179 224 270
#
# _framework density 14.894624
#
# number of rings (size 3 to 8) (size 9 to 14) (size 15 to 20)
#    1.000    2.000    0.000    3.000    0.000    3.000 
#    0.000    1.667    0.000    0.000    0.000    1.167 
#    0.000    4.000    0.000    0.000    0.000    0.000 
#
# Total GULP energy -297328.364853 kJ/mol
# GULP energy per Si atom -12388.681869 kJ/mol
# Density = 1.486072 g / cm^3
# Si number density = 14.894624 Si / 1000 Ang^3
#
#
#
# Elastic Constant Matrix: (Units=GPa)
#
#
# Indices 1 2 3 4 5 6 
#
# 1 111.9770 43.0926 64.6352 0.0000 0.0000 0.0000
# 2 43.0926 55.3957 40.3217 0.0000 0.0000 0.0000
# 3 64.6352 40.3217 109.6665 0.0000 0.0000 0.0000
# 4 0.0000 0.0000 0.0000 -1.6776 0.0000 0.0000
# 5 0.0000 0.0000 0.0000 0.0000 23.0451 0.0000
# 6 0.0000 0.0000 0.0000 0.0000 0.0000 15.1807
#
#
#
# Elastic Compliance Matrix: (Units=1/GPa)
#
#
# Indices 1 2 3 4 5 6 
#
# 1 0.015462 -0.007366 -0.006405 0.000000 0.000000 0.000000
# 2 -0.007366 0.028158 -0.006011 0.000000 0.000000 0.000000
# 3 -0.006405 -0.006011 0.015104 0.000000 0.000000 0.000000
# 4 0.000000 0.000000 0.000000 -0.596084 0.000000 0.000000
# 5 0.000000 0.000000 0.000000 0.000000 0.043393 0.000000
# 6 0.000000 0.000000 0.000000 0.000000 0.000000 0.065873
#
#
# Mechanical properties :
#
#
# Convention : Reuss Voigt Hill
#
# Bulk Modulus (GPa) = 52.19520 63.68202 57.93861
# Shear Modulus (GPa) = -13.08409 15.90896 1.41243
#
# Velocity S-wave (km/s) = -2.96707 3.27173 0.97485
# Velocity P-wave (km/s) = 4.83539 7.55779 6.34433
#
# Compressibility (1/GPa) = 0.01915885
#
# Stress axis : x y z
#
# Youngs Moduli (GPa) = 64.67458 35.51420 66.20937
#
# Poissons Ratio (x) = 0.26160 0.42405
# Poissons Ratio (y) = 0.47640 0.39802
# Poissons Ratio (z) = 0.41422 0.21349
#
# Static dielectric constant tensor:
#      x y z
#    x 2.954150 0.000000 0.000000 
#    y 0.000000 2.605610 0.000000 
#    z 0.000000 0.000000 2.878690 
# 
# 
# High freq. dielectric constant tensor:
#      x y z
#    x 1.578480 0.000000 0.000000 
#    y 0.000000 1.527770 0.000000 
#    z 0.000000 0.000000 1.563130 
# 
# From -- ./inp_files/4309.got.cif
#   From: 2010.03.12/outbox.cif.g09.slc.cpg/sg25_3_cif.got.tgz:4309.got - 2010.04.14 03:30:10.
