data_PCOD8166444
_publ_section_title
;
Structure prediction by ZEFSAII (Michael W. Deem and Ramdas Pophale) SiO2 
 PCOD8166444
Probable space group: P M M 2
;
_chemical_formula_sum "Si O2"
_cell_formula_units_Z 32
_cell_length_a 9.315437
_cell_length_b 14.169933
_cell_length_c 15.404095
_cell_angle_alpha 90.000000
_cell_angle_beta 90.000000
_cell_angle_gamma 90.000000
_cell_volume 2033.326956
_symmetry_space_group_name_H-M "P M M 2"
_symmetry_group_IT_number 25
_symmetry_cell_setting 'orthorhombic'
loop_
_space_group_symop_operation_xyz
x,y,z
-x,-y,z
-x,y,z
x,-y,z
loop_
_atom_site_type_symbol
_atom_site_label
_atom_site_fract_x
_atom_site_fract_y
_atom_site_fract_z
Si Si1 0.667812 0.702371 0.598640
Si Si2 0.166385 0.611212 0.441157
Si Si3 0.658797 0.611881 0.276617
Si Si4 0.165952 0.104571 0.848316
Si Si5 0.335298 0.104712 0.676319
Si Si6 0.834056 0.707865 0.935108
Si Si7 0.669386 0.393300 0.084249
Si Si8 0.835080 0.611224 0.755623
O O1 0.500000 0.676895 0.591458
O O2 0.749035 0.666257 0.514598
O O3 0.692577 0.815687 0.603517
O O4 0.730531 0.653051 0.683653
O O5 0.189981 0.500000 0.454991
O O6 0.227579 0.645862 0.348470
O O7 0.000000 0.638288 0.445634
O O8 0.500000 0.652783 0.298468
O O9 0.648596 0.500000 0.275123
O O10 0.709251 0.644478 0.180783
O O11 0.247182 0.132459 0.761113
O O12 0.200169 0.180979 0.922486
O O13 0.000000 0.108994 0.823049
O O14 0.210150 0.000000 0.881685
O O15 0.500000 0.105763 0.705183
O O16 0.291860 0.000000 0.641181
O O17 0.788870 0.651564 0.848822
O O18 0.000000 0.689587 0.956393
O O19 0.742110 0.675353 0.016124
O O20 0.500000 0.390334 0.070799
O O21 0.726443 0.500000 0.070524
O O22 0.814605 0.500000 0.757813
O O23 0.000000 0.638704 0.734022
#
# Coordination Sequence:
#
# PCOD8166444 Si02
#       8
#     4   4   4   4   4   4   4   4
#     4  11  21  31  46  67  90 120 155 188 225 271
#     4  10  20  32  47  68  94 123 153 186 224 268
#     4   8  15  30  49  67  89 117 150 190 231 267
#     4   9  17  30  48  67  87 115 152 193 234 272
#     4   9  18  32  48  66  88 114 148 192 236 272
#     4  10  19  30  45  66  92 122 155 189 227 271
#     4   9  18  31  47  68  94 123 154 188 225 267
#     4  10  20  32  43  59  90 127 158 188 221 259
#
# _framework density 15.737754000000001
#
# number of rings (size 3 to 8) (size 9 to 14) (size 15 to 20)
#    0.000    2.500    1.250    2.250    0.000    5.250 
#    0.000    1.250    0.000    0.000    0.000    0.875 
#    0.000    1.000    0.000    0.000    0.000    0.000 
#
# Total GULP energy -396713.296530 kJ/mol
# GULP energy per Si atom -12397.290517 kJ/mol
# Density = 1.570193 g / cm^3
# Si number density = 15.737754 Si / 1000 Ang^3
#
#
#
# Elastic Constant Matrix: (Units=GPa)
#
#
# Indices 1 2 3 4 5 6 
#
# 1 80.5359 43.7288 68.0084 0.0000 0.0000 0.0000
# 2 43.7288 77.8328 54.9876 0.0000 0.0000 0.0000
# 3 68.0084 54.9876 126.6743 0.0000 0.0000 0.0000
# 4 0.0000 0.0000 0.0000 6.5016 0.0000 0.0000
# 5 0.0000 0.0000 0.0000 0.0000 35.2180 0.0000
# 6 0.0000 0.0000 0.0000 0.0000 0.0000 19.8572
#
#
#
# Elastic Compliance Matrix: (Units=1/GPa)
#
#
# Indices 1 2 3 4 5 6 
#
# 1 0.024824 -0.006536 -0.010490 0.000000 0.000000 0.000000
# 2 -0.006536 0.020252 -0.005282 0.000000 0.000000 0.000000
# 3 -0.010490 -0.005282 0.015819 0.000000 0.000000 0.000000
# 4 0.000000 0.000000 0.000000 0.153808 0.000000 0.000000
# 5 0.000000 0.000000 0.000000 0.000000 0.028395 0.000000
# 6 0.000000 0.000000 0.000000 0.000000 0.000000 0.050359
#
#
# Mechanical properties :
#
#
# Convention : Reuss Voigt Hill
#
# Bulk Modulus (GPa) = 61.43028 68.72138 65.07583
# Shear Modulus (GPa) = 14.55604 20.20325 17.37965
#
# Velocity S-wave (km/s) = 3.04454 3.58682 3.32675
# Velocity P-wave (km/s) = 7.17477 7.80481 7.49642
#
# Compressibility (1/GPa) = 0.01627862
#
# Stress axis : x y z
#
# Youngs Moduli (GPa) = 40.28343 49.37854 63.21402
#
# Poissons Ratio (x) = 0.32272 0.66314
# Poissons Ratio (y) = 0.26328 0.33391
# Poissons Ratio (z) = 0.42259 0.26083
#
# Static dielectric constant tensor:
#      x y z
#    x 2.977410 0.000000 0.000000 
#    y 0.000000 3.123920 0.000000 
#    z 0.000000 0.000000 3.024920 
# 
# 
# High freq. dielectric constant tensor:
#      x y z
#    x 1.610360 0.000000 0.000000 
#    y 0.000000 1.589830 0.000000 
#    z 0.000000 0.000000 1.589790 
# 
# From -- ./inp_files/5694.got.cif
#   From: 2010.03.12/outbox.cif.g09.slc.cpg/sg25_3_cif.got.tgz:5694.got - 2010.04.14 03:30:10.
