data_PCOD8166490
_publ_section_title
;
Structure prediction by ZEFSAII (Michael W. Deem and Ramdas Pophale) SiO2 
 PCOD8166490
Probable space group: P M M 2
;
_chemical_formula_sum "Si O2"
_cell_formula_units_Z 32
_cell_length_a 8.897780
_cell_length_b 14.440178
_cell_length_c 12.463993
_cell_angle_alpha 90.000000
_cell_angle_beta 90.000000
_cell_angle_gamma 90.000000
_cell_volume 1601.442709
_symmetry_space_group_name_H-M "P M M 2"
_symmetry_group_IT_number 25
_symmetry_cell_setting 'orthorhombic'
loop_
_space_group_symop_operation_xyz
x,y,z
-x,-y,z
-x,y,z
x,-y,z
loop_
_atom_site_type_symbol
_atom_site_label
_atom_site_fract_x
_atom_site_fract_y
_atom_site_fract_z
Si Si1 0.323659 0.702886 0.808450
Si Si2 0.325298 0.895416 0.316343
Si Si3 0.822569 0.719718 0.397470
Si Si4 0.330005 0.602120 0.222044
Si Si5 0.322671 0.607241 0.589400
Si Si6 0.830611 0.860193 0.094211
Si Si7 0.169659 0.651917 0.022100
Si Si8 0.328178 0.900281 0.881569
O O1 0.500000 0.688037 0.824902
O O2 0.269373 0.656598 0.698527
O O3 0.279759 0.812817 0.807633
O O4 0.239075 0.650268 0.903692
O O5 0.500000 0.870168 0.319493
O O6 0.239324 0.824768 0.395780
O O7 0.270332 0.887440 0.194566
O O8 0.296580 0.000000 0.357963
O O9 0.776906 0.670954 0.286703
O O10 0.757050 0.661025 0.494378
O O11 0.000000 0.723168 0.406713
O O12 0.500000 0.641445 0.221795
O O13 0.327442 0.500000 0.275551
O O14 0.269734 0.589480 0.100781
O O15 0.500000 0.616056 0.572837
O O16 0.272396 0.500000 0.591077
O O17 0.824739 0.751845 0.075240
O O18 0.000000 0.894128 0.116417
O O19 0.769827 0.909422 0.988226
O O20 0.000000 0.613717 0.014979
O O21 0.500000 0.884735 0.917139
O O22 0.309755 0.000000 0.820263
#
# Coordination Sequence:
#
# PCOD8166490 Si02
#       8
#     4   4   4   4   4   4   4   4
#     4   9  19  36  58  83 114 152 198 251 298 349
#     4  11  23  38  59  86 117 157 201 242 288 348
#     4  12  25  41  62  88 119 153 192 246 306 360
#     4  11  23  38  59  86 117 156 198 241 295 360
#     4  10  22  42  66  88 112 150 202 255 306 362
#     4  10  19  31  50  80 118 159 198 239 287 341
#     4  10  20  34  54  84 122 160 194 238 298 355
#     4   9  17  30  50  78 113 154 197 239 288 347
#
# _framework density 19.981981999999999
#
# number of rings (size 3 to 8) (size 9 to 14) (size 15 to 20)
#    0.000    1.750    1.250    3.375    0.000    7.500 
#    0.000    1.875    0.000    2.250    0.000    0.000 
#    0.000    0.000    0.000    0.000    0.000    0.000 
#
# Total GULP energy -396756.997850 kJ/mol
# GULP energy per Si atom -12398.656183 kJ/mol
# Density = 1.993650 g / cm^3
# Si number density = 19.981982 Si / 1000 Ang^3
#
#
#
# Elastic Constant Matrix: (Units=GPa)
#
#
# Indices 1 2 3 4 5 6 
#
# 1 72.4407 46.2714 49.4949 0.0000 0.0000 0.0000
# 2 46.2714 132.4076 62.0087 0.0000 0.0000 0.0000
# 3 49.4949 62.0087 117.7012 0.0000 0.0000 0.0000
# 4 0.0000 0.0000 0.0000 17.8946 0.0000 0.0000
# 5 0.0000 0.0000 0.0000 0.0000 16.1225 0.0000
# 6 0.0000 0.0000 0.0000 0.0000 0.0000 10.5498
#
#
#
# Elastic Compliance Matrix: (Units=1/GPa)
#
#
# Indices 1 2 3 4 5 6 
#
# 1 0.021036 -0.004259 -0.006602 0.000000 0.000000 0.000000
# 2 -0.004259 0.010889 -0.003945 0.000000 0.000000 0.000000
# 3 -0.006602 -0.003945 0.013351 0.000000 0.000000 0.000000
# 4 0.000000 0.000000 0.000000 0.055883 0.000000 0.000000
# 5 0.000000 0.000000 0.000000 0.000000 0.062025 0.000000
# 6 0.000000 0.000000 0.000000 0.000000 0.000000 0.094788
#
#
# Mechanical properties :
#
#
# Convention : Reuss Voigt Hill
#
# Bulk Modulus (GPa) = 63.84883 70.89994 67.37438
# Shear Modulus (GPa) = 17.07621 19.89836 18.48729
#
# Velocity S-wave (km/s) = 2.92649 3.15908 3.04501
# Velocity P-wave (km/s) = 6.59103 6.99037 6.79364
#
# Compressibility (1/GPa) = 0.01566199
#
# Stress axis : x y z
#
# Youngs Moduli (GPa) = 47.53808 91.83915 74.90222
#
# Poissons Ratio (x) = 0.39119 0.49449
# Poissons Ratio (y) = 0.20249 0.29551
# Poissons Ratio (z) = 0.31384 0.36233
#
# Static dielectric constant tensor:
#      x y z
#    x 3.679540 0.000000 0.000000 
#    y 0.000000 3.909610 0.000000 
#    z 0.000000 0.000000 3.466260 
# 
# 
# High freq. dielectric constant tensor:
#      x y z
#    x 1.781340 0.000000 0.000000 
#    y 0.000000 1.795980 0.000000 
#    z 0.000000 0.000000 1.753110 
# 
# From -- ./inp_files/4158.got.cif
#   From: 2010.03.12/outbox.cif.g09.slc.cpg/sg25_3_cif.got.tgz:4158.got - 2010.04.14 03:30:10.
