data_PCOD8166525
_publ_section_title
;
Structure prediction by ZEFSAII (Michael W. Deem and Ramdas Pophale) SiO2 
 PCOD8166525
Probable space group: P M M 2
;
_chemical_formula_sum "Si O2"
_cell_formula_units_Z 32
_cell_length_a 13.870618
_cell_length_b 13.785410
_cell_length_c 9.043410
_cell_angle_alpha 90.000000
_cell_angle_beta 90.000000
_cell_angle_gamma 90.000000
_cell_volume 1729.209924
_symmetry_space_group_name_H-M "P M M 2"
_symmetry_group_IT_number 25
_symmetry_cell_setting 'orthorhombic'
loop_
_space_group_symop_operation_xyz
x,y,z
-x,-y,z
-x,y,z
x,-y,z
loop_
_atom_site_type_symbol
_atom_site_label
_atom_site_fract_x
_atom_site_fract_y
_atom_site_fract_z
Si Si1 0.394477 0.269556 0.413020
Si Si2 0.654217 0.606879 0.672158
Si Si3 0.744556 0.613026 0.222112
Si Si4 0.258354 0.276577 0.926557
Si Si5 0.144931 0.604939 0.506690
Si Si6 0.281187 0.890560 0.561251
Si Si7 0.388287 0.889986 0.866721
Si Si8 0.893496 0.781083 0.690661
O O1 0.500000 0.232899 0.361351
O O2 0.411260 0.326000 0.568299
O O3 0.352939 0.340694 0.287922
O O4 0.321472 0.178850 0.432324
O O5 0.608210 0.500000 0.694689
O O6 0.670018 0.656267 0.830598
O O7 0.754173 0.598548 0.588275
O O8 0.724627 0.500000 0.190915
O O9 0.834317 0.627155 0.334076
O O10 0.773679 0.667247 0.072308
O O11 0.320156 0.179708 0.965659
O O12 0.159485 0.251488 0.840922
O O13 0.092076 0.500000 0.521481
O O14 0.084822 0.690015 0.582387
O O15 0.354610 0.880511 0.697289
O O16 0.173171 0.859535 0.607678
O O17 0.276953 0.000000 0.500945
O O18 0.500000 0.859177 0.878179
O O19 0.373649 0.000000 0.923035
O O20 0.000000 0.824534 0.727512
#
# Coordination Sequence:
#
# PCOD8166525 Si02
#       8
#     4   4   4   4   4   4   4   4
#     4  11  20  34  54  79 109 147 190 229 273 327
#     4   9  16  29  49  73 102 136 179 226 269 318
#     4  10  20  35  54  75 113 157 185 217 268 328
#     4  10  19  33  52  80 111 146 180 227 275 324
#     4   8  15  31  52  74 102 140 178 215 266 321
#     4  10  19  34  56  83 108 136 178 232 287 329
#     4   9  17  31  52  76 104 139 179 224 274 325
#     4  10  19  35  58  85 110 137 181 234 283 328
#
# _framework density 18.505561
#
# number of rings (size 3 to 8) (size 9 to 14) (size 15 to 20)
#    0.000    2.375    5.000    1.875    0.000    3.250 
#    0.000    1.250    0.000    3.000    0.000    0.000 
#    0.000    0.000    0.000    0.000    0.000    0.000 
#
# Total GULP energy -396588.112209 kJ/mol
# GULP energy per Si atom -12393.378507 kJ/mol
# Density = 1.846344 g / cm^3
# Si number density = 18.505561 Si / 1000 Ang^3
#
#
#
# Elastic Constant Matrix: (Units=GPa)
#
#
# Indices 1 2 3 4 5 6 
#
# 1 115.1100 43.2826 22.8122 0.0000 0.0000 0.0000
# 2 43.2826 124.7447 30.7834 0.0000 0.0000 0.0000
# 3 22.8122 30.7834 66.9345 0.0000 0.0000 0.0000
# 4 0.0000 0.0000 0.0000 24.3802 0.0000 0.0000
# 5 0.0000 0.0000 0.0000 0.0000 8.8289 0.0000
# 6 0.0000 0.0000 0.0000 0.0000 0.0000 3.0942
#
#
#
# Elastic Compliance Matrix: (Units=1/GPa)
#
#
# Indices 1 2 3 4 5 6 
#
# 1 0.010245 -0.003038 -0.002094 0.000000 0.000000 0.000000
# 2 -0.003038 0.009943 -0.003538 0.000000 0.000000 0.000000
# 3 -0.002094 -0.003538 0.017281 0.000000 0.000000 0.000000
# 4 0.000000 0.000000 0.000000 0.041017 0.000000 0.000000
# 5 0.000000 0.000000 0.000000 0.000000 0.113265 0.000000
# 6 0.000000 0.000000 0.000000 0.000000 0.000000 0.323189
#
#
# Mechanical properties :
#
#
# Convention : Reuss Voigt Hill
#
# Bulk Modulus (GPa) = 49.67942 55.61618 52.64780
# Shear Modulus (GPa) = 9.27663 21.25472 15.26568
#
# Velocity S-wave (km/s) = 2.24138 3.39272 2.87526
# Velocity P-wave (km/s) = 5.79675 6.74288 6.28763
#
# Compressibility (1/GPa) = 0.02012906
#
# Stress axis : x y z
#
# Youngs Moduli (GPa) = 97.61210 100.56955 57.86771
#
# Poissons Ratio (x) = 0.30550 0.12120
# Poissons Ratio (y) = 0.29652 0.20472
# Poissons Ratio (z) = 0.20444 0.35578
#
# Static dielectric constant tensor:
#      x y z
#    x 3.146230 0.000000 0.000000 
#    y 0.000000 3.833670 0.000000 
#    z 0.000000 0.000000 3.153220 
# 
# 
# High freq. dielectric constant tensor:
#      x y z
#    x 1.701980 0.000000 0.000000 
#    y 0.000000 1.726190 0.000000 
#    z 0.000000 0.000000 1.683350 
# 
# From -- ./inp_files/3281.got.cif
#   From: 2010.03.12/outbox.cif.g09.slc.cpg/sg25_2_cif.got.tgz:3281.got - 2010.04.14 03:30:10.
