data_PCOD8166849
_publ_section_title
;
Structure prediction by ZEFSAII (Michael W. Deem and Ramdas Pophale) SiO2 
 PCOD8166849
Probable space group: P M M 2
;
_chemical_formula_sum "Si O2"
_cell_formula_units_Z 32
_cell_length_a 15.192476
_cell_length_b 8.887496
_cell_length_c 11.858558
_cell_angle_alpha 90.000000
_cell_angle_beta 90.000000
_cell_angle_gamma 90.000000
_cell_volume 1601.178903
_symmetry_space_group_name_H-M "P M M 2"
_symmetry_group_IT_number 25
_symmetry_cell_setting 'orthorhombic'
loop_
_space_group_symop_operation_xyz
x,y,z
-x,-y,z
-x,y,z
x,-y,z
loop_
_atom_site_type_symbol
_atom_site_label
_atom_site_fract_x
_atom_site_fract_y
_atom_site_fract_z
Si Si1 0.900983 0.671689 0.933440
Si Si2 0.750094 0.822513 0.524903
Si Si3 0.399312 0.826896 0.911369
Si Si4 0.854386 0.826887 0.160673
Si Si5 0.900792 0.327893 0.384374
Si Si6 0.252883 0.323628 0.766962
Si Si7 0.400575 0.327841 0.383985
Si Si8 0.352434 0.173012 0.161161
O O1 0.880515 0.500000 0.969480
O O2 0.833330 0.724028 0.837285
O O3 0.000000 0.686990 0.885155
O O4 0.891284 0.778254 0.040454
O O5 0.837328 0.770944 0.460832
O O6 0.751137 0.762496 0.650468
O O7 0.662537 0.770306 0.461565
O O8 0.749256 0.000000 0.526810
O O9 0.500000 0.807383 0.873172
O O10 0.340732 0.721862 0.832856
O O11 0.368220 0.000000 0.899182
O O12 0.388830 0.774507 0.040416
O O13 0.900045 0.727376 0.255861
O O14 0.750978 0.800287 0.165597
O O15 0.879114 0.000000 0.180862
O O16 0.868789 0.500000 0.388651
O O17 0.000000 0.312663 0.431269
O O18 0.255128 0.500000 0.742351
O O19 0.500000 0.310146 0.429396
O O20 0.369299 0.500000 0.389835
O O21 0.398151 0.274536 0.254896
O O22 0.377323 0.000000 0.184217
#
# Coordination Sequence:
#
# PCOD8166849 Si02
#       8
#     4   4   4   4   4   4   4   4
#     4  10  22  40  62  89 122 162 204 246 300 363
#     4  12  26  44  66  90 120 160 207 258 307 364
#     4  10  21  39  63  90 123 162 202 246 300 363
#     4  11  21  35  61  95 128 162 201 248 302 360
#     4  11  24  42  65  92 125 164 204 250 306 366
#     4  11  24  42  64  88 119 159 204 257 306 358
#     4  11  24  41  64  94 126 161 204 253 305 365
#     4  10  20  36  61  92 127 165 202 246 304 365
#
# _framework density 19.985275000000001
#
# number of rings (size 3 to 8) (size 9 to 14) (size 15 to 20)
#    0.000    1.250    2.500    3.375    0.000    7.000 
#    0.000    1.250    0.000    0.000    0.000    0.000 
#    0.000    0.000    0.000    0.000    0.000    0.000 
#
# Total GULP energy -396989.813021 kJ/mol
# GULP energy per Si atom -12405.931657 kJ/mol
# Density = 1.993979 g / cm^3
# Si number density = 19.985275 Si / 1000 Ang^3
#
#
#
# Elastic Constant Matrix: (Units=GPa)
#
#
# Indices 1 2 3 4 5 6 
#
# 1 107.9228 58.2483 63.4545 0.0000 0.0000 0.0000
# 2 58.2483 118.8153 66.6351 0.0000 0.0000 0.0000
# 3 63.4545 66.6351 130.7148 0.0000 0.0000 0.0000
# 4 0.0000 0.0000 0.0000 34.1460 0.0000 0.0000
# 5 0.0000 0.0000 0.0000 0.0000 -1.9175 0.0000
# 6 0.0000 0.0000 0.0000 0.0000 0.0000 18.4262
#
#
#
# Elastic Compliance Matrix: (Units=1/GPa)
#
#
# Indices 1 2 3 4 5 6 
#
# 1 0.014448 -0.004411 -0.004765 0.000000 0.000000 0.000000
# 2 -0.004411 0.013132 -0.004553 0.000000 0.000000 0.000000
# 3 -0.004765 -0.004553 0.012285 0.000000 0.000000 0.000000
# 4 0.000000 0.000000 0.000000 0.029286 0.000000 0.000000
# 5 0.000000 0.000000 0.000000 0.000000 -0.521520 0.000000
# 6 0.000000 0.000000 0.000000 0.000000 0.000000 0.054271
#
#
# Mechanical properties :
#
#
# Convention : Reuss Voigt Hill
#
# Bulk Modulus (GPa) = 80.60252 81.56986 81.08619
# Shear Modulus (GPa) = -13.64243 21.40528 3.88142
#
# Velocity S-wave (km/s) = -2.61554 3.27624 1.39512
# Velocity P-wave (km/s) = 5.59438 7.43070 6.57694
#
# Compressibility (1/GPa) = 0.01240656
#
# Stress axis : x y z
#
# Youngs Moduli (GPa) = 69.21266 76.14752 81.40130
#
# Poissons Ratio (x) = 0.33585 0.38791
# Poissons Ratio (y) = 0.30527 0.37066
# Poissons Ratio (z) = 0.32982 0.34674
#
# Static dielectric constant tensor:
#      x y z
#    x 3.783580 0.000000 0.000000 
#    y 0.000000 3.691150 0.000000 
#    z 0.000000 0.000000 3.635910 
# 
# 
# High freq. dielectric constant tensor:
#      x y z
#    x 1.795810 0.000000 0.000000 
#    y 0.000000 1.785420 0.000000 
#    z 0.000000 0.000000 1.775460 
# 
# From -- ./inp_files/4229.got.cif
#   From: 2010.03.12/outbox.cif.g09.slc.cpg/sg25_3_cif.got.tgz:4229.got - 2010.04.14 03:30:10.
