data_PCOD8166778
_publ_section_title
;
Structure prediction by ZEFSAII (Michael W. Deem and Ramdas Pophale) SiO2 
 PCOD8166778
Probable space group: P M M 2
;
_chemical_formula_sum "Si O2"
_cell_formula_units_Z 32
_cell_length_a 8.939194
_cell_length_b 9.357086
_cell_length_c 20.612923
_cell_angle_alpha 90.000000
_cell_angle_beta 90.000000
_cell_angle_gamma 90.000000
_cell_volume 1724.163967
_symmetry_space_group_name_H-M "P M M 2"
_symmetry_group_IT_number 25
_symmetry_cell_setting 'orthorhombic'
loop_
_space_group_symop_operation_xyz
x,y,z
-x,-y,z
-x,y,z
x,-y,z
loop_
_atom_site_type_symbol
_atom_site_label
_atom_site_fract_x
_atom_site_fract_y
_atom_site_fract_z
Si Si1 0.326489 0.667918 0.986180
Si Si2 0.327593 0.166691 0.720381
Si Si3 0.323623 0.335541 0.214558
Si Si4 0.677527 0.657627 0.841288
Si Si5 0.168407 0.330222 0.344906
Si Si6 0.675333 0.334709 0.474452
Si Si7 0.172624 0.168029 0.589331
Si Si8 0.174564 0.833101 0.099179
O O1 0.500000 0.705919 0.998775
O O2 0.300383 0.500000 0.998879
O O3 0.276354 0.709972 0.913107
O O4 0.222227 0.761153 0.032065
O O5 0.500000 0.209260 0.708241
O O6 0.260714 0.239268 0.785141
O O7 0.232158 0.219795 0.659111
O O8 0.309026 0.000000 0.731500
O O9 0.500000 0.321665 0.220155
O O10 0.275978 0.500000 0.201914
O O11 0.253588 0.275254 0.281122
O O12 0.266285 0.238503 0.156714
O O13 0.500000 0.652196 0.838861
O O14 0.743439 0.500000 0.828427
O O15 0.172016 0.500000 0.345853
O O16 0.249072 0.272160 0.409381
O O17 0.000000 0.270466 0.343632
O O18 0.500000 0.312843 0.467137
O O19 0.717699 0.500000 0.484969
O O20 0.733158 0.246965 0.535126
O O21 0.000000 0.210702 0.582934
O O22 0.198455 0.000000 0.580957
O O23 0.000000 0.806400 0.110994
O O24 0.213647 0.000000 0.096489
#
# Coordination Sequence:
#
# PCOD8166778 Si02
#       8
#     4   4   4   4   4   4   4   4
#     4   9  18  34  56  80 104 133 171 212 255 307
#     4   9  17  30  49  72  98 131 171 211 252 303
#     4  10  20  35  57  82 105 133 172 214 255 304
#     4   8  15  29  50  76 103 128 160 207 257 303
#     4   9  17  31  53  80 109 139 169 205 253 307
#     4  10  20  34  54  80 107 135 171 216 261 304
#     4  10  21  36  52  72 102 140 178 215 258 308
#     4  11  24  38  51  73 106 140 174 214 259 305
#
# _framework density 18.559722000000001
#
# number of rings (size 3 to 8) (size 9 to 14) (size 15 to 20)
#    0.000    2.500    0.000    3.000    0.000    7.500 
#    0.000    3.750    0.000    6.000    0.000    0.000 
#    0.000    0.000    0.000    0.000    0.000    0.000 
#
# Total GULP energy -396813.784331 kJ/mol
# GULP energy per Si atom -12400.430760 kJ/mol
# Density = 1.851748 g / cm^3
# Si number density = 18.559722 Si / 1000 Ang^3
#
#
#
# Elastic Constant Matrix: (Units=GPa)
#
#
# Indices 1 2 3 4 5 6 
#
# 1 70.8492 30.7436 44.8737 0.0000 0.0000 0.0000
# 2 30.7436 51.7949 51.8696 0.0000 0.0000 0.0000
# 3 44.8737 51.8696 155.3527 0.0000 0.0000 0.0000
# 4 0.0000 0.0000 0.0000 -30.2426 0.0000 0.0000
# 5 0.0000 0.0000 0.0000 0.0000 8.7714 0.0000
# 6 0.0000 0.0000 0.0000 0.0000 0.0000 24.1264
#
#
#
# Elastic Compliance Matrix: (Units=1/GPa)
#
#
# Indices 1 2 3 4 5 6 
#
# 1 0.019731 -0.009020 -0.002688 0.000000 0.000000 0.000000
# 2 -0.009020 0.033129 -0.008456 0.000000 0.000000 0.000000
# 3 -0.002688 -0.008456 0.010036 0.000000 0.000000 0.000000
# 4 0.000000 0.000000 0.000000 -0.033066 0.000000 0.000000
# 5 0.000000 0.000000 0.000000 0.000000 0.114007 0.000000
# 6 0.000000 0.000000 0.000000 0.000000 0.000000 0.041448
#
#
# Mechanical properties :
#
#
# Convention : Reuss Voigt Hill
#
# Bulk Modulus (GPa) = 44.30776 59.21896 51.76336
# Shear Modulus (GPa) = 21.44683 10.56505 16.00594
#
# Velocity S-wave (km/s) = 3.40304 2.38848 2.93985
# Velocity P-wave (km/s) = 6.27422 6.29150 6.28286
#
# Compressibility (1/GPa) = 0.02256941
#
# Stress axis : x y z
#
# Youngs Moduli (GPa) = 50.68224 30.18530 99.63641
#
# Poissons Ratio (x) = 0.27227 0.26779
# Poissons Ratio (y) = 0.45715 0.84249
# Poissons Ratio (z) = 0.13622 0.25524
#
# Static dielectric constant tensor:
#      x y z
#    x 3.366720 0.000000 0.000000 
#    y 0.000000 3.338230 0.000000 
#    z 0.000000 0.000000 3.694410 
# 
# 
# High freq. dielectric constant tensor:
#      x y z
#    x 1.713730 0.000000 0.000000 
#    y 0.000000 1.698020 0.000000 
#    z 0.000000 0.000000 1.738110 
# 
# From -- ./inp_files/6458.got.cif
#   From: 2010.03.12/outbox.cif.g09.slc.cpg/sg25_4_cif.got.tgz:6458.got - 2010.04.14 03:30:10.
