data_PCOD8166896
_publ_section_title
;
Structure prediction by ZEFSAII (Michael W. Deem and Ramdas Pophale) SiO2 
 PCOD8166896
Probable space group: P M M 2
;
_chemical_formula_sum "Si O2"
_cell_formula_units_Z 32
_cell_length_a 14.802305
_cell_length_b 9.151037
_cell_length_c 12.166187
_cell_angle_alpha 90.000000
_cell_angle_beta 90.000000
_cell_angle_gamma 90.000000
_cell_volume 1647.988388
_symmetry_space_group_name_H-M "P M M 2"
_symmetry_group_IT_number 25
_symmetry_cell_setting 'orthorhombic'
loop_
_space_group_symop_operation_xyz
x,y,z
-x,-y,z
-x,y,z
x,-y,z
loop_
_atom_site_type_symbol
_atom_site_label
_atom_site_fract_x
_atom_site_fract_y
_atom_site_fract_z
Si Si1 0.746634 0.670553 0.633970
Si Si2 0.899802 0.325975 0.798090
Si Si3 0.606515 0.330078 0.244749
Si Si4 0.392575 0.835110 0.028647
Si Si5 0.603330 0.332068 0.816212
Si Si6 0.898114 0.170880 0.248734
Si Si7 0.262444 0.827269 0.405150
Si Si8 0.892637 0.338408 0.037245
O O1 0.755166 0.500000 0.601465
O O2 0.832825 0.726315 0.703102
O O3 0.657411 0.699568 0.705245
O O4 0.741482 0.771378 0.528565
O O5 0.902485 0.500000 0.804451
O O6 0.000000 0.264226 0.771774
O O7 0.864307 0.271793 0.918149
O O8 0.500000 0.306232 0.259515
O O9 0.631948 0.500000 0.242986
O O10 0.642703 0.257462 0.132282
O O11 0.654379 0.251874 0.346427
O O12 0.500000 0.831363 0.026922
O O13 0.355692 0.000000 0.038369
O O14 0.356373 0.763171 0.916232
O O15 0.500000 0.290711 0.790998
O O16 0.613281 0.500000 0.852536
O O17 0.832601 0.215340 0.348292
O O18 0.857656 0.238622 0.136728
O O19 0.000000 0.227899 0.275042
O O20 0.899262 0.000000 0.229657
O O21 0.279349 0.000000 0.402866
O O22 0.851413 0.500000 0.054242
O O23 0.000000 0.346321 0.038720
#
# Coordination Sequence:
#
# PCOD8166896 Si02
#       8
#     4   4   4   4   4   4   4   4
#     4  10  21  36  53  74 100 136 184 227 262 310
#     4   8  15  30  52  77 104 131 163 213 271 316
#     4  10  21  38  60  83 108 140 177 219 268 321
#     4   9  17  31  54  84 114 140 169 209 260 318
#     4   9  18  33  52  75 106 141 174 211 257 311
#     4   9  19  36  55  76 107 144 177 214 264 319
#     4  11  24  39  54  76 107 143 184 228 271 317
#     4   8  14  27  50  79 106 132 168 214 263 316
#
# _framework density 19.417611000000001
#
# number of rings (size 3 to 8) (size 9 to 14) (size 15 to 20)
#    0.000    2.750    0.000    1.875    0.000    5.750 
#    0.000    3.125    0.000    0.750    0.000    0.000 
#    0.000    0.000    0.000    0.000    0.000    0.000 
#
# Total GULP energy -396754.554038 kJ/mol
# GULP energy per Si atom -12398.579814 kJ/mol
# Density = 1.937342 g / cm^3
# Si number density = 19.417611 Si / 1000 Ang^3
#
#
#
# Elastic Constant Matrix: (Units=GPa)
#
#
# Indices 1 2 3 4 5 6 
#
# 1 76.6281 41.9517 57.5778 0.0000 0.0000 0.0000
# 2 41.9517 87.0257 69.1052 0.0000 0.0000 0.0000
# 3 57.5778 69.1052 162.1871 0.0000 0.0000 0.0000
# 4 0.0000 0.0000 0.0000 22.2071 0.0000 0.0000
# 5 0.0000 0.0000 0.0000 0.0000 26.7140 0.0000
# 6 0.0000 0.0000 0.0000 0.0000 0.0000 15.7522
#
#
#
# Elastic Compliance Matrix: (Units=1/GPa)
#
#
# Indices 1 2 3 4 5 6 
#
# 1 0.019639 -0.005941 -0.004441 0.000000 0.000000 0.000000
# 2 -0.005941 0.019164 -0.006056 0.000000 0.000000 0.000000
# 3 -0.004441 -0.006056 0.010323 0.000000 0.000000 0.000000
# 4 0.000000 0.000000 0.000000 0.045031 0.000000 0.000000
# 5 0.000000 0.000000 0.000000 0.000000 0.037434 0.000000
# 6 0.000000 0.000000 0.000000 0.000000 0.000000 0.063483
#
#
# Mechanical properties :
#
#
# Convention : Reuss Voigt Hill
#
# Bulk Modulus (GPa) = 61.53921 73.67889 67.60905
# Shear Modulus (GPa) = 21.42554 23.41507 22.42031
#
# Velocity S-wave (km/s) = 3.32536 3.47633 3.40168
# Velocity P-wave (km/s) = 6.81948 7.35798 7.09384
#
# Compressibility (1/GPa) = 0.01624980
#
# Stress axis : x y z
#
# Youngs Moduli (GPa) = 50.91820 52.18110 96.87363
#
# Poissons Ratio (x) = 0.31001 0.43019
# Poissons Ratio (y) = 0.30251 0.58670
# Poissons Ratio (z) = 0.22611 0.31603
#
# Static dielectric constant tensor:
#      x y z
#    x 3.702530 0.000000 0.000000 
#    y 0.000000 3.474680 0.000000 
#    z 0.000000 0.000000 3.595400 
# 
# 
# High freq. dielectric constant tensor:
#      x y z
#    x 1.753200 0.000000 0.000000 
#    y 0.000000 1.739180 0.000000 
#    z 0.000000 0.000000 1.755800 
# 
# From -- ./inp_files/4225.got.cif
#   From: 2010.03.12/outbox.cif.g09.slc.cpg/sg25_3_cif.got.tgz:4225.got - 2010.04.14 03:30:10.
