data_PCOD8166072
_publ_section_title
;
Structure prediction by ZEFSAII (Michael W. Deem and Ramdas Pophale) SiO2 
 PCOD8166072
Probable space group: I 21 21 21
;
_chemical_formula_sum "Si O2"
_cell_formula_units_Z 32
_cell_length_a 4.975647
_cell_length_b 34.926612
_cell_length_c 8.696042
_cell_angle_alpha 90.000000
_cell_angle_beta 90.000000
_cell_angle_gamma 90.000000
_cell_volume 1511.219851
_symmetry_space_group_name_H-M "I 21 21 21"
_symmetry_group_IT_number 24
_symmetry_cell_setting 'orthorhombic'
loop_
_space_group_symop_operation_xyz
x,y,z
-x,1/2-y,z
x,-y,1/2-z
1/2-x,y,-z
1/2+x,1/2+y,1/2+z
1/2-x,-y,1/2+z
1/2+x,1/2-y,-z
-x,1/2+y,1/2-z
loop_
_atom_site_type_symbol
_atom_site_label
_atom_site_fract_x
_atom_site_fract_y
_atom_site_fract_z
Si Si1 0.252550 0.273294 0.816793
Si Si2 0.016803 0.975337 0.897892
Si Si3 0.732745 0.859783 0.319003
Si Si4 0.761556 0.606485 0.170222
O O1 0.500000 0.250000 0.749351
O O2 0.279079 0.316766 0.757897
O O3 0.000000 0.250000 0.751492
O O4 0.250000 0.273875 0.000000
O O5 0.159226 0.937020 0.836060
O O6 0.932154 0.000000 0.750000
O O7 0.250000 0.996327 0.000000
O O8 0.750000 0.967162 0.000000
O O9 0.750000 0.863649 0.500000
O O10 0.427279 0.869614 0.281445
O O11 0.936122 0.889517 0.236492
O O12 0.750000 0.624374 0.000000
#
# Coordination Sequence:
#
# PCOD8166072 Si02
#       4
#     8   8   8   8
#     4   9  17  31  53  82 115 149 192 250 304 343
#     4  11  24  43  65  91 121 159 203 249 305 365
#     4  11  22  37  62  92 117 154 209 255 291 350
#     4  11  23  41  60  85 125 164 192 236 311 374
#
# _framework density 21.174948000000001
#
# number of rings (size 3 to 8) (size 9 to 14) (size 15 to 20)
#    0.000    1.500    0.000    6.750    0.000    7.000 
#    0.000    0.000    0.000   15.000    0.000    0.000 
#    0.000    0.000    0.000    0.000    0.000    0.000 
#
# Total GULP energy -198358.214356 kJ/mol
# GULP energy per Si atom -12397.388397 kJ/mol
# Density = 2.112675 g / cm^3
# Si number density = 21.174948 Si / 1000 Ang^3
#
#
#
# Elastic Constant Matrix: (Units=GPa)
#
#
# Indices 1 2 3 4 5 6 
#
# 1 118.6523 28.9065 20.5504 -0.0001 0.0000 -0.0011
# 2 28.9065 98.4240 34.6744 0.0002 0.0000 -0.0012
# 3 20.5504 34.6744 88.0634 0.0006 0.0000 -0.0074
# 4 -0.0001 0.0002 0.0006 14.7838 0.0000 0.0011
# 5 0.0000 0.0000 0.0000 0.0000 36.1607 -0.0002
# 6 -0.0011 -0.0012 -0.0074 0.0011 -0.0002 337.0305
#
#
#
# Elastic Compliance Matrix: (Units=1/GPa)
#
#
# Indices 1 2 3 4 5 6 
#
# 1 0.009196 -0.002258 -0.001257 0.000000 0.000000 0.000000
# 2 -0.002258 0.012351 -0.004336 0.000000 0.000000 0.000000
# 3 -0.001257 -0.004336 0.013356 0.000000 0.000000 0.000000
# 4 0.000000 0.000000 0.000000 0.067642 0.000000 0.000000
# 5 0.000000 0.000000 0.000000 0.000000 0.027654 0.000000
# 6 0.000000 0.000000 0.000000 0.000000 0.000000 0.002967
#
#
# Mechanical properties :
#
#
# Convention : Reuss Voigt Hill
#
# Bulk Modulus (GPa) = 52.08124 52.60028 52.34076
# Shear Modulus (GPa) = 32.20240 92.32890 62.26565
#
# Velocity S-wave (km/s) = 3.90395 6.61041 5.42855
# Velocity P-wave (km/s) = 6.70598 9.11911 8.00401
#
# Compressibility (1/GPa) = 0.01920077
#
# Stress axis : x y z
#
# Youngs Moduli (GPa) = 108.74572 80.96581 74.87219
#
# Poissons Ratio (x) = 0.18282 0.09410
# Poissons Ratio (y) = 0.24554 0.32466
# Poissons Ratio (z) = 0.13668 0.35108
#
# Static dielectric constant tensor:
#      x y z
#    x 4.051790 0.000000 0.000000 
#    y 0.000000 3.809140 0.000000 
#    z 0.000000 0.000000 3.713870 
# 
# 
# High freq. dielectric constant tensor:
#      x y z
#    x 1.850820 0.000000 0.000000 
#    y 0.000000 1.825660 0.000000 
#    z 0.000000 0.000000 1.814470 
# 
# From -- ./inp_files/1137.got.cif
#   From: 2010.03.12/outbox.cif.g09.slc.cpg/sg24_1_cif.got.tgz:1137.got - 2010.04.14 03:06:53.
