data_PCOD8166649
_publ_section_title
;
Structure prediction by ZEFSAII (Michael W. Deem and Ramdas Pophale) SiO2 
 PCOD8166649
Probable space group: P M M 2
;
_chemical_formula_sum "Si O2"
_cell_formula_units_Z 32
_cell_length_a 9.151081
_cell_length_b 9.167537
_cell_length_c 20.931110
_cell_angle_alpha 90.000000
_cell_angle_beta 90.000000
_cell_angle_gamma 90.000000
_cell_volume 1755.970967
_symmetry_space_group_name_H-M "P M M 2"
_symmetry_group_IT_number 25
_symmetry_cell_setting 'orthorhombic'
loop_
_space_group_symop_operation_xyz
x,y,z
-x,-y,z
-x,y,z
x,-y,z
loop_
_atom_site_type_symbol
_atom_site_label
_atom_site_fract_x
_atom_site_fract_y
_atom_site_fract_z
Si Si1 0.161422 0.672765 0.832660
Si Si2 0.326220 0.335391 0.206971
Si Si3 0.668945 0.830488 0.331366
Si Si4 0.174576 0.333567 0.970446
Si Si5 0.666092 0.326526 0.572579
Si Si6 0.330139 0.829804 0.082126
Si Si7 0.833781 0.673234 0.695269
Si Si8 0.170956 0.830989 0.459721
O O1 0.148555 0.500000 0.834147
O O2 0.236451 0.717982 0.900104
O O3 0.234932 0.721368 0.764900
O O4 0.000000 0.741143 0.831155
O O5 0.500000 0.330434 0.207230
O O6 0.266322 0.500000 0.204922
O O7 0.268128 0.257964 0.270971
O O8 0.267641 0.250806 0.144808
O O9 0.500000 0.793120 0.344824
O O10 0.760882 0.781208 0.392591
O O11 0.690112 0.000000 0.315782
O O12 0.222837 0.500000 0.985448
O O13 0.000000 0.321610 0.971193
O O14 0.242400 0.224926 0.021177
O O15 0.500000 0.271421 0.567625
O O16 0.675006 0.500000 0.570062
O O17 0.733187 0.263924 0.638727
O O18 0.758399 0.264523 0.514620
O O19 0.500000 0.794008 0.071656
O O20 0.302376 0.000000 0.091548
O O21 0.835248 0.500000 0.691064
O O22 0.000000 0.731433 0.687255
O O23 0.000000 0.799096 0.457651
O O24 0.205781 0.000000 0.472873
#
# Coordination Sequence:
#
# PCOD8166649 Si02
#       8
#     4   4   4   4   4   4   4   4
#     4   7  11  22  42  67  93 122 157 197 242 292
#     4   9  17  30  50  74  97 123 159 202 244 287
#     4   9  17  31  51  72  94 122 156 195 242 295
#     4   9  17  30  49  73  99 126 160 204 250 294
#     4  10  20  32  48  73 103 132 163 201 244 290
#     4  10  20  33  49  70  98 133 170 204 239 284
#     4   8  13  24  44  68  94 125 160 199 244 291
#     4  10  21  36  53  73  98 130 167 203 239 284
#
# _framework density 18.223535999999999
#
# number of rings (size 3 to 8) (size 9 to 14) (size 15 to 20)
#    0.000    3.000    0.000    3.000    0.000    4.500 
#    0.000    2.500    0.000    5.250    0.000    1.750 
#    0.000    0.000    0.000    0.000    0.000    0.000 
#
# Total GULP energy -396551.283781 kJ/mol
# GULP energy per Si atom -12392.227618 kJ/mol
# Density = 1.818206 g / cm^3
# Si number density = 18.223536 Si / 1000 Ang^3
#
#
#
# Elastic Constant Matrix: (Units=GPa)
#
#
# Indices 1 2 3 4 5 6 
#
# 1 56.7785 24.0524 53.8390 0.0000 0.0000 0.0000
# 2 24.0524 53.9525 53.5026 0.0000 0.0000 0.0000
# 3 53.8390 53.5026 187.0772 0.0000 0.0000 0.0000
# 4 0.0000 0.0000 0.0000 6.1532 0.0000 0.0000
# 5 0.0000 0.0000 0.0000 0.0000 30.5300 0.0000
# 6 0.0000 0.0000 0.0000 0.0000 0.0000 19.4735
#
#
#
# Elastic Compliance Matrix: (Units=1/GPa)
#
#
# Indices 1 2 3 4 5 6 
#
# 1 0.025415 -0.005691 -0.005687 0.000000 0.000000 0.000000
# 2 -0.005691 0.027147 -0.006126 0.000000 0.000000 0.000000
# 3 -0.005687 -0.006126 0.008734 0.000000 0.000000 0.000000
# 4 0.000000 0.000000 0.000000 0.162518 0.000000 0.000000
# 5 0.000000 0.000000 0.000000 0.000000 0.032755 0.000000
# 6 0.000000 0.000000 0.000000 0.000000 0.000000 0.051352
#
#
# Mechanical properties :
#
#
# Convention : Reuss Voigt Hill
#
# Bulk Modulus (GPa) = 38.03912 62.28847 50.16380
# Shear Modulus (GPa) = 14.21703 22.32561 18.27132
#
# Velocity S-wave (km/s) = 2.79614 3.50394 3.16986
# Velocity P-wave (km/s) = 5.59852 7.11509 6.40187
#
# Compressibility (1/GPa) = 0.02628873
#
# Stress axis : x y z
#
# Youngs Moduli (GPa) = 39.34614 36.83672 114.49591
#
# Poissons Ratio (x) = 0.20964 0.65110
# Poissons Ratio (y) = 0.22392 0.70140
# Poissons Ratio (z) = 0.22375 0.22566
#
# Static dielectric constant tensor:
#      x y z
#    x 2.912850 0.000000 0.000000 
#    y 0.000000 3.084580 0.000000 
#    z 0.000000 0.000000 3.819820 
# 
# 
# High freq. dielectric constant tensor:
#      x y z
#    x 1.672820 0.000000 0.000000 
#    y 0.000000 1.674540 0.000000 
#    z 0.000000 0.000000 1.732090 
# 
# From -- ./inp_files/6479.got.cif
#   From: 2010.03.12/outbox.cif.g09.slc.cpg/sg25_4_cif.got.tgz:6479.got - 2010.04.14 03:30:10.
