data_PCOD8166077
_publ_section_title
;
Structure prediction by ZEFSAII (Michael W. Deem and Ramdas Pophale) SiO2 
 PCOD8166077
Probable space group: I 21 21 21
;
_chemical_formula_sum "Si O2"
_cell_formula_units_Z 32
_cell_length_a 8.606063
_cell_length_b 10.692349
_cell_length_c 16.457808
_cell_angle_alpha 90.000000
_cell_angle_beta 90.000000
_cell_angle_gamma 90.000000
_cell_volume 1514.431513
_symmetry_space_group_name_H-M "I 21 21 21"
_symmetry_group_IT_number 24
_symmetry_cell_setting 'orthorhombic'
loop_
_space_group_symop_operation_xyz
x,y,z
-x,1/2-y,z
x,-y,1/2-z
1/2-x,y,-z
1/2+x,1/2+y,1/2+z
1/2-x,-y,1/2+z
1/2+x,1/2-y,-z
-x,1/2+y,1/2-z
loop_
_atom_site_type_symbol
_atom_site_label
_atom_site_fract_x
_atom_site_fract_y
_atom_site_fract_z
Si Si1 0.815706 0.015332 0.409005
Si Si2 0.351757 0.993881 0.842214
Si Si3 0.817951 0.264827 0.589738
Si Si4 0.816466 0.745194 0.411738
O O1 0.750000 0.022621 0.500000
O O2 0.761118 0.879594 0.373511
O O3 0.747133 0.138770 0.365546
O O4 0.003083 0.025353 0.403356
O O5 0.228687 0.882929 0.855028
O O6 0.413151 0.000000 0.750000
O O7 0.264689 0.126407 0.858269
O O8 0.750000 0.284213 0.500000
O O9 0.000000 0.250000 0.583499
O O10 0.750000 0.723894 0.500000
O O11 0.000000 0.750000 0.418891
#
# Coordination Sequence:
#
# PCOD8166077 Si02
#       4
#     8   8   8   8
#     4   9  19  37  60  88 117 154 204 249 297 357
#     4  11  23  39  60  91 126 161 199 247 310 367
#     4  11  22  39  63  90 120 159 209 256 298 355
#     4   9  19  35  57  85 113 148 197 246 295 353
#
# _framework density 21.130040000000001
#
# number of rings (size 3 to 8) (size 9 to 14) (size 15 to 20)
#    0.000    2.000    0.000    4.500    0.000   12.000 
#    0.000    5.000    0.000    0.000    0.000    0.000 
#    0.000    0.000    0.000    0.000    0.000    0.000 
#
# Total GULP energy -198214.615961 kJ/mol
# GULP energy per Si atom -12388.413498 kJ/mol
# Density = 2.108195 g / cm^3
# Si number density = 21.130040 Si / 1000 Ang^3
#
#
#
# Elastic Constant Matrix: (Units=GPa)
#
#
# Indices 1 2 3 4 5 6 
#
# 1 92.5732 53.5212 27.4266 0.0000 0.0000 0.0000
# 2 53.5212 241.0878 41.2770 0.0000 0.0000 0.0000
# 3 27.4266 41.2770 66.7815 0.0000 0.0000 0.0000
# 4 0.0000 0.0000 0.0000 -5.9018 0.0000 0.0000
# 5 0.0000 0.0000 0.0000 0.0000 16.2293 0.0000
# 6 0.0000 0.0000 0.0000 0.0000 0.0000 23.9633
#
#
#
# Elastic Compliance Matrix: (Units=1/GPa)
#
#
# Indices 1 2 3 4 5 6 
#
# 1 0.013315 -0.002259 -0.004072 0.000000 0.000000 0.000000
# 2 -0.002259 0.005022 -0.002176 0.000000 0.000000 0.000000
# 3 -0.004072 -0.002176 0.017992 0.000000 0.000000 0.000000
# 4 0.000000 0.000000 0.000000 -0.169439 0.000000 0.000000
# 5 0.000000 0.000000 0.000000 0.000000 0.061617 0.000000
# 6 0.000000 0.000000 0.000000 0.000000 0.000000 0.041730
#
#
# Mechanical properties :
#
#
# Convention : Reuss Voigt Hill
#
# Bulk Modulus (GPa) = 51.77604 71.65466 61.71535
# Shear Modulus (GPa) = -792.28212 25.40601 -383.43805
#
# Velocity S-wave (km/s) = -19.38477 3.47127 -13.48554
# Velocity P-wave (km/s) = 21.82817 7.07469 14.60168
#
# Compressibility (1/GPa) = 0.01931395
#
# Stress axis : x y z
#
# Youngs Moduli (GPa) = 75.10592 199.12785 55.58086
#
# Poissons Ratio (x) = 0.44975 0.22633
# Poissons Ratio (y) = 0.16964 0.12097
# Poissons Ratio (z) = 0.30584 0.43338
#
# Static dielectric constant tensor:
#      x y z
#    x 3.660100 0.000000 0.000000 
#    y 0.000000 5.161420 0.000000 
#    z 0.000000 0.000000 3.376030 
# 
# 
# High freq. dielectric constant tensor:
#      x y z
#    x 1.808980 0.000000 0.000000 
#    y 0.000000 1.873980 0.000000 
#    z 0.000000 0.000000 1.780940 
# 
# From -- ./inp_files/10375.got.cif
#   From: 2010.03.12/outbox.cif.g09.slc.cpg/sg24_6_cif.got.tgz:10375.got - 2010.04.14 03:06:53.
