data_PCOD8166929
_publ_section_title
;
Structure prediction by ZEFSAII (Michael W. Deem and Ramdas Pophale) SiO2 
 PCOD8166929
Probable space group: P M M 2
;
_chemical_formula_sum "Si O2"
_cell_formula_units_Z 32
_cell_length_a 9.501717
_cell_length_b 9.076320
_cell_length_c 20.668425
_cell_angle_alpha 90.000000
_cell_angle_beta 90.000000
_cell_angle_gamma 90.000000
_cell_volume 1782.457870
_symmetry_space_group_name_H-M "P M M 2"
_symmetry_group_IT_number 25
_symmetry_cell_setting 'orthorhombic'
loop_
_space_group_symop_operation_xyz
x,y,z
-x,-y,z
-x,y,z
x,-y,z
loop_
_atom_site_type_symbol
_atom_site_label
_atom_site_fract_x
_atom_site_fract_y
_atom_site_fract_z
Si Si1 0.339693 0.826147 0.578480
Si Si2 0.332177 0.664164 0.703690
Si Si3 0.835366 0.171484 0.316537
Si Si4 0.844793 0.825292 0.461916
Si Si5 0.664436 0.673391 0.207024
Si Si6 0.162380 0.173581 0.095285
Si Si7 0.343059 0.324287 0.844372
Si Si8 0.836920 0.669498 0.963777
O O1 0.500000 0.774746 0.570595
O O2 0.274036 0.763882 0.645113
O O3 0.258537 0.759929 0.516394
O O4 0.325575 0.000000 0.581524
O O5 0.500000 0.661833 0.703936
O O6 0.272332 0.500000 0.693145
O O7 0.284422 0.728296 0.773929
O O8 0.794431 0.216689 0.389809
O O9 0.738048 0.271642 0.272150
O O10 0.000000 0.202866 0.303088
O O11 0.803004 0.000000 0.303029
O O12 0.000000 0.759934 0.474557
O O13 0.850377 0.000000 0.466971
O O14 0.500000 0.714681 0.208989
O O15 0.687521 0.500000 0.200209
O O16 0.736120 0.752380 0.146726
O O17 0.000000 0.214099 0.110971
O O18 0.185927 0.000000 0.096722
O O19 0.206413 0.234152 0.025335
O O20 0.500000 0.262622 0.856699
O O21 0.345497 0.500000 0.843228
O O22 0.244514 0.265503 0.901758
O O23 0.795745 0.500000 0.977781
O O24 0.000000 0.685333 0.947684
#
# Coordination Sequence:
#
# PCOD8166929 Si02
#       8
#     4   4   4   4   4   4   4   4
#     4   9  16  26  43  67  91 117 154 196 232 271
#     4   8  14  26  43  62  87 121 157 191 232 281
#     4   9  18  34  56  78  98 126 165 203 241 290
#     4   8  15  29  48  69  94 123 154 189 231 281
#     4  11  24  38  52  75 105 132 160 198 242 286
#     4  10  21  37  56  76  99 130 166 200 237 287
#     4   8  14  26  45  66  88 119 158 194 230 279
#     4   9  17  30  49  72  96 122 154 194 239 284
#
# _framework density 17.952738
#
# number of rings (size 3 to 8) (size 9 to 14) (size 15 to 20)
#    0.000    3.000    0.000    2.625    0.000    4.500 
#    0.000    4.375    0.000    4.125    0.000    0.000 
#    0.000    0.000    0.000    0.000    0.000    0.000 
#
# Total GULP energy -396662.892848 kJ/mol
# GULP energy per Si atom -12395.715401 kJ/mol
# Density = 1.791188 g / cm^3
# Si number density = 17.952738 Si / 1000 Ang^3
#
#
#
# Elastic Constant Matrix: (Units=GPa)
#
#
# Indices 1 2 3 4 5 6 
#
# 1 80.1535 37.3445 83.4067 0.0000 0.0000 0.0000
# 2 37.3445 48.6970 50.5216 0.0000 0.0000 0.0000
# 3 83.4067 50.5216 183.3270 0.0000 0.0000 0.0000
# 4 0.0000 0.0000 0.0000 31.5926 0.0000 0.0000
# 5 0.0000 0.0000 0.0000 0.0000 32.8020 0.0000
# 6 0.0000 0.0000 0.0000 0.0000 0.0000 18.9180
#
#
#
# Elastic Compliance Matrix: (Units=1/GPa)
#
#
# Indices 1 2 3 4 5 6 
#
# 1 0.027565 -0.011382 -0.009404 0.000000 0.000000 0.000000
# 2 -0.011382 0.033457 -0.004042 0.000000 0.000000 0.000000
# 3 -0.009404 -0.004042 0.010847 0.000000 0.000000 0.000000
# 4 0.000000 0.000000 0.000000 0.031653 0.000000 0.000000
# 5 0.000000 0.000000 0.000000 0.000000 0.030486 0.000000
# 6 0.000000 0.000000 0.000000 0.000000 0.000000 0.052860
#
#
# Mechanical properties :
#
#
# Convention : Reuss Voigt Hill
#
# Bulk Modulus (GPa) = 45.01915 72.74703 58.88309
# Shear Modulus (GPa) = 20.49775 26.05616 23.27696
#
# Velocity S-wave (km/s) = 3.38266 3.81383 3.60470
# Velocity P-wave (km/s) = 6.35511 7.74616 7.08486
#
# Compressibility (1/GPa) = 0.02221277
#
# Stress axis : x y z
#
# Youngs Moduli (GPa) = 36.27747 29.88908 92.19003
#
# Poissons Ratio (x) = 0.34021 0.86699
# Poissons Ratio (y) = 0.41292 0.37260
# Poissons Ratio (z) = 0.34117 0.12080
#
# Static dielectric constant tensor:
#      x y z
#    x 3.321640 0.000000 0.000000 
#    y 0.000000 3.066660 0.000000 
#    z 0.000000 0.000000 3.721820 
# 
# 
# High freq. dielectric constant tensor:
#      x y z
#    x 1.676460 0.000000 0.000000 
#    y 0.000000 1.664780 0.000000 
#    z 0.000000 0.000000 1.713960 
# 
# From -- ./inp_files/6560.got.cif
#   From: 2010.03.12/outbox.cif.g09.slc.cpg/sg25_4_cif.got.tgz:6560.got - 2010.04.14 03:30:10.
