data_PCOD8166941
_publ_section_title
;
Structure prediction by ZEFSAII (Michael W. Deem and Ramdas Pophale) SiO2 
 PCOD8166941
Probable space group: P M M 2
;
_chemical_formula_sum "Si O2"
_cell_formula_units_Z 32
_cell_length_a 8.995583
_cell_length_b 13.609118
_cell_length_c 12.983186
_cell_angle_alpha 90.000000
_cell_angle_beta 90.000000
_cell_angle_gamma 90.000000
_cell_volume 1589.426954
_symmetry_space_group_name_H-M "P M M 2"
_symmetry_group_IT_number 25
_symmetry_cell_setting 'orthorhombic'
loop_
_space_group_symop_operation_xyz
x,y,z
-x,-y,z
-x,y,z
x,-y,z
loop_
_atom_site_type_symbol
_atom_site_label
_atom_site_fract_x
_atom_site_fract_y
_atom_site_fract_z
Si Si1 0.168754 0.116782 0.696270
Si Si2 0.332500 0.383238 0.778596
Si Si3 0.828992 0.799300 0.093467
Si Si4 0.824528 0.612114 0.572943
Si Si5 0.673736 0.112388 0.285047
Si Si6 0.675014 0.792151 0.500649
Si Si7 0.666796 0.116158 0.898463
Si Si8 0.830216 0.389934 0.979166
O O1 0.256279 0.149200 0.595399
O O2 0.248739 0.160888 0.798474
O O3 0.000000 0.156842 0.692170
O O4 0.169967 0.000000 0.701239
O O5 0.500000 0.344759 0.762066
O O6 0.326098 0.500000 0.783543
O O7 0.229972 0.347754 0.684201
O O8 0.268518 0.344160 0.886871
O O9 0.759626 0.821580 0.203497
O O10 0.810463 0.681976 0.076238
O O11 0.000000 0.831249 0.093294
O O12 0.749883 0.859396 0.003694
O O13 0.772838 0.500000 0.553187
O O14 0.746532 0.683073 0.489897
O O15 0.000000 0.621629 0.565928
O O16 0.500000 0.123835 0.263617
O O17 0.716255 0.148656 0.398332
O O18 0.724856 0.000000 0.273741
O O19 0.500000 0.782529 0.516402
O O20 0.500000 0.159712 0.901117
O O21 0.661280 0.000000 0.887988
O O22 0.779140 0.500000 0.011167
O O23 0.000000 0.391633 0.940327
#
# Coordination Sequence:
#
# PCOD8166941 Si02
#       8
#     4   4   4   4   4   4   4   4
#     4  10  21  37  58  86 120 154 191 240 297 359
#     4   9  17  30  51  80 113 151 195 240 284 336
#     4  11  23  37  59  88 116 150 196 247 297 349
#     4  10  21  37  57  83 119 160 199 242 293 350
#     4  10  23  44  66  87 114 150 193 242 298 361
#     4  11  23  39  62  88 116 153 198 247 299 356
#     4  10  21  37  57  82 116 156 193 234 292 359
#     4   9  19  36  55  78 114 157 196 236 287 346
#
# _framework density 20.133040000000001
#
# number of rings (size 3 to 8) (size 9 to 14) (size 15 to 20)
#    0.000    2.000    0.000    3.000    1.750    8.000 
#    0.000    0.625    0.000    2.250    0.000    0.000 
#    0.000    0.000    0.000    0.000    0.000    0.000 
#
# Total GULP energy -396890.352462 kJ/mol
# GULP energy per Si atom -12402.823514 kJ/mol
# Density = 2.008722 g / cm^3
# Si number density = 20.133040 Si / 1000 Ang^3
#
#
#
# Elastic Constant Matrix: (Units=GPa)
#
#
# Indices 1 2 3 4 5 6 
#
# 1 116.8180 36.0952 69.0298 0.0000 0.0000 0.0000
# 2 36.0952 60.0588 36.3030 0.0000 0.0000 0.0000
# 3 69.0298 36.3030 110.3676 0.0000 0.0000 0.0000
# 4 0.0000 0.0000 0.0000 33.1165 0.0000 0.0000
# 5 0.0000 0.0000 0.0000 0.0000 31.0633 0.0000
# 6 0.0000 0.0000 0.0000 0.0000 0.0000 26.8833
#
#
#
# Elastic Compliance Matrix: (Units=1/GPa)
#
#
# Indices 1 2 3 4 5 6 
#
# 1 0.014303 -0.003980 -0.007637 0.000000 0.000000 0.000000
# 2 -0.003980 0.021890 -0.004711 0.000000 0.000000 0.000000
# 3 -0.007637 -0.004711 0.015386 0.000000 0.000000 0.000000
# 4 0.000000 0.000000 0.000000 0.030196 0.000000 0.000000
# 5 0.000000 0.000000 0.000000 0.000000 0.032192 0.000000
# 6 0.000000 0.000000 0.000000 0.000000 0.000000 0.037198
#
#
# Mechanical properties :
#
#
# Convention : Reuss Voigt Hill
#
# Bulk Modulus (GPa) = 52.84235 63.34450 58.09343
# Shear Modulus (GPa) = 26.29804 27.93373 27.11588
#
# Velocity S-wave (km/s) = 3.61808 3.72890 3.67391
# Velocity P-wave (km/s) = 6.61495 7.07608 6.84939
#
# Compressibility (1/GPa) = 0.01892422
#
# Stress axis : x y z
#
# Youngs Moduli (GPa) = 69.91728 45.68330 64.99208
#
# Poissons Ratio (x) = 0.18181 0.49631
# Poissons Ratio (y) = 0.27826 0.30617
# Poissons Ratio (z) = 0.53393 0.21521
#
# Static dielectric constant tensor:
#      x y z
#    x 3.860720 0.000000 0.000000 
#    y 0.000000 3.848430 0.000000 
#    z 0.000000 0.000000 3.475540 
# 
# 
# High freq. dielectric constant tensor:
#      x y z
#    x 1.795620 0.000000 0.000000 
#    y 0.000000 1.802520 0.000000 
#    z 0.000000 0.000000 1.765380 
# 
# From -- ./inp_files/4198.got.cif
#   From: 2010.03.12/outbox.cif.g09.slc.cpg/sg25_3_cif.got.tgz:4198.got - 2010.04.14 03:30:10.
