data_PCOD8166299
_publ_section_title
;
Structure prediction by ZEFSAII (Michael W. Deem and Ramdas Pophale) SiO2 
 PCOD8166299
Probable space group: I 21 21 21
;
_chemical_formula_sum "Si O2"
_cell_formula_units_Z 64
_cell_length_a 21.189649
_cell_length_b 7.612343
_cell_length_c 28.424556
_cell_angle_alpha 90.000000
_cell_angle_beta 90.000000
_cell_angle_gamma 90.000000
_cell_volume 4584.962639
_symmetry_space_group_name_H-M "I 21 21 21"
_symmetry_group_IT_number 24
_symmetry_cell_setting 'orthorhombic'
loop_
_space_group_symop_operation_xyz
x,y,z
-x,1/2-y,z
x,-y,1/2-z
1/2-x,y,-z
1/2+x,1/2+y,1/2+z
1/2-x,-y,1/2+z
1/2+x,1/2-y,-z
-x,1/2+y,1/2-z
loop_
_atom_site_type_symbol
_atom_site_label
_atom_site_fract_x
_atom_site_fract_y
_atom_site_fract_z
Si Si1 0.150269 0.047348 0.111859
Si Si2 0.769699 0.250000 0.425001
Si Si3 0.929896 0.044603 0.198768
Si Si4 0.150269 0.452651 0.111859
Si Si5 0.573160 0.948965 0.517936
Si Si6 0.650882 0.250000 0.480571
Si Si7 0.926840 0.448966 0.017936
Si Si8 0.929896 0.544603 0.301232
O O1 0.172380 0.249999 0.116636
O O2 0.100132 0.024545 0.070100
O O3 0.116757 0.972248 0.158788
O O4 0.211609 0.926592 0.103258
O O5 0.694300 0.250000 0.433791
O O6 0.804941 0.250000 0.474318
O O7 0.788390 0.073406 0.396743
O O8 0.883242 0.972249 0.158788
O O9 0.935791 0.250000 0.191036
O O10 1.000000 0.959005 0.194271
O O11 0.901258 0.000000 0.250000
O O12 0.100132 0.475454 0.070100
O O13 0.500000 0.998444 0.520008
O O14 0.583953 0.750000 0.500498
O O15 0.607593 0.075978 0.480765
O O16 0.607593 0.424023 0.480765
O O17 0.901258 0.500000 0.250000
#
# Coordination Sequence:
#
# PCOD8166299 Si02
#       8
#     8   8   8   8   8   8   8   8
#     4   9  17  28  40  54  74 100 132 167 195 230
#     4   9  18  28  40  54  72 100 132 164 200 231
#     4   9  17  27  38  54  75  98 127 167 209 238
#     4   9  17  28  40  54  74 100 132 167 195 230
#     4   9  16  26  41  58  76 100 127 157 197 236
#     4   9  17  28  38  56  77  95 128 168 196 229
#     4   9  16  26  41  58  76 100 127 157 197 236
#     4   9  17  27  38  54  75  98 127 167 209 238
#
# _framework density 13.958674
#
# number of rings (size 3 to 8) (size 9 to 14) (size 15 to 20)
#    0.000    3.000    0.000    1.125    1.750    4.000 
#    0.000    6.250    0.000    0.000    0.000    0.000 
#    0.000    0.000    0.000    0.000    0.000    5.000 
#
# Total GULP energy -396676.397796 kJ/mol
# GULP energy per Si atom -12396.137431 kJ/mol
# Density = 1.392690 g / cm^3
# Si number density = 13.958674 Si / 1000 Ang^3
#
#
#
# Elastic Constant Matrix: (Units=GPa)
#
#
# Indices 1 2 3 4 5 6 
#
# 1 75.1081 46.8269 47.8129 0.0000 0.0000 0.0000
# 2 46.8269 79.7281 34.8612 0.0000 0.0000 0.0000
# 3 47.8129 34.8612 63.6344 0.0000 0.0000 0.0000
# 4 0.0000 0.0000 0.0000 16.6064 0.0000 0.0000
# 5 0.0000 0.0000 0.0000 0.0000 -22.9403 0.0000
# 6 0.0000 0.0000 0.0000 0.0000 0.0000 18.6413
#
#
#
# Elastic Compliance Matrix: (Units=1/GPa)
#
#
# Indices 1 2 3 4 5 6 
#
# 1 0.031093 -0.010582 -0.017566 0.000000 0.000000 0.000000
# 2 -0.010582 0.020095 -0.003058 0.000000 0.000000 0.000000
# 3 -0.017566 -0.003058 0.030588 0.000000 0.000000 0.000000
# 4 0.000000 0.000000 0.000000 0.060218 0.000000 0.000000
# 5 0.000000 0.000000 0.000000 0.000000 -0.043591 0.000000
# 6 0.000000 0.000000 0.000000 0.000000 0.000000 0.053644
#
#
# Mechanical properties :
#
#
# Convention : Reuss Voigt Hill
#
# Bulk Modulus (GPa) = 51.63673 53.05253 52.34463
# Shear Modulus (GPa) = 22.63343 8.39281 15.51312
#
# Velocity S-wave (km/s) = 4.03110 2.45472 3.33732
# Velocity P-wave (km/s) = 7.66416 6.79143 7.24095
#
# Compressibility (1/GPa) = 0.01936606
#
# Stress axis : x y z
#
# Youngs Moduli (GPa) = 32.16117 49.76464 32.69231
#
# Poissons Ratio (x) = 0.52659 0.57426
# Poissons Ratio (y) = 0.34032 0.09997
# Poissons Ratio (z) = 0.56493 0.15217
#
# Static dielectric constant tensor:
#      x y z
#    x 2.717640 0.000000 0.000000 
#    y 0.000000 2.888110 0.000000 
#    z 0.000000 0.000000 2.631700 
# 
# 
# High freq. dielectric constant tensor:
#      x y z
#    x 1.501500 0.000000 0.000000 
#    y 0.000000 1.547530 0.000000 
#    z 0.000000 0.000000 1.495200 
# 
# From -- ./inp_files/31696.got.cif
#   From: 2010.03.12/outbox.cif.g09.slc.cpg/sg24_16_cif.got.tgz:31696.got - 2010.04.14 03:06:53.
