data_PCOD8166242
_publ_section_title
;
Structure prediction by ZEFSAII (Michael W. Deem and Ramdas Pophale) SiO2 
 PCOD8166242
Probable space group: I 21 21 21
;
_chemical_formula_sum "Si O2"
_cell_formula_units_Z 24
_cell_length_a 21.073107
_cell_length_b 10.091877
_cell_length_c 4.933468
_cell_angle_alpha 90.000000
_cell_angle_beta 90.000000
_cell_angle_gamma 90.000000
_cell_volume 1049.186845
_symmetry_space_group_name_H-M "I 21 21 21"
_symmetry_group_IT_number 24
_symmetry_cell_setting 'orthorhombic'
loop_
_space_group_symop_operation_xyz
x,y,z
-x,1/2-y,z
x,-y,1/2-z
1/2-x,y,-z
1/2+x,1/2+y,1/2+z
1/2-x,-y,1/2+z
1/2+x,1/2-y,-z
-x,1/2+y,1/2-z
loop_
_atom_site_type_symbol
_atom_site_label
_atom_site_fract_x
_atom_site_fract_y
_atom_site_fract_z
Si Si1 0.203269 0.500000 0.750000
Si Si2 0.056207 0.845880 0.265424
Si Si3 0.750000 0.579123 0.000000
Si Si4 0.366357 0.232252 0.260711
O O1 0.250000 0.475236 0.500000
O O2 0.153529 0.382258 0.797503
O O3 0.113147 0.835975 0.480685
O O4 0.000000 0.750000 0.369196
O O5 0.034455 0.000000 0.250000
O O6 0.077536 0.786271 0.977136
O O7 0.718482 0.500000 0.750000
O O8 0.803874 0.663630 0.864205
#
# Coordination Sequence:
#
# PCOD8166242 Si02
#       4
#     4   8   4   8
#     4  12  26  46  72 110 144 188 230 282 360 432
#     4  12  28  49  74 104 140 189 243 294 352 416
#     4  12  24  42  72 104 140 182 226 294 364 424
#     4  12  26  46  73 104 145 181 238 292 352 428
#
# _framework density 22.874858
#
# number of rings (size 3 to 8) (size 9 to 14) (size 15 to 20)
#    0.000    0.000    1.667    9.000    7.000    0.000 
#    0.000    0.000    0.000    0.000    0.000    0.000 
#    0.000    0.000    0.000    0.000    0.000    0.000 
#
# Total GULP energy -148832.463045 kJ/mol
# GULP energy per Si atom -12402.705254 kJ/mol
# Density = 2.282279 g / cm^3
# Si number density = 22.874858 Si / 1000 Ang^3
#
#
#
# Elastic Constant Matrix: (Units=GPa)
#
#
# Indices 1 2 3 4 5 6 
#
# 1 88.0596 59.6828 11.8293 0.0000 0.0000 0.0000
# 2 59.6828 174.5404 34.0371 0.0000 0.0000 0.0000
# 3 11.8293 34.0371 108.6205 0.0000 0.0000 0.0000
# 4 0.0000 0.0000 0.0000 35.6717 0.0000 0.0000
# 5 0.0000 0.0000 0.0000 0.0000 40.8474 0.0000
# 6 0.0000 0.0000 0.0000 0.0000 0.0000 73.0369
#
#
#
# Elastic Compliance Matrix: (Units=1/GPa)
#
#
# Indices 1 2 3 4 5 6 
#
# 1 0.014782 -0.005049 -0.000028 0.000000 0.000000 0.000000
# 2 -0.005049 0.007827 -0.001903 0.000000 0.000000 0.000000
# 3 -0.000028 -0.001903 0.009806 0.000000 0.000000 0.000000
# 4 0.000000 0.000000 0.000000 0.028033 0.000000 0.000000
# 5 0.000000 0.000000 0.000000 0.000000 0.024481 0.000000
# 6 0.000000 0.000000 0.000000 0.000000 0.000000 0.013692
#
#
# Mechanical properties :
#
#
# Convention : Reuss Voigt Hill
#
# Bulk Modulus (GPa) = 54.18509 64.70210 59.44360
# Shear Modulus (GPa) = 42.11185 47.62263 44.86724
#
# Velocity S-wave (km/s) = 4.29530 4.56771 4.43360
# Velocity P-wave (km/s) = 6.95259 7.49435 7.22855
#
# Compressibility (1/GPa) = 0.01845526
#
# Stress axis : x y z
#
# Youngs Moduli (GPa) = 67.65114 127.76464 101.98234
#
# Poissons Ratio (x) = 0.64510 0.00282
# Poissons Ratio (y) = 0.34158 0.19405
# Poissons Ratio (z) = 0.00187 0.24310
#
# Static dielectric constant tensor:
#      x y z
#    x 3.985210 0.000000 0.000000 
#    y 0.000000 4.566590 0.000000 
#    z 0.000000 0.000000 4.543950 
# 
# 
# High freq. dielectric constant tensor:
#      x y z
#    x 1.907170 0.000000 0.000000 
#    y 0.000000 1.916240 0.000000 
#    z 0.000000 0.000000 1.922970 
# 
# From -- ./inp_files/5169.got.cif
#   From: 2010.03.12/outbox.cif.g09.slc.cpg/sg24_3_cif.got.tgz:5169.got - 2010.04.14 03:06:53.
