data_PCOD8166512
_publ_section_title
;
Structure prediction by ZEFSAII (Michael W. Deem and Ramdas Pophale) SiO2 
 PCOD8166512
Probable space group: P M M 2
;
_chemical_formula_sum "Si O2"
_cell_formula_units_Z 32
_cell_length_a 14.574869
_cell_length_b 9.036660
_cell_length_c 12.494878
_cell_angle_alpha 90.000000
_cell_angle_beta 90.000000
_cell_angle_gamma 90.000000
_cell_volume 1645.677087
_symmetry_space_group_name_H-M "P M M 2"
_symmetry_group_IT_number 25
_symmetry_cell_setting 'orthorhombic'
loop_
_space_group_symop_operation_xyz
x,y,z
-x,-y,z
-x,y,z
x,-y,z
loop_
_atom_site_type_symbol
_atom_site_label
_atom_site_fract_x
_atom_site_fract_y
_atom_site_fract_z
Si Si1 0.217829 0.675491 0.418460
Si Si2 0.361836 0.835882 0.133689
Si Si3 0.104087 0.675498 0.624955
Si Si4 0.840176 0.165568 0.207693
Si Si5 0.602825 0.173477 0.901355
Si Si6 0.398772 0.173995 0.364598
Si Si7 0.100493 0.666038 0.016169
Si Si8 0.223704 0.323999 0.823543
O O1 0.225928 0.500000 0.409951
O O2 0.155821 0.726640 0.517649
O O3 0.167387 0.738317 0.314420
O O4 0.320818 0.741597 0.432110
O O5 0.253143 0.837118 0.141265
O O6 0.400985 0.761525 0.242561
O O7 0.403803 0.000000 0.128430
O O8 0.390619 0.757384 0.022322
O O9 0.098651 0.500000 0.630448
O O10 0.164531 0.736310 0.723641
O O11 0.000000 0.740373 0.627546
O O12 0.909703 0.239774 0.124748
O O13 0.872389 0.000000 0.238125
O O14 0.500000 0.201017 0.857200
O O15 0.674338 0.254666 0.822726
O O16 0.627397 0.000000 0.903317
O O17 0.500000 0.198873 0.415917
O O18 0.372178 0.000000 0.361580
O O19 0.130620 0.500000 0.047644
O O20 0.000000 0.665593 0.961413
O O21 0.172204 0.730890 0.930644
O O22 0.232108 0.500000 0.818210
#
# Coordination Sequence:
#
# PCOD8166512 Si02
#       8
#     4   4   4   4   4   4   4   4
#     4  10  20  34  55  82 110 139 181 233 278 320
#     4   8  14  27  48  72 101 140 182 214 247 304
#     4   9  19  38  62  82 101 137 186 229 275 330
#     4  10  19  33  53  77 110 148 181 217 265 325
#     4  10  19  32  52  78 110 148 184 217 262 322
#     4   9  17  31  52  78 110 150 189 221 263 322
#     4  10  20  33  52  80 111 141 174 219 277 333
#     4  10  20  36  58  81 107 137 179 232 275 317
#
# _framework density 19.444883999999998
#
# number of rings (size 3 to 8) (size 9 to 14) (size 15 to 20)
#    0.000    2.500    1.250    2.250    0.000    4.250 
#    0.000    3.125    0.000    9.000    0.000    0.000 
#    0.000    0.000    0.000    0.000    0.000    0.000 
#
# Total GULP energy -396594.750883 kJ/mol
# GULP energy per Si atom -12393.585965 kJ/mol
# Density = 1.940063 g / cm^3
# Si number density = 19.444884 Si / 1000 Ang^3
#
#
#
# Elastic Constant Matrix: (Units=GPa)
#
#
# Indices 1 2 3 4 5 6 
#
# 1 139.1038 36.2790 68.1341 0.0000 0.0000 0.0000
# 2 36.2790 57.5080 38.0690 0.0000 0.0000 0.0000
# 3 68.1341 38.0690 111.8777 0.0000 0.0000 0.0000
# 4 0.0000 0.0000 0.0000 16.7259 0.0000 0.0000
# 5 0.0000 0.0000 0.0000 0.0000 25.0278 0.0000
# 6 0.0000 0.0000 0.0000 0.0000 0.0000 23.7243
#
#
#
# Elastic Compliance Matrix: (Units=1/GPa)
#
#
# Indices 1 2 3 4 5 6 
#
# 1 0.010665 -0.003135 -0.005429 0.000000 0.000000 0.000000
# 2 -0.003135 0.023366 -0.006042 0.000000 0.000000 0.000000
# 3 -0.005429 -0.006042 0.014300 0.000000 0.000000 0.000000
# 4 0.000000 0.000000 0.000000 0.059788 0.000000 0.000000
# 5 0.000000 0.000000 0.000000 0.000000 0.039956 0.000000
# 6 0.000000 0.000000 0.000000 0.000000 0.000000 0.042151
#
#
# Mechanical properties :
#
#
# Convention : Reuss Voigt Hill
#
# Bulk Modulus (GPa) = 52.29736 65.93932 59.11834
# Shear Modulus (GPa) = 22.14255 24.16275 23.15265
#
# Velocity S-wave (km/s) = 3.37817 3.52892 3.45437
# Velocity P-wave (km/s) = 6.49382 7.11258 6.81023
#
# Compressibility (1/GPa) = 0.01912142
#
# Stress axis : x y z
#
# Youngs Moduli (GPa) = 93.76111 42.79738 69.92875
#
# Poissons Ratio (x) = 0.13415 0.37962
# Poissons Ratio (y) = 0.29391 0.42249
# Poissons Ratio (z) = 0.50900 0.25857
#
# Static dielectric constant tensor:
#      x y z
#    x 3.648210 0.000000 0.000000 
#    y 0.000000 3.243360 0.000000 
#    z 0.000000 0.000000 3.432590 
# 
# 
# High freq. dielectric constant tensor:
#      x y z
#    x 1.768010 0.000000 0.000000 
#    y 0.000000 1.721540 0.000000 
#    z 0.000000 0.000000 1.738700 
# 
# From -- ./inp_files/4917.got.cif
#   From: 2010.03.12/outbox.cif.g09.slc.cpg/sg25_3_cif.got.tgz:4917.got - 2010.04.14 03:30:10.
