data_PCOD8166757
_publ_section_title
;
Structure prediction by ZEFSAII (Michael W. Deem and Ramdas Pophale) SiO2 
 PCOD8166757
Probable space group: P M M 2
;
_chemical_formula_sum "Si O2"
_cell_formula_units_Z 28
_cell_length_a 8.671108
_cell_length_b 9.167481
_cell_length_c 18.106687
_cell_angle_alpha 90.000000
_cell_angle_beta 90.000000
_cell_angle_gamma 90.000000
_cell_volume 1439.340707
_symmetry_space_group_name_H-M "P M M 2"
_symmetry_group_IT_number 25
_symmetry_cell_setting 'orthorhombic'
loop_
_space_group_symop_operation_xyz
x,y,z
-x,-y,z
-x,y,z
x,-y,z
loop_
_atom_site_type_symbol
_atom_site_label
_atom_site_fract_x
_atom_site_fract_y
_atom_site_fract_z
Si Si1 0.816046 0.664949 0.688370
Si Si2 0.821330 0.170873 0.098936
Si Si3 0.816159 0.835284 0.545289
Si Si4 0.320420 0.332340 0.965915
Si Si5 0.184071 0.663577 0.402941
Si Si6 0.183082 0.161474 0.264136
Si Si7 0.817518 0.836003 0.830481
O O1 0.752103 0.500000 0.688489
O O2 0.753085 0.747580 0.616044
O O3 0.750873 0.747707 0.760423
O O4 0.000000 0.664283 0.688554
O O5 0.770506 0.214207 0.182139
O O6 0.000000 0.208899 0.084998
O O7 0.792328 0.000000 0.084770
O O8 0.715805 0.266339 0.045778
O O9 0.753144 0.757978 0.471456
O O10 0.000000 0.835714 0.545536
O O11 0.752317 0.000000 0.548039
O O12 0.500000 0.316731 0.949170
O O13 0.267155 0.500000 0.963897
O O14 0.226879 0.243786 0.905289
O O15 0.248024 0.500000 0.410691
O O16 0.249107 0.730061 0.326365
O O17 0.000000 0.664032 0.402762
O O18 0.000000 0.153907 0.268998
O O19 0.250387 0.000000 0.279193
O O20 0.000000 0.842618 0.825383
O O21 0.749258 0.000000 0.829881
#
# Coordination Sequence:
#
# PCOD8166757 Si02
#       7
#     4   4   4   4   4   4   4
#     4   9  16  26  41  62  89 120 154 193 236 281
#     4   9  18  33  53  75  97 124 161 202 243 290
#     4   9  15  22  33  51  80 119 158 193 231 275
#     4  11  24  38  51  71  99 128 159 197 242 291
#     4   9  15  21  31  51  81 117 155 191 229 275
#     4   8  14  25  40  59  85 116 150 189 232 278
#     4  10  20  34  53  75  97 124 161 201 241 289
#
# _framework density 19.45335
#
# number of rings (size 3 to 8) (size 9 to 14) (size 15 to 20)
#    0.000    2.714    0.000    3.429    0.000    9.714 
#    0.000    1.429    0.000    0.000    0.000    0.000 
#    0.000    1.143    0.000    8.286    0.000   12.571 
#
# Total GULP energy -347165.964263 kJ/mol
# GULP energy per Si atom -12398.784438 kJ/mol
# Density = 1.940907 g / cm^3
# Si number density = 19.453350 Si / 1000 Ang^3
#
#
#
# Elastic Constant Matrix: (Units=GPa)
#
#
# Indices 1 2 3 4 5 6 
#
# 1 7.2106 9.8678 4.4507 0.0000 0.0000 0.0000
# 2 9.8678 172.1320 95.5411 0.0000 0.0000 0.0000
# 3 4.4507 95.5411 168.7888 0.0000 0.0000 0.0000
# 4 0.0000 0.0000 0.0000 37.7146 0.0000 0.0000
# 5 0.0000 0.0000 0.0000 0.0000 -0.5712 0.0000
# 6 0.0000 0.0000 0.0000 0.0000 0.0000 11.7841
#
#
#
# Elastic Compliance Matrix: (Units=1/GPa)
#
#
# Indices 1 2 3 4 5 6 
#
# 1 0.150697 -0.009381 0.001336 0.000000 0.000000 0.000000
# 2 -0.009381 0.009055 -0.004878 0.000000 0.000000 0.000000
# 3 0.001336 -0.004878 0.008650 0.000000 0.000000 0.000000
# 4 0.000000 0.000000 0.000000 0.026515 0.000000 0.000000
# 5 0.000000 0.000000 0.000000 0.000000 -1.750799 0.000000
# 6 0.000000 0.000000 0.000000 0.000000 0.000000 0.084860
#
#
# Mechanical properties :
#
#
# Convention : Reuss Voigt Hill
#
# Bulk Modulus (GPa) = 7.01474 63.09451 35.05462
# Shear Modulus (GPa) = -3.57741 25.67031 11.04645
#
# Velocity S-wave (km/s) = -1.35756 3.63655 2.38553
# Velocity P-wave (km/s) = 1.07539 7.08073 5.06425
#
# Compressibility (1/GPa) = 0.14255702
#
# Stress axis : x y z
#
# Youngs Moduli (GPa) = 6.63585 110.43912 115.60064
#
# Poissons Ratio (x) = 1.03598 -0.15446
# Poissons Ratio (y) = 0.06225 0.56390
# Poissons Ratio (z) = -0.00887 0.53872
#
# Static dielectric constant tensor:
#      x y z
#    x 2.790770 0.000000 0.000000 
#    y 0.000000 3.806910 0.000000 
#    z 0.000000 0.000000 3.783250 
# 
# 
# High freq. dielectric constant tensor:
#      x y z
#    x 1.681600 0.000000 0.000000 
#    y 0.000000 1.769390 0.000000 
#    z 0.000000 0.000000 1.776430 
# 
# From -- ./inp_files/6102.got.cif
#   From: 2010.03.12/outbox.cif.g09.slc.cpg/sg25_4_cif.got.tgz:6102.got - 2010.04.14 03:30:10.
