data_PCOD8166434
_publ_section_title
;
Structure prediction by ZEFSAII (Michael W. Deem and Ramdas Pophale) SiO2 
 PCOD8166434
Probable space group: P M M 2
;
_chemical_formula_sum "Si O2"
_cell_formula_units_Z 28
_cell_length_a 14.372038
_cell_length_b 9.223986
_cell_length_c 12.946807
_cell_angle_alpha 90.000000
_cell_angle_beta 90.000000
_cell_angle_gamma 90.000000
_cell_volume 1716.325543
_symmetry_space_group_name_H-M "P M M 2"
_symmetry_group_IT_number 25
_symmetry_cell_setting 'orthorhombic'
loop_
_space_group_symop_operation_xyz
x,y,z
-x,-y,z
-x,y,z
x,-y,z
loop_
_atom_site_type_symbol
_atom_site_label
_atom_site_fract_x
_atom_site_fract_y
_atom_site_fract_z
Si Si1 0.390789 0.168869 0.485480
Si Si2 0.103262 0.333715 0.388612
Si Si3 0.897606 0.829635 0.598018
Si Si4 0.294866 0.330640 0.297469
Si Si5 0.608705 0.831552 0.116271
Si Si6 0.288670 0.171535 0.691166
Si Si7 0.396692 0.827614 0.885242
O O1 0.500000 0.196902 0.490423
O O2 0.348449 0.258337 0.391910
O O3 0.346872 0.226784 0.592471
O O4 0.367742 0.000000 0.467666
O O5 0.107252 0.500000 0.424159
O O6 0.125517 0.239495 0.488512
O O7 0.183500 0.301766 0.304783
O O8 0.000000 0.296305 0.343586
O O9 0.819372 0.780419 0.680253
O O10 0.000000 0.782503 0.638570
O O11 0.892238 0.000000 0.579868
O O12 0.318141 0.500000 0.298487
O O13 0.328215 0.263831 0.190433
O O14 0.500000 0.802609 0.138005
O O15 0.631522 0.000000 0.134573
O O16 0.635497 0.782170 0.000004
O O17 0.328341 0.238704 0.797837
O O18 0.298462 0.000000 0.697008
O O19 0.500000 0.767096 0.863017
O O20 0.399204 0.000000 0.880005
#
# Coordination Sequence:
#
# PCOD8166434 Si02
#       7
#     4   4   4   4   4   4   4
#     4  10  19  29  43  66  95 124 150 178 218 271
#     4   9  18  32  47  63  86 118 154 187 221 267
#     4   9  16  26  43  68  94 118 146 182 224 268
#     4  11  21  31  46  67  91 119 150 187 232 274
#     4   9  18  32  49  67  88 119 159 195 223 260
#     4   9  15  25  43  67  93 118 146 183 223 263
#     4   8  14  26  45  67  88 115 154 191 219 255
#
# _framework density 16.313922999999999
#
# number of rings (size 3 to 8) (size 9 to 14) (size 15 to 20)
#    0.000    2.714    1.429    2.143    0.000    4.571 
#    0.000    0.000    0.000    2.571    0.000    4.000 
#    0.000    0.000    0.000    0.000    0.000    0.000 
#
# Total GULP energy -347045.335045 kJ/mol
# GULP energy per Si atom -12394.476252 kJ/mol
# Density = 1.627679 g / cm^3
# Si number density = 16.313923 Si / 1000 Ang^3
#
#
#
# Elastic Constant Matrix: (Units=GPa)
#
#
# Indices 1 2 3 4 5 6 
#
# 1 130.1860 39.6853 86.0222 0.0000 0.0000 0.0000
# 2 39.6853 38.2388 36.6390 0.0000 0.0000 0.0000
# 3 86.0222 36.6390 135.3516 0.0000 0.0000 0.0000
# 4 0.0000 0.0000 0.0000 -3.8769 0.0000 0.0000
# 5 0.0000 0.0000 0.0000 0.0000 22.7607 0.0000
# 6 0.0000 0.0000 0.0000 0.0000 0.0000 18.7842
#
#
#
# Elastic Compliance Matrix: (Units=1/GPa)
#
#
# Indices 1 2 3 4 5 6 
#
# 1 0.015147 -0.008771 -0.007252 0.000000 0.000000 0.000000
# 2 -0.008771 0.040389 -0.005359 0.000000 0.000000 0.000000
# 3 -0.007252 -0.005359 0.013448 0.000000 0.000000 0.000000
# 4 0.000000 0.000000 0.000000 -0.257939 0.000000 0.000000
# 5 0.000000 0.000000 0.000000 0.000000 0.043935 0.000000
# 6 0.000000 0.000000 0.000000 0.000000 0.000000 0.053236
#
#
# Mechanical properties :
#
#
# Convention : Reuss Voigt Hill
#
# Bulk Modulus (GPa) = 38.13939 69.82992 53.98466
# Shear Modulus (GPa) = -124.13486 16.96226 -53.58630
#
# Velocity S-wave (km/s) = -8.73250 3.22800 -5.73745
# Velocity P-wave (km/s) = 8.84569 7.53592 3.27537
#
# Compressibility (1/GPa) = 0.02621961
#
# Stress axis : x y z
#
# Youngs Moduli (GPa) = 66.01864 24.75935 74.36064
#
# Poissons Ratio (x) = 0.21717 0.53930
# Poissons Ratio (y) = 0.57906 0.39847
# Poissons Ratio (z) = 0.47880 0.13267
#
# Static dielectric constant tensor:
#      x y z
#    x 3.430450 0.000000 0.000000 
#    y 0.000000 2.840730 0.000000 
#    z 0.000000 0.000000 3.150580 
# 
# 
# High freq. dielectric constant tensor:
#      x y z
#    x 1.635980 0.000000 0.000000 
#    y 0.000000 1.599630 0.000000 
#    z 0.000000 0.000000 1.612380 
# 
# From -- ./inp_files/5887.got.cif
#   From: 2010.03.12/outbox.cif.g09.slc.cpg/sg25_3_cif.got.tgz:5887.got - 2010.04.14 03:30:10.
