data_PCOD8166553
_publ_section_title
;
Structure prediction by ZEFSAII (Michael W. Deem and Ramdas Pophale) SiO2 
 PCOD8166553
Probable space group: P M M 2
;
_chemical_formula_sum "Si O2"
_cell_formula_units_Z 24
_cell_length_a 8.733419
_cell_length_b 11.771223
_cell_length_c 12.644419
_cell_angle_alpha 90.000000
_cell_angle_beta 90.000000
_cell_angle_gamma 90.000000
_cell_volume 1299.884492
_symmetry_space_group_name_H-M "P M M 2"
_symmetry_group_IT_number 25
_symmetry_cell_setting 'orthorhombic'
loop_
_space_group_symop_operation_xyz
x,y,z
-x,-y,z
-x,y,z
x,-y,z
loop_
_atom_site_type_symbol
_atom_site_label
_atom_site_fract_x
_atom_site_fract_y
_atom_site_fract_z
Si Si1 0.321540 0.869788 0.152340
Si Si2 0.319106 0.500000 0.650570
Si Si3 0.681142 0.500000 0.892281
Si Si4 0.823486 0.129711 0.373148
Si Si5 0.819450 0.728556 0.969777
Si Si6 0.180997 0.271427 0.576399
Si Si7 0.818000 0.126238 0.772661
O O1 0.500000 0.848958 0.133188
O O2 0.281614 0.841419 0.273242
O O3 0.275320 0.000000 0.126479
O O4 0.224863 0.784868 0.080424
O O5 0.500000 0.500000 0.652489
O O6 0.254778 0.500000 0.771382
O O7 0.260465 0.392541 0.585249
O O8 0.500000 0.500000 0.891217
O O9 0.739722 0.607796 0.957017
O O10 0.771650 0.213166 0.466608
O O11 0.000000 0.149882 0.342086
O O12 0.799187 0.000000 0.411264
O O13 0.758888 0.810208 0.876873
O O14 0.000000 0.710673 0.964182
O O15 0.243681 0.192289 0.670530
O O16 0.000000 0.287583 0.585241
O O17 0.000000 0.120195 0.770931
O O18 0.747535 0.000000 0.772536
#
# Coordination Sequence:
#
# PCOD8166553 Si02
#       7
#     4   2   2   4   4   4   4
#     4  10  21  37  57  82 116 154 187 225 279 339
#     4  11  23  37  54  77 112 153 189 225 271 330
#     4  11  23  39  56  77 112 153 191 229 279 338
#     4   9  18  34  58  86 113 143 183 232 281 329
#     4  11  21  35  58  84 111 144 189 236 278 329
#     4  10  19  34  57  82 110 143 185 230 274 326
#     4   9  17  29  50  82 113 138 170 220 278 329
#
# _framework density 18.463177000000002
#
# number of rings (size 3 to 8) (size 9 to 14) (size 15 to 20)
#    0.000    2.000    1.667    2.500    0.000    5.000 
#    0.000    0.833    0.000    5.500    0.000    0.000 
#    0.000    0.000    0.000    0.000    0.000    0.000 
#
# Total GULP energy -297684.548884 kJ/mol
# GULP energy per Si atom -12403.522870 kJ/mol
# Density = 1.842115 g / cm^3
# Si number density = 18.463177 Si / 1000 Ang^3
#
#
#
# Elastic Constant Matrix: (Units=GPa)
#
#
# Indices 1 2 3 4 5 6 
#
# 1 47.9888 34.1893 29.5141 0.0000 0.0000 0.0000
# 2 34.1893 155.7124 70.8082 0.0000 0.0000 0.0000
# 3 29.5141 70.8082 109.7882 0.0000 0.0000 0.0000
# 4 0.0000 0.0000 0.0000 27.5954 0.0000 0.0000
# 5 0.0000 0.0000 0.0000 0.0000 23.7496 0.0000
# 6 0.0000 0.0000 0.0000 0.0000 0.0000 19.8761
#
#
#
# Elastic Compliance Matrix: (Units=1/GPa)
#
#
# Indices 1 2 3 4 5 6 
#
# 1 0.026338 -0.003627 -0.004741 0.000000 0.000000 0.000000
# 2 -0.003627 0.009587 -0.005208 0.000000 0.000000 0.000000
# 3 -0.004741 -0.005208 0.013742 0.000000 0.000000 0.000000
# 4 0.000000 0.000000 0.000000 0.036238 0.000000 0.000000
# 5 0.000000 0.000000 0.000000 0.000000 0.042106 0.000000
# 6 0.000000 0.000000 0.000000 0.000000 0.000000 0.050312
#
#
# Mechanical properties :
#
#
# Convention : Reuss Voigt Hill
#
# Bulk Modulus (GPa) = 44.41577 64.72362 54.56969
# Shear Modulus (GPa) = 23.47645 26.17608 24.82626
#
# Velocity S-wave (km/s) = 3.56972 3.76938 3.67091
# Velocity P-wave (km/s) = 6.41086 7.35363 6.89837
#
# Compressibility (1/GPa) = 0.02251453
#
# Stress axis : x y z
#
# Youngs Moduli (GPa) = 37.96771 104.31108 72.77029
#
# Poissons Ratio (x) = 0.37834 0.34502
# Poissons Ratio (y) = 0.13771 0.37898
# Poissons Ratio (z) = 0.18001 0.54325
#
# Static dielectric constant tensor:
#      x y z
#    x 3.172520 0.000000 0.000000 
#    y 0.000000 3.460680 0.000000 
#    z 0.000000 0.000000 3.385920 
# 
# 
# High freq. dielectric constant tensor:
#      x y z
#    x 1.700940 0.000000 0.000000 
#    y 0.000000 1.720450 0.000000 
#    z 0.000000 0.000000 1.716930 
# 
# From -- ./inp_files/3970.got.cif
#   From: 2010.03.12/outbox.cif.g09.slc.cpg/sg25_2_cif.got.tgz:3970.got - 2010.04.14 03:30:10.
