data_PCOD8166784
_publ_section_title
;
Structure prediction by ZEFSAII (Michael W. Deem and Ramdas Pophale) SiO2 
 PCOD8166784
Probable space group: P M M 2
;
_chemical_formula_sum "Si O2"
_cell_formula_units_Z 28
_cell_length_a 9.033080
_cell_length_b 9.033708
_cell_length_c 17.961196
_cell_angle_alpha 90.000000
_cell_angle_beta 90.000000
_cell_angle_gamma 90.000000
_cell_volume 1465.673235
_symmetry_space_group_name_H-M "P M M 2"
_symmetry_group_IT_number 25
_symmetry_cell_setting 'orthorhombic'
loop_
_space_group_symop_operation_xyz
x,y,z
-x,-y,z
-x,y,z
x,-y,z
loop_
_atom_site_type_symbol
_atom_site_label
_atom_site_fract_x
_atom_site_fract_y
_atom_site_fract_z
Si Si1 0.671920 0.172199 0.784000
Si Si2 0.828478 0.326304 0.354791
Si Si3 0.823902 0.166785 0.503386
Si Si4 0.824233 0.332141 0.649023
Si Si5 0.326282 0.170902 0.219179
Si Si6 0.670006 0.670455 0.933940
Si Si7 0.173828 0.329524 0.085109
O O1 0.500000 0.206596 0.770279
O O2 0.766167 0.254237 0.722338
O O3 0.721430 0.230843 0.864585
O O4 0.708098 0.000000 0.779720
O O5 0.804615 0.500000 0.363394
O O6 0.767811 0.250065 0.429705
O O7 0.734423 0.267887 0.286398
O O8 0.000000 0.287266 0.340578
O O9 0.760880 0.249252 0.576141
O O10 0.000000 0.168188 0.505308
O O11 0.761684 0.000000 0.502664
O O12 0.766637 0.500000 0.646666
O O13 0.000000 0.325643 0.650099
O O14 0.500000 0.196475 0.212621
O O15 0.252772 0.223004 0.143037
O O16 0.286176 0.000000 0.233204
O O17 0.500000 0.702259 0.955477
O O18 0.693453 0.500000 0.911658
O O19 0.771415 0.715604 0.003302
O O20 0.215423 0.500000 0.102546
O O21 0.000000 0.303550 0.090152
#
# Coordination Sequence:
#
# PCOD8166784 Si02
#       7
#     4   4   4   4   4   4   4
#     4  10  21  36  54  78 109 144 181 222 269 320
#     4  10  20  35  57  83 109 139 178 222 267 318
#     4   9  17  31  53  80 110 143 177 217 268 321
#     4  10  20  34  54  80 109 142 182 226 269 316
#     4  11  24  39  55  78 109 144 181 221 266 316
#     4   9  18  34  55  77 105 143 182 219 263 317
#     4  10  21  37  58  84 111 139 175 219 266 318
#
# _framework density 19.103849
#
# number of rings (size 3 to 8) (size 9 to 14) (size 15 to 20)
#    0.000    2.143    0.000    3.000    0.000    9.143 
#    0.000    3.571    0.000    4.286    0.000    0.000 
#    0.000    0.000    0.000    0.000    0.000    0.000 
#
# Total GULP energy -347314.045387 kJ/mol
# GULP energy per Si atom -12404.073050 kJ/mol
# Density = 1.906037 g / cm^3
# Si number density = 19.103849 Si / 1000 Ang^3
#
#
#
# Elastic Constant Matrix: (Units=GPa)
#
#
# Indices 1 2 3 4 5 6 
#
# 1 43.9514 34.5487 36.7737 0.0000 0.0000 0.0000
# 2 34.5487 112.7354 68.3819 0.0000 0.0000 0.0000
# 3 36.7737 68.3819 130.8058 0.0000 0.0000 0.0000
# 4 0.0000 0.0000 0.0000 20.1905 0.0000 0.0000
# 5 0.0000 0.0000 0.0000 0.0000 202.8341 0.0000
# 6 0.0000 0.0000 0.0000 0.0000 0.0000 26.5509
#
#
#
# Elastic Compliance Matrix: (Units=1/GPa)
#
#
# Indices 1 2 3 4 5 6 
#
# 1 0.032719 -0.006513 -0.005794 0.000000 0.000000 0.000000
# 2 -0.006513 0.014286 -0.005637 0.000000 0.000000 0.000000
# 3 -0.005794 -0.005637 0.012221 0.000000 0.000000 0.000000
# 4 0.000000 0.000000 0.000000 0.049528 0.000000 0.000000
# 5 0.000000 0.000000 0.000000 0.000000 0.004930 0.000000
# 6 0.000000 0.000000 0.000000 0.000000 0.000000 0.037664
#
#
# Mechanical properties :
#
#
# Convention : Reuss Voigt Hill
#
# Bulk Modulus (GPa) = 42.84813 62.98902 52.91857
# Shear Modulus (GPa) = 25.63911 59.76765 42.70338
#
# Velocity S-wave (km/s) = 3.66743 5.59943 4.73306
# Velocity P-wave (km/s) = 6.35698 8.65149 7.59142
#
# Compressibility (1/GPa) = 0.02333824
#
# Stress axis : x y z
#
# Youngs Moduli (GPa) = 30.56287 70.00075 81.82847
#
# Poissons Ratio (x) = 0.45590 0.47409
# Poissons Ratio (y) = 0.19905 0.46128
# Poissons Ratio (z) = 0.17707 0.39461
#
# Static dielectric constant tensor:
#      x y z
#    x 3.268360 0.000000 0.000000 
#    y 0.000000 3.681400 0.000000 
#    z 0.000000 0.000000 3.625900 
# 
# 
# High freq. dielectric constant tensor:
#      x y z
#    x 1.721370 0.000000 0.000000 
#    y 0.000000 1.753740 0.000000 
#    z 0.000000 0.000000 1.758260 
# 
# From -- ./inp_files/6091.got.cif
#   From: 2010.03.12/outbox.cif.g09.slc.cpg/sg25_4_cif.got.tgz:6091.got - 2010.04.14 03:30:10.
