data_PCOD8166715
_publ_section_title
;
Structure prediction by ZEFSAII (Michael W. Deem and Ramdas Pophale) SiO2 
 PCOD8166715
Probable space group: P M M 2
;
_chemical_formula_sum "Si O2"
_cell_formula_units_Z 20
_cell_length_a 7.766725
_cell_length_b 9.614056
_cell_length_c 14.481856
_cell_angle_alpha 90.000000
_cell_angle_beta 90.000000
_cell_angle_gamma 90.000000
_cell_volume 1081.356264
_symmetry_space_group_name_H-M "P M M 2"
_symmetry_group_IT_number 25
_symmetry_cell_setting 'orthorhombic'
loop_
_space_group_symop_operation_xyz
x,y,z
-x,-y,z
-x,y,z
x,-y,z
loop_
_atom_site_type_symbol
_atom_site_label
_atom_site_fract_x
_atom_site_fract_y
_atom_site_fract_z
Si Si1 0.500000 0.164561 0.698251
Si Si2 0.191493 0.159245 0.030331
Si Si3 0.500000 0.834665 0.903878
Si Si4 0.802306 0.163089 0.565444
Si Si5 0.696059 0.657938 0.191575
Si Si6 0.201852 0.656847 0.391424
O O1 0.500000 0.230127 0.800946
O O2 0.674518 0.213134 0.646639
O O3 0.500000 0.000000 0.705217
O O4 0.193070 0.245238 0.124967
O O5 0.000000 0.171393 0.987092
O O6 0.236520 0.000000 0.054884
O O7 0.328863 0.218364 0.956632
O O8 0.500000 0.000000 0.897478
O O9 0.741261 0.242167 0.473642
O O10 0.000000 0.200600 0.592424
O O11 0.782754 0.000000 0.545869
O O12 0.500000 0.667694 0.158833
O O13 0.765993 0.500000 0.184698
O O14 0.710491 0.709732 0.297125
O O15 0.262350 0.500000 0.415488
O O16 0.000000 0.663153 0.375627
#
# Coordination Sequence:
#
# PCOD8166715 Si02
#       6
#     2   4   2   4   4   4
#     4   9  18  32  52  75 100 130 163 205 256 299
#     4  10  20  34  54  78 103 134 170 209 256 302
#     4   9  18  34  52  75 104 128 163 213 256 303
#     4   9  18  32  50  74 101 129 166 207 245 291
#     4  10  20  33  51  76 105 138 174 208 248 301
#     4   9  18  32  49  71 101 135 168 202 243 293
#
# _framework density 18.495293
#
# number of rings (size 3 to 8) (size 9 to 14) (size 15 to 20)
#    0.000    2.600    1.000    0.600    1.400    2.800 
#    0.000    6.000    0.000    2.400    0.000    2.800 
#    0.000    0.000    0.000    0.000    0.000    0.000 
#
# Total GULP energy -247978.558958 kJ/mol
# GULP energy per Si atom -12398.927948 kJ/mol
# Density = 1.845320 g / cm^3
# Si number density = 18.495293 Si / 1000 Ang^3
#
#
#
# Elastic Constant Matrix: (Units=GPa)
#
#
# Indices 1 2 3 4 5 6 
#
# 1 106.7951 28.6276 68.0671 0.0000 0.0000 0.0000
# 2 28.6276 44.7108 50.2221 0.0000 0.0000 0.0000
# 3 68.0671 50.2221 148.5506 0.0000 0.0000 0.0000
# 4 0.0000 0.0000 0.0000 4.9371 0.0000 0.0000
# 5 0.0000 0.0000 0.0000 0.0000 26.4883 0.0000
# 6 0.0000 0.0000 0.0000 0.0000 0.0000 15.7531
#
#
#
# Elastic Compliance Matrix: (Units=1/GPa)
#
#
# Indices 1 2 3 4 5 6 
#
# 1 0.013428 -0.002719 -0.005234 0.000000 0.000000 0.000000
# 2 -0.002719 0.036610 -0.011131 0.000000 0.000000 0.000000
# 3 -0.005234 -0.011131 0.012893 0.000000 0.000000 0.000000
# 4 0.000000 0.000000 0.000000 0.202546 0.000000 0.000000
# 5 0.000000 0.000000 0.000000 0.000000 0.037753 0.000000
# 6 0.000000 0.000000 0.000000 0.000000 0.000000 0.063480
#
#
# Mechanical properties :
#
#
# Convention : Reuss Voigt Hill
#
# Bulk Modulus (GPa) = 40.38189 65.98779 53.18484
# Shear Modulus (GPa) = 12.10263 19.64500 15.87382
#
# Velocity S-wave (km/s) = 2.56083 3.26262 2.93279
# Velocity P-wave (km/s) = 5.53397 7.06743 6.34718
#
# Compressibility (1/GPa) = 0.02476358
#
# Stress axis : x y z
#
# Youngs Moduli (GPa) = 74.46915 27.31458 77.56055
#
# Poissons Ratio (x) = 0.07427 0.40593
# Poissons Ratio (y) = 0.20249 0.86336
# Poissons Ratio (z) = 0.38975 0.30405
#
# Static dielectric constant tensor:
#      x y z
#    x 3.517330 0.000000 0.000000 
#    y 0.000000 3.203240 0.000000 
#    z 0.000000 0.000000 3.454060 
# 
# 
# High freq. dielectric constant tensor:
#      x y z
#    x 1.730070 0.000000 0.000000 
#    y 0.000000 1.685960 0.000000 
#    z 0.000000 0.000000 1.708610 
# 
# From -- ./inp_files/5114.got.cif
#   From: 2010.03.12/outbox.cif.g09.slc.cpg/sg25_3_cif.got.tgz:5114.got - 2010.04.14 03:30:10.
