data_PCOD8166351
_publ_section_title
;
Structure prediction by ZEFSAII (Michael W. Deem and Ramdas Pophale) SiO2 
 PCOD8166351
Probable space group: P M M 2
;
_chemical_formula_sum "Si O2"
_cell_formula_units_Z 32
_cell_length_a 14.104374
_cell_length_b 8.929221
_cell_length_c 15.564112
_cell_angle_alpha 90.000000
_cell_angle_beta 90.000000
_cell_angle_gamma 90.000000
_cell_volume 1960.160958
_symmetry_space_group_name_H-M "P M M 2"
_symmetry_group_IT_number 25
_symmetry_cell_setting 'orthorhombic'
loop_
_space_group_symop_operation_xyz
x,y,z
-x,-y,z
-x,y,z
x,-y,z
loop_
_atom_site_type_symbol
_atom_site_label
_atom_site_fract_x
_atom_site_fract_y
_atom_site_fract_z
Si Si1 0.107230 0.674971 0.318300
Si Si2 0.612777 0.833116 0.698326
Si Si3 0.389378 0.674401 0.215269
Si Si4 0.394341 0.177975 0.885288
Si Si5 0.704024 0.174734 0.055396
Si Si6 0.713781 0.176687 0.374379
Si Si7 0.387591 0.329797 0.529883
Si Si8 0.894613 0.828794 0.140378
O O1 0.126902 0.500000 0.326600
O O2 0.178566 0.762743 0.380909
O O3 0.126365 0.721569 0.220164
O O4 0.000000 0.716272 0.345440
O O5 0.500000 0.841151 0.698126
O O6 0.644483 0.768004 0.791796
O O7 0.649497 0.724573 0.622967
O O8 0.654197 0.000000 0.682561
O O9 0.500000 0.705231 0.227633
O O10 0.365079 0.500000 0.222927
O O11 0.357746 0.733595 0.122955
O O12 0.333883 0.760856 0.288832
O O13 0.500000 0.242188 0.903442
O O14 0.399570 0.000000 0.881823
O O15 0.323838 0.232685 0.960396
O O16 0.816444 0.204510 0.067422
O O17 0.679094 0.000000 0.066611
O O18 0.656802 0.225960 0.457701
O O19 0.714530 0.000000 0.369134
O O20 0.500000 0.314630 0.523073
O O21 0.354594 0.500000 0.515906
O O22 0.000000 0.798496 0.102342
O O23 0.885847 0.000000 0.172978
#
# Coordination Sequence:
#
# PCOD8166351 Si02
#       8
#     4   4   4   4   4   4   4   4
#     4  10  20  34  52  71  93 123 157 196 242 286
#     4   8  14  27  46  66  89 119 156 199 242 283
#     4  11  23  35  45  62  94 131 163 197 235 278
#     4   8  14  25  43  67  93 120 156 200 239 281
#     4  10  18  29  47  69  92 126 164 198 237 283
#     4  12  23  34  50  71  94 125 161 197 235 282
#     4  10  20  33  49  70  97 126 157 198 243 288
#     4   9  17  29  45  67  94 123 159 202 242 278
#
# _framework density 16.325191
#
# number of rings (size 3 to 8) (size 9 to 14) (size 15 to 20)
#    0.000    2.250    1.250    3.750    0.000    4.500 
#    0.000    0.625    0.000    2.250    0.000    0.875 
#    0.000    3.000    0.000    0.000    0.000    0.000 
#
# Total GULP energy -396732.454423 kJ/mol
# GULP energy per Si atom -12397.889201 kJ/mol
# Density = 1.628803 g / cm^3
# Si number density = 16.325191 Si / 1000 Ang^3
#
#
#
# Elastic Constant Matrix: (Units=GPa)
#
#
# Indices 1 2 3 4 5 6 
#
# 1 63.8085 41.9704 33.1522 0.0000 0.0000 0.0000
# 2 41.9704 86.7161 42.2914 0.0000 0.0000 0.0000
# 3 33.1522 42.2914 103.0635 0.0000 0.0000 0.0000
# 4 0.0000 0.0000 0.0000 -1.9899 0.0000 0.0000
# 5 0.0000 0.0000 0.0000 0.0000 9.0830 0.0000
# 6 0.0000 0.0000 0.0000 0.0000 0.0000 20.9416
#
#
#
# Elastic Compliance Matrix: (Units=1/GPa)
#
#
# Indices 1 2 3 4 5 6 
#
# 1 0.024071 -0.009844 -0.003703 0.000000 0.000000 0.000000
# 2 -0.009844 0.018443 -0.004401 0.000000 0.000000 0.000000
# 3 -0.003703 -0.004401 0.012700 0.000000 0.000000 0.000000
# 4 0.000000 0.000000 0.000000 -0.502550 0.000000 0.000000
# 5 0.000000 0.000000 0.000000 0.000000 0.110095 0.000000
# 6 0.000000 0.000000 0.000000 0.000000 0.000000 0.047752
#
#
# Mechanical properties :
#
#
# Convention : Reuss Voigt Hill
#
# Bulk Modulus (GPa) = 51.76998 54.26846 53.01922
# Shear Modulus (GPa) = -20.23051 14.68524 -2.77264
#
# Velocity S-wave (km/s) = -3.52408 3.00249 -1.30463
# Velocity P-wave (km/s) = 3.90151 6.73307 5.50255
#
# Compressibility (1/GPa) = 0.01931621
#
# Stress axis : x y z
#
# Youngs Moduli (GPa) = 41.54361 54.22104 78.73956
#
# Poissons Ratio (x) = 0.53376 0.29160
# Poissons Ratio (y) = 0.40896 0.34657
# Poissons Ratio (z) = 0.15385 0.23865
#
# Static dielectric constant tensor:
#      x y z
#    x 3.154280 0.000000 0.000000 
#    y 0.000000 3.098370 0.000000 
#    z 0.000000 0.000000 3.251710 
# 
# 
# High freq. dielectric constant tensor:
#      x y z
#    x 1.610950 0.000000 0.000000 
#    y 0.000000 1.625730 0.000000 
#    z 0.000000 0.000000 1.616370 
# 
# From -- ./inp_files/5940.got.cif
#   From: 2010.03.12/outbox.cif.g09.slc.cpg/sg25_3_cif.got.tgz:5940.got - 2010.04.14 03:30:10.
