data_PCOD8166870
_publ_section_title
;
Structure prediction by ZEFSAII (Michael W. Deem and Ramdas Pophale) SiO2 
 PCOD8166870
Probable space group: P M M 2
;
_chemical_formula_sum "Si O2"
_cell_formula_units_Z 32
_cell_length_a 9.326119
_cell_length_b 9.627223
_cell_length_c 20.812897
_cell_angle_alpha 90.000000
_cell_angle_beta 90.000000
_cell_angle_gamma 90.000000
_cell_volume 1868.678201
_symmetry_space_group_name_H-M "P M M 2"
_symmetry_group_IT_number 25
_symmetry_cell_setting 'orthorhombic'
loop_
_space_group_symop_operation_xyz
x,y,z
-x,-y,z
-x,y,z
x,-y,z
loop_
_atom_site_type_symbol
_atom_site_label
_atom_site_fract_x
_atom_site_fract_y
_atom_site_fract_z
Si Si1 0.333247 0.839556 0.314920
Si Si2 0.672090 0.344308 0.706965
Si Si3 0.328457 0.343989 0.431610
Si Si4 0.668172 0.839430 0.963605
Si Si5 0.168710 0.338889 0.066782
Si Si6 0.670085 0.846770 0.819115
Si Si7 0.657258 0.665138 0.569361
Si Si8 0.832761 0.159404 0.188446
O O1 0.500000 0.807601 0.304063
O O2 0.270588 0.755683 0.375662
O O3 0.251112 0.790637 0.251411
O O4 0.304323 0.000000 0.329394
O O5 0.500000 0.338831 0.705130
O O6 0.725356 0.500000 0.720315
O O7 0.736778 0.252799 0.764759
O O8 0.732636 0.290460 0.637028
O O9 0.500000 0.339062 0.435638
O O10 0.276424 0.500000 0.415930
O O11 0.265316 0.293953 0.501681
O O12 0.500000 0.818260 0.975402
O O13 0.753817 0.733591 0.007626
O O14 0.710088 0.000000 0.977721
O O15 0.711571 0.798377 0.890819
O O16 0.214645 0.500000 0.071613
O O17 0.217274 0.259612 0.131212
O O18 0.000000 0.323385 0.056130
O O19 0.500000 0.849115 0.813450
O O20 0.732180 0.000000 0.806460
O O21 0.500000 0.734229 0.568693
O O22 0.641199 0.500000 0.570519
O O23 0.000000 0.175451 0.202828
O O24 0.793939 0.000000 0.170550
#
# Coordination Sequence:
#
# PCOD8166870 Si02
#       8
#     4   4   4   4   4   4   4   4
#     4   9  17  28  42  62  86 108 134 173 214 248
#     4   8  12  18  30  48  71 103 141 174 204 244
#     4   8  13  22  36  53  76 108 141 170 204 248
#     4   9  18  32  49  68  91 121 154 184 217 263
#     4  10  21  35  50  70  94 116 142 182 227 266
#     4   8  14  24  36  53  80 110 139 174 213 249
#     4   7  10  17  29  46  70 102 139 172 200 239
#     4   9  18  33  50  64  82 113 146 171 205 259
#
# _framework density 17.124403000000001
#
# number of rings (size 3 to 8) (size 9 to 14) (size 15 to 20)
#    0.000    3.500    0.000    2.625    0.000    2.500 
#    0.000    3.125    0.000    3.750    0.000    0.000 
#    0.000    1.000    0.000    7.000    0.000   10.750 
#
# Total GULP energy -396449.832881 kJ/mol
# GULP energy per Si atom -12389.057278 kJ/mol
# Density = 1.708543 g / cm^3
# Si number density = 17.124403 Si / 1000 Ang^3
#
#
#
# Elastic Constant Matrix: (Units=GPa)
#
#
# Indices 1 2 3 4 5 6 
#
# 1 15.8283 22.3556 33.6316 0.0000 0.0000 0.0000
# 2 22.3556 95.8131 97.0381 0.0000 0.0000 0.0000
# 3 33.6316 97.0381 195.3612 0.0000 0.0000 0.0000
# 4 0.0000 0.0000 0.0000 34.7560 0.0000 0.0000
# 5 0.0000 0.0000 0.0000 0.0000 -2.1389 0.0000
# 6 0.0000 0.0000 0.0000 0.0000 0.0000 14.5760
#
#
#
# Elastic Compliance Matrix: (Units=1/GPa)
#
#
# Indices 1 2 3 4 5 6 
#
# 1 0.106746 -0.012668 -0.012084 0.000000 0.000000 0.000000
# 2 -0.012668 0.022506 -0.008998 0.000000 0.000000 0.000000
# 3 -0.012084 -0.008998 0.011669 0.000000 0.000000 0.000000
# 4 0.000000 0.000000 0.000000 0.028772 0.000000 0.000000
# 5 0.000000 0.000000 0.000000 0.000000 -0.467529 0.000000
# 6 0.000000 0.000000 0.000000 0.000000 0.000000 0.068606
#
#
# Mechanical properties :
#
#
# Convention : Reuss Voigt Hill
#
# Bulk Modulus (GPa) = 13.62028 68.11702 40.86865
# Shear Modulus (GPa) = -36.42801 19.70377 -8.36212
#
# Velocity S-wave (km/s) = -4.61722 3.39577 -2.21218
# Velocity P-wave (km/s) = 4.52261 7.43230 4.17044
#
# Compressibility (1/GPa) = 0.07341995
#
# Stress axis : x y z
#
# Youngs Moduli (GPa) = 9.36805 44.43276 85.70072
#
# Poissons Ratio (x) = 0.56287 1.03562
# Poissons Ratio (y) = 0.11867 0.77115
# Poissons Ratio (z) = 0.11321 0.39981
#
# Static dielectric constant tensor:
#      x y z
#    x 2.627110 0.000000 0.000000 
#    y 0.000000 3.215660 0.000000 
#    z 0.000000 0.000000 3.643960 
# 
# 
# High freq. dielectric constant tensor:
#      x y z
#    x 1.595350 0.000000 0.000000 
#    y 0.000000 1.646450 0.000000 
#    z 0.000000 0.000000 1.683210 
# 
# From -- ./inp_files/6369.got.cif
#   From: 2010.03.12/outbox.cif.g09.slc.cpg/sg25_4_cif.got.tgz:6369.got - 2010.04.14 03:30:10.
