data_PCOD8166861
_publ_section_title
;
Structure prediction by ZEFSAII (Michael W. Deem and Ramdas Pophale) SiO2 
 PCOD8166861
Probable space group: P M M 2
;
_chemical_formula_sum "Si O2"
_cell_formula_units_Z 32
_cell_length_a 9.608046
_cell_length_b 20.307485
_cell_length_c 9.958719
_cell_angle_alpha 90.000000
_cell_angle_beta 90.000000
_cell_angle_gamma 90.000000
_cell_volume 1943.097948
_symmetry_space_group_name_H-M "P M M 2"
_symmetry_group_IT_number 25
_symmetry_cell_setting 'orthorhombic'
loop_
_space_group_symop_operation_xyz
x,y,z
-x,-y,z
-x,y,z
x,-y,z
loop_
_atom_site_type_symbol
_atom_site_label
_atom_site_fract_x
_atom_site_fract_y
_atom_site_fract_z
Si Si1 0.162036 0.077328 0.125000
Si Si2 0.334963 0.836734 0.921797
Si Si3 0.660391 0.923665 0.382728
Si Si4 0.844153 0.572711 0.929338
Si Si5 0.335442 0.829924 0.619540
Si Si6 0.346868 0.312054 0.927966
Si Si7 0.844485 0.572461 0.610071
Si Si8 0.345584 0.313149 0.608913
O O1 0.238588 0.097307 0.262591
O O2 0.000000 0.098217 0.132293
O O3 0.177251 0.000000 0.098126
O O4 0.241212 0.114047 0.006458
O O5 0.500000 0.851207 0.940471
O O6 0.285001 0.848969 0.768563
O O7 0.298843 0.761878 0.966267
O O8 0.500000 0.906304 0.345748
O O9 0.712362 0.884836 0.514145
O O10 0.675627 0.000000 0.417850
O O11 0.786987 0.500000 0.971286
O O12 0.752435 0.631885 0.991603
O O13 0.844789 0.578118 0.769716
O O14 0.000000 0.581542 0.985040
O O15 0.500000 0.822438 0.627256
O O16 0.278712 0.758135 0.572791
O O17 0.500000 0.324769 0.987767
O O18 0.352089 0.318665 0.768627
O O19 0.789436 0.500000 0.567338
O O20 0.747696 0.628779 0.545752
O O21 0.000000 0.583019 0.554804
O O22 0.500000 0.321093 0.547756
#
# Coordination Sequence:
#
# PCOD8166861 Si02
#       8
#     4   4   4   4   4   4   4   4
#     4  10  21  35  48  65  91 119 147 182 222 263
#     4   9  17  30  48  69  92 118 149 184 222 266
#     4   9  17  31  51  70  87 113 148 181 217 263
#     4   8  13  20  30  46  71 106 145 178 208 247
#     4   8  15  28  46  69  93 114 143 185 224 259
#     4   8  14  23  35  54  80 108 138 174 215 255
#     4   8  13  20  29  44  70 104 141 177 207 240
#     4   8  13  22  35  52  78 108 135 169 213 255
#
# _framework density 16.468547999999998
#
# number of rings (size 3 to 8) (size 9 to 14) (size 15 to 20)
#    0.000    3.500    0.000    2.625    0.000    2.250 
#    0.000    6.875    0.000    1.500    0.000    0.000 
#    0.000    1.000    0.000    9.500    0.000   15.750 
#
# Total GULP energy -396517.165640 kJ/mol
# GULP energy per Si atom -12391.161426 kJ/mol
# Density = 1.643106 g / cm^3
# Si number density = 16.468548 Si / 1000 Ang^3
#
#
#
# Elastic Constant Matrix: (Units=GPa)
#
#
# Indices 1 2 3 4 5 6 
#
# 1 83.2184 61.3986 39.3580 0.0000 0.0000 0.0000
# 2 61.3986 107.7784 53.1321 0.0000 0.0000 0.0000
# 3 39.3580 53.1321 57.5560 0.0000 0.0000 0.0000
# 4 0.0000 0.0000 0.0000 0.3615 0.0000 0.0000
# 5 0.0000 0.0000 0.0000 0.0000 10.9876 0.0000
# 6 0.0000 0.0000 0.0000 0.0000 0.0000 28.4721
#
#
#
# Elastic Compliance Matrix: (Units=1/GPa)
#
#
# Indices 1 2 3 4 5 6 
#
# 1 0.021927 -0.009358 -0.006355 0.000000 0.000000 0.000000
# 2 -0.009358 0.021021 -0.013006 0.000000 0.000000 0.000000
# 3 -0.006355 -0.013006 0.033726 0.000000 0.000000 0.000000
# 4 0.000000 0.000000 0.000000 2.766585 0.000000 0.000000
# 5 0.000000 0.000000 0.000000 0.000000 0.091011 0.000000
# 6 0.000000 0.000000 0.000000 0.000000 0.000000 0.035122
#
#
# Mechanical properties :
#
#
# Convention : Reuss Voigt Hill
#
# Bulk Modulus (GPa) = 51.98667 61.81446 56.90056
# Shear Modulus (GPa) = 1.64840 14.27518 7.96179
#
# Velocity S-wave (km/s) = 1.00155 2.94737 2.20114
# Velocity P-wave (km/s) = 5.74223 7.01420 6.40984
#
# Compressibility (1/GPa) = 0.01923570
#
# Stress axis : x y z
#
# Youngs Moduli (GPa) = 45.60654 47.57136 29.65040
#
# Poissons Ratio (x) = 0.44518 0.18843
# Poissons Ratio (y) = 0.42680 0.38563
# Poissons Ratio (z) = 0.28983 0.61871
#
# Static dielectric constant tensor:
#      x y z
#    x 3.224140 0.000000 0.000000 
#    y 0.000000 3.401440 0.000000 
#    z 0.000000 0.000000 2.636770 
# 
# 
# High freq. dielectric constant tensor:
#      x y z
#    x 1.621760 0.000000 0.000000 
#    y 0.000000 1.647140 0.000000 
#    z 0.000000 0.000000 1.573340 
# 
# From -- ./inp_files/4494.got.cif
#   From: 2010.03.12/outbox.cif.g09.slc.cpg/sg25_3_cif.got.tgz:4494.got - 2010.04.14 03:30:10.
