data_PCOD8166728
_publ_section_title
;
Structure prediction by ZEFSAII (Michael W. Deem and Ramdas Pophale) SiO2 
 PCOD8166728
Probable space group: P M M 2
;
_chemical_formula_sum "Si O2"
_cell_formula_units_Z 28
_cell_length_a 9.458938
_cell_length_b 9.144381
_cell_length_c 17.893933
_cell_angle_alpha 90.000000
_cell_angle_beta 90.000000
_cell_angle_gamma 90.000000
_cell_volume 1547.756007
_symmetry_space_group_name_H-M "P M M 2"
_symmetry_group_IT_number 25
_symmetry_cell_setting 'orthorhombic'
loop_
_space_group_symop_operation_xyz
x,y,z
-x,-y,z
-x,y,z
x,-y,z
loop_
_atom_site_type_symbol
_atom_site_label
_atom_site_fract_x
_atom_site_fract_y
_atom_site_fract_z
Si Si1 0.663720 0.168208 0.331130
Si Si2 0.162926 0.328787 0.039862
Si Si3 0.163544 0.169810 0.188394
Si Si4 0.333803 0.167114 0.915115
Si Si5 0.836053 0.827645 0.609718
Si Si6 0.343764 0.826577 0.748427
Si Si7 0.662986 0.328040 0.481655
O O1 0.500000 0.187662 0.311607
O O2 0.750915 0.225814 0.260208
O O3 0.708401 0.265566 0.401486
O O4 0.700892 0.000000 0.349538
O O5 0.185688 0.500000 0.047348
O O6 0.218781 0.255928 0.116063
O O7 0.000000 0.286710 0.026365
O O8 0.251945 0.271598 0.970704
O O9 0.000000 0.202709 0.203947
O O10 0.192864 0.000000 0.173506
O O11 0.500000 0.180490 0.929766
O O12 0.296686 0.222747 0.831328
O O13 0.283869 0.000000 0.926845
O O14 0.768046 0.770579 0.687289
O O15 0.761858 0.745225 0.542501
O O16 0.000000 0.785925 0.611094
O O17 0.812344 0.000000 0.599277
O O18 0.500000 0.763383 0.729222
O O19 0.352385 0.000000 0.748189
O O20 0.500000 0.288095 0.498951
O O21 0.688513 0.500000 0.481658
#
# Coordination Sequence:
#
# PCOD8166728 Si02
#       7
#     4   4   4   4   4   4   4
#     4   9  18  33  53  76 100 127 163 208 254 298
#     4  10  21  35  50  72 104 140 175 208 247 299
#     4   9  18  33  52  73  98 130 168 208 250 297
#     4   9  18  33  54  79 103 129 167 213 257 302
#     4  10  20  33  52  79 106 132 167 210 254 301
#     4   8  15  30  52  76 101 130 166 209 255 301
#     4  10  21  36  53  74 102 137 174 208 247 299
#
# _framework density 18.090706999999998
#
# number of rings (size 3 to 8) (size 9 to 14) (size 15 to 20)
#    0.000    2.714    0.000    2.143    0.000    5.143 
#    0.000    5.000    0.000    0.857    0.000    0.000 
#    0.000    0.000    0.000    0.000    0.000    0.000 
#
# Total GULP energy -347225.708739 kJ/mol
# GULP energy per Si atom -12400.918169 kJ/mol
# Density = 1.804953 g / cm^3
# Si number density = 18.090707 Si / 1000 Ang^3
#
#
#
# Elastic Constant Matrix: (Units=GPa)
#
#
# Indices 1 2 3 4 5 6 
#
# 1 89.6951 44.7351 92.4882 0.0000 0.0000 0.0000
# 2 44.7351 55.9524 59.9214 0.0000 0.0000 0.0000
# 3 92.4882 59.9214 177.2547 0.0000 0.0000 0.0000
# 4 0.0000 0.0000 0.0000 -3.9053 0.0000 0.0000
# 5 0.0000 0.0000 0.0000 0.0000 -345.5122 0.0000
# 6 0.0000 0.0000 0.0000 0.0000 0.0000 22.6736
#
#
#
# Elastic Compliance Matrix: (Units=1/GPa)
#
#
# Indices 1 2 3 4 5 6 
#
# 1 0.027507 -0.010379 -0.010844 0.000000 0.000000 0.000000
# 2 -0.010379 0.031931 -0.005379 0.000000 0.000000 0.000000
# 3 -0.010844 -0.005379 0.013118 0.000000 0.000000 0.000000
# 4 0.000000 0.000000 0.000000 -0.256060 0.000000 0.000000
# 5 0.000000 0.000000 0.000000 0.000000 -0.002894 0.000000
# 6 0.000000 0.000000 0.000000 0.000000 0.000000 0.044104
#
#
# Mechanical properties :
#
#
# Convention : Reuss Voigt Hill
#
# Bulk Modulus (GPa) = 51.67335 79.68794 65.68065
# Shear Modulus (GPa) = -60.50431 -56.96495 -58.73463
#
# Velocity S-wave (km/s) = -5.78944 -5.61755 -5.70414
# Velocity P-wave (km/s) = 4.00807 1.43837 2.64535
#
# Compressibility (1/GPa) = 0.01935233
#
# Stress axis : x y z
#
# Youngs Moduli (GPa) = 36.35408 31.31753 76.23104
#
# Poissons Ratio (x) = 0.32506 0.82665
# Poissons Ratio (y) = 0.37733 0.41001
# Poissons Ratio (z) = 0.39422 0.16844
#
# Static dielectric constant tensor:
#      x y z
#    x 8.356370 0.000000 0.000000 
#    y 0.000000 3.140450 0.000000 
#    z 0.000000 0.000000 3.544480 
# 
# 
# High freq. dielectric constant tensor:
#      x y z
#    x 1.696620 0.000000 0.000000 
#    y 0.000000 1.680870 0.000000 
#    z 0.000000 0.000000 1.713170 
# 
# From -- ./inp_files/6109.got.cif
#   From: 2010.03.12/outbox.cif.g09.slc.cpg/sg25_4_cif.got.tgz:6109.got - 2010.04.14 03:30:10.
