data_PCOD8166716
_publ_section_title
;
Structure prediction by ZEFSAII (Michael W. Deem and Ramdas Pophale) SiO2 
 PCOD8166716
Probable space group: P M M 2
;
_chemical_formula_sum "Si O2"
_cell_formula_units_Z 28
_cell_length_a 8.911446
_cell_length_b 14.139211
_cell_length_c 12.833726
_cell_angle_alpha 90.000000
_cell_angle_beta 90.000000
_cell_angle_gamma 90.000000
_cell_volume 1617.059939
_symmetry_space_group_name_H-M "P M M 2"
_symmetry_group_IT_number 25
_symmetry_cell_setting 'orthorhombic'
loop_
_space_group_symop_operation_xyz
x,y,z
-x,-y,z
-x,y,z
x,-y,z
loop_
_atom_site_type_symbol
_atom_site_label
_atom_site_fract_x
_atom_site_fract_y
_atom_site_fract_z
Si Si1 0.323232 0.783966 0.352660
Si Si2 0.672759 0.109140 0.146462
Si Si3 0.825643 0.607202 0.423741
Si Si4 0.325364 0.796859 0.741558
Si Si5 0.824064 0.891099 0.933467
Si Si6 0.175442 0.890212 0.544709
Si Si7 0.328773 0.605295 0.639390
O O1 0.500000 0.791640 0.368200
O O2 0.271340 0.831442 0.245296
O O3 0.270218 0.675104 0.348718
O O4 0.245230 0.834360 0.449125
O O5 0.500000 0.130462 0.119464
O O6 0.697196 0.000000 0.175066
O O7 0.772868 0.139542 0.048502
O O8 0.789453 0.500000 0.390271
O O9 0.780471 0.624943 0.543202
O O10 0.000000 0.631011 0.412097
O O11 0.500000 0.821534 0.739370
O O12 0.258802 0.823768 0.852676
O O13 0.246736 0.857622 0.652609
O O14 0.296378 0.684434 0.726488
O O15 0.000000 0.875725 0.922710
O O16 0.779012 0.000000 0.912065
O O17 0.000000 0.868937 0.549434
O O18 0.210273 0.000000 0.528512
O O19 0.500000 0.614266 0.598798
O O20 0.299990 0.500000 0.686177
#
# Coordination Sequence:
#
# PCOD8166716 Si02
#       7
#     4   4   4   4   4   4   4
#     4  11  21  34  54  79 106 138 174 216 265 315
#     4   9  19  36  56  77 102 134 175 219 259 307
#     4  10  20  33  51  76 106 140 176 215 260 312
#     4  11  21  33  53  78 104 138 175 215 262 311
#     4  10  21  36  54  76 103 137 176 217 261 310
#     4  11  23  35  48  72 108 144 174 210 259 314
#     4   9  18  33  52  75 103 135 173 215 259 310
#
# _framework density 17.315376000000001
#
# number of rings (size 3 to 8) (size 9 to 14) (size 15 to 20)
#    0.000    1.857    1.429    3.000    0.000    6.857 
#    0.000    1.429    0.000    0.857    0.000    2.000 
#    0.000    0.000    0.000    0.000    0.000    0.000 
#
# Total GULP energy -347278.200582 kJ/mol
# GULP energy per Si atom -12402.792878 kJ/mol
# Density = 1.727597 g / cm^3
# Si number density = 17.315376 Si / 1000 Ang^3
#
#
#
# Elastic Constant Matrix: (Units=GPa)
#
#
# Indices 1 2 3 4 5 6 
#
# 1 71.6815 46.8108 38.5453 0.0000 0.0000 0.0000
# 2 46.8108 102.7562 60.3611 0.0000 0.0000 0.0000
# 3 38.5453 60.3611 93.1974 0.0000 0.0000 0.0000
# 4 0.0000 0.0000 0.0000 23.5780 0.0000 0.0000
# 5 0.0000 0.0000 0.0000 0.0000 -10.6871 0.0000
# 6 0.0000 0.0000 0.0000 0.0000 0.0000 27.3806
#
#
#
# Elastic Compliance Matrix: (Units=1/GPa)
#
#
# Indices 1 2 3 4 5 6 
#
# 1 0.020728 -0.007113 -0.003966 0.000000 0.000000 0.000000
# 2 -0.007113 0.018149 -0.008813 0.000000 0.000000 0.000000
# 3 -0.003966 -0.008813 0.018078 0.000000 0.000000 0.000000
# 4 0.000000 0.000000 0.000000 0.042412 0.000000 0.000000
# 5 0.000000 0.000000 0.000000 0.000000 -0.093570 0.000000
# 6 0.000000 0.000000 0.000000 0.000000 0.000000 0.036522
#
#
# Mechanical properties :
#
#
# Convention : Reuss Voigt Hill
#
# Bulk Modulus (GPa) = 58.23558 62.11883 60.17721
# Shear Modulus (GPa) = 56.93046 16.18218 36.55632
#
# Velocity S-wave (km/s) = 5.74020 3.06037 4.59977
# Velocity P-wave (km/s) = 8.81127 6.95993 7.93975
#
# Compressibility (1/GPa) = 0.01717163
#
# Stress axis : x y z
#
# Youngs Moduli (GPa) = 48.24302 55.09996 55.31636
#
# Poissons Ratio (x) = 0.39193 0.21939
# Poissons Ratio (y) = 0.34316 0.48748
# Poissons Ratio (z) = 0.19133 0.48557
#
# Static dielectric constant tensor:
#      x y z
#    x 3.353880 0.000000 0.000000 
#    y 0.000000 3.508190 0.000000 
#    z 0.000000 0.000000 3.094750 
# 
# 
# High freq. dielectric constant tensor:
#      x y z
#    x 1.682100 0.000000 0.000000 
#    y 0.000000 1.673350 0.000000 
#    z 0.000000 0.000000 1.648360 
# 
# From -- ./inp_files/4064.got.cif
#   From: 2010.03.12/outbox.cif.g09.slc.cpg/sg25_3_cif.got.tgz:4064.got - 2010.04.14 03:30:10.
