data_PCOD8166885
_publ_section_title
;
Structure prediction by ZEFSAII (Michael W. Deem and Ramdas Pophale) SiO2 
 PCOD8166885
Probable space group: P M M 2
;
_chemical_formula_sum "Si O2"
_cell_formula_units_Z 28
_cell_length_a 9.419828
_cell_length_b 9.419924
_cell_length_c 17.630892
_cell_angle_alpha 90.000000
_cell_angle_beta 90.000000
_cell_angle_gamma 90.000000
_cell_volume 1564.460697
_symmetry_space_group_name_H-M "P M M 2"
_symmetry_group_IT_number 25
_symmetry_cell_setting 'orthorhombic'
loop_
_space_group_symop_operation_xyz
x,y,z
-x,-y,z
-x,y,z
x,-y,z
loop_
_atom_site_type_symbol
_atom_site_label
_atom_site_fract_x
_atom_site_fract_y
_atom_site_fract_z
Si Si1 0.835725 0.338907 0.355060
Si Si2 0.334803 0.336106 0.089437
Si Si3 0.838900 0.335744 0.530910
Si Si4 0.333598 0.835812 0.235804
Si Si5 0.836104 0.834804 0.796540
Si Si6 0.335812 0.166405 0.650169
Si Si7 0.164360 0.335644 0.942986
O O1 0.790100 0.500000 0.335239
O O2 0.807395 0.307726 0.442987
O O3 0.743530 0.228292 0.308350
O O4 0.000000 0.316353 0.335050
O O5 0.500000 0.311606 0.073528
O O6 0.300300 0.500000 0.107211
O O7 0.281171 0.244199 0.160337
O O8 0.251251 0.282393 0.015690
O O9 0.816632 0.500000 0.551081
O O10 0.728315 0.243532 0.577628
O O11 0.000000 0.289860 0.550555
O O12 0.500000 0.813124 0.247819
O O13 0.292880 0.000000 0.227872
O O14 0.744201 0.781175 0.725636
O O15 0.782379 0.751260 0.870288
O O16 0.000000 0.800288 0.778770
O O17 0.811605 0.000000 0.812442
O O18 0.500000 0.207137 0.658094
O O19 0.313141 0.000000 0.638154
O O20 0.194333 0.500000 0.926360
O O21 0.000000 0.305676 0.959605
#
# Coordination Sequence:
#
# PCOD8166885 Si02
#       7
#     4   4   4   4   4   4   4
#     4   9  19  36  56  77 101 131 169 211 254 301
#     4   9  18  33  51  70  96 132 169 203 246 301
#     4   9  19  36  56  77 101 131 169 211 254 301
#     4  10  21  35  51  75 106 137 170 208 251 300
#     4   9  18  33  51  70  96 132 169 203 246 301
#     4  10  21  35  51  75 106 137 170 208 251 300
#     4   9  18  32  50  73  98 124 160 207 254 297
#
# _framework density 17.897541
#
# number of rings (size 3 to 8) (size 9 to 14) (size 15 to 20)
#    0.000    2.714    0.000    1.714    0.000    5.714 
#    0.000    7.143    0.000    0.000    0.000    0.000 
#    0.000    0.000    0.000    0.000    0.000    0.000 
#
# Total GULP energy -347284.830570 kJ/mol
# GULP energy per Si atom -12403.029663 kJ/mol
# Density = 1.785681 g / cm^3
# Si number density = 17.897541 Si / 1000 Ang^3
#
#
#
# Elastic Constant Matrix: (Units=GPa)
#
#
# Indices 1 2 3 4 5 6 
#
# 1 77.6752 49.0552 69.6666 0.0000 0.0000 0.0000
# 2 49.0552 77.6934 69.6705 0.0000 0.0000 0.0000
# 3 69.6666 69.6705 131.5237 0.0000 0.0000 0.0000
# 4 0.0000 0.0000 0.0000 26.7346 0.0000 0.0000
# 5 0.0000 0.0000 0.0000 0.0000 26.6876 0.0000
# 6 0.0000 0.0000 0.0000 0.0000 0.0000 27.8940
#
#
#
# Elastic Compliance Matrix: (Units=1/GPa)
#
#
# Indices 1 2 3 4 5 6 
#
# 1 0.026915 -0.008019 -0.010009 0.000000 0.000000 0.000000
# 2 -0.008019 0.026906 -0.010005 0.000000 0.000000 0.000000
# 3 -0.010009 -0.010005 0.018205 0.000000 0.000000 0.000000
# 4 0.000000 0.000000 0.000000 0.037405 0.000000 0.000000
# 5 0.000000 0.000000 0.000000 0.000000 0.037471 0.000000
# 6 0.000000 0.000000 0.000000 0.000000 0.000000 0.035850
#
#
# Mechanical properties :
#
#
# Convention : Reuss Voigt Hill
#
# Bulk Modulus (GPa) = 62.65558 73.74186 68.19872
# Shear Modulus (GPa) = 20.48021 22.82990 21.65505
#
# Velocity S-wave (km/s) = 3.38642 3.57541 3.48220
# Velocity P-wave (km/s) = 7.09749 7.63783 7.37261
#
# Compressibility (1/GPa) = 0.01596027
#
# Stress axis : x y z
#
# Youngs Moduli (GPa) = 37.15341 37.16622 54.93026
#
# Poissons Ratio (x) = 0.29802 0.54981
# Poissons Ratio (y) = 0.29792 0.54959
# Poissons Ratio (z) = 0.37187 0.37186
#
# Static dielectric constant tensor:
#      x y z
#    x 3.257760 0.000000 0.000000 
#    y 0.000000 3.257970 0.000000 
#    z 0.000000 0.000000 3.338090 
# 
# 
# High freq. dielectric constant tensor:
#      x y z
#    x 1.688690 0.000000 0.000000 
#    y 0.000000 1.688690 0.000000 
#    z 0.000000 0.000000 1.699580 
# 
# From -- ./inp_files/6021.got.cif
#   From: 2010.03.12/outbox.cif.g09.slc.cpg/sg25_4_cif.got.tgz:6021.got - 2010.04.14 03:30:10.
