data_PCOD8166449
_publ_section_title
;
Structure prediction by ZEFSAII (Michael W. Deem and Ramdas Pophale) SiO2 
 PCOD8166449
Probable space group: P M M 2
;
_chemical_formula_sum "Si O2"
_cell_formula_units_Z 32
_cell_length_a 13.782051
_cell_length_b 14.078683
_cell_length_c 9.631431
_cell_angle_alpha 90.000000
_cell_angle_beta 90.000000
_cell_angle_gamma 90.000000
_cell_volume 1868.816676
_symmetry_space_group_name_H-M "P M M 2"
_symmetry_group_IT_number 25
_symmetry_cell_setting 'orthorhombic'
loop_
_space_group_symop_operation_xyz
x,y,z
-x,-y,z
-x,y,z
x,-y,z
loop_
_atom_site_type_symbol
_atom_site_label
_atom_site_fract_x
_atom_site_fract_y
_atom_site_fract_z
Si Si1 0.199035 0.887738 0.376370
Si Si2 0.885747 0.603948 0.368643
Si Si3 0.893087 0.111972 0.095341
Si Si4 0.213002 0.770007 0.880491
Si Si5 0.612922 0.109938 0.951471
Si Si6 0.113291 0.389286 0.052299
Si Si7 0.604169 0.110794 0.272972
Si Si8 0.885645 0.757876 0.587264
O O1 0.150763 0.845899 0.236955
O O2 0.311050 0.850512 0.374201
O O3 0.140153 0.856425 0.511850
O O4 0.195592 0.000000 0.373250
O O5 0.840668 0.500000 0.399793
O O6 0.860915 0.634589 0.211763
O O7 0.845325 0.676890 0.482877
O O8 0.000000 0.598320 0.384860
O O9 0.000000 0.154937 0.086306
O O10 0.892099 0.000000 0.099230
O O11 0.839227 0.143057 0.956645
O O12 0.324676 0.807869 0.872159
O O13 0.173742 0.752158 0.727578
O O14 0.189624 0.672566 0.963006
O O15 0.500000 0.127434 0.916403
O O16 0.640367 0.000000 0.911683
O O17 0.634462 0.126963 0.113654
O O18 0.131493 0.500000 0.019408
O O19 0.000000 0.364433 0.019293
O O20 0.500000 0.160451 0.306268
O O21 0.591804 0.000000 0.298252
O O22 0.000000 0.750683 0.617770
#
# Coordination Sequence:
#
# PCOD8166449 Si02
#       8
#     4   4   4   4   4   4   4   4
#     4  10  19  32  47  66  95 133 172 205 245 297
#     4   8  16  33  53  70  93 129 170 209 249 294
#     4  10  19  30  46  67  93 130 173 210 245 294
#     4  12  21  32  50  75 104 132 172 212 261 311
#     4   9  18  34  55  77 101 131 171 222 274 315
#     4   9  18  33  54  79 105 135 174 217 255 299
#     4   8  14  28  51  74  91 114 160 218 263 293
#     4  11  23  33  44  69 106 143 170 199 248 307
#
# _framework density 17.123135999999999
#
# number of rings (size 3 to 8) (size 9 to 14) (size 15 to 20)
#    0.000    2.375    1.250    4.125    0.000    3.250 
#    0.000    1.875    0.000    1.875    0.000    0.000 
#    0.000    1.500    0.000    0.000    0.000    0.000 
#
# Total GULP energy -396474.597441 kJ/mol
# GULP energy per Si atom -12389.831170 kJ/mol
# Density = 1.708416 g / cm^3
# Si number density = 17.123136 Si / 1000 Ang^3
#
#
#
# Elastic Constant Matrix: (Units=GPa)
#
#
# Indices 1 2 3 4 5 6 
#
# 1 81.4268 43.4383 37.3660 0.0000 0.0000 0.0000
# 2 43.4383 66.4574 34.8781 0.0000 0.0000 0.0000
# 3 37.3660 34.8781 98.2804 0.0000 0.0000 0.0000
# 4 0.0000 0.0000 0.0000 10.2685 0.0000 0.0000
# 5 0.0000 0.0000 0.0000 0.0000 14.7179 0.0000
# 6 0.0000 0.0000 0.0000 0.0000 0.0000 18.6533
#
#
#
# Elastic Compliance Matrix: (Units=1/GPa)
#
#
# Indices 1 2 3 4 5 6 
#
# 1 0.019849 -0.011076 -0.003616 0.000000 0.000000 0.000000
# 2 -0.011076 0.024672 -0.004545 0.000000 0.000000 0.000000
# 3 -0.003616 -0.004545 0.013162 0.000000 0.000000 0.000000
# 4 0.000000 0.000000 0.000000 0.097385 0.000000 0.000000
# 5 0.000000 0.000000 0.000000 0.000000 0.067945 0.000000
# 6 0.000000 0.000000 0.000000 0.000000 0.000000 0.053610
#
#
# Mechanical properties :
#
#
# Convention : Reuss Voigt Hill
#
# Bulk Modulus (GPa) = 52.05513 53.05883 52.55698
# Shear Modulus (GPa) = 15.55214 17.42675 16.48945
#
# Velocity S-wave (km/s) = 3.01699 3.19365 3.10658
# Velocity P-wave (km/s) = 6.52708 6.68230 6.60515
#
# Compressibility (1/GPa) = 0.01921040
#
# Stress axis : x y z
#
# Youngs Moduli (GPa) = 50.38040 40.53182 75.97368
#
# Poissons Ratio (x) = 0.44894 0.27470
# Poissons Ratio (y) = 0.55802 0.34526
# Poissons Ratio (z) = 0.18216 0.18420
#
# Static dielectric constant tensor:
#      x y z
#    x 3.519230 0.000000 0.000000 
#    y 0.000000 3.289830 0.000000 
#    z 0.000000 0.000000 3.071050 
# 
# 
# High freq. dielectric constant tensor:
#      x y z
#    x 1.645490 0.000000 0.000000 
#    y 0.000000 1.645450 0.000000 
#    z 0.000000 0.000000 1.644800 
# 
# From -- ./inp_files/3293.got.cif
#   From: 2010.03.12/outbox.cif.g09.slc.cpg/sg25_2_cif.got.tgz:3293.got - 2010.04.14 03:30:10.
