data_PCOD8166926
_publ_section_title
;
Structure prediction by ZEFSAII (Michael W. Deem and Ramdas Pophale) SiO2 
 PCOD8166926
Probable space group: P M M 2
;
_chemical_formula_sum "Si O2"
_cell_formula_units_Z 24
_cell_length_a 18.507878
_cell_length_b 9.271929
_cell_length_c 7.573100
_cell_angle_alpha 90.000000
_cell_angle_beta 90.000000
_cell_angle_gamma 90.000000
_cell_volume 1299.572213
_symmetry_space_group_name_H-M "P M M 2"
_symmetry_group_IT_number 25
_symmetry_cell_setting 'orthorhombic'
loop_
_space_group_symop_operation_xyz
x,y,z
-x,-y,z
-x,y,z
x,-y,z
loop_
_atom_site_type_symbol
_atom_site_label
_atom_site_fract_x
_atom_site_fract_y
_atom_site_fract_z
Si Si1 0.583179 0.333269 0.027900
Si Si2 0.416697 0.333549 0.433663
Si Si3 0.165413 0.833780 0.737448
Si Si4 0.916893 0.834010 0.387132
Si Si5 0.665193 0.167141 0.730812
Si Si6 0.916735 0.330807 0.038126
O O1 0.500000 0.298300 0.985004
O O2 0.599307 0.500000 0.987687
O O3 0.600747 0.296709 0.230765
O O4 0.633606 0.236351 0.907361
O O5 0.500000 0.300204 0.476298
O O6 0.399760 0.500000 0.473921
O O7 0.367063 0.235431 0.554560
O O8 0.131600 0.786628 0.551540
O O9 0.249996 0.805963 0.728663
O O10 0.132540 0.733765 0.886698
O O11 0.146639 0.000000 0.779436
O O12 0.000000 0.805574 0.437913
O O13 0.903751 0.000000 0.335539
O O14 0.892343 0.737145 0.223270
O O15 0.645188 0.000000 0.731510
O O16 0.903487 0.500000 0.048660
O O17 0.000000 0.292560 0.997958
#
# Coordination Sequence:
#
# PCOD8166926 Si02
#       6
#     4   4   4   4   4   4
#     4   9  19  37  59  80 104 139 182 222 261 313
#     4   9  19  37  59  79 101 136 181 223 263 313
#     4  10  22  38  54  76 109 147 182 214 255 314
#     4   9  18  35  59  80 100 136 182 220 257 309
#     4  11  23  35  51  80 114 143 173 217 269 314
#     4  10  21  36  56  83 110 135 170 221 273 314
#
# _framework density 18.467616
#
# number of rings (size 3 to 8) (size 9 to 14) (size 15 to 20)
#    0.000    2.333    0.000    3.000    0.000    8.333 
#    0.000    8.333    0.000    0.000    0.000    0.000 
#    0.000    0.000    0.000    0.000    0.000    0.000 
#
# Total GULP energy -297692.924194 kJ/mol
# GULP energy per Si atom -12403.871841 kJ/mol
# Density = 1.842558 g / cm^3
# Si number density = 18.467616 Si / 1000 Ang^3
#
#
#
# Elastic Constant Matrix: (Units=GPa)
#
#
# Indices 1 2 3 4 5 6 
#
# 1 91.4529 70.6115 81.4071 0.0000 0.0000 0.0000
# 2 70.6115 107.0526 89.2916 0.0000 0.0000 0.0000
# 3 81.4071 89.2916 151.7584 0.0000 0.0000 0.0000
# 4 0.0000 0.0000 0.0000 28.5507 0.0000 0.0000
# 5 0.0000 0.0000 0.0000 0.0000 -8.4658 0.0000
# 6 0.0000 0.0000 0.0000 0.0000 0.0000 29.6741
#
#
#
# Elastic Compliance Matrix: (Units=1/GPa)
#
#
# Indices 1 2 3 4 5 6 
#
# 1 0.026095 -0.010872 -0.007601 0.000000 0.000000 0.000000
# 2 -0.010872 0.022873 -0.007626 0.000000 0.000000 0.000000
# 3 -0.007601 -0.007626 0.015154 0.000000 0.000000 0.000000
# 4 0.000000 0.000000 0.000000 0.035025 0.000000 0.000000
# 5 0.000000 0.000000 0.000000 0.000000 -0.118123 0.000000
# 6 0.000000 0.000000 0.000000 0.000000 0.000000 0.033699
#
#
# Mechanical properties :
#
#
# Convention : Reuss Voigt Hill
#
# Bulk Modulus (GPa) = 83.86758 92.54270 88.20514
# Shear Modulus (GPa) = 70.52329 17.21538 43.86934
#
# Velocity S-wave (km/s) = 6.18631 3.05650 4.87917
# Velocity P-wave (km/s) = 9.82543 7.91681 8.92230
#
# Compressibility (1/GPa) = 0.01192356
#
# Stress axis : x y z
#
# Youngs Moduli (GPa) = 38.32086 43.71897 65.98979
#
# Poissons Ratio (x) = 0.47533 0.50160
# Poissons Ratio (y) = 0.41664 0.50324
# Poissons Ratio (z) = 0.29128 0.33340
#
# Static dielectric constant tensor:
#      x y z
#    x 3.331620 0.000000 0.000000 
#    y 0.000000 3.383710 0.000000 
#    z 0.000000 0.000000 3.450520 
# 
# 
# High freq. dielectric constant tensor:
#      x y z
#    x 1.713160 0.000000 0.000000 
#    y 0.000000 1.716640 0.000000 
#    z 0.000000 0.000000 1.729220 
# 
# From -- ./inp_files/3347.got.cif
#   From: 2010.03.12/outbox.cif.g09.slc.cpg/sg25_2_cif.got.tgz:3347.got - 2010.04.14 03:30:10.
