data_PCOD8166611
_publ_section_title
;
Structure prediction by ZEFSAII (Michael W. Deem and Ramdas Pophale) SiO2 
 PCOD8166611
Probable space group: P M M 2
;
_chemical_formula_sum "Si O2"
_cell_formula_units_Z 32
_cell_length_a 9.408801
_cell_length_b 9.640604
_cell_length_c 20.693217
_cell_angle_alpha 90.000000
_cell_angle_beta 90.000000
_cell_angle_gamma 90.000000
_cell_volume 1877.009796
_symmetry_space_group_name_H-M "P M M 2"
_symmetry_group_IT_number 25
_symmetry_cell_setting 'orthorhombic'
loop_
_space_group_symop_operation_xyz
x,y,z
-x,-y,z
-x,y,z
x,-y,z
loop_
_atom_site_type_symbol
_atom_site_label
_atom_site_fract_x
_atom_site_fract_y
_atom_site_fract_z
Si Si1 0.330987 0.155003 0.740510
Si Si2 0.168362 0.847344 0.373852
Si Si3 0.331600 0.339242 0.622169
Si Si4 0.831107 0.344219 0.119740
Si Si5 0.833685 0.160754 0.003042
Si Si6 0.834145 0.161436 0.519425
Si Si7 0.657858 0.835247 0.882184
Si Si8 0.830795 0.344880 0.262318
O O1 0.500000 0.147801 0.741486
O O2 0.276666 0.264505 0.687505
O O3 0.280252 0.207027 0.811551
O O4 0.271247 0.000000 0.724840
O O5 0.205664 0.796713 0.445992
O O6 0.236433 0.748665 0.319129
O O7 0.000000 0.852904 0.366429
O O8 0.232363 0.000000 0.362418
O O9 0.500000 0.324005 0.614515
O O10 0.285465 0.500000 0.624354
O O11 0.258757 0.262866 0.562650
O O12 0.774898 0.500000 0.106804
O O13 0.781569 0.292917 0.191069
O O14 0.000000 0.343297 0.117382
O O15 0.770636 0.241936 0.064933
O O16 0.759652 0.221058 0.938656
O O17 0.000000 0.186488 0.994360
O O18 0.798050 0.000000 0.013952
O O19 0.000000 0.187251 0.533275
O O20 0.796377 0.000000 0.532437
O O21 0.500000 0.772930 0.892718
O O22 0.650476 0.000000 0.884524
O O23 0.774480 0.500000 0.273593
O O24 0.000000 0.342056 0.266239
#
# Coordination Sequence:
#
# PCOD8166611 Si02
#       8
#     4   4   4   4   4   4   4   4
#     4   8  14  27  47  65  81 108 145 179 212 254
#     4   8  14  24  38  58  84 110 137 174 216 252
#     4  10  20  32  47  69  94 118 147 184 223 263
#     4   8  14  24  36  52  79 113 142 167 201 248
#     4   9  16  25  39  61  85 106 133 172 212 246
#     4   9  18  32  48  67  92 121 151 182 220 267
#     4   8  14  26  44  63  82 107 139 172 208 252
#     4   8  13  21  34  53  77 107 142 173 202 244
#
# _framework density 17.048392
#
# number of rings (size 3 to 8) (size 9 to 14) (size 15 to 20)
#    0.000    3.500    0.000    2.625    0.000    2.000 
#    0.000    5.000    0.000    3.375    0.000    0.875 
#    0.000    3.000    0.000    0.000    0.000    0.000 
#
# Total GULP energy -396530.702010 kJ/mol
# GULP energy per Si atom -12391.584438 kJ/mol
# Density = 1.700959 g / cm^3
# Si number density = 17.048392 Si / 1000 Ang^3
#
#
#
# Elastic Constant Matrix: (Units=GPa)
#
#
# Indices 1 2 3 4 5 6 
#
# 1 20.7006 24.3559 33.0231 0.0000 0.0000 0.0000
# 2 24.3559 94.2928 89.9214 0.0000 0.0000 0.0000
# 3 33.0231 89.9214 180.6361 0.0000 0.0000 0.0000
# 4 0.0000 0.0000 0.0000 18.2500 0.0000 0.0000
# 5 0.0000 0.0000 0.0000 0.0000 1.9505 0.0000
# 6 0.0000 0.0000 0.0000 0.0000 0.0000 13.7697
#
#
#
# Elastic Compliance Matrix: (Units=1/GPa)
#
#
# Indices 1 2 3 4 5 6 
#
# 1 0.074638 -0.011930 -0.007706 0.000000 0.000000 0.000000
# 2 -0.011930 0.022097 -0.008819 0.000000 0.000000 0.000000
# 3 -0.007706 -0.008819 0.011335 0.000000 0.000000 0.000000
# 4 0.000000 0.000000 0.000000 0.054794 0.000000 0.000000
# 5 0.000000 0.000000 0.000000 0.000000 0.512694 0.000000
# 6 0.000000 0.000000 0.000000 0.000000 0.000000 0.072623
#
#
# Mechanical properties :
#
#
# Convention : Reuss Voigt Hill
#
# Bulk Modulus (GPa) = 19.54683 65.58113 42.56398
# Shear Modulus (GPa) = 6.08166 16.68265 11.38215
#
# Velocity S-wave (km/s) = 1.89078 3.13157 2.58667
# Velocity P-wave (km/s) = 4.03201 7.18518 5.82597
#
# Compressibility (1/GPa) = 0.05115918
#
# Stress axis : x y z
#
# Youngs Moduli (GPa) = 13.39806 45.25516 88.22343
#
# Poissons Ratio (x) = 0.53990 0.67985
# Poissons Ratio (y) = 0.15984 0.77803
# Poissons Ratio (z) = 0.10325 0.39910
#
# Static dielectric constant tensor:
#      x y z
#    x 2.708180 0.000000 0.000000 
#    y 0.000000 3.270640 0.000000 
#    z 0.000000 0.000000 3.646700 
# 
# 
# High freq. dielectric constant tensor:
#      x y z
#    x 1.597240 0.000000 0.000000 
#    y 0.000000 1.643220 0.000000 
#    z 0.000000 0.000000 1.675840 
# 
# From -- ./inp_files/6515.got.cif
#   From: 2010.03.12/outbox.cif.g09.slc.cpg/sg25_4_cif.got.tgz:6515.got - 2010.04.14 03:30:10.
