data_PCOD8166075
_publ_section_title
;
Structure prediction by ZEFSAII (Michael W. Deem and Ramdas Pophale) SiO2 
 PCOD8166075
Probable space group: I 21 21 21
;
_chemical_formula_sum "Si O2"
_cell_formula_units_Z 48
_cell_length_a 14.565915
_cell_length_b 9.060660
_cell_length_c 17.280853
_cell_angle_alpha 90.000000
_cell_angle_beta 90.000000
_cell_angle_gamma 90.000000
_cell_volume 2280.671739
_symmetry_space_group_name_H-M "I 21 21 21"
_symmetry_group_IT_number 24
_symmetry_cell_setting 'orthorhombic'
loop_
_space_group_symop_operation_xyz
x,y,z
-x,1/2-y,z
x,-y,1/2-z
1/2-x,y,-z
1/2+x,1/2+y,1/2+z
1/2-x,-y,1/2+z
1/2+x,1/2-y,-z
-x,1/2+y,1/2-z
loop_
_atom_site_type_symbol
_atom_site_label
_atom_site_fract_x
_atom_site_fract_y
_atom_site_fract_z
Si Si1 0.828375 0.912059 0.553112
Si Si2 0.245834 0.662302 0.720462
Si Si3 0.412154 0.854082 0.699192
Si Si4 0.350558 0.886709 0.528430
Si Si5 0.508100 0.405341 0.449147
Si Si6 0.416936 0.160116 0.283819
O O1 0.750000 0.990658 0.500000
O O2 0.784205 0.841348 0.630435
O O3 0.867862 0.778728 0.501445
O O4 0.908652 0.026981 0.572119
O O5 0.263459 0.500000 0.750000
O O6 0.337489 0.751873 0.740582
O O7 0.170948 0.739204 0.773811
O O8 0.500000 0.750000 0.684639
O O9 0.362346 0.901404 0.619999
O O10 0.435829 0.000000 0.750000
O O11 0.250000 0.942867 0.500000
O O12 0.433010 0.982273 0.496641
O O13 0.500000 0.250000 0.496232
O O14 0.563276 0.360959 0.373120
O O15 0.500000 0.250000 0.242187
O O16 0.400738 0.000000 0.250000
#
# Coordination Sequence:
#
# PCOD8166075 Si02
#       6
#     8   8   8   8   8   8
#     4  11  22  44  71 101 133 191 235 275 346 428
#     4  12  24  43  70 101 139 180 233 291 346 421
#     4  12  27  49  72 102 137 183 240 288 353 417
#     4  11  24  46  73  98 131 186 240 285 340 425
#     4  11  24  40  64 103 142 176 222 291 357 409
#     4  11  22  38  64 101 141 179 220 280 355 412
#
# _framework density 21.046429
#
# number of rings (size 3 to 8) (size 9 to 14) (size 15 to 20)
#    0.000    0.667    3.333    7.000    2.333    1.333 
#    3.000    0.000    0.000    0.000    0.000    0.000 
#    0.000    0.000    0.000    0.000    0.000    0.000 
#
# Total GULP energy -297524.830712 kJ/mol
# GULP energy per Si atom -12396.867946 kJ/mol
# Density = 2.099853 g / cm^3
# Si number density = 21.046429 Si / 1000 Ang^3
#
#
#
# Elastic Constant Matrix: (Units=GPa)
#
#
# Indices 1 2 3 4 5 6 
#
# 1 138.9486 45.8471 27.7156 0.0000 0.0000 0.0000
# 2 45.8471 103.4183 28.5626 0.0000 0.0000 0.0000
# 3 27.7156 28.5626 97.2488 0.0000 0.0000 0.0000
# 4 0.0000 0.0000 0.0000 25.3878 0.0000 0.0000
# 5 0.0000 0.0000 0.0000 0.0000 23.0416 0.0000
# 6 0.0000 0.0000 0.0000 0.0000 0.0000 4.5811
#
#
#
# Elastic Compliance Matrix: (Units=1/GPa)
#
#
# Indices 1 2 3 4 5 6 
#
# 1 0.008614 -0.003418 -0.001451 0.000000 0.000000 0.000000
# 2 -0.003418 0.011879 -0.002515 0.000000 0.000000 0.000000
# 3 -0.001451 -0.002515 0.011435 0.000000 0.000000 0.000000
# 4 0.000000 0.000000 0.000000 0.039389 0.000000 0.000000
# 5 0.000000 0.000000 0.000000 0.000000 0.043400 0.000000
# 6 0.000000 0.000000 0.000000 0.000000 0.000000 0.218286
#
#
# Mechanical properties :
#
#
# Convention : Reuss Voigt Hill
#
# Bulk Modulus (GPa) = 58.27335 60.42957 59.35146
# Shear Modulus (GPa) = 14.14458 26.43479 20.28969
#
# Velocity S-wave (km/s) = 2.59524 3.54789 3.10827
# Velocity P-wave (km/s) = 6.06040 6.74968 6.41430
#
# Compressibility (1/GPa) = 0.01716050
#
# Stress axis : x y z
#
# Youngs Moduli (GPa) = 116.08803 84.17993 87.44995
#
# Poissons Ratio (x) = 0.28773 0.12690
# Poissons Ratio (y) = 0.39679 0.21993
# Poissons Ratio (z) = 0.16846 0.21170
#
# Static dielectric constant tensor:
#      x y z
#    x 4.025980 0.000000 0.000000 
#    y 0.000000 7.640820 0.000000 
#    z 0.000000 0.000000 3.857880 
# 
# 
# High freq. dielectric constant tensor:
#      x y z
#    x 1.838790 0.000000 0.000000 
#    y 0.000000 1.836240 0.000000 
#    z 0.000000 0.000000 1.817240 
# 
# From -- ./inp_files/14166.got.cif
#   From: 2010.03.12/outbox.cif.g09.slc.cpg/sg24_8_cif.got.tgz:14166.got - 2010.04.14 03:06:53.
