data_PCOD8166447
_publ_section_title
;
Structure prediction by ZEFSAII (Michael W. Deem and Ramdas Pophale) SiO2 
 PCOD8166447
Probable space group: P M M 2
;
_chemical_formula_sum "Si O2"
_cell_formula_units_Z 28
_cell_length_a 8.451992
_cell_length_b 18.320281
_cell_length_c 9.522057
_cell_angle_alpha 90.000000
_cell_angle_beta 90.000000
_cell_angle_gamma 90.000000
_cell_volume 1474.422619
_symmetry_space_group_name_H-M "P M M 2"
_symmetry_group_IT_number 25
_symmetry_cell_setting 'orthorhombic'
loop_
_space_group_symop_operation_xyz
x,y,z
-x,-y,z
-x,y,z
x,-y,z
loop_
_atom_site_type_symbol
_atom_site_label
_atom_site_fract_x
_atom_site_fract_y
_atom_site_fract_z
Si Si1 0.682918 0.340960 0.223540
Si Si2 0.688125 0.080895 0.210006
Si Si3 0.311168 0.786551 0.025925
Si Si4 0.688240 0.918976 0.524886
Si Si5 0.686699 0.788712 0.711695
Si Si6 0.179849 0.500000 0.536753
Si Si7 0.812581 0.657805 0.532813
Si Si8 0.320569 0.500000 0.246855
O O1 0.500000 0.323218 0.252914
O O2 0.772355 0.329171 0.370019
O O3 0.704466 0.423986 0.161797
O O4 0.751118 0.285189 0.107865
O O5 0.500000 0.083456 0.209566
O O6 0.749648 0.098014 0.367417
O O7 0.745620 0.000000 0.163103
O O8 0.756087 0.141361 0.103654
O O9 0.500000 0.787161 0.022403
O O10 0.241404 0.785497 0.868456
O O11 0.500000 0.915379 0.525947
O O12 0.759879 0.858846 0.630870
O O13 0.744391 0.000000 0.571666
O O14 0.500000 0.797011 0.720076
O O15 0.727267 0.715647 0.629844
O O16 0.253262 0.422232 0.586196
O O17 0.191479 0.500000 0.368621
O O18 0.000000 0.500000 0.583666
O O19 0.000000 0.663238 0.551243
O O20 0.500000 0.500000 0.309590
#
# Coordination Sequence:
#
# PCOD8166447 Si02
#       8
#     4   4   4   4   4   2   4   2
#     4   9  16  29  48  68  90 116 150 191 232 272
#     4   8  13  22  37  59  87 117 149 186 226 264
#     4   9  17  27  41  64  94 125 152 181 222 271
#     4   8  14  25  43  67  93 121 154 191 228 266
#     4  10  19  30  45  68  98 128 156 186 225 273
#     4   8  16  30  47  66  88 114 148 192 233 272
#     4  10  19  32  50  70  91 118 154 193 234 276
#     4   8  14  24  43  68  88 110 144 188 233 272
#
# _framework density 18.990483999999999
#
# number of rings (size 3 to 8) (size 9 to 14) (size 15 to 20)
#    0.000    3.143    0.000    2.143    0.000    3.429 
#    0.000    4.286    0.000    2.143    0.000    3.000 
#    0.000    1.143    0.000    0.000    0.000    0.000 
#
# Total GULP energy -346873.089100 kJ/mol
# GULP energy per Si atom -12388.324611 kJ/mol
# Density = 1.894726 g / cm^3
# Si number density = 18.990484 Si / 1000 Ang^3
#
#
#
# Elastic Constant Matrix: (Units=GPa)
#
#
# Indices 1 2 3 4 5 6 
#
# 1 5.0078 -0.4148 -0.4978 0.0000 0.0000 0.0000
# 2 -0.4148 196.1822 97.8942 0.0000 0.0000 0.0000
# 3 -0.4978 97.8942 123.3503 0.0000 0.0000 0.0000
# 4 0.0000 0.0000 0.0000 9.8440 0.0000 0.0000
# 5 0.0000 0.0000 0.0000 0.0000 3.7752 0.0000
# 6 0.0000 0.0000 0.0000 0.0000 0.0000 9.2324
#
#
#
# Elastic Compliance Matrix: (Units=1/GPa)
#
#
# Indices 1 2 3 4 5 6 
#
# 1 0.199768 0.000033 0.000780 0.000000 0.000000 0.000000
# 2 0.000033 0.008439 -0.006698 0.000000 0.000000 0.000000
# 3 0.000780 -0.006698 0.013426 0.000000 0.000000 0.000000
# 4 0.000000 0.000000 0.000000 0.101584 0.000000 0.000000
# 5 0.000000 0.000000 0.000000 0.000000 0.264889 0.000000
# 6 0.000000 0.000000 0.000000 0.000000 0.000000 0.108314
#
#
# Mechanical properties :
#
#
# Convention : Reuss Voigt Hill
#
# Bulk Modulus (GPa) = 4.76500 57.61151 31.18826
# Shear Modulus (GPa) = 6.42555 19.74091 13.08323
#
# Velocity S-wave (km/s) = 1.84144 3.22765 2.62761
# Velocity P-wave (km/s) = 2.65251 6.65531 5.06601
#
# Compressibility (1/GPa) = 0.20986364
#
# Stress axis : x y z
#
# Youngs Moduli (GPa) = 5.00581 118.49051 74.48453
#
# Poissons Ratio (x) = -0.00394 -0.05809
# Poissons Ratio (y) = -0.00017 0.49887
# Poissons Ratio (z) = -0.00390 0.79361
#
# Static dielectric constant tensor:
#      x y z
#    x 2.927900 0.000000 0.000000 
#    y 0.000000 4.060460 0.000000 
#    z 0.000000 0.000000 3.458010 
# 
# 
# High freq. dielectric constant tensor:
#      x y z
#    x 1.683160 0.000000 0.000000 
#    y 0.000000 1.765490 0.000000 
#    z 0.000000 0.000000 1.708810 
# 
# From -- ./inp_files/2854.got.cif
#   From: 2010.03.12/outbox.cif.g09.slc.cpg/sg25_2_cif.got.tgz:2854.got - 2010.04.14 03:30:10.
