data_PCOD8166248
_publ_section_title
;
Structure prediction by ZEFSAII (Michael W. Deem and Ramdas Pophale) SiO2 
 PCOD8166248
Probable space group: I 21 21 21
;
_chemical_formula_sum "Si O2"
_cell_formula_units_Z 32
_cell_length_a 8.214375
_cell_length_b 18.891754
_cell_length_c 8.416628
_cell_angle_alpha 90.000000
_cell_angle_beta 90.000000
_cell_angle_gamma 90.000000
_cell_volume 1306.125594
_symmetry_space_group_name_H-M "I 21 21 21"
_symmetry_group_IT_number 24
_symmetry_cell_setting 'orthorhombic'
loop_
_space_group_symop_operation_xyz
x,y,z
-x,1/2-y,z
x,-y,1/2-z
1/2-x,y,-z
1/2+x,1/2+y,1/2+z
1/2-x,-y,1/2+z
1/2+x,1/2-y,-z
-x,1/2+y,1/2-z
loop_
_atom_site_type_symbol
_atom_site_label
_atom_site_fract_x
_atom_site_fract_y
_atom_site_fract_z
Si Si1 0.187591 0.879813 0.172430
Si Si2 0.750000 0.192180 0.000000
Si Si3 0.000000 0.250000 0.241610
Si Si4 0.527812 0.833420 0.233783
Si Si5 0.750000 0.076511 0.500000
Si Si6 0.466403 0.500000 0.750000
O O1 0.060846 0.814091 0.146090
O O2 0.350387 0.864124 0.269024
O O3 0.250000 0.906516 0.000000
O O4 0.087737 0.934636 0.280679
O O5 0.621063 0.147506 0.101869
O O6 0.844083 0.237645 0.131211
O O7 0.500000 0.750000 0.199585
O O8 0.627182 0.872043 0.093926
O O9 0.853688 0.021768 0.396288
#
# Coordination Sequence:
#
# PCOD8166248 Si02
#       6
#     8   4   4   8   4   4
#     4  12  28  50  81 119 161 210 265 328 397 472
#     4  12  24  45  70 128 159 198 256 334 400 461
#     4  12  24  46  80 118 158 210 264 332 388 462
#     4  12  27  50  84 123 159 201 270 331 402 462
#     4  12  30  55  80 116 157 220 258 330 394 477
#     4  12  30  56  76 116 166 212 268 316 402 480
#
# _framework density 24.499939999999999
#
# number of rings (size 3 to 8) (size 9 to 14) (size 15 to 20)
#    0.000    0.000    6.250    1.500    3.500    5.000 
#   11.250    0.000    0.000    0.000    0.000    0.000 
#    0.000    0.000    0.000    0.000    0.000    0.000 
#
# Total GULP energy -198244.502805 kJ/mol
# GULP energy per Si atom -12390.281425 kJ/mol
# Density = 2.444418 g / cm^3
# Si number density = 24.499940 Si / 1000 Ang^3
#
#
#
# Elastic Constant Matrix: (Units=GPa)
#
#
# Indices 1 2 3 4 5 6 
#
# 1 217.8511 99.5482 70.3099 -0.0020 0.0004 0.0010
# 2 99.5482 144.6905 71.4878 -0.0025 0.0007 0.0004
# 3 70.3099 71.4878 116.2739 -0.0091 0.0009 0.0044
# 4 -0.0020 -0.0025 -0.0091 12.4139 0.0007 0.0009
# 5 0.0004 0.0007 0.0009 0.0007 34.4387 0.0001
# 6 0.0010 0.0004 0.0044 0.0009 0.0001 46.7082
#
#
#
# Elastic Compliance Matrix: (Units=1/GPa)
#
#
# Indices 1 2 3 4 5 6 
#
# 1 0.006952 -0.003887 -0.001814 -0.000001 0.000000 0.000000
# 2 -0.003887 0.012100 -0.005089 -0.000002 0.000000 0.000000
# 3 -0.001814 -0.005089 0.012826 0.000008 0.000000 -0.000001
# 4 -0.000001 -0.000002 0.000008 0.080555 -0.000002 -0.000001
# 5 0.000000 0.000000 0.000000 -0.000002 0.029037 0.000000
# 6 0.000000 0.000000 -0.000001 -0.000001 0.000000 0.021410
#
#
# Mechanical properties :
#
#
# Convention : Reuss Voigt Hill
#
# Bulk Modulus (GPa) = 97.10361 106.83415 101.96888
# Shear Modulus (GPa) = 26.61114 34.54345 30.57729
#
# Velocity S-wave (km/s) = 3.29929 3.75899 3.53662
# Velocity P-wave (km/s) = 7.36437 7.90826 7.64116
#
# Compressibility (1/GPa) = 0.01029828
#
# Stress axis : x y z
#
# Youngs Moduli (GPa) = 143.84806 82.64739 77.96566
#
# Poissons Ratio (x) = 0.32121 0.14144
# Poissons Ratio (y) = 0.55907 0.39676
# Poissons Ratio (z) = 0.26096 0.42059
#
# Static dielectric constant tensor:
#      x y z
#    x 5.579860 0.000020 0.000010 
#    y 0.000020 4.371770 0.000010 
#    z 0.000010 0.000010 4.432400 
# 
# 
# High freq. dielectric constant tensor:
#      x y z
#    x 2.021240 0.000000 0.000000 
#    y 0.000000 1.950730 0.000000 
#    z 0.000000 0.000000 1.968150 
# 
# From -- ./inp_files/9028.got.cif
#   From: 2010.03.12/outbox.cif.g09.slc.cpg/sg24_5_cif.got.tgz:9028.got - 2010.04.14 03:06:53.
