data_PCOD8166899
_publ_section_title
;
Structure prediction by ZEFSAII (Michael W. Deem and Ramdas Pophale) SiO2 
 PCOD8166899
Probable space group: P M M 2
;
_chemical_formula_sum "Si O2"
_cell_formula_units_Z 32
_cell_length_a 8.947249
_cell_length_b 14.825922
_cell_length_c 12.270411
_cell_angle_alpha 90.000000
_cell_angle_beta 90.000000
_cell_angle_gamma 90.000000
_cell_volume 1627.684937
_symmetry_space_group_name_H-M "P M M 2"
_symmetry_group_IT_number 25
_symmetry_cell_setting 'orthorhombic'
loop_
_space_group_symop_operation_xyz
x,y,z
-x,-y,z
-x,y,z
x,-y,z
loop_
_atom_site_type_symbol
_atom_site_label
_atom_site_fract_x
_atom_site_fract_y
_atom_site_fract_z
Si Si1 0.327587 0.602677 0.786090
Si Si2 0.325412 0.106486 0.332634
Si Si3 0.325138 0.394775 0.353654
Si Si4 0.677834 0.101926 0.802942
Si Si5 0.823484 0.255510 0.196222
Si Si6 0.324883 0.747004 0.965673
Si Si7 0.832378 0.607148 0.571727
Si Si8 0.676799 0.899796 0.568330
O O1 0.500000 0.609723 0.752598
O O2 0.280456 0.500000 0.811089
O O3 0.293517 0.658518 0.894306
O O4 0.237129 0.643938 0.684061
O O5 0.500000 0.126535 0.313157
O O6 0.231059 0.160095 0.243735
O O7 0.272340 0.143951 0.452924
O O8 0.293222 0.000000 0.320810
O O9 0.500000 0.375216 0.350169
O O10 0.288473 0.500000 0.336305
O O11 0.246934 0.340397 0.257707
O O12 0.264456 0.358973 0.469489
O O13 0.500000 0.100692 0.804431
O O14 0.735330 0.166085 0.898970
O O15 0.729026 0.143687 0.684052
O O16 0.738923 0.000000 0.820697
O O17 0.000000 0.261636 0.204796
O O18 0.774049 0.261547 0.071892
O O19 0.500000 0.755905 0.995321
O O20 0.829114 0.500000 0.575139
O O21 0.000000 0.644585 0.559233
O O22 0.500000 0.904980 0.563625
O O23 0.743075 0.000000 0.570703
#
# Coordination Sequence:
#
# PCOD8166899 Si02
#       8
#     4   4   4   4   4   4   4   4
#     4   9  18  33  53  78 109 143 179 222 270 320
#     4   9  18  35  60  86 112 145 185 229 276 330
#     4  10  21  39  63  86 109 141 183 232 282 333
#     4   8  14  27  50  79 106 129 161 215 275 320
#     4  12  26  40  54  77 112 151 190 234 286 343
#     4  10  21  36  53  75 102 139 192 238 269 316
#     4   9  17  31  54  85 118 146 173 211 267 335
#     4   7  11  23  47  80 110 132 163 213 271 324
#
# _framework density 19.659824
#
# number of rings (size 3 to 8) (size 9 to 14) (size 15 to 20)
#    0.000    2.750    0.000    3.375    0.000    5.000 
#    0.000    5.000    0.000    0.750    0.000    1.750 
#    0.000    0.000    0.000    0.000    0.000    0.000 
#
# Total GULP energy -396559.419310 kJ/mol
# GULP energy per Si atom -12392.481853 kJ/mol
# Density = 1.961508 g / cm^3
# Si number density = 19.659824 Si / 1000 Ang^3
#
#
#
# Elastic Constant Matrix: (Units=GPa)
#
#
# Indices 1 2 3 4 5 6 
#
# 1 93.6490 42.1554 66.2342 0.0000 0.0000 0.0000
# 2 42.1554 85.8425 58.5390 0.0000 0.0000 0.0000
# 3 66.2342 58.5390 164.1197 0.0000 0.0000 0.0000
# 4 0.0000 0.0000 0.0000 -74.8331 0.0000 0.0000
# 5 0.0000 0.0000 0.0000 0.0000 14.8463 0.0000
# 6 0.0000 0.0000 0.0000 0.0000 0.0000 15.9778
#
#
#
# Elastic Compliance Matrix: (Units=1/GPa)
#
#
# Indices 1 2 3 4 5 6 
#
# 1 0.016225 -0.004628 -0.004897 0.000000 0.000000 0.000000
# 2 -0.004628 0.016714 -0.004094 0.000000 0.000000 0.000000
# 3 -0.004897 -0.004094 0.009530 0.000000 0.000000 0.000000
# 4 0.000000 0.000000 0.000000 -0.013363 0.000000 0.000000
# 5 0.000000 0.000000 0.000000 0.000000 0.067357 0.000000
# 6 0.000000 0.000000 0.000000 0.000000 0.000000 0.062587
#
#
# Mechanical properties :
#
#
# Convention : Reuss Voigt Hill
#
# Bulk Modulus (GPa) = 65.65896 75.27427 70.46662
# Shear Modulus (GPa) = 26.12820 2.97704 14.55262
#
# Velocity S-wave (km/s) = 3.64952 1.23189 2.72365
# Velocity P-wave (km/s) = 7.15742 6.35570 6.76844
#
# Compressibility (1/GPa) = 0.01523021
#
# Stress axis : x y z
#
# Youngs Moduli (GPa) = 61.63286 59.83114 104.93585
#
# Poissons Ratio (x) = 0.27691 0.51389
# Poissons Ratio (y) = 0.28525 0.42957
# Poissons Ratio (z) = 0.30183 0.24493
#
# Static dielectric constant tensor:
#      x y z
#    x 3.287540 0.000000 0.000000 
#    y 0.000000 4.011690 0.000000 
#    z 0.000000 0.000000 3.797500 
# 
# 
# High freq. dielectric constant tensor:
#      x y z
#    x 1.730360 0.000000 0.000000 
#    y 0.000000 1.759970 0.000000 
#    z 0.000000 0.000000 1.775920 
# 
# From -- ./inp_files/4300.got.cif
#   From: 2010.03.12/outbox.cif.g09.slc.cpg/sg25_3_cif.got.tgz:4300.got - 2010.04.14 03:30:10.
