data_PCOD8166160
_publ_section_title
;
Structure prediction by ZEFSAII (Michael W. Deem and Ramdas Pophale) SiO2 
 PCOD8166160
Probable space group: I 21 21 21
;
_chemical_formula_sum "Si O2"
_cell_formula_units_Z 32
_cell_length_a 11.433172
_cell_length_b 4.988751
_cell_length_c 25.188743
_cell_angle_alpha 90.000000
_cell_angle_beta 90.000000
_cell_angle_gamma 90.000000
_cell_volume 1436.696588
_symmetry_space_group_name_H-M "I 21 21 21"
_symmetry_group_IT_number 24
_symmetry_cell_setting 'orthorhombic'
loop_
_space_group_symop_operation_xyz
x,y,z
-x,1/2-y,z
x,-y,1/2-z
1/2-x,y,-z
1/2+x,1/2+y,1/2+z
1/2-x,-y,1/2+z
1/2+x,1/2-y,-z
-x,1/2+y,1/2-z
loop_
_atom_site_type_symbol
_atom_site_label
_atom_site_fract_x
_atom_site_fract_y
_atom_site_fract_z
Si Si1 0.736134 0.581376 0.342815
Si Si2 0.085251 0.000000 0.250000
Si Si3 0.737675 0.928795 0.911908
Si Si4 0.926156 0.990842 0.995703
Si Si5 0.000000 0.750000 0.714971
O O1 0.828914 0.476500 0.300125
O O2 0.721555 0.351771 0.387012
O O3 0.607875 0.644412 0.319795
O O4 0.789407 0.853556 0.366751
O O5 0.000000 0.750000 0.252835
O O6 0.834190 0.062945 0.950100
O O7 0.625613 0.880012 0.948832
O O8 0.000000 0.750000 0.971164
O O9 0.000000 0.250000 0.009344
O O10 0.045762 0.500000 0.750000
#
# Coordination Sequence:
#
# PCOD8166160 Si02
#       5
#     8   4   8   8   4
#     4  12  26  46  71 104 136 183 237 285 362 410
#     4  12  28  48  70 100 142 184 236 288 342 428
#     4  11  26  43  68 104 135 177 236 284 339 425
#     4  11  24  44  68  98 140 182 226 284 346 408
#     4  12  26  46  74 102 148 178 232 304 356 424
#
# _framework density 22.273319000000001
#
# number of rings (size 3 to 8) (size 9 to 14) (size 15 to 20)
#    0.000    0.500    1.250    6.000    7.000   10.000 
#    0.000    0.000    0.000    0.000    0.000    0.000 
#    0.000    0.000    0.000    0.000    0.000    0.000 
#
# Total GULP energy -198456.978462 kJ/mol
# GULP energy per Si atom -12403.561154 kJ/mol
# Density = 2.222262 g / cm^3
# Si number density = 22.273319 Si / 1000 Ang^3
#
#
#
# Elastic Constant Matrix: (Units=GPa)
#
#
# Indices 1 2 3 4 5 6 
#
# 1 119.1820 34.9341 45.8073 0.0000 0.0000 0.0000
# 2 34.9341 146.0149 37.1854 0.0000 0.0000 0.0000
# 3 45.8073 37.1854 93.2171 0.0000 0.0000 0.0000
# 4 0.0000 0.0000 0.0000 53.4562 0.0000 0.0000
# 5 0.0000 0.0000 0.0000 0.0000 22.4801 0.0000
# 6 0.0000 0.0000 0.0000 0.0000 0.0000 41.0171
#
#
#
# Elastic Compliance Matrix: (Units=1/GPa)
#
#
# Indices 1 2 3 4 5 6 
#
# 1 0.010576 -0.001343 -0.004661 0.000000 0.000000 0.000000
# 2 -0.001343 0.007794 -0.002449 0.000000 0.000000 0.000000
# 3 -0.004661 -0.002449 0.013995 0.000000 0.000000 0.000000
# 4 0.000000 0.000000 0.000000 0.018707 0.000000 0.000000
# 5 0.000000 0.000000 0.000000 0.000000 0.044484 0.000000
# 6 0.000000 0.000000 0.000000 0.000000 0.000000 0.024380
#
#
# Mechanical properties :
#
#
# Convention : Reuss Voigt Hill
#
# Bulk Modulus (GPa) = 64.69183 66.02973 65.36078
# Shear Modulus (GPa) = 35.21265 39.42316 37.31790
#
# Velocity S-wave (km/s) = 3.98041 4.21167 4.09767
# Velocity P-wave (km/s) = 7.08749 7.30482 7.19698
#
# Compressibility (1/GPa) = 0.01545790
#
# Stress axis : x y z
#
# Youngs Moduli (GPa) = 94.55597 128.30975 71.45382
#
# Poissons Ratio (x) = 0.17235 0.33306
# Poissons Ratio (y) = 0.12701 0.17498
# Poissons Ratio (z) = 0.44074 0.31422
#
# Static dielectric constant tensor:
#      x y z
#    x 4.041340 0.000000 0.000000 
#    y 0.000000 3.883200 0.000000 
#    z 0.000000 0.000000 4.158190 
# 
# 
# High freq. dielectric constant tensor:
#      x y z
#    x 1.883690 0.000000 0.000000 
#    y 0.000000 1.892320 0.000000 
#    z 0.000000 0.000000 1.889410 
# 
# From -- ./inp_files/1993.got.cif
#   From: 2010.03.12/outbox.cif.g09.slc.cpg/sg24_1_cif.got.tgz:1993.got - 2010.04.14 03:06:53.
