data_PCOD8166949
_publ_section_title
;
Structure prediction by ZEFSAII (Michael W. Deem and Ramdas Pophale) SiO2 
 PCOD8166949
Probable space group: P M M 2
;
_chemical_formula_sum "Si O2"
_cell_formula_units_Z 20
_cell_length_a 14.199523
_cell_length_b 9.402236
_cell_length_c 7.717732
_cell_angle_alpha 90.000000
_cell_angle_beta 90.000000
_cell_angle_gamma 90.000000
_cell_volume 1030.373302
_symmetry_space_group_name_H-M "P M M 2"
_symmetry_group_IT_number 25
_symmetry_cell_setting 'orthorhombic'
loop_
_space_group_symop_operation_xyz
x,y,z
-x,-y,z
-x,y,z
x,-y,z
loop_
_atom_site_type_symbol
_atom_site_label
_atom_site_fract_x
_atom_site_fract_y
_atom_site_fract_z
Si Si1 0.889041 0.162859 0.713160
Si Si2 0.793355 0.835757 0.072093
Si Si3 0.604407 0.336946 0.564994
Si Si4 0.796667 0.665892 0.405025
Si Si5 0.395761 0.163521 0.904331
O O1 0.846665 0.209685 0.897596
O O2 0.850021 0.266063 0.566511
O O3 0.000000 0.180595 0.723747
O O4 0.860061 0.000000 0.671311
O O5 0.681469 0.806089 0.051386
O O6 0.813623 0.000000 0.117141
O O7 0.831699 0.740184 0.228983
O O8 0.500000 0.294505 0.494078
O O9 0.605767 0.500000 0.623503
O O10 0.683922 0.308622 0.420903
O O11 0.631552 0.248739 0.733605
O O12 0.822267 0.500000 0.397245
O O13 0.500000 0.206043 0.973688
O O14 0.392243 0.000000 0.848148
#
# Coordination Sequence:
#
# PCOD8166949 Si02
#       5
#     4   4   4   4   4
#     4  10  22  42  65  85 109 146 191 239 292 346
#     4  10  21  37  58  85 117 151 191 234 282 341
#     4   9  18  33  53  79 114 155 193 228 274 335
#     4  11  23  37  58  88 120 152 190 234 284 339
#     4   9  17  31  54  83 113 147 190 238 282 326
#
# _framework density 19.410440999999999
#
# number of rings (size 3 to 8) (size 9 to 14) (size 15 to 20)
#    0.000    2.200    2.000    0.600    0.000    4.400 
#    0.000    2.000    0.000    0.000    0.000    0.000 
#    0.000    0.000    0.000    0.000    0.000    0.000 
#
# Total GULP energy -247977.552501 kJ/mol
# GULP energy per Si atom -12398.877625 kJ/mol
# Density = 1.936626 g / cm^3
# Si number density = 19.410441 Si / 1000 Ang^3
#
#
#
# Elastic Constant Matrix: (Units=GPa)
#
#
# Indices 1 2 3 4 5 6 
#
# 1 80.2620 40.5193 48.2096 0.0000 0.0000 0.0000
# 2 40.5193 91.3648 78.2852 0.0000 0.0000 0.0000
# 3 48.2096 78.2852 140.6695 0.0000 0.0000 0.0000
# 4 0.0000 0.0000 0.0000 -55.0944 0.0000 0.0000
# 5 0.0000 0.0000 0.0000 0.0000 11.0670 0.0000
# 6 0.0000 0.0000 0.0000 0.0000 0.0000 24.5925
#
#
#
# Elastic Compliance Matrix: (Units=1/GPa)
#
#
# Indices 1 2 3 4 5 6 
#
# 1 0.016717 -0.004788 -0.003065 0.000000 0.000000 0.000000
# 2 -0.004788 0.022293 -0.010765 0.000000 0.000000 0.000000
# 3 -0.003065 -0.010765 0.014150 0.000000 0.000000 0.000000
# 4 0.000000 0.000000 0.000000 -0.018151 0.000000 0.000000
# 5 0.000000 0.000000 0.000000 0.000000 0.090359 0.000000
# 6 0.000000 0.000000 0.000000 0.000000 0.000000 0.040663
#
#
# Mechanical properties :
#
#
# Convention : Reuss Voigt Hill
#
# Bulk Modulus (GPa) = 62.79755 71.81381 67.30568
# Shear Modulus (GPa) = 23.97214 5.79849 14.88532
#
# Velocity S-wave (km/s) = 3.51809 1.73026 2.77225
# Velocity P-wave (km/s) = 6.99466 6.40855 6.70801
#
# Compressibility (1/GPa) = 0.01592419
#
# Stress axis : x y z
#
# Youngs Moduli (GPa) = 59.81894 44.85738 70.66962
#
# Poissons Ratio (x) = 0.21478 0.21658
# Poissons Ratio (y) = 0.28641 0.76079
# Poissons Ratio (z) = 0.18332 0.48291
#
# Static dielectric constant tensor:
#      x y z
#    x 3.794800 0.000000 0.000000 
#    y 0.000000 3.849070 0.000000 
#    z 0.000000 0.000000 3.248800 
# 
# 
# High freq. dielectric constant tensor:
#      x y z
#    x 1.764470 0.000000 0.000000 
#    y 0.000000 1.753320 0.000000 
#    z 0.000000 0.000000 1.737450 
# 
# From -- ./inp_files/834.got.cif
#   From: 2010.03.12/outbox.cif.g09.slc.cpg/sg25_1_cif.got.tgz:834.got - 2010.04.14 03:30:10.
