data_PCOD8166180
_publ_section_title
;
Structure prediction by ZEFSAII (Michael W. Deem and Ramdas Pophale) SiO2 
 PCOD8166180
Probable space group: I 21 21 21
;
_chemical_formula_sum "Si O2"
_cell_formula_units_Z 44
_cell_length_a 28.775597
_cell_length_b 8.710622
_cell_length_c 7.714076
_cell_angle_alpha 90.000000
_cell_angle_beta 90.000000
_cell_angle_gamma 90.000000
_cell_volume 1933.558978
_symmetry_space_group_name_H-M "I 21 21 21"
_symmetry_group_IT_number 24
_symmetry_cell_setting 'orthorhombic'
loop_
_space_group_symop_operation_xyz
x,y,z
-x,1/2-y,z
x,-y,1/2-z
1/2-x,y,-z
1/2+x,1/2+y,1/2+z
1/2-x,-y,1/2+z
1/2+x,1/2-y,-z
-x,1/2+y,1/2-z
loop_
_atom_site_type_symbol
_atom_site_label
_atom_site_fract_x
_atom_site_fract_y
_atom_site_fract_z
Si Si1 0.169859 0.380839 0.597970
Si Si2 0.591345 0.318781 0.281303
Si Si3 0.250000 0.810751 0.000000
Si Si4 0.896728 0.705239 0.398682
Si Si5 0.816871 0.500000 0.250000
Si Si6 0.000000 0.750000 0.994328
Si Si7 0.524503 0.500000 0.750000
Si Si8 0.863893 0.000000 0.250000
O O1 0.160606 0.500000 0.750000
O O2 0.131343 0.244955 0.592812
O O3 0.219304 0.298374 0.624029
O O4 0.169070 0.470262 0.415107
O O5 0.595453 0.500000 0.250000
O O6 0.543389 0.270019 0.368281
O O7 0.599296 0.238335 0.096446
O O8 0.216061 0.910070 0.118606
O O9 0.849238 0.612193 0.363518
O O10 0.942758 0.609392 0.362397
O O11 0.897592 0.855899 0.280706
O O12 0.006418 0.599653 0.116646
#
# Coordination Sequence:
#
# PCOD8166180 Si02
#       8
#     8   8   4   8   4   4   4   4
#     4  12  28  49  76 111 154 205 256 323 385 463
#     4  12  26  51  78 109 154 198 261 315 389 465
#     4  12  28  44  78 118 150 202 264 318 388 468
#     4  11  24  50  79 106 156 204 248 318 390 463
#     4  11  26  46  78 113 156 206 259 316 389 464
#     4  12  28  48  80 112 150 200 256 330 386 470
#     4  11  26  51  72 114 146 198 254 316 382 466
#     4  12  24  49  76 113 152 204 255 314 393 458
#
# _framework density 22.755966000000001
#
# number of rings (size 3 to 8) (size 9 to 14) (size 15 to 20)
#    0.000    0.364    5.455    2.182    5.091    4.364 
#    3.273    0.000    0.000    0.000    0.000    0.000 
#    0.000    0.000    0.000    0.000    0.000    0.000 
#
# Total GULP energy -272857.627158 kJ/mol
# GULP energy per Si atom -12402.619416 kJ/mol
# Density = 2.270417 g / cm^3
# Si number density = 22.755966 Si / 1000 Ang^3
#
#
#
# Elastic Constant Matrix: (Units=GPa)
#
#
# Indices 1 2 3 4 5 6 
#
# 1 133.0180 70.8782 54.7667 0.0000 0.0000 0.0000
# 2 70.8782 149.1382 59.2656 0.0000 0.0000 0.0000
# 3 54.7667 59.2656 156.2156 0.0000 0.0000 0.0000
# 4 0.0000 0.0000 0.0000 39.9117 0.0000 0.0000
# 5 0.0000 0.0000 0.0000 0.0000 31.2960 0.0000
# 6 0.0000 0.0000 0.0000 0.0000 0.0000 31.0298
#
#
#
# Elastic Compliance Matrix: (Units=1/GPa)
#
#
# Indices 1 2 3 4 5 6 
#
# 1 0.010638 -0.004208 -0.002133 0.000000 0.000000 0.000000
# 2 -0.004208 0.009560 -0.002152 0.000000 0.000000 0.000000
# 3 -0.002133 -0.002152 0.007966 0.000000 0.000000 0.000000
# 4 0.000000 0.000000 0.000000 0.025055 0.000000 0.000000
# 5 0.000000 0.000000 0.000000 0.000000 0.031953 0.000000
# 6 0.000000 0.000000 0.000000 0.000000 0.000000 0.032227
#
#
# Mechanical properties :
#
#
# Convention : Reuss Voigt Hill
#
# Bulk Modulus (GPa) = 89.46032 89.79921 89.62976
# Shear Modulus (GPa) = 36.20264 37.34493 36.77378
#
# Velocity S-wave (km/s) = 3.99295 4.05545 4.02432
# Velocity P-wave (km/s) = 7.78822 7.84069 7.81450
#
# Compressibility (1/GPa) = 0.01117814
#
# Stress axis : x y z
#
# Youngs Moduli (GPa) = 93.99927 104.60033 125.54081
#
# Poissons Ratio (x) = 0.44018 0.26779
# Poissons Ratio (y) = 0.39557 0.27012
# Poissons Ratio (z) = 0.20051 0.22506
#
# Static dielectric constant tensor:
#      x y z
#    x 4.042470 0.000000 0.000000 
#    y 0.000000 4.432050 0.000000 
#    z 0.000000 0.000000 4.451930 
# 
# 
# High freq. dielectric constant tensor:
#      x y z
#    x 1.895810 0.000000 0.000000 
#    y 0.000000 1.913110 0.000000 
#    z 0.000000 0.000000 1.911690 
# 
# From -- ./inp_files/16790.got.cif
#   From: 2010.03.12/outbox.cif.g09.slc.cpg/sg24_9_cif.got.tgz:16790.got - 2010.04.14 03:06:53.
