data_PCOD8166427
_publ_section_title
;
Structure prediction by ZEFSAII (Michael W. Deem and Ramdas Pophale) SiO2 
 PCOD8166427
Probable space group: P M M 2
;
_chemical_formula_sum "Si O2"
_cell_formula_units_Z 28
_cell_length_a 8.915219
_cell_length_b 13.608882
_cell_length_c 15.611981
_cell_angle_alpha 90.000000
_cell_angle_beta 90.000000
_cell_angle_gamma 90.000000
_cell_volume 1894.141757
_symmetry_space_group_name_H-M "P M M 2"
_symmetry_group_IT_number 25
_symmetry_cell_setting 'orthorhombic'
loop_
_space_group_symop_operation_xyz
x,y,z
-x,-y,z
-x,y,z
x,-y,z
loop_
_atom_site_type_symbol
_atom_site_label
_atom_site_fract_x
_atom_site_fract_y
_atom_site_fract_z
Si Si1 0.670551 0.389968 0.393090
Si Si2 0.823741 0.886929 0.652594
Si Si3 0.328323 0.883722 0.166083
Si Si4 0.823251 0.215963 0.324824
Si Si5 0.329531 0.791401 0.493567
Si Si6 0.168909 0.116940 0.994341
Si Si7 0.668928 0.116915 0.825727
O O1 0.500000 0.393057 0.358680
O O2 0.733264 0.500000 0.407583
O O3 0.772281 0.331243 0.323568
O O4 0.675706 0.327989 0.482621
O O5 0.765199 0.820854 0.575537
O O6 0.750049 0.846814 0.739652
O O7 0.000000 0.874387 0.661486
O O8 0.778856 0.000000 0.635489
O O9 0.500000 0.849484 0.175137
O O10 0.227752 0.835898 0.238819
O O11 0.313365 0.000000 0.173908
O O12 0.265649 0.846550 0.075056
O O13 0.744632 0.162568 0.406971
O O14 0.000000 0.207073 0.334451
O O15 0.500000 0.829967 0.502543
O O16 0.243865 0.159627 0.908037
O O17 0.000000 0.158027 0.001832
O O18 0.167273 0.000000 0.990815
O O19 0.500000 0.157983 0.826473
O O20 0.669738 0.000000 0.829381
#
# Coordination Sequence:
#
# PCOD8166427 Si02
#       7
#     4   4   4   4   4   4   4
#     4   8  16  32  50  65  83 108 137 172 214 256
#     4  10  19  29  41  59  85 116 147 180 215 248
#     4  10  19  30  43  59  83 117 152 181 211 250
#     4  10  19  30  44  64  87 111 141 177 214 254
#     4   9  18  31  45  62  83 111 143 175 211 254
#     4   9  16  26  40  58  80 107 141 181 219 250
#     4   9  16  26  40  57  78 108 145 180 212 249
#
# _framework density 14.782422
#
# number of rings (size 3 to 8) (size 9 to 14) (size 15 to 20)
#    0.857    1.857    0.000    3.000    0.000    6.000 
#    0.000    0.000    0.000    0.000    0.000    0.000 
#    0.000    1.143    0.000    6.857    0.000    5.286 
#
# Total GULP energy -346993.184008 kJ/mol
# GULP energy per Si atom -12392.613715 kJ/mol
# Density = 1.474878 g / cm^3
# Si number density = 14.782422 Si / 1000 Ang^3
#
#
#
# Elastic Constant Matrix: (Units=GPa)
#
#
# Indices 1 2 3 4 5 6 
#
# 1 97.6837 20.7177 40.1121 0.0000 0.0000 0.0000
# 2 20.7177 27.3120 24.1968 0.0000 0.0000 0.0000
# 3 40.1121 24.1968 109.7563 0.0000 0.0000 0.0000
# 4 0.0000 0.0000 0.0000 -1.5252 0.0000 0.0000
# 5 0.0000 0.0000 0.0000 0.0000 33.1094 0.0000
# 6 0.0000 0.0000 0.0000 0.0000 0.0000 14.0525
#
#
#
# Elastic Compliance Matrix: (Units=1/GPa)
#
#
# Indices 1 2 3 4 5 6 
#
# 1 0.013053 -0.007053 -0.003216 0.000000 0.000000 0.000000
# 2 -0.007053 0.049312 -0.008294 0.000000 0.000000 0.000000
# 3 -0.003216 -0.008294 0.012115 0.000000 0.000000 0.000000
# 4 0.000000 0.000000 0.000000 -0.655644 0.000000 0.000000
# 5 0.000000 0.000000 0.000000 0.000000 0.030203 0.000000
# 6 0.000000 0.000000 0.000000 0.000000 0.000000 0.071162
#
#
# Mechanical properties :
#
#
# Convention : Reuss Voigt Hill
#
# Bulk Modulus (GPa) = 26.76989 44.97835 35.87412
# Shear Modulus (GPa) = -11.62186 19.10903 3.74358
#
# Velocity S-wave (km/s) = -2.80696 3.59929 1.59310
# Velocity P-wave (km/s) = 2.76464 6.91131 5.26353
#
# Compressibility (1/GPa) = 0.03735541
#
# Stress axis : x y z
#
# Youngs Moduli (GPa) = 76.60817 20.27918 82.54411
#
# Poissons Ratio (x) = 0.14303 0.26544
# Poissons Ratio (y) = 0.54031 0.68459
# Poissons Ratio (z) = 0.24635 0.16819
#
# Static dielectric constant tensor:
#      x y z
#    x 3.031750 0.000000 0.000000 
#    y 0.000000 2.466070 0.000000 
#    z 0.000000 0.000000 2.868360 
# 
# 
# High freq. dielectric constant tensor:
#      x y z
#    x 1.585910 0.000000 0.000000 
#    y 0.000000 1.503720 0.000000 
#    z 0.000000 0.000000 1.565240 
# 
# From -- ./inp_files/4342.got.cif
#   From: 2010.03.12/outbox.cif.g09.slc.cpg/sg25_3_cif.got.tgz:4342.got - 2010.04.14 03:30:10.
