data_PCOD8166018
_publ_section_title
;
Structure prediction by ZEFSAII (Michael W. Deem and Ramdas Pophale) SiO2 
 PCOD8166018
Probable space group: I 21 21 21
;
_chemical_formula_sum "Si O2"
_cell_formula_units_Z 56
_cell_length_a 29.032543
_cell_length_b 5.092930
_cell_length_c 27.311972
_cell_angle_alpha 90.000000
_cell_angle_beta 90.000000
_cell_angle_gamma 90.000000
_cell_volume 4038.367550
_symmetry_space_group_name_H-M "I 21 21 21"
_symmetry_group_IT_number 24
_symmetry_cell_setting 'orthorhombic'
loop_
_space_group_symop_operation_xyz
x,y,z
-x,1/2-y,z
x,-y,1/2-z
1/2-x,y,-z
1/2+x,1/2+y,1/2+z
1/2-x,-y,1/2+z
1/2+x,1/2-y,-z
-x,1/2+y,1/2-z
loop_
_atom_site_type_symbol
_atom_site_label
_atom_site_fract_x
_atom_site_fract_y
_atom_site_fract_z
Si Si1 0.406051 0.832996 0.841495
Si Si2 0.324259 0.355999 0.984591
Si Si3 0.760435 0.357455 0.373466
Si Si4 0.853219 0.639341 0.064390
Si Si5 0.816928 0.252350 0.282841
Si Si6 0.551060 0.138900 0.800593
Si Si7 0.268678 0.641693 0.422234
O O1 0.396676 0.878753 0.898929
O O2 0.361405 0.699275 0.816530
O O3 0.445360 0.604746 0.838740
O O4 0.417878 0.109989 0.815221
O O5 0.354842 0.606315 0.970084
O O6 0.277165 0.353105 0.954471
O O7 0.355393 0.106392 0.971891
O O8 0.312957 0.347940 0.042314
O O9 0.807097 0.367036 0.404100
O O10 0.772583 0.318187 0.316437
O O11 0.731583 0.621639 0.383149
O O12 0.727977 0.122534 0.391106
O O13 0.828151 0.500000 0.250000
O O14 0.805842 0.000000 0.250000
O O15 0.500000 0.250000 0.796176
O O16 0.567382 0.000000 0.750000
#
# Coordination Sequence:
#
# PCOD8166018 Si02
#       7
#     8   8   8   8   8   8   8
#     4  11  21  33  46  58  74  91 111 145 190 228
#     4   9  15  24  38  55  72  91 111 129 159 201
#     4   9  17  26  35  51  70  90 116 141 168 202
#     4   9  17  27  39  56  73  88 108 134 166 215
#     4  11  20  29  41  54  70  93 120 150 184 222
#     4  12  23  35  47  59  71  88 116 150 185 229
#     4   9  15  24  37  51  71  93 111 135 161 195
#
# _framework density 13.866991000000001
#
# number of rings (size 3 to 8) (size 9 to 14) (size 15 to 20)
#    0.000    2.000    0.000    6.429    0.000    8.000 
#    0.000    0.000    0.000    0.000    0.000    0.000 
#    0.000    0.000    0.000    0.000    0.000    0.000 
#
# Total GULP energy -347075.645656 kJ/mol
# GULP energy per Si atom -12395.558773 kJ/mol
# Density = 1.383543 g / cm^3
# Si number density = 13.866991 Si / 1000 Ang^3
#
#
#
# Elastic Constant Matrix: (Units=GPa)
#
#
# Indices 1 2 3 4 5 6 
#
# 1 24.8962 19.6703 22.8263 0.0000 0.0000 0.0000
# 2 19.6703 110.8721 19.8595 0.0000 0.0000 0.0000
# 3 22.8263 19.8595 40.3422 0.0000 0.0000 0.0000
# 4 0.0000 0.0000 0.0000 23.7373 0.0000 0.0000
# 5 0.0000 0.0000 0.0000 0.0000 19.3836 0.0000
# 6 0.0000 0.0000 0.0000 0.0000 0.0000 19.1360
#
#
#
# Elastic Compliance Matrix: (Units=1/GPa)
#
#
# Indices 1 2 3 4 5 6 
#
# 1 0.088675 -0.007397 -0.046532 0.000000 0.000000 0.000000
# 2 -0.007397 0.010509 -0.000988 0.000000 0.000000 0.000000
# 3 -0.046532 -0.000988 0.051603 0.000000 0.000000 0.000000
# 4 0.000000 0.000000 0.000000 0.042128 0.000000 0.000000
# 5 0.000000 0.000000 0.000000 0.000000 0.051590 0.000000
# 6 0.000000 0.000000 0.000000 0.000000 0.000000 0.052258
#
#
# Mechanical properties :
#
#
# Convention : Reuss Voigt Hill
#
# Bulk Modulus (GPa) = 24.41878 33.42472 28.92175
# Shear Modulus (GPa) = 11.89777 20.03499 15.96638
#
# Velocity S-wave (km/s) = 2.93233 3.80517 3.39690
# Velocity P-wave (km/s) = 5.39558 6.59257 6.02388
#
# Compressibility (1/GPa) = 0.04095209
#
# Stress axis : x y z
#
# Youngs Moduli (GPa) = 11.27716 95.15923 19.37879
#
# Poissons Ratio (x) = 0.70393 0.90174
# Poissons Ratio (y) = 0.08342 0.01914
# Poissons Ratio (z) = 0.52475 0.09398
#
# Static dielectric constant tensor:
#      x y z
#    x 2.351000 0.000000 0.000000 
#    y 0.000000 2.972910 0.000000 
#    z 0.000000 0.000000 2.742780 
# 
# 
# High freq. dielectric constant tensor:
#      x y z
#    x 1.460110 0.000000 0.000000 
#    y 0.000000 1.557600 0.000000 
#    z 0.000000 0.000000 1.508350 
# 
# From -- ./inp_files/37579.got.cif
#   From: 2010.03.12/outbox.cif.g09.slc.cpg/sg24_19_cif.got.tgz:37579.got - 2010.04.14 03:06:53.
