data_PCOD8166790
_publ_section_title
;
Structure prediction by ZEFSAII (Michael W. Deem and Ramdas Pophale) SiO2 
 PCOD8166790
Probable space group: P M M 2
;
_chemical_formula_sum "Si O2"
_cell_formula_units_Z 32
_cell_length_a 9.439047
_cell_length_b 14.026399
_cell_length_c 12.854124
_cell_angle_alpha 90.000000
_cell_angle_beta 90.000000
_cell_angle_gamma 90.000000
_cell_volume 1701.832537
_symmetry_space_group_name_H-M "P M M 2"
_symmetry_group_IT_number 25
_symmetry_cell_setting 'orthorhombic'
loop_
_space_group_symop_operation_xyz
x,y,z
-x,-y,z
-x,y,z
x,-y,z
loop_
_atom_site_type_symbol
_atom_site_label
_atom_site_fract_x
_atom_site_fract_y
_atom_site_fract_z
Si Si1 0.335232 0.205850 0.750000
Si Si2 0.668829 0.218502 0.338256
Si Si3 0.160972 0.889006 0.929852
Si Si4 0.838944 0.112608 0.164660
Si Si5 0.663382 0.605917 0.848991
Si Si6 0.155131 0.386882 0.040764
Si Si7 0.331747 0.107569 0.542963
Si Si8 0.166215 0.609462 0.273574
O O1 0.500000 0.180627 0.756740
O O2 0.264486 0.161062 0.850328
O O3 0.310348 0.320745 0.753860
O O4 0.270801 0.163918 0.643360
O O5 0.500000 0.228069 0.331273
O O6 0.726018 0.162734 0.238460
O O7 0.719412 0.160958 0.439767
O O8 0.739112 0.323415 0.347381
O O9 0.000000 0.869834 0.895194
O O10 0.195584 0.000000 0.928450
O O11 0.186183 0.849588 0.046920
O O12 0.000000 0.137416 0.199297
O O13 0.814251 0.000000 0.169613
O O14 0.500000 0.600446 0.878772
O O15 0.719685 0.500000 0.817765
O O16 0.738683 0.648030 0.951779
O O17 0.148362 0.500000 0.043572
O O18 0.200498 0.354258 0.156200
O O19 0.000000 0.345186 0.013527
O O20 0.500000 0.105704 0.546541
O O21 0.270843 0.000000 0.543357
O O22 0.212485 0.500000 0.291238
O O23 0.000000 0.621613 0.297766
#
# Coordination Sequence:
#
# PCOD8166790 Si02
#       8
#     4   4   4   4   4   4   4   4
#     4  10  20  34  55  79 103 138 184 221 264 322
#     4  11  22  34  54  82 109 139 183 231 275 323
#     4   9  19  35  53  76 107 138 169 214 273 329
#     4   9  19  36  55  76 107 145 179 216 273 340
#     4   9  18  31  47  73 109 140 170 214 262 306
#     4   8  15  29  49  71  97 136 179 210 245 302
#     4   9  19  37  57  77 105 140 177 223 276 326
#     4   9  19  36  55  76 107 147 186 221 265 324
#
# _framework density 18.803260000000002
#
# number of rings (size 3 to 8) (size 9 to 14) (size 15 to 20)
#    0.000    2.750    0.000    2.625    1.750    3.250 
#    0.000    4.375    0.000    5.250    0.000    1.750 
#    0.000    0.000    0.000    0.000    0.000    0.000 
#
# Total GULP energy -396686.595047 kJ/mol
# GULP energy per Si atom -12396.456095 kJ/mol
# Density = 1.876046 g / cm^3
# Si number density = 18.803260 Si / 1000 Ang^3
#
#
#
# Elastic Constant Matrix: (Units=GPa)
#
#
# Indices 1 2 3 4 5 6 
#
# 1 57.1400 47.4392 43.8604 0.0000 0.0000 0.0000
# 2 47.4392 98.4145 75.2168 0.0000 0.0000 0.0000
# 3 43.8604 75.2168 113.5591 0.0000 0.0000 0.0000
# 4 0.0000 0.0000 0.0000 33.8304 0.0000 0.0000
# 5 0.0000 0.0000 0.0000 0.0000 1.4114 0.0000
# 6 0.0000 0.0000 0.0000 0.0000 0.0000 27.8574
#
#
#
# Elastic Compliance Matrix: (Units=1/GPa)
#
#
# Indices 1 2 3 4 5 6 
#
# 1 0.030083 -0.011383 -0.004079 0.000000 0.000000 0.000000
# 2 -0.011383 0.024886 -0.012087 0.000000 0.000000 0.000000
# 3 -0.004079 -0.012087 0.018387 0.000000 0.000000 0.000000
# 4 0.000000 0.000000 0.000000 0.029559 0.000000 0.000000
# 5 0.000000 0.000000 0.000000 0.000000 0.708527 0.000000
# 6 0.000000 0.000000 0.000000 0.000000 0.000000 0.035897
#
#
# Mechanical properties :
#
#
# Convention : Reuss Voigt Hill
#
# Bulk Modulus (GPa) = 54.77202 66.90516 60.83859
# Shear Modulus (GPa) = 5.50343 19.45964 12.48154
#
# Velocity S-wave (km/s) = 1.71266 3.22049 2.57922
# Velocity P-wave (km/s) = 5.75354 7.03475 6.42615
#
# Compressibility (1/GPa) = 0.01825750
#
# Stress axis : x y z
#
# Youngs Moduli (GPa) = 33.24167 40.18315 54.38520
#
# Poissons Ratio (x) = 0.45741 0.22185
# Poissons Ratio (y) = 0.37840 0.65735
# Poissons Ratio (z) = 0.13560 0.48569
#
# Static dielectric constant tensor:
#      x y z
#    x 3.297920 0.000000 0.000000 
#    y 0.000000 3.711440 0.000000 
#    z 0.000000 0.000000 3.448790 
# 
# 
# High freq. dielectric constant tensor:
#      x y z
#    x 1.709740 0.000000 0.000000 
#    y 0.000000 1.749100 0.000000 
#    z 0.000000 0.000000 1.710850 
# 
# From -- ./inp_files/4265.got.cif
#   From: 2010.03.12/outbox.cif.g09.slc.cpg/sg25_3_cif.got.tgz:4265.got - 2010.04.14 03:30:10.
