data_PCOD8166954
_publ_section_title
;
Structure prediction by ZEFSAII (Michael W. Deem and Ramdas Pophale) SiO2 
 PCOD8166954
Probable space group: P M M 2
;
_chemical_formula_sum "Si O2"
_cell_formula_units_Z 32
_cell_length_a 9.130313
_cell_length_b 14.195910
_cell_length_c 13.037434
_cell_angle_alpha 90.000000
_cell_angle_beta 90.000000
_cell_angle_gamma 90.000000
_cell_volume 1689.822258
_symmetry_space_group_name_H-M "P M M 2"
_symmetry_group_IT_number 25
_symmetry_cell_setting 'orthorhombic'
loop_
_space_group_symop_operation_xyz
x,y,z
-x,-y,z
-x,y,z
x,-y,z
loop_
_atom_site_type_symbol
_atom_site_label
_atom_site_fract_x
_atom_site_fract_y
_atom_site_fract_z
Si Si1 0.172394 0.788916 0.989880
Si Si2 0.338484 0.388649 0.694201
Si Si3 0.672456 0.796153 0.382543
Si Si4 0.673527 0.396226 0.469959
Si Si5 0.826395 0.890968 0.191440
Si Si6 0.828507 0.604585 0.892108
Si Si7 0.166272 0.887753 0.567188
Si Si8 0.825909 0.104619 0.793146
O O1 0.209221 0.676869 0.984924
O O2 0.239814 0.834792 0.886814
O O3 0.000000 0.806991 0.991528
O O4 0.237989 0.836736 0.091835
O O5 0.500000 0.342939 0.705998
O O6 0.351605 0.500000 0.702545
O O7 0.266836 0.365193 0.582786
O O8 0.237437 0.352964 0.787084
O O9 0.500000 0.810015 0.367563
O O10 0.715486 0.684657 0.388029
O O11 0.756226 0.843212 0.289567
O O12 0.719747 0.845229 0.487495
O O13 0.500000 0.403590 0.481775
O O14 0.735047 0.500000 0.436478
O O15 0.000000 0.880783 0.200801
O O16 0.779866 0.000000 0.184701
O O17 0.768652 0.500000 0.920574
O O18 0.000000 0.601077 0.872767
O O19 0.216665 0.853568 0.681106
O O20 0.000000 0.854504 0.542329
O O21 0.172944 0.000000 0.562116
O O22 0.000000 0.100702 0.799113
O O23 0.760809 0.000000 0.805356
#
# Coordination Sequence:
#
# PCOD8166954 Si02
#       8
#     4   4   4   4   4   4   4   4
#     4   9  17  30  50  73  97 129 169 207 248 298
#     4   8  14  27  47  68  94 132 171 201 231 280
#     4  11  22  34  53  78 102 132 171 213 261 308
#     4   8  16  32  51  71  99 136 175 209 245 297
#     4  10  21  38  58  76  96 129 176 223 261 305
#     4   9  17  28  44  72 107 134 158 196 250 303
#     4   9  18  32  50  74 105 137 166 202 253 311
#     4   8  14  26  46  72  98 124 159 203 246 290
#
# _framework density 18.936903000000001
#
# number of rings (size 3 to 8) (size 9 to 14) (size 15 to 20)
#    0.000    3.000    0.000    2.625    1.750    3.500 
#    0.000    1.875    0.000    3.750    0.000    1.750 
#    0.000    0.000    0.000    0.000    0.000    0.000 
#
# Total GULP energy -396516.432618 kJ/mol
# GULP energy per Si atom -12391.138519 kJ/mol
# Density = 1.889380 g / cm^3
# Si number density = 18.936903 Si / 1000 Ang^3
#
#
#
# Elastic Constant Matrix: (Units=GPa)
#
#
# Indices 1 2 3 4 5 6 
#
# 1 20.6560 26.1714 23.1255 0.0000 0.0000 0.0000
# 2 26.1714 113.1430 80.7084 0.0000 0.0000 0.0000
# 3 23.1255 80.7084 132.6055 0.0000 0.0000 0.0000
# 4 0.0000 0.0000 0.0000 34.7407 0.0000 0.0000
# 5 0.0000 0.0000 0.0000 0.0000 10.5318 0.0000
# 6 0.0000 0.0000 0.0000 0.0000 0.0000 16.5550
#
#
#
# Elastic Compliance Matrix: (Units=1/GPa)
#
#
# Indices 1 2 3 4 5 6 
#
# 1 0.069747 -0.013178 -0.004143 0.000000 0.000000 0.000000
# 2 -0.013178 0.018110 -0.008724 0.000000 0.000000 0.000000
# 3 -0.004143 -0.008724 0.013573 0.000000 0.000000 0.000000
# 4 0.000000 0.000000 0.000000 0.028785 0.000000 0.000000
# 5 0.000000 0.000000 0.000000 0.000000 0.094951 0.000000
# 6 0.000000 0.000000 0.000000 0.000000 0.000000 0.060405
#
#
# Mechanical properties :
#
#
# Convention : Reuss Voigt Hill
#
# Bulk Modulus (GPa) = 20.26740 58.49057 39.37898
# Shear Modulus (GPa) = 14.12000 21.45875 17.78938
#
# Velocity S-wave (km/s) = 2.73359 3.36991 3.06829
# Velocity P-wave (km/s) = 4.54854 6.78939 5.77863
#
# Compressibility (1/GPa) = 0.04934032
#
# Stress axis : x y z
#
# Youngs Moduli (GPa) = 14.33749 55.21857 73.67350
#
# Poissons Ratio (x) = 0.72769 0.30520
# Poissons Ratio (y) = 0.18894 0.64273
# Poissons Ratio (z) = 0.05940 0.48173
#
# Static dielectric constant tensor:
#      x y z
#    x 3.159730 0.000000 0.000000 
#    y 0.000000 3.752370 0.000000 
#    z 0.000000 0.000000 3.584240 
# 
# 
# High freq. dielectric constant tensor:
#      x y z
#    x 1.688850 0.000000 0.000000 
#    y 0.000000 1.745550 0.000000 
#    z 0.000000 0.000000 1.725450 
# 
# From -- ./inp_files/4269.got.cif
#   From: 2010.03.12/outbox.cif.g09.slc.cpg/sg25_3_cif.got.tgz:4269.got - 2010.04.14 03:30:10.
