data_PCOD8166686
_publ_section_title
;
Structure prediction by ZEFSAII (Michael W. Deem and Ramdas Pophale) SiO2 
 PCOD8166686
Probable space group: P M M 2
;
_chemical_formula_sum "Si O2"
_cell_formula_units_Z 32
_cell_length_a 9.127535
_cell_length_b 14.191868
_cell_length_c 14.163120
_cell_angle_alpha 90.000000
_cell_angle_beta 90.000000
_cell_angle_gamma 90.000000
_cell_volume 1834.644845
_symmetry_space_group_name_H-M "P M M 2"
_symmetry_group_IT_number 25
_symmetry_cell_setting 'orthorhombic'
loop_
_space_group_symop_operation_xyz
x,y,z
-x,-y,z
-x,y,z
x,-y,z
loop_
_atom_site_type_symbol
_atom_site_label
_atom_site_fract_x
_atom_site_fract_y
_atom_site_fract_z
Si Si1 0.326796 0.608249 0.090780
Si Si2 0.671273 0.252617 0.248963
Si Si3 0.328330 0.108021 0.093214
Si Si4 0.173276 0.750644 0.961128
Si Si5 0.170423 0.739501 0.744591
Si Si6 0.673425 0.759356 0.458466
Si Si7 0.828876 0.892779 0.594048
Si Si8 0.327805 0.606740 0.609647
O O1 0.500000 0.622000 0.075724
O O2 0.280668 0.500000 0.095829
O O3 0.274217 0.657718 0.188031
O O4 0.243788 0.656068 0.003604
O O5 0.500000 0.261996 0.263802
O O6 0.711400 0.157085 0.192843
O O7 0.741660 0.251958 0.353289
O O8 0.500000 0.120046 0.071112
O O9 0.280564 0.000000 0.100515
O O10 0.238303 0.156078 0.009290
O O11 0.217818 0.755341 0.851941
O O12 0.000000 0.748372 0.976422
O O13 0.212955 0.833953 0.687536
O O14 0.254314 0.649401 0.703026
O O15 0.000000 0.716888 0.735985
O O16 0.500000 0.773781 0.457107
O O17 0.743167 0.852295 0.504117
O O18 0.718582 0.666572 0.517506
O O19 0.000000 0.885516 0.571821
O O20 0.779525 0.000000 0.611520
O O21 0.500000 0.610715 0.625687
O O22 0.273118 0.500000 0.594493
#
# Coordination Sequence:
#
# PCOD8166686 Si02
#       8
#     4   4   4   4   4   4   4   4
#     4   9  18  33  52  72  95 126 162 196 233 282
#     4   8  15  29  49  72  96 123 156 192 230 274
#     4   9  18  33  51  71  97 128 161 196 234 280
#     4  10  20  33  50  72  97 124 157 200 243 282
#     4   9  19  34  50  68  91 123 160 194 231 278
#     4   9  17  30  49  72  97 123 153 192 233 274
#     4   9  18  33  50  67  91 123 157 193 232 276
#     4   9  18  31  47  70  98 124 152 191 236 276
#
# _framework density 17.442067999999999
#
# number of rings (size 3 to 8) (size 9 to 14) (size 15 to 20)
#    0.000    3.000    0.000    1.125    0.000    4.000 
#    0.000   10.000    0.000    0.000    0.000    5.250 
#    0.000    0.000    0.000    0.000    0.000    0.000 
#
# Total GULP energy -396768.666263 kJ/mol
# GULP energy per Si atom -12399.020821 kJ/mol
# Density = 1.740237 g / cm^3
# Si number density = 17.442068 Si / 1000 Ang^3
#
#
#
# Elastic Constant Matrix: (Units=GPa)
#
#
# Indices 1 2 3 4 5 6 
#
# 1 34.2399 39.6760 41.6813 0.0000 0.0000 0.0000
# 2 39.6760 164.4997 77.0032 0.0000 0.0000 0.0000
# 3 41.6813 77.0032 157.7050 0.0000 0.0000 0.0000
# 4 0.0000 0.0000 0.0000 13.1796 0.0000 0.0000
# 5 0.0000 0.0000 0.0000 0.0000 21.8702 0.0000
# 6 0.0000 0.0000 0.0000 0.0000 0.0000 23.3319
#
#
#
# Elastic Compliance Matrix: (Units=1/GPa)
#
#
# Indices 1 2 3 4 5 6 
#
# 1 0.049307 -0.007508 -0.009366 0.000000 0.000000 0.000000
# 2 -0.007508 0.009024 -0.002421 0.000000 0.000000 0.000000
# 3 -0.009366 -0.002421 0.009999 0.000000 0.000000 0.000000
# 4 0.000000 0.000000 0.000000 0.075875 0.000000 0.000000
# 5 0.000000 0.000000 0.000000 0.000000 0.045724 0.000000
# 6 0.000000 0.000000 0.000000 0.000000 0.000000 0.042860
#
#
# Mechanical properties :
#
#
# Convention : Reuss Voigt Hill
#
# Bulk Modulus (GPa) = 33.62669 74.79617 54.21143
# Shear Modulus (GPa) = 17.77511 24.88196 21.32853
#
# Velocity S-wave (km/s) = 3.19579 3.78107 3.50068
# Velocity P-wave (km/s) = 5.73919 7.87640 6.89115
#
# Compressibility (1/GPa) = 0.02973829
#
# Stress axis : x y z
#
# Youngs Moduli (GPa) = 20.28097 110.82174 100.01340
#
# Poissons Ratio (x) = 0.83209 0.93670
# Poissons Ratio (y) = 0.15228 0.24218
# Poissons Ratio (z) = 0.18995 0.26835
#
# Static dielectric constant tensor:
#      x y z
#    x 3.056320 0.000000 0.000000 
#    y 0.000000 3.384780 0.000000 
#    z 0.000000 0.000000 3.419510 
# 
# 
# High freq. dielectric constant tensor:
#      x y z
#    x 1.655510 0.000000 0.000000 
#    y 0.000000 1.677480 0.000000 
#    z 0.000000 0.000000 1.676530 
# 
# From -- ./inp_files/5707.got.cif
#   From: 2010.03.12/outbox.cif.g09.slc.cpg/sg25_3_cif.got.tgz:5707.got - 2010.04.14 03:30:10.
