data_PCOD8166579
_publ_section_title
;
Structure prediction by ZEFSAII (Michael W. Deem and Ramdas Pophale) SiO2 
 PCOD8166579
Probable space group: P M M 2
;
_chemical_formula_sum "Si O2"
_cell_formula_units_Z 28
_cell_length_a 9.445748
_cell_length_b 9.100348
_cell_length_c 18.245719
_cell_angle_alpha 90.000000
_cell_angle_beta 90.000000
_cell_angle_gamma 90.000000
_cell_volume 1568.394596
_symmetry_space_group_name_H-M "P M M 2"
_symmetry_group_IT_number 25
_symmetry_cell_setting 'orthorhombic'
loop_
_space_group_symop_operation_xyz
x,y,z
-x,-y,z
-x,y,z
x,-y,z
loop_
_atom_site_type_symbol
_atom_site_label
_atom_site_fract_x
_atom_site_fract_y
_atom_site_fract_z
Si Si1 0.161420 0.675437 0.491390
Si Si2 0.159273 0.675914 0.806958
Si Si3 0.338869 0.325633 0.942952
Si Si4 0.156444 0.174380 0.230740
Si Si5 0.663303 0.173257 0.366152
Si Si6 0.164691 0.170689 0.066800
Si Si7 0.167424 0.660259 0.650041
O O1 0.176153 0.500000 0.489844
O O2 0.266700 0.747692 0.434548
O O3 0.206017 0.738310 0.572600
O O4 0.000000 0.721312 0.472789
O O5 0.162342 0.500000 0.802790
O O6 0.263173 0.736052 0.869738
O O7 0.210712 0.740005 0.726936
O O8 0.000000 0.729869 0.825344
O O9 0.500000 0.270003 0.942349
O O10 0.329714 0.500000 0.945253
O O11 0.261205 0.265409 0.013958
O O12 0.266363 0.233183 0.291117
O O13 0.202266 0.223968 0.149286
O O14 0.000000 0.236788 0.249437
O O15 0.150409 0.000000 0.231583
O O16 0.500000 0.216984 0.363252
O O17 0.685987 0.000000 0.374651
O O18 0.000000 0.200395 0.050039
O O19 0.201036 0.000000 0.056109
O O20 0.240241 0.500000 0.649015
O O21 0.000000 0.639563 0.652132
#
# Coordination Sequence:
#
# PCOD8166579 Si02
#       7
#     4   4   4   4   4   4   4
#     4   9  17  30  49  72  96 121 152 192 235 276
#     4   8  13  24  44  66  88 118 155 193 231 268
#     4  10  20  31  44  68 101 130 155 185 224 273
#     4   8  15  30  51  71  89 113 151 196 234 270
#     4  10  20  32  47  69  96 125 156 188 225 273
#     4   9  18  33  53  74  92 114 151 196 236 275
#     4   7  11  22  42  67  90 113 148 193 233 268
#
# _framework density 17.852650000000001
#
# number of rings (size 3 to 8) (size 9 to 14) (size 15 to 20)
#    0.000    3.286    0.000    3.429    0.000    2.857 
#    0.000    2.857    0.000    4.286    0.000    2.000 
#    0.000    0.000    0.000    0.000    0.000    0.000 
#
# Total GULP energy -346900.806627 kJ/mol
# GULP energy per Si atom -12389.314522 kJ/mol
# Density = 1.781202 g / cm^3
# Si number density = 17.852650 Si / 1000 Ang^3
#
#
#
# Elastic Constant Matrix: (Units=GPa)
#
#
# Indices 1 2 3 4 5 6 
#
# 1 110.5798 22.8444 94.6418 0.0000 0.0000 0.0000
# 2 22.8444 13.4220 25.1695 0.0000 0.0000 0.0000
# 3 94.6418 25.1695 188.1177 0.0000 0.0000 0.0000
# 4 0.0000 0.0000 0.0000 108.6788 0.0000 0.0000
# 5 0.0000 0.0000 0.0000 0.0000 4.5126 0.0000
# 6 0.0000 0.0000 0.0000 0.0000 0.0000 20.8560
#
#
#
# Elastic Compliance Matrix: (Units=1/GPa)
#
#
# Indices 1 2 3 4 5 6 
#
# 1 0.018992 -0.019232 -0.006981 0.000000 0.000000 0.000000
# 2 -0.019232 0.118934 -0.006237 0.000000 0.000000 0.000000
# 3 -0.006981 -0.006237 0.009663 0.000000 0.000000 0.000000
# 4 0.000000 0.000000 0.000000 0.009201 0.000000 0.000000
# 5 0.000000 0.000000 0.000000 0.000000 0.221604 0.000000
# 6 0.000000 0.000000 0.000000 0.000000 0.000000 0.047948
#
#
# Mechanical properties :
#
#
# Convention : Reuss Voigt Hill
#
# Bulk Modulus (GPa) = 12.09384 66.38122 39.23753
# Shear Modulus (GPa) = 9.63753 38.10705 23.87229
#
# Velocity S-wave (km/s) = 2.32596 4.62511 3.66072
# Velocity P-wave (km/s) = 3.74198 8.11084 6.31618
#
# Compressibility (1/GPa) = 0.08268671
#
# Stress axis : x y z
#
# Youngs Moduli (GPa) = 52.65504 8.40803 103.49039
#
# Poissons Ratio (x) = 0.16170 0.72251
# Poissons Ratio (y) = 1.01266 0.64551
# Poissons Ratio (z) = 0.36761 0.05244
#
# Static dielectric constant tensor:
#      x y z
#    x 3.290820 0.000000 0.000000 
#    y 0.000000 2.766760 0.000000 
#    z 0.000000 0.000000 3.817030 
# 
# 
# High freq. dielectric constant tensor:
#      x y z
#    x 1.673320 0.000000 0.000000 
#    y 0.000000 1.633310 0.000000 
#    z 0.000000 0.000000 1.716630 
# 
# From -- ./inp_files/6225.got.cif
#   From: 2010.03.12/outbox.cif.g09.slc.cpg/sg25_4_cif.got.tgz:6225.got - 2010.04.14 03:30:10.
