data_PCOD8166560
_publ_section_title
;
Structure prediction by ZEFSAII (Michael W. Deem and Ramdas Pophale) SiO2 
 PCOD8166560
Probable space group: P M M 2
;
_chemical_formula_sum "Si O2"
_cell_formula_units_Z 24
_cell_length_a 7.770723
_cell_length_b 16.597832
_cell_length_c 9.637206
_cell_angle_alpha 90.000000
_cell_angle_beta 90.000000
_cell_angle_gamma 90.000000
_cell_volume 1242.979411
_symmetry_space_group_name_H-M "P M M 2"
_symmetry_group_IT_number 25
_symmetry_cell_setting 'orthorhombic'
loop_
_space_group_symop_operation_xyz
x,y,z
-x,-y,z
-x,y,z
x,-y,z
loop_
_atom_site_type_symbol
_atom_site_label
_atom_site_fract_x
_atom_site_fract_y
_atom_site_fract_z
Si Si1 0.500000 0.098623 0.492880
Si Si2 0.811019 0.841186 0.933943
Si Si3 0.500000 0.087362 0.797465
Si Si4 0.192333 0.302133 0.718368
Si Si5 0.696651 0.588361 0.948878
Si Si6 0.704753 0.276772 0.154746
Si Si7 0.201329 0.782403 0.442368
O O1 0.500000 0.134032 0.651208
O O2 0.674318 0.138603 0.427018
O O3 0.500000 0.000000 0.470174
O O4 0.666737 0.904903 0.894004
O O5 0.798236 0.773478 0.818516
O O6 0.000000 0.881867 0.934645
O O7 0.770848 0.805263 0.084348
O O8 0.500000 0.000000 0.734178
O O9 0.294257 0.374588 0.793150
O O10 0.265335 0.274150 0.569562
O O11 0.000000 0.334053 0.699024
O O12 0.500000 0.577742 0.988354
O O13 0.786612 0.500000 0.952949
O O14 0.779758 0.647278 0.066017
O O15 0.500000 0.278206 0.155234
O O16 0.780505 0.275592 0.309045
O O17 0.000000 0.809079 0.462557
#
# Coordination Sequence:
#
# PCOD8166560 Si02
#       7
#     2   4   2   4   4   4   4
#     4  11  24  39  61  89 116 152 189 236 303 347
#     4  10  19  35  55  80 110 144 186 232 278 333
#     4  11  22  35  57  87 112 142 185 232 291 347
#     4   9  19  33  55  80 107 147 190 230 276 334
#     4   9  19  34  56  87 117 149 190 238 290 342
#     4  10  19  34  60  83 113 154 195 236 284 343
#     4  11  22  38  59  87 117 152 199 241 283 343
#
# _framework density 19.308446
#
# number of rings (size 3 to 8) (size 9 to 14) (size 15 to 20)
#    0.000    2.000    3.333    0.500    2.333    1.667 
#    0.000    4.167    0.000    5.000    0.000    0.000 
#    0.000    0.000    0.000    0.000    0.000    0.000 
#
# Total GULP energy -297318.371605 kJ/mol
# GULP energy per Si atom -12388.265484 kJ/mol
# Density = 1.926450 g / cm^3
# Si number density = 19.308446 Si / 1000 Ang^3
#
#
#
# Elastic Constant Matrix: (Units=GPa)
#
#
# Indices 1 2 3 4 5 6 
#
# 1 100.3000 33.8397 19.0709 0.0000 0.0000 0.0000
# 2 33.8397 92.2042 43.3624 0.0000 0.0000 0.0000
# 3 19.0709 43.3624 128.4225 0.0000 0.0000 0.0000
# 4 0.0000 0.0000 0.0000 17.9411 0.0000 0.0000
# 5 0.0000 0.0000 0.0000 0.0000 28.1185 0.0000
# 6 0.0000 0.0000 0.0000 0.0000 0.0000 1.6766
#
#
#
# Elastic Compliance Matrix: (Units=1/GPa)
#
#
# Indices 1 2 3 4 5 6 
#
# 1 0.011391 -0.004024 -0.000333 0.000000 0.000000 0.000000
# 2 -0.004024 0.014314 -0.004236 0.000000 0.000000 0.000000
# 3 -0.000333 -0.004236 0.009266 0.000000 0.000000 0.000000
# 4 0.000000 0.000000 0.000000 0.055738 0.000000 0.000000
# 5 0.000000 0.000000 0.000000 0.000000 0.035564 0.000000
# 6 0.000000 0.000000 0.000000 0.000000 0.000000 0.596431
#
#
# Mechanical properties :
#
#
# Convention : Reuss Voigt Hill
#
# Bulk Modulus (GPa) = 56.22221 57.05251 56.63736
# Shear Modulus (GPa) = 6.70404 24.52414 15.61409
#
# Velocity S-wave (km/s) = 1.86537 3.56775 2.84679
# Velocity P-wave (km/s) = 5.81555 6.82524 6.34052
#
# Compressibility (1/GPa) = 0.01778656
#
# Stress axis : x y z
#
# Youngs Moduli (GPa) = 87.78829 69.85996 107.91636
#
# Poissons Ratio (x) = 0.28112 0.03592
# Poissons Ratio (y) = 0.35327 0.45710
# Poissons Ratio (z) = 0.02922 0.29591
#
# Static dielectric constant tensor:
#      x y z
#    x 3.674480 0.000000 0.000000 
#    y 0.000000 3.484480 0.000000 
#    z 0.000000 0.000000 3.627910 
# 
# 
# High freq. dielectric constant tensor:
#      x y z
#    x 1.756210 0.000000 0.000000 
#    y 0.000000 1.719130 0.000000 
#    z 0.000000 0.000000 1.751260 
# 
# From -- ./inp_files/2143.got.cif
#   From: 2010.03.12/outbox.cif.g09.slc.cpg/sg25_2_cif.got.tgz:2143.got - 2010.04.14 03:30:10.
