data_PCOD8166110
_publ_section_title
;
Structure prediction by ZEFSAII (Michael W. Deem and Ramdas Pophale) SiO2 
 PCOD8166110
Probable space group: I 21 21 21
;
_chemical_formula_sum "Si O2"
_cell_formula_units_Z 48
_cell_length_a 30.009955
_cell_length_b 9.282509
_cell_length_c 9.687975
_cell_angle_alpha 90.000000
_cell_angle_beta 90.000000
_cell_angle_gamma 90.000000
_cell_volume 2698.756694
_symmetry_space_group_name_H-M "I 21 21 21"
_symmetry_group_IT_number 24
_symmetry_cell_setting 'orthorhombic'
loop_
_space_group_symop_operation_xyz
x,y,z
-x,1/2-y,z
x,-y,1/2-z
1/2-x,y,-z
1/2+x,1/2+y,1/2+z
1/2-x,-y,1/2+z
1/2+x,1/2-y,-z
-x,1/2+y,1/2-z
loop_
_atom_site_type_symbol
_atom_site_label
_atom_site_fract_x
_atom_site_fract_y
_atom_site_fract_z
Si Si1 0.438152 0.505444 0.092687
Si Si2 0.793151 0.991725 0.592627
Si Si3 0.135512 0.267094 0.591752
Si Si4 0.114073 0.987856 0.090386
Si Si5 0.488662 0.081872 0.612377
Si Si6 0.632646 0.236332 0.090168
O O1 0.453200 0.500000 0.250000
O O2 0.409975 0.648291 0.059290
O O3 0.409106 0.365796 0.058351
O O4 0.483264 0.507124 0.007447
O O5 0.750000 0.991716 0.500000
O O6 0.821534 0.848336 0.560717
O O7 0.777334 0.000000 0.750000
O O8 0.822737 0.131232 0.562419
O O9 0.141666 0.136511 0.485933
O O10 0.133386 0.212345 0.750314
O O11 0.062372 0.948539 0.075893
O O12 0.128458 0.000000 0.250000
O O13 0.127567 0.133861 0.015037
O O14 0.500000 0.250000 0.627593
O O15 0.502965 0.000000 0.750000
#
# Coordination Sequence:
#
# PCOD8166110 Si02
#       6
#     8   8   8   8   8   8
#     4   9  19  36  57  77 101 143 192 229 265 323
#     4   9  19  37  62  88 111 139 177 221 279 339
#     4   9  18  38  57  79 111 142 181 227 276 324
#     4  11  23  35  52  81 111 147 191 227 274 324
#     4  11  24  38  52  76 115 151 186 235 283 325
#     4   9  20  36  58  81 109 145 179 226 279 327
#
# _framework density 17.785969000000001
#
# number of rings (size 3 to 8) (size 9 to 14) (size 15 to 20)
#    0.000    2.333    1.667    2.500    4.667    2.667 
#    0.000    4.167    0.000    0.000    0.000    0.000 
#    0.000    0.000    0.000    0.000    0.000    0.000 
#
# Total GULP energy -297573.674216 kJ/mol
# GULP energy per Si atom -12398.903092 kJ/mol
# Density = 1.774549 g / cm^3
# Si number density = 17.785969 Si / 1000 Ang^3
#
#
#
# Elastic Constant Matrix: (Units=GPa)
#
#
# Indices 1 2 3 4 5 6 
#
# 1 80.5691 43.0997 66.1543 0.0000 0.0000 0.0000
# 2 43.0997 125.6158 90.8824 0.0000 0.0000 0.0000
# 3 66.1543 90.8824 132.4742 0.0000 0.0000 0.0000
# 4 0.0000 0.0000 0.0000 36.5832 0.0000 0.0000
# 5 0.0000 0.0000 0.0000 0.0000 37.2302 0.0000
# 6 0.0000 0.0000 0.0000 0.0000 0.0000 12.6295
#
#
#
# Elastic Compliance Matrix: (Units=1/GPa)
#
#
# Indices 1 2 3 4 5 6 
#
# 1 0.021074 0.000761 -0.011046 0.000000 0.000000 0.000000
# 2 0.000761 0.015834 -0.011242 0.000000 0.000000 0.000000
# 3 -0.011046 -0.011242 0.020778 0.000000 0.000000 0.000000
# 4 0.000000 0.000000 0.000000 0.027335 0.000000 0.000000
# 5 0.000000 0.000000 0.000000 0.000000 0.026860 0.000000
# 6 0.000000 0.000000 0.000000 0.000000 0.000000 0.079180
#
#
# Mechanical properties :
#
#
# Convention : Reuss Voigt Hill
#
# Bulk Modulus (GPa) = 68.35074 82.10353 75.22713
# Shear Modulus (GPa) = 20.92120 26.52343 23.72232
#
# Velocity S-wave (km/s) = 3.43341 3.86587 3.65604
# Velocity P-wave (km/s) = 7.36415 8.13565 7.75949
#
# Compressibility (1/GPa) = 0.01463042
#
# Stress axis : x y z
#
# Youngs Moduli (GPa) = 47.45073 63.15720 48.12881
#
# Poissons Ratio (x) = -0.04807 0.53164
# Poissons Ratio (y) = -0.03611 0.54109
# Poissons Ratio (z) = 0.52415 0.71004
#
# Static dielectric constant tensor:
#      x y z
#    x 3.109530 0.000000 0.000000 
#    y 0.000000 3.294540 0.000000 
#    z 0.000000 0.000000 3.318600 
# 
# 
# High freq. dielectric constant tensor:
#      x y z
#    x 1.674930 0.000000 0.000000 
#    y 0.000000 1.693310 0.000000 
#    z 0.000000 0.000000 1.694850 
# 
# From -- ./inp_files/9730.got.cif
#   From: 2010.03.12/outbox.cif.g09.slc.cpg/sg24_5_cif.got.tgz:9730.got - 2010.04.14 03:06:53.
