data_PCOD8166893
_publ_section_title
;
Structure prediction by ZEFSAII (Michael W. Deem and Ramdas Pophale) SiO2 
 PCOD8166893
Probable space group: P M M 2
;
_chemical_formula_sum "Si O2"
_cell_formula_units_Z 32
_cell_length_a 17.633843
_cell_length_b 16.697580
_cell_length_c 4.934317
_cell_angle_alpha 90.000000
_cell_angle_beta 90.000000
_cell_angle_gamma 90.000000
_cell_volume 1452.872654
_symmetry_space_group_name_H-M "P M M 2"
_symmetry_group_IT_number 25
_symmetry_cell_setting 'orthorhombic'
loop_
_space_group_symop_operation_xyz
x,y,z
-x,-y,z
-x,y,z
x,-y,z
loop_
_atom_site_type_symbol
_atom_site_label
_atom_site_fract_x
_atom_site_fract_y
_atom_site_fract_z
Si Si1 0.821660 0.806920 0.592340
Si Si2 0.673827 0.091251 0.660582
Si Si3 0.085656 0.764044 0.070725
Si Si4 0.591865 0.157626 0.177142
Si Si5 0.418113 0.412132 0.775226
Si Si6 0.137971 0.588831 0.104000
Si Si7 0.776066 0.366499 0.618061
Si Si8 0.630628 0.665102 0.296111
O O1 0.759686 0.877621 0.607352
O O2 0.855528 0.796249 0.293428
O O3 0.778416 0.727330 0.680962
O O4 0.891552 0.814687 0.803053
O O5 0.622343 0.092231 0.389197
O O6 0.681711 0.000000 0.756816
O O7 0.627378 0.140862 0.884535
O O8 0.087717 0.666821 0.020796
O O9 0.000000 0.786858 0.149892
O O10 0.500000 0.160349 0.159171
O O11 0.628617 0.239451 0.289798
O O12 0.500000 0.417702 0.919237
O O13 0.383470 0.500000 0.727148
O O14 0.435941 0.366718 0.489859
O O15 0.365405 0.364003 0.986747
O O16 0.098409 0.500000 0.079186
O O17 0.159150 0.601352 0.416469
O O18 0.211719 0.588635 0.904944
O O19 0.696385 0.379456 0.472932
#
# Coordination Sequence:
#
# PCOD8166893 Si02
#       8
#     4   4   4   4   4   4   4   4
#     4  10  21  41  64  91 127 161 213 258 300 385
#     4  12  26  45  71  98 129 171 211 260 337 404
#     4  10  21  38  66  96 127 173 213 256 315 373
#     4  12  26  43  67  98 132 170 217 272 329 400
#     4  11  24  39  54  78 113 155 208 269 324 373
#     4  10  21  35  54  87 129 165 209 261 310 363
#     4  10  21  35  57  81 114 162 208 258 300 362
#     4  12  23  39  62  84 117 163 217 263 325 381
#
# _framework density 22.02533
#
# number of rings (size 3 to 8) (size 9 to 14) (size 15 to 20)
#    0.000    1.125    1.250    5.250    3.500    5.750 
#    0.000    0.000    0.000    6.750    0.000    0.000 
#    0.000    0.000    0.000    0.000    0.000    0.000 
#
# Total GULP energy -396445.033469 kJ/mol
# GULP energy per Si atom -12388.907296 kJ/mol
# Density = 2.197520 g / cm^3
# Si number density = 22.025330 Si / 1000 Ang^3
#
#
#
# Elastic Constant Matrix: (Units=GPa)
#
#
# Indices 1 2 3 4 5 6 
#
# 1 96.3444 24.7256 13.9028 0.0000 0.0000 0.0000
# 2 24.7256 99.5134 29.0986 0.0000 0.0000 0.0000
# 3 13.9028 29.0986 107.7267 0.0000 0.0000 0.0000
# 4 0.0000 0.0000 0.0000 27.6158 0.0000 0.0000
# 5 0.0000 0.0000 0.0000 0.0000 29.7988 0.0000
# 6 0.0000 0.0000 0.0000 0.0000 0.0000 -42.5511
#
#
#
# Elastic Compliance Matrix: (Units=1/GPa)
#
#
# Indices 1 2 3 4 5 6 
#
# 1 0.011142 -0.002549 -0.000749 0.000000 0.000000 0.000000
# 2 -0.002549 0.011494 -0.002776 0.000000 0.000000 0.000000
# 3 -0.000749 -0.002776 0.010129 0.000000 0.000000 0.000000
# 4 0.000000 0.000000 0.000000 0.036211 0.000000 0.000000
# 5 0.000000 0.000000 0.000000 0.000000 0.033558 0.000000
# 6 0.000000 0.000000 0.000000 0.000000 0.000000 -0.023501
#
#
# Mechanical properties :
#
#
# Convention : Reuss Voigt Hill
#
# Bulk Modulus (GPa) = 48.50501 48.78205 48.64353
# Shear Modulus (GPa) = 50.99235 18.69655 34.84445
#
# Velocity S-wave (km/s) = 4.81684 2.91669 3.98177
# Velocity P-wave (km/s) = 7.28053 5.79129 6.57819
#
# Compressibility (1/GPa) = 0.02061643
#
# Stress axis : x y z
#
# Youngs Moduli (GPa) = 89.75218 87.00241 98.72435
#
# Poissons Ratio (x) = 0.22179 0.07398
# Poissons Ratio (y) = 0.22880 0.27403
# Poissons Ratio (z) = 0.06725 0.24149
#
# Static dielectric constant tensor:
#      x y z
#    x 3.821820 0.000000 0.000000 
#    y 0.000000 3.789810 0.000000 
#    z 0.000000 0.000000 4.114280 
# 
# 
# High freq. dielectric constant tensor:
#      x y z
#    x 1.854370 0.000000 0.000000 
#    y 0.000000 1.843540 0.000000 
#    z 0.000000 0.000000 1.886640 
# 
# From -- ./inp_files/1155.got.cif
#   From: 2010.03.12/outbox.cif.g09.slc.cpg/sg25_1_cif.got.tgz:1155.got - 2010.04.14 03:30:10.
