data_PCOD8166000
_publ_section_title
;
Structure prediction by ZEFSAII (Michael W. Deem and Ramdas Pophale) SiO2 
 PCOD8166000
Probable space group: I 21 21 21
;
_chemical_formula_sum "Si O2"
_cell_formula_units_Z 52
_cell_length_a 12.660917
_cell_length_b 25.534494
_cell_length_c 9.162543
_cell_angle_alpha 90.000000
_cell_angle_beta 90.000000
_cell_angle_gamma 90.000000
_cell_volume 2962.159527
_symmetry_space_group_name_H-M "I 21 21 21"
_symmetry_group_IT_number 24
_symmetry_cell_setting 'orthorhombic'
loop_
_space_group_symop_operation_xyz
x,y,z
-x,1/2-y,z
x,-y,1/2-z
1/2-x,y,-z
1/2+x,1/2+y,1/2+z
1/2-x,-y,1/2+z
1/2+x,1/2-y,-z
-x,1/2+y,1/2-z
loop_
_atom_site_type_symbol
_atom_site_label
_atom_site_fract_x
_atom_site_fract_y
_atom_site_fract_z
Si Si1 0.058324 0.865247 0.379177
Si Si2 0.637272 0.185252 0.983455
Si Si3 0.782531 0.553343 0.336044
Si Si4 0.322738 0.223849 0.757497
Si Si5 0.138678 0.147917 0.801725
Si Si6 0.441617 0.697361 0.196892
Si Si7 0.750000 0.786739 0.000000
O O1 0.097782 0.922696 0.329058
O O2 0.090549 0.822310 0.257466
O O3 0.121987 0.851267 0.525270
O O4 0.934001 0.860246 0.409235
O O5 0.647133 0.236378 0.884793
O O6 0.750000 0.157143 0.000000
O O7 0.596744 0.206100 0.137922
O O8 0.780165 0.500000 0.250000
O O9 0.750000 0.540248 0.500000
O O10 0.701892 0.594894 0.261113
O O11 0.205430 0.200280 0.772115
O O12 0.325271 0.252437 0.602772
O O13 0.030170 0.150845 0.705950
O O14 0.500000 0.750000 0.141584
O O15 0.338645 0.681447 0.096762
#
# Coordination Sequence:
#
# PCOD8166000 Si02
#       7
#     8   8   8   8   8   8   4
#     4   9  19  31  55  76  95 137 180 225 245 299
#     4  11  18  32  53  72  97 141 195 218 235 292
#     4   9  18  36  57  82 105 124 166 219 276 324
#     4  11  19  32  45  73 103 141 181 210 250 300
#     4   9  18  35  56  69 100 145 179 208 256 315
#     4  11  20  34  48  68 104 149 181 212 252 302
#     4  12  24  28  42  72 114 148 170 218 258 316
#
# _framework density 17.554760000000002
#
# number of rings (size 3 to 8) (size 9 to 14) (size 15 to 20)
#    0.000    1.846    3.077    4.615    0.000    1.231 
#    5.538    0.000    0.000    0.000    0.000    9.692 
#    2.308    0.000    0.000    0.000    0.000    0.000 
#
# Total GULP energy -322124.633557 kJ/mol
# GULP energy per Si atom -12389.408983 kJ/mol
# Density = 1.751480 g / cm^3
# Si number density = 17.554760 Si / 1000 Ang^3
#
#
#
# Elastic Constant Matrix: (Units=GPa)
#
#
# Indices 1 2 3 4 5 6 
#
# 1 117.6221 51.8187 31.6524 0.0006 0.0002 -0.0002
# 2 51.8187 95.3788 36.6740 -0.0005 0.0005 0.0000
# 3 31.6524 36.6740 69.0718 -0.0056 0.0021 0.0024
# 4 0.0006 -0.0005 -0.0056 22.6005 0.0010 0.0005
# 5 0.0002 0.0005 0.0021 0.0010 29.3514 -0.0003
# 6 -0.0002 0.0000 0.0024 0.0005 -0.0003 15.5240
#
#
#
# Elastic Compliance Matrix: (Units=1/GPa)
#
#
# Indices 1 2 3 4 5 6 
#
# 1 0.011499 -0.005304 -0.002453 -0.000001 0.000000 0.000001
# 2 -0.005304 0.015621 -0.005863 -0.000001 0.000000 0.000001
# 3 -0.002453 -0.005863 0.018715 0.000005 -0.000001 -0.000003
# 4 -0.000001 -0.000001 0.000005 0.044247 -0.000002 -0.000002
# 5 0.000000 0.000000 -0.000001 -0.000002 0.034070 0.000001
# 6 0.000001 0.000001 -0.000003 -0.000002 0.000001 0.064417
#
#
# Mechanical properties :
#
#
# Convention : Reuss Voigt Hill
#
# Bulk Modulus (GPa) = 53.78217 58.04032 55.91124
# Shear Modulus (GPa) = 22.52192 24.29034 23.40613
#
# Velocity S-wave (km/s) = 3.58572 3.72383 3.65543
# Velocity P-wave (km/s) = 6.91711 7.18495 7.05230
#
# Compressibility (1/GPa) = 0.01859352
#
# Stress axis : x y z
#
# Youngs Moduli (GPa) = 86.96731 64.01826 53.43304
#
# Poissons Ratio (x) = 0.33954 0.13108
# Poissons Ratio (y) = 0.46126 0.31329
# Poissons Ratio (z) = 0.21334 0.37536
#
# Static dielectric constant tensor:
#      x y z
#    x 3.769660 0.000000 0.000000 
#    y 0.000000 2.899800 0.000000 
#    z 0.000000 0.000000 3.190350 
# 
# 
# High freq. dielectric constant tensor:
#      x y z
#    x 1.690750 0.000000 0.000000 
#    y 0.000000 1.620850 0.000000 
#    z 0.000000 0.000000 1.672200 
# 
# From -- ./inp_files/11471.got.cif
#   From: 2010.03.12/outbox.cif.g09.slc.cpg/sg24_6_cif.got.tgz:11471.got - 2010.04.14 03:06:53.
