data_PCOD8166612
_publ_section_title
;
Structure prediction by ZEFSAII (Michael W. Deem and Ramdas Pophale) SiO2 
 PCOD8166612
Probable space group: P M M 2
;
_chemical_formula_sum "Si O2"
_cell_formula_units_Z 32
_cell_length_a 9.727404
_cell_length_b 9.391002
_cell_length_c 20.735309
_cell_angle_alpha 90.000000
_cell_angle_beta 90.000000
_cell_angle_gamma 90.000000
_cell_volume 1894.171937
_symmetry_space_group_name_H-M "P M M 2"
_symmetry_group_IT_number 25
_symmetry_cell_setting 'orthorhombic'
loop_
_space_group_symop_operation_xyz
x,y,z
-x,-y,z
-x,y,z
x,-y,z
loop_
_atom_site_type_symbol
_atom_site_label
_atom_site_fract_x
_atom_site_fract_y
_atom_site_fract_z
Si Si1 0.337602 0.156306 0.399300
Si Si2 0.838877 0.666832 0.153054
Si Si3 0.653310 0.670281 0.655605
Si Si4 0.152863 0.330386 0.767085
Si Si5 0.836717 0.160352 0.027777
Si Si6 0.340273 0.166873 0.254508
Si Si7 0.836069 0.659117 0.909049
Si Si8 0.336071 0.342485 0.514548
O O1 0.500000 0.147855 0.408332
O O2 0.305215 0.214048 0.327748
O O3 0.272030 0.252569 0.455640
O O4 0.272918 0.000000 0.407235
O O5 0.805459 0.500000 0.146494
O O6 0.788975 0.745571 0.088275
O O7 0.754637 0.734098 0.211288
O O8 0.000000 0.692508 0.165630
O O9 0.500000 0.727547 0.669145
O O10 0.653295 0.500000 0.656082
O O11 0.750557 0.734109 0.711306
O O12 0.705249 0.721699 0.584757
O O13 0.148941 0.500000 0.763289
O O14 0.209857 0.286645 0.837947
O O15 0.000000 0.268533 0.756298
O O16 0.000000 0.155909 0.024359
O O17 0.777295 0.000000 0.033830
O O18 0.777260 0.233305 0.962886
O O19 0.500000 0.195733 0.238686
O O20 0.306485 0.000000 0.243896
O O21 0.778727 0.500000 0.922772
O O22 0.000000 0.653651 0.911247
O O23 0.500000 0.348091 0.510557
O O24 0.274278 0.500000 0.506943
#
# Coordination Sequence:
#
# PCOD8166612 Si02
#       8
#     4   4   4   4   4   4   4   4
#     4   8  14  25  41  61  84 109 139 175 211 248
#     4  10  20  32  47  69  95 120 147 182 222 263
#     4   8  13  21  34  54  79 104 131 165 203 242
#     4   8  13  21  35  55  77 102 132 165 203 247
#     4   9  16  26  42  63  85 111 144 179 214 254
#     4   9  18  32  49  69  92 118 149 184 222 266
#     4   8  13  22  37  57  79 102 133 175 215 248
#     4   8  13  21  35  56  79 103 135 174 210 243
#
# _framework density 16.893924999999999
#
# number of rings (size 3 to 8) (size 9 to 14) (size 15 to 20)
#    0.000    3.500    0.000    3.000    0.000    3.000 
#    0.000    1.250    0.000    2.250    0.000    3.500 
#    0.000    0.000    0.000    0.000    0.000    0.000 
#
# Total GULP energy -396521.928661 kJ/mol
# GULP energy per Si atom -12391.310271 kJ/mol
# Density = 1.685547 g / cm^3
# Si number density = 16.893925 Si / 1000 Ang^3
#
#
#
# Elastic Constant Matrix: (Units=GPa)
#
#
# Indices 1 2 3 4 5 6 
#
# 1 34.8376 27.2273 47.4605 0.0000 0.0000 0.0000
# 2 27.2273 84.0749 74.8906 0.0000 0.0000 0.0000
# 3 47.4605 74.8906 177.6548 0.0000 0.0000 0.0000
# 4 0.0000 0.0000 0.0000 13.1893 0.0000 0.0000
# 5 0.0000 0.0000 0.0000 0.0000 24.6520 0.0000
# 6 0.0000 0.0000 0.0000 0.0000 0.0000 13.3016
#
#
#
# Elastic Compliance Matrix: (Units=1/GPa)
#
#
# Indices 1 2 3 4 5 6 
#
# 1 0.047246 -0.006497 -0.009883 0.000000 0.000000 0.000000
# 2 -0.006497 0.019939 -0.006670 0.000000 0.000000 0.000000
# 3 -0.009883 -0.006670 0.011081 0.000000 0.000000 0.000000
# 4 0.000000 0.000000 0.000000 0.075819 0.000000 0.000000
# 5 0.000000 0.000000 0.000000 0.000000 0.040565 0.000000
# 6 0.000000 0.000000 0.000000 0.000000 0.000000 0.075179
#
#
# Mechanical properties :
#
#
# Convention : Reuss Voigt Hill
#
# Bulk Modulus (GPa) = 31.08799 66.19157 48.63978
# Shear Modulus (GPa) = 15.30683 20.02783 17.66733
#
# Velocity S-wave (km/s) = 3.01334 3.44685 3.23736
# Velocity P-wave (km/s) = 5.52710 7.42340 6.54429
#
# Compressibility (1/GPa) = 0.03216676
#
# Stress axis : x y z
#
# Youngs Moduli (GPa) = 21.16560 50.15201 90.24646
#
# Poissons Ratio (x) = 0.32585 0.89190
# Poissons Ratio (y) = 0.13752 0.60192
# Poissons Ratio (z) = 0.20918 0.33450
#
# Static dielectric constant tensor:
#      x y z
#    x 2.765480 0.000000 0.000000 
#    y 0.000000 3.148080 0.000000 
#    z 0.000000 0.000000 3.543550 
# 
# 
# High freq. dielectric constant tensor:
#      x y z
#    x 1.590890 0.000000 0.000000 
#    y 0.000000 1.625910 0.000000 
#    z 0.000000 0.000000 1.670930 
# 
# From -- ./inp_files/6518.got.cif
#   From: 2010.03.12/outbox.cif.g09.slc.cpg/sg25_4_cif.got.tgz:6518.got - 2010.04.14 03:30:10.
