data_PCOD8166606
_publ_section_title
;
Structure prediction by ZEFSAII (Michael W. Deem and Ramdas Pophale) SiO2 
 PCOD8166606
Probable space group: P M M 2
;
_chemical_formula_sum "Si O2"
_cell_formula_units_Z 28
_cell_length_a 9.046503
_cell_length_b 9.451786
_cell_length_c 18.191666
_cell_angle_alpha 90.000000
_cell_angle_beta 90.000000
_cell_angle_gamma 90.000000
_cell_volume 1555.489506
_symmetry_space_group_name_H-M "P M M 2"
_symmetry_group_IT_number 25
_symmetry_cell_setting 'orthorhombic'
loop_
_space_group_symop_operation_xyz
x,y,z
-x,-y,z
-x,y,z
x,-y,z
loop_
_atom_site_type_symbol
_atom_site_label
_atom_site_fract_x
_atom_site_fract_y
_atom_site_fract_z
Si Si1 0.176049 0.658031 0.936620
Si Si2 0.824363 0.838274 0.368832
Si Si3 0.175662 0.658572 0.504587
Si Si4 0.176641 0.159166 0.801737
Si Si5 0.672213 0.665100 0.241319
Si Si6 0.164052 0.332167 0.097299
Si Si7 0.175785 0.658809 0.667305
O O1 0.239723 0.500000 0.923355
O O2 0.239050 0.760792 0.873614
O O3 0.000000 0.651971 0.933333
O O4 0.223025 0.718392 0.017117
O O5 0.762945 0.767073 0.443779
O O6 0.758823 0.755549 0.300471
O O7 0.000000 0.827761 0.364478
O O8 0.770251 0.000000 0.367535
O O9 0.233241 0.500000 0.486688
O O10 0.230709 0.705570 0.585879
O O11 0.000000 0.658702 0.503309
O O12 0.239867 0.235377 0.728657
O O13 0.000000 0.161219 0.801658
O O14 0.237827 0.000000 0.802627
O O15 0.500000 0.695635 0.248705
O O16 0.709730 0.500000 0.253144
O O17 0.724558 0.717404 0.160899
O O18 0.153843 0.500000 0.094071
O O19 0.000000 0.270187 0.113560
O O20 0.231438 0.500000 0.684589
O O21 0.000000 0.661518 0.669533
#
# Coordination Sequence:
#
# PCOD8166606 Si02
#       7
#     4   4   4   4   4   4   4
#     4   8  13  22  36  52  72 103 142 178 212 255
#     4  10  20  32  47  68  93 122 155 189 228 275
#     4   8  14  25  41  60  82 111 148 187 223 261
#     4   9  15  20  28  47  77 110 140 172 212 255
#     4  10  20  33  50  71  93 118 150 189 233 279
#     4   8  14  26  45  66  86 112 148 187 224 264
#     4   8  13  21  33  50  75 109 145 176 210 256
#
# _framework density 18.000765000000001
#
# number of rings (size 3 to 8) (size 9 to 14) (size 15 to 20)
#    0.000    3.286    0.000    3.000    0.000    4.000 
#    0.000    3.571    0.000    2.571    0.000    0.000 
#    0.000    1.143    0.000    8.857    0.000    9.286 
#
# Total GULP energy -347006.186726 kJ/mol
# GULP energy per Si atom -12393.078097 kJ/mol
# Density = 1.795979 g / cm^3
# Si number density = 18.000765 Si / 1000 Ang^3
#
#
#
# Elastic Constant Matrix: (Units=GPa)
#
#
# Indices 1 2 3 4 5 6 
#
# 1 11.6542 14.3969 15.3383 0.0000 0.0000 0.0000
# 2 14.3969 107.7617 86.3687 0.0000 0.0000 0.0000
# 3 15.3383 86.3687 175.8854 0.0000 0.0000 0.0000
# 4 0.0000 0.0000 0.0000 9.2153 0.0000 0.0000
# 5 0.0000 0.0000 0.0000 0.0000 -0.7190 0.0000
# 6 0.0000 0.0000 0.0000 0.0000 0.0000 9.3027
#
#
#
# Elastic Compliance Matrix: (Units=1/GPa)
#
#
# Indices 1 2 3 4 5 6 
#
# 1 0.104216 -0.010948 -0.003712 0.000000 0.000000 0.000000
# 2 -0.010948 0.016452 -0.007124 0.000000 0.000000 0.000000
# 3 -0.003712 -0.007124 0.009508 0.000000 0.000000 0.000000
# 4 0.000000 0.000000 0.000000 0.108515 0.000000 0.000000
# 5 0.000000 0.000000 0.000000 0.000000 -1.390825 0.000000
# 6 0.000000 0.000000 0.000000 0.000000 0.000000 0.107495
#
#
# Mechanical properties :
#
#
# Convention : Reuss Voigt Hill
#
# Bulk Modulus (GPa) = 11.54642 58.61211 35.07927
# Shear Modulus (GPa) = -5.14296 15.50631 5.18168
#
# Velocity S-wave (km/s) = -1.69212 2.93819 1.69848
# Velocity P-wave (km/s) = 1.61574 6.64396 4.83492
#
# Compressibility (1/GPa) = 0.08660693
#
# Stress axis : x y z
#
# Youngs Moduli (GPa) = 9.59549 60.78211 105.17917
#
# Poissons Ratio (x) = 0.66543 0.39046
# Poissons Ratio (y) = 0.10505 0.74931
# Poissons Ratio (z) = 0.03562 0.43302
#
# Static dielectric constant tensor:
#      x y z
#    x 2.689390 0.000000 0.000000 
#    y 0.000000 3.340060 0.000000 
#    z 0.000000 0.000000 3.842080 
# 
# 
# High freq. dielectric constant tensor:
#      x y z
#    x 1.624410 0.000000 0.000000 
#    y 0.000000 1.678930 0.000000 
#    z 0.000000 0.000000 1.719190 
# 
# From -- ./inp_files/6408.got.cif
#   From: 2010.03.12/outbox.cif.g09.slc.cpg/sg25_4_cif.got.tgz:6408.got - 2010.04.14 03:30:10.
