data_PCOD8166537
_publ_section_title
;
Structure prediction by ZEFSAII (Michael W. Deem and Ramdas Pophale) SiO2 
 PCOD8166537
Probable space group: P M M 2
;
_chemical_formula_sum "Si O2"
_cell_formula_units_Z 32
_cell_length_a 9.016372
_cell_length_b 14.630847
_cell_length_c 12.391724
_cell_angle_alpha 90.000000
_cell_angle_beta 90.000000
_cell_angle_gamma 90.000000
_cell_volume 1634.681028
_symmetry_space_group_name_H-M "P M M 2"
_symmetry_group_IT_number 25
_symmetry_cell_setting 'orthorhombic'
loop_
_space_group_symop_operation_xyz
x,y,z
-x,-y,z
-x,y,z
x,-y,z
loop_
_atom_site_type_symbol
_atom_site_label
_atom_site_fract_x
_atom_site_fract_y
_atom_site_fract_z
Si Si1 0.675108 0.276582 0.600290
Si Si2 0.164054 0.663425 0.213620
Si Si3 0.825960 0.102217 0.527146
Si Si4 0.164410 0.863066 0.292682
Si Si5 0.325260 0.718159 0.005678
Si Si6 0.171162 0.600321 0.434639
Si Si7 0.323806 0.603583 0.800580
Si Si8 0.825353 0.100322 0.060227
O O1 0.500000 0.266005 0.605004
O O2 0.745036 0.175044 0.604649
O O3 0.722026 0.326951 0.490802
O O4 0.735653 0.337140 0.699945
O O5 0.162609 0.754847 0.284369
O O6 0.279711 0.667088 0.115914
O O7 0.208006 0.590984 0.306043
O O8 0.000000 0.644287 0.164870
O O9 0.757332 0.108287 0.405084
O O10 0.000000 0.126145 0.525630
O O11 0.797347 0.000000 0.572460
O O12 0.239685 0.902022 0.183002
O O13 0.000000 0.905140 0.297987
O O14 0.500000 0.731033 0.003496
O O15 0.253656 0.819175 0.993424
O O16 0.268880 0.654394 0.908601
O O17 0.199944 0.500000 0.484810
O O18 0.000000 0.630250 0.450895
O O19 0.500000 0.598950 0.797882
O O20 0.259098 0.500000 0.796898
O O21 0.000000 0.124158 0.063657
O O22 0.796602 0.000000 0.007555
#
# Coordination Sequence:
#
# PCOD8166537 Si02
#       8
#     4   4   4   4   4   4   4   4
#     4  11  22  37  58  81 110 143 183 235 281 325
#     4   9  17  32  52  76 112 149 176 211 266 331
#     4  10  19  33  55  81 111 149 188 223 267 327
#     4   8  13  26  49  73 101 142 184 211 244 308
#     4  10  20  34  55  81 107 137 182 234 275 314
#     4  10  20  35  56  81 111 147 182 219 272 338
#     4   9  20  40  61  78 101 142 189 228 275 332
#     4   9  17  31  52  78 110 149 185 215 260 324
#
# _framework density 19.575683000000001
#
# number of rings (size 3 to 8) (size 9 to 14) (size 15 to 20)
#    0.000    2.500    1.250    2.250    0.000    3.750 
#    0.000    3.125    0.000    9.375    0.000    0.000 
#    0.000    0.000    0.000    0.000    0.000    0.000 
#
# Total GULP energy -396557.762967 kJ/mol
# GULP energy per Si atom -12392.430093 kJ/mol
# Density = 1.953113 g / cm^3
# Si number density = 19.575683 Si / 1000 Ang^3
#
#
#
# Elastic Constant Matrix: (Units=GPa)
#
#
# Indices 1 2 3 4 5 6 
#
# 1 55.4995 41.8774 32.0283 0.0000 0.0000 0.0000
# 2 41.8774 147.2608 62.4794 0.0000 0.0000 0.0000
# 3 32.0283 62.4794 95.6020 0.0000 0.0000 0.0000
# 4 0.0000 0.0000 0.0000 25.0941 0.0000 0.0000
# 5 0.0000 0.0000 0.0000 0.0000 18.7202 0.0000
# 6 0.0000 0.0000 0.0000 0.0000 0.0000 23.5149
#
#
#
# Elastic Compliance Matrix: (Units=1/GPa)
#
#
# Indices 1 2 3 4 5 6 
#
# 1 0.024602 -0.004842 -0.005078 0.000000 0.000000 0.000000
# 2 -0.004842 0.010349 -0.005141 0.000000 0.000000 0.000000
# 3 -0.005078 -0.005141 0.015521 0.000000 0.000000 0.000000
# 4 0.000000 0.000000 0.000000 0.039850 0.000000 0.000000
# 5 0.000000 0.000000 0.000000 0.000000 0.053418 0.000000
# 6 0.000000 0.000000 0.000000 0.000000 0.000000 0.042526
#
#
# Mechanical properties :
#
#
# Convention : Reuss Voigt Hill
#
# Bulk Modulus (GPa) = 49.13935 63.45916 56.29925
# Shear Modulus (GPa) = 22.40429 24.26434 23.33431
#
# Velocity S-wave (km/s) = 3.38671 3.52449 3.45629
# Velocity P-wave (km/s) = 6.36002 7.00360 6.68955
#
# Compressibility (1/GPa) = 0.02035029
#
# Stress axis : x y z
#
# Youngs Moduli (GPa) = 40.64722 96.62866 64.42802
#
# Poissons Ratio (x) = 0.46786 0.32715
# Poissons Ratio (y) = 0.19681 0.33124
# Poissons Ratio (z) = 0.20640 0.49680
#
# Static dielectric constant tensor:
#      x y z
#    x 3.168730 0.000000 0.000000 
#    y 0.000000 3.790520 0.000000 
#    z 0.000000 0.000000 3.476300 
# 
# 
# High freq. dielectric constant tensor:
#      x y z
#    x 1.720990 0.000000 0.000000 
#    y 0.000000 1.777150 0.000000 
#    z 0.000000 0.000000 1.743100 
# 
# From -- ./inp_files/4172.got.cif
#   From: 2010.03.12/outbox.cif.g09.slc.cpg/sg25_3_cif.got.tgz:4172.got - 2010.04.14 03:30:10.
