data_PCOD8166566
_publ_section_title
;
Structure prediction by ZEFSAII (Michael W. Deem and Ramdas Pophale) SiO2 
 PCOD8166566
Probable space group: P M M 2
;
_chemical_formula_sum "Si O2"
_cell_formula_units_Z 24
_cell_length_a 12.459202
_cell_length_b 8.770524
_cell_length_c 11.777153
_cell_angle_alpha 90.000000
_cell_angle_beta 90.000000
_cell_angle_gamma 90.000000
_cell_volume 1286.933439
_symmetry_space_group_name_H-M "P M M 2"
_symmetry_group_IT_number 25
_symmetry_cell_setting 'orthorhombic'
loop_
_space_group_symop_operation_xyz
x,y,z
-x,-y,z
-x,y,z
x,-y,z
loop_
_atom_site_type_symbol
_atom_site_label
_atom_site_fract_x
_atom_site_fract_y
_atom_site_fract_z
Si Si1 0.000000 0.819299 0.250000
Si Si2 0.124668 0.177766 0.607500
Si Si3 0.000000 0.818880 0.993678
Si Si4 0.796186 0.820967 0.856070
Si Si5 0.623531 0.677315 0.003674
Si Si6 0.375163 0.177797 0.239634
Si Si7 0.803316 0.679043 0.382524
O O1 0.000000 0.757427 0.121723
O O2 0.894674 0.761392 0.311270
O O3 0.000000 0.000000 0.253590
O O4 0.181780 0.217332 0.725437
O O5 0.186342 0.275834 0.513780
O O6 0.000000 0.225040 0.613422
O O7 0.135138 0.000000 0.577742
O O8 0.894840 0.756702 0.930315
O O9 0.000000 0.000000 0.987115
O O10 0.780240 0.000000 0.874958
O O11 0.689369 0.734072 0.894828
O O12 0.500000 0.713801 0.977266
O O13 0.643068 0.500000 0.025654
O O14 0.662730 0.766793 0.115643
O O15 0.500000 0.214402 0.258119
O O16 0.312086 0.267803 0.337106
O O17 0.349260 0.000000 0.249716
O O18 0.816013 0.500000 0.368620
#
# Coordination Sequence:
#
# PCOD8166566 Si02
#       7
#     2   4   2   4   4   4   4
#     4  11  21  34  55  82 116 153 188 231 284 343
#     4  10  20  37  60  82 111 154 197 239 286 338
#     4   9  18  32  53  82 110 137 174 227 282 329
#     4  10  19  35  59  85 111 145 193 237 280 337
#     4  10  21  37  57  84 119 154 187 231 289 344
#     4  10  21  39  63  87 112 148 194 240 289 347
#     4  12  24  37  56  84 118 151 191 239 292 349
#
# _framework density 18.648983000000001
#
# number of rings (size 3 to 8) (size 9 to 14) (size 15 to 20)
#    0.000    1.667    1.667    3.750    0.000    4.000 
#    0.000    2.083    0.000    1.000    0.000    0.000 
#    0.000    0.000    0.000    0.000    0.000    0.000 
#
# Total GULP energy -297727.701021 kJ/mol
# GULP energy per Si atom -12405.320876 kJ/mol
# Density = 1.860654 g / cm^3
# Si number density = 18.648983 Si / 1000 Ang^3
#
#
#
# Elastic Constant Matrix: (Units=GPa)
#
#
# Indices 1 2 3 4 5 6 
#
# 1 95.2559 38.2209 62.7558 0.0000 0.0000 0.0000
# 2 38.2209 72.4402 48.8459 0.0000 0.0000 0.0000
# 3 62.7558 48.8459 128.0185 0.0000 0.0000 0.0000
# 4 0.0000 0.0000 0.0000 17.4319 0.0000 0.0000
# 5 0.0000 0.0000 0.0000 0.0000 26.4985 0.0000
# 6 0.0000 0.0000 0.0000 0.0000 0.0000 27.1001
#
#
#
# Elastic Compliance Matrix: (Units=1/GPa)
#
#
# Indices 1 2 3 4 5 6 
#
# 1 0.016473 -0.004371 -0.006408 0.000000 0.000000 0.000000
# 2 -0.004371 0.019746 -0.005392 0.000000 0.000000 0.000000
# 3 -0.006408 -0.005392 0.013010 0.000000 0.000000 0.000000
# 4 0.000000 0.000000 0.000000 0.057366 0.000000 0.000000
# 5 0.000000 0.000000 0.000000 0.000000 0.037738 0.000000
# 6 0.000000 0.000000 0.000000 0.000000 0.000000 0.036900
#
#
# Mechanical properties :
#
#
# Convention : Reuss Voigt Hill
#
# Bulk Modulus (GPa) = 59.21080 66.15108 62.68094
# Shear Modulus (GPa) = 22.80987 23.93221 23.37104
#
# Velocity S-wave (km/s) = 3.50110 3.58620 3.54391
# Velocity P-wave (km/s) = 6.93993 7.25923 7.10138
#
# Compressibility (1/GPa) = 0.01688881
#
# Stress axis : x y z
#
# Youngs Moduli (GPa) = 60.70435 50.64264 76.86656
#
# Poissons Ratio (x) = 0.22136 0.49253
# Poissons Ratio (y) = 0.26534 0.41443
# Poissons Ratio (z) = 0.38897 0.27304
#
# Static dielectric constant tensor:
#      x y z
#    x 3.545480 0.000000 0.000000 
#    y 0.000000 3.327530 0.000000 
#    z 0.000000 0.000000 3.492390 
# 
# 
# High freq. dielectric constant tensor:
#      x y z
#    x 1.725110 0.000000 0.000000 
#    y 0.000000 1.719360 0.000000 
#    z 0.000000 0.000000 1.727400 
# 
# From -- ./inp_files/3986.got.cif
#   From: 2010.03.12/outbox.cif.g09.slc.cpg/sg25_2_cif.got.tgz:3986.got - 2010.04.14 03:30:10.
