data_PCOD8166617
_publ_section_title
;
Structure prediction by ZEFSAII (Michael W. Deem and Ramdas Pophale) SiO2 
 PCOD8166617
Probable space group: P M M 2
;
_chemical_formula_sum "Si O2"
_cell_formula_units_Z 28
_cell_length_a 9.382143
_cell_length_b 9.549029
_cell_length_c 18.074734
_cell_angle_alpha 90.000000
_cell_angle_beta 90.000000
_cell_angle_gamma 90.000000
_cell_volume 1619.321846
_symmetry_space_group_name_H-M "P M M 2"
_symmetry_group_IT_number 25
_symmetry_cell_setting 'orthorhombic'
loop_
_space_group_symop_operation_xyz
x,y,z
-x,-y,z
-x,y,z
x,-y,z
loop_
_atom_site_type_symbol
_atom_site_label
_atom_site_fract_x
_atom_site_fract_y
_atom_site_fract_z
Si Si1 0.660083 0.333103 0.089390
Si Si2 0.842362 0.334065 0.224368
Si Si3 0.841221 0.166517 0.649770
Si Si4 0.833987 0.662902 0.947804
Si Si5 0.833520 0.662172 0.390891
Si Si6 0.665128 0.834955 0.510303
Si Si7 0.830440 0.155846 0.811598
O O1 0.500000 0.273688 0.084944
O O2 0.659777 0.500000 0.091530
O O3 0.732953 0.272452 0.163918
O O4 0.748257 0.280241 0.018545
O O5 0.850587 0.500000 0.217195
O O6 0.792624 0.294774 0.307031
O O7 0.000000 0.272119 0.208769
O O8 0.734970 0.220891 0.586460
O O9 0.783452 0.214517 0.730701
O O10 0.000000 0.227104 0.634263
O O11 0.848661 0.000000 0.650313
O O12 0.805981 0.500000 0.934272
O O13 0.773759 0.742353 0.875722
O O14 0.000000 0.694094 0.961876
O O15 0.797133 0.500000 0.405712
O O16 0.738526 0.758671 0.442281
O O17 0.000000 0.690614 0.405686
O O18 0.500000 0.795009 0.512284
O O19 0.689249 0.000000 0.500740
O O20 0.000000 0.150142 0.812363
O O21 0.768370 0.000000 0.825431
#
# Coordination Sequence:
#
# PCOD8166617 Si02
#       7
#     4   4   4   4   4   4   4
#     4   9  16  25  39  61  88 117 147 176 210 257
#     4   8  14  26  44  65  88 113 144 183 222 259
#     4   8  14  27  47  66  84 112 151 190 224 261
#     4   9  16  26  42  64  88 112 140 178 221 259
#     4   9  18  32  50  72  95 119 151 192 235 276
#     4  10  20  32  47  69  96 125 156 188 225 273
#     4   8  14  26  45  66  85 109 145 185 221 259
#
# _framework density 17.291187999999998
#
# number of rings (size 3 to 8) (size 9 to 14) (size 15 to 20)
#    0.000    3.286    0.000    2.571    0.000    3.429 
#    0.000    2.857    0.000    4.714    0.000    2.000 
#    0.000    0.000    0.000    0.000    0.000    0.000 
#
# Total GULP energy -347053.989682 kJ/mol
# GULP energy per Si atom -12394.785346 kJ/mol
# Density = 1.725183 g / cm^3
# Si number density = 17.291188 Si / 1000 Ang^3
#
#
#
# Elastic Constant Matrix: (Units=GPa)
#
#
# Indices 1 2 3 4 5 6 
#
# 1 99.7268 31.2857 88.2897 0.0000 0.0000 0.0000
# 2 31.2857 30.7984 44.5866 0.0000 0.0000 0.0000
# 3 88.2897 44.5866 182.4804 0.0000 0.0000 0.0000
# 4 0.0000 0.0000 0.0000 6.1228 0.0000 0.0000
# 5 0.0000 0.0000 0.0000 0.0000 8.4920 0.0000
# 6 0.0000 0.0000 0.0000 0.0000 0.0000 15.4390
#
#
#
# Elastic Compliance Matrix: (Units=1/GPa)
#
#
# Indices 1 2 3 4 5 6 
#
# 1 0.019132 -0.009336 -0.006975 0.000000 0.000000 0.000000
# 2 -0.009336 0.054797 -0.008872 0.000000 0.000000 0.000000
# 3 -0.006975 -0.008872 0.011023 0.000000 0.000000 0.000000
# 4 0.000000 0.000000 0.000000 0.163323 0.000000 0.000000
# 5 0.000000 0.000000 0.000000 0.000000 0.117758 0.000000
# 6 0.000000 0.000000 0.000000 0.000000 0.000000 0.064771
#
#
# Mechanical properties :
#
#
# Convention : Reuss Voigt Hill
#
# Bulk Modulus (GPa) = 28.91473 71.25883 50.08678
# Shear Modulus (GPa) = 10.14821 15.93368 13.04094
#
# Velocity S-wave (km/s) = 2.42523 3.03890 2.74924
# Velocity P-wave (km/s) = 4.95993 7.32214 6.25358
#
# Compressibility (1/GPa) = 0.03458445
#
# Stress axis : x y z
#
# Youngs Moduli (GPa) = 52.26942 18.24929 90.72297
#
# Poissons Ratio (x) = 0.17038 0.63282
# Poissons Ratio (y) = 0.48800 0.80486
# Poissons Ratio (z) = 0.36459 0.16190
#
# Static dielectric constant tensor:
#      x y z
#    x 3.235360 0.000000 0.000000 
#    y 0.000000 2.846280 0.000000 
#    z 0.000000 0.000000 3.608680 
# 
# 
# High freq. dielectric constant tensor:
#      x y z
#    x 1.651940 0.000000 0.000000 
#    y 0.000000 1.614710 0.000000 
#    z 0.000000 0.000000 1.685690 
# 
# From -- ./inp_files/6230.got.cif
#   From: 2010.03.12/outbox.cif.g09.slc.cpg/sg25_4_cif.got.tgz:6230.got - 2010.04.14 03:30:10.
