data_PCOD8166692
_publ_section_title
;
Structure prediction by ZEFSAII (Michael W. Deem and Ramdas Pophale) SiO2 
 PCOD8166692
Probable space group: P M M 2
;
_chemical_formula_sum "Si O2"
_cell_formula_units_Z 32
_cell_length_a 9.185544
_cell_length_b 9.111647
_cell_length_c 20.926724
_cell_angle_alpha 90.000000
_cell_angle_beta 90.000000
_cell_angle_gamma 90.000000
_cell_volume 1751.471256
_symmetry_space_group_name_H-M "P M M 2"
_symmetry_group_IT_number 25
_symmetry_cell_setting 'orthorhombic'
loop_
_space_group_symop_operation_xyz
x,y,z
-x,-y,z
-x,y,z
x,-y,z
loop_
_atom_site_type_symbol
_atom_site_label
_atom_site_fract_x
_atom_site_fract_y
_atom_site_fract_z
Si Si1 0.673335 0.834505 0.398490
Si Si2 0.326142 0.833353 0.919280
Si Si3 0.325615 0.165145 0.644520
Si Si4 0.673693 0.665080 0.522079
Si Si5 0.830149 0.170828 0.158573
Si Si6 0.327511 0.668322 0.272777
Si Si7 0.168261 0.670179 0.029757
Si Si8 0.659086 0.826186 0.781114
O O1 0.500000 0.835000 0.399842
O O2 0.734516 0.758538 0.462542
O O3 0.729961 0.744066 0.337497
O O4 0.734231 0.000000 0.394639
O O5 0.500000 0.822374 0.919207
O O6 0.263139 0.786626 0.848638
O O7 0.277835 0.000000 0.935828
O O8 0.261361 0.720987 0.969619
O O9 0.500000 0.169496 0.647488
O O10 0.265175 0.268191 0.588223
O O11 0.262836 0.220838 0.714064
O O12 0.272737 0.000000 0.629719
O O13 0.500000 0.668886 0.522086
O O14 0.732132 0.500000 0.515469
O O15 0.740783 0.248951 0.213450
O O16 0.780483 0.239277 0.091421
O O17 0.000000 0.198951 0.170669
O O18 0.790864 0.000000 0.157892
O O19 0.500000 0.680942 0.267322
O O20 0.276128 0.500000 0.273219
O O21 0.198713 0.500000 0.043168
O O22 0.000000 0.700753 0.014602
O O23 0.500000 0.751660 0.782419
O O24 0.640072 0.000000 0.778414
#
# Coordination Sequence:
#
# PCOD8166692 Si02
#       8
#     4   4   4   4   4   4   4   4
#     4   9  16  26  40  58  83 117 155 192 229 270
#     4   9  17  30  49  72  96 123 156 194 236 281
#     4   8  12  19  32  49  72 107 148 183 217 264
#     4   9  15  21  30  48  77 112 149 188 228 270
#     4  10  21  37  56  75  94 120 156 195 233 275
#     4  10  20  33  50  73 100 128 156 189 233 282
#     4  10  21  36  52  70  94 124 156 191 233 279
#     4   7  11  21  37  57  82 112 146 184 225 269
#
# _framework density 18.270354000000001
#
# number of rings (size 3 to 8) (size 9 to 14) (size 15 to 20)
#    0.000    3.000    0.000    3.375    0.000    6.000 
#    0.000    0.625    0.000    2.250    0.000    0.000 
#    0.000    1.000    0.000    5.250    0.000    9.875 
#
# Total GULP energy -396562.356336 kJ/mol
# GULP energy per Si atom -12392.573635 kJ/mol
# Density = 1.822877 g / cm^3
# Si number density = 18.270354 Si / 1000 Ang^3
#
#
#
# Elastic Constant Matrix: (Units=GPa)
#
#
# Indices 1 2 3 4 5 6 
#
# 1 12.8492 18.6696 24.7622 0.0000 0.0000 0.0000
# 2 18.6696 125.4658 81.8898 0.0000 0.0000 0.0000
# 3 24.7622 81.8898 182.9188 0.0000 0.0000 0.0000
# 4 0.0000 0.0000 0.0000 17.1922 0.0000 0.0000
# 5 0.0000 0.0000 0.0000 0.0000 -5.6586 0.0000
# 6 0.0000 0.0000 0.0000 0.0000 0.0000 15.9184
#
#
#
# Elastic Compliance Matrix: (Units=1/GPa)
#
#
# Indices 1 2 3 4 5 6 
#
# 1 0.113002 -0.009650 -0.010977 0.000000 0.000000 0.000000
# 2 -0.009650 0.012085 -0.004104 0.000000 0.000000 0.000000
# 3 -0.010977 -0.004104 0.008790 0.000000 0.000000 0.000000
# 4 0.000000 0.000000 0.000000 0.058166 0.000000 0.000000
# 5 0.000000 0.000000 0.000000 0.000000 -0.176721 0.000000
# 6 0.000000 0.000000 0.000000 0.000000 0.000000 0.062820
#
#
# Mechanical properties :
#
#
# Convention : Reuss Voigt Hill
#
# Bulk Modulus (GPa) = 11.84630 63.54188 37.69409
# Shear Modulus (GPa) = 32.10414 18.55121 25.32768
#
# Velocity S-wave (km/s) = 4.19641 3.18995 3.72731
# Velocity P-wave (km/s) = 5.47520 6.95858 6.26098
#
# Compressibility (1/GPa) = 0.08441454
#
# Stress axis : x y z
#
# Youngs Moduli (GPa) = 8.84939 82.74893 113.76450
#
# Poissons Ratio (x) = 0.79856 1.24881
# Poissons Ratio (y) = 0.08540 0.46686
# Poissons Ratio (z) = 0.09714 0.33958
#
# Static dielectric constant tensor:
#      x y z
#    x 2.739820 0.000000 0.000000 
#    y 0.000000 3.406070 0.000000 
#    z 0.000000 0.000000 3.801120 
# 
# 
# High freq. dielectric constant tensor:
#      x y z
#    x 1.635490 0.000000 0.000000 
#    y 0.000000 1.704090 0.000000 
#    z 0.000000 0.000000 1.734590 
# 
# From -- ./inp_files/6362.got.cif
#   From: 2010.03.12/outbox.cif.g09.slc.cpg/sg25_4_cif.got.tgz:6362.got - 2010.04.14 03:30:10.
