data_PCOD8166480
_publ_section_title
;
Structure prediction by ZEFSAII (Michael W. Deem and Ramdas Pophale) SiO2 
 PCOD8166480
Probable space group: P M M 2
;
_chemical_formula_sum "Si O2"
_cell_formula_units_Z 32
_cell_length_a 18.229664
_cell_length_b 13.341993
_cell_length_c 7.664517
_cell_angle_alpha 90.000000
_cell_angle_beta 90.000000
_cell_angle_gamma 90.000000
_cell_volume 1864.164204
_symmetry_space_group_name_H-M "P M M 2"
_symmetry_group_IT_number 25
_symmetry_cell_setting 'orthorhombic'
loop_
_space_group_symop_operation_xyz
x,y,z
-x,-y,z
-x,y,z
x,-y,z
loop_
_atom_site_type_symbol
_atom_site_label
_atom_site_fract_x
_atom_site_fract_y
_atom_site_fract_z
Si Si1 0.271804 0.699068 0.588380
Si Si2 0.817936 0.612112 0.893456
Si Si3 0.913449 0.197544 0.893456
Si Si4 0.819757 0.113201 0.592348
Si Si5 0.819757 0.113201 0.194564
Si Si6 0.418396 0.386153 0.099548
Si Si7 0.728196 0.699068 0.198533
Si Si8 0.581604 0.613847 0.687365
O O1 0.232394 0.624989 0.722781
O O2 0.249352 0.814038 0.630525
O O3 0.246109 0.670238 0.393456
O O4 0.359625 0.688712 0.601826
O O5 0.850010 0.500000 0.893456
O O6 0.885858 0.687958 0.893456
O O7 0.767606 0.624989 0.064132
O O8 0.886338 0.140798 0.720218
O O9 0.000000 0.197415 0.893456
O O10 0.886338 0.140799 0.066694
O O11 0.848008 0.125235 0.393456
O O12 0.793210 0.000000 0.628762
O O13 0.750647 0.185962 0.156387
O O14 0.793210 0.000000 0.158150
O O15 0.500000 0.354645 0.161960
O O16 0.401934 0.500000 0.159639
O O17 0.359625 0.311289 0.185087
O O18 0.412757 0.378246 0.893456
O O19 0.500000 0.645355 0.624952
O O20 0.598066 0.500000 0.627275
#
# Coordination Sequence:
#
# PCOD8166480 Si02
#       8
#     4   4   4   4   4   4   4   4
#     4  10  19  31  50  73  96 127 166 203 239 283
#     4  10  20  34  50  70  99 131 161 196 237 280
#     4  10  21  35  52  76 101 125 158 196 235 288
#     4   9  19  35  53  74  99 126 158 199 245 287
#     4   9  19  35  53  74  99 126 158 199 245 287
#     4   9  17  29  45  67  98 132 162 197 242 285
#     4  10  19  31  50  73  96 127 166 203 239 283
#     4   9  17  29  45  67  98 132 162 197 242 285
#
# _framework density 17.165870000000002
#
# number of rings (size 3 to 8) (size 9 to 14) (size 15 to 20)
#    0.000    2.500    1.250    1.875    0.000    4.250 
#    0.000    2.500    0.000    0.750    0.000   12.250 
#    0.000    0.000    0.000    0.000    0.000    0.000 
#
# Total GULP energy -396727.261148 kJ/mol
# GULP energy per Si atom -12397.726911 kJ/mol
# Density = 1.712680 g / cm^3
# Si number density = 17.165870 Si / 1000 Ang^3
#
#
#
# Elastic Constant Matrix: (Units=GPa)
#
#
# Indices 1 2 3 4 5 6 
#
# 1 131.2709 61.2540 44.1890 0.0000 0.0000 0.0000
# 2 61.2540 118.3105 47.0194 0.0000 0.0000 0.0000
# 3 44.1890 47.0194 94.5618 0.0000 0.0000 0.0000
# 4 0.0000 0.0000 0.0000 17.9744 0.0000 0.0000
# 5 0.0000 0.0000 0.0000 0.0000 15.4517 0.0000
# 6 0.0000 0.0000 0.0000 0.0000 0.0000 17.1983
#
#
#
# Elastic Compliance Matrix: (Units=1/GPa)
#
#
# Indices 1 2 3 4 5 6 
#
# 1 0.010597 -0.004385 -0.002772 0.000000 0.000000 0.000000
# 2 -0.004385 0.012348 -0.004091 0.000000 0.000000 0.000000
# 3 -0.002772 -0.004091 0.013904 0.000000 0.000000 0.000000
# 4 0.000000 0.000000 0.000000 0.055635 0.000000 0.000000
# 5 0.000000 0.000000 0.000000 0.000000 0.064718 0.000000
# 6 0.000000 0.000000 0.000000 0.000000 0.000000 0.058145
#
#
# Mechanical properties :
#
#
# Convention : Reuss Voigt Hill
#
# Bulk Modulus (GPa) = 69.66340 72.11867 70.89104
# Shear Modulus (GPa) = 20.60768 22.90359 21.75564
#
# Velocity S-wave (km/s) = 3.46859 3.65670 3.56389
# Velocity P-wave (km/s) = 7.53074 7.74162 7.63691
#
# Compressibility (1/GPa) = 0.01435474
#
# Stress axis : x y z
#
# Youngs Moduli (GPa) = 94.36679 80.98182 71.91932
#
# Poissons Ratio (x) = 0.35510 0.19933
# Poissons Ratio (y) = 0.41379 0.29422
# Poissons Ratio (z) = 0.26155 0.33130
#
# Static dielectric constant tensor:
#      x y z
#    x 3.109210 0.000000 0.000000 
#    y 0.000000 3.209030 0.000000 
#    z 0.000000 0.000000 3.408880 
# 
# 
# High freq. dielectric constant tensor:
#      x y z
#    x 1.642310 0.000000 0.000000 
#    y 0.000000 1.649540 0.000000 
#    z 0.000000 0.000000 1.679350 
# 
# From -- ./inp_files/3511.got.cif
#   From: 2010.03.12/outbox.cif.g09.slc.cpg/sg25_2_cif.got.tgz:3511.got - 2010.04.14 03:30:10.
