data_PCOD8166207
_publ_section_title
;
Structure prediction by ZEFSAII (Michael W. Deem and Ramdas Pophale) SiO2 
 PCOD8166207
Probable space group: I 21 21 21
;
_chemical_formula_sum "Si O2"
_cell_formula_units_Z 48
_cell_length_a 15.191172
_cell_length_b 13.656022
_cell_length_c 11.120781
_cell_angle_alpha 90.000000
_cell_angle_beta 90.000000
_cell_angle_gamma 90.000000
_cell_volume 2307.016906
_symmetry_space_group_name_H-M "I 21 21 21"
_symmetry_group_IT_number 24
_symmetry_cell_setting 'orthorhombic'
loop_
_space_group_symop_operation_xyz
x,y,z
-x,1/2-y,z
x,-y,1/2-z
1/2-x,y,-z
1/2+x,1/2+y,1/2+z
1/2-x,-y,1/2+z
1/2+x,1/2-y,-z
-x,1/2+y,1/2-z
loop_
_atom_site_type_symbol
_atom_site_label
_atom_site_fract_x
_atom_site_fract_y
_atom_site_fract_z
Si Si1 0.103954 0.959584 0.118258
Si Si2 0.750000 0.407841 0.000000
Si Si3 0.000000 0.750000 0.806787
Si Si4 0.317256 0.249371 0.602476
Si Si5 0.300511 0.531438 0.381167
Si Si6 0.686779 0.755005 0.318615
Si Si7 0.442467 0.594330 0.017192
O O1 0.123370 0.844569 0.127084
O O2 0.105080 0.000000 0.250000
O O3 0.171410 0.021662 0.039009
O O4 0.005881 0.971137 0.065780
O O5 0.714806 0.340575 0.107902
O O6 0.911950 0.740723 0.728761
O O7 0.002442 0.842606 0.894067
O O8 0.250000 0.219515 0.500000
O O9 0.258371 0.277191 0.716525
O O10 0.378267 0.340590 0.566215
O O11 0.259447 0.500000 0.250000
O O12 0.250000 0.491860 0.500000
O O13 0.312429 0.647429 0.398828
O O14 0.393447 0.477670 0.391020
#
# Coordination Sequence:
#
# PCOD8166207 Si02
#       7
#     8   4   4   8   8   8   8
#     4  12  26  44  69 105 139 189 242 288 357 428
#     4  12  28  48  70  98 144 188 232 288 358 428
#     4  12  24  44  72 104 140 178 236 288 352 420
#     4  12  21  46  74 101 140 184 237 293 349 424
#     4  12  25  46  73 107 139 186 241 293 364 429
#     4  12  26  46  72 104 144 186 230 295 360 415
#     4  12  25  43  71 108 139 181 241 295 349 427
#
# _framework density 20.806090000000001
#
# number of rings (size 3 to 8) (size 9 to 14) (size 15 to 20)
#    0.000    0.000    8.333    1.500    2.333    2.000 
#    0.000    0.000    0.000    0.000    0.000    0.000 
#    0.000    0.000    0.000    0.000    0.000    0.000 
#
# Total GULP energy -297582.921881 kJ/mol
# GULP energy per Si atom -12399.288412 kJ/mol
# Density = 2.075873 g / cm^3
# Si number density = 20.806090 Si / 1000 Ang^3
#
#
#
# Elastic Constant Matrix: (Units=GPa)
#
#
# Indices 1 2 3 4 5 6 
#
# 1 108.2581 34.7285 58.8212 0.0000 0.0000 0.0000
# 2 34.7285 109.6511 31.7869 0.0000 0.0000 0.0000
# 3 58.8212 31.7869 121.6596 0.0000 0.0000 0.0000
# 4 0.0000 0.0000 0.0000 27.7740 0.0000 0.0000
# 5 0.0000 0.0000 0.0000 0.0000 34.2276 0.0000
# 6 0.0000 0.0000 0.0000 0.0000 0.0000 28.0890
#
#
#
# Elastic Compliance Matrix: (Units=1/GPa)
#
#
# Indices 1 2 3 4 5 6 
#
# 1 0.013137 -0.002510 -0.005696 0.000000 0.000000 0.000000
# 2 -0.002510 0.010347 -0.001490 0.000000 0.000000 0.000000
# 3 -0.005696 -0.001490 0.011363 0.000000 0.000000 0.000000
# 4 0.000000 0.000000 0.000000 0.036005 0.000000 0.000000
# 5 0.000000 0.000000 0.000000 0.000000 0.029216 0.000000
# 6 0.000000 0.000000 0.000000 0.000000 0.000000 0.035601
#
#
# Mechanical properties :
#
#
# Convention : Reuss Voigt Hill
#
# Bulk Modulus (GPa) = 64.70154 65.58243 65.14198
# Shear Modulus (GPa) = 31.20871 32.30026 31.75449
#
# Velocity S-wave (km/s) = 3.87716 3.94438 3.91091
# Velocity P-wave (km/s) = 7.15598 7.23418 7.19519
#
# Compressibility (1/GPa) = 0.01545558
#
# Stress axis : x y z
#
# Youngs Moduli (GPa) = 76.12036 96.65017 88.00581
#
# Poissons Ratio (x) = 0.24255 0.50128
# Poissons Ratio (y) = 0.19103 0.13113
# Poissons Ratio (z) = 0.43358 0.14401
#
# Static dielectric constant tensor:
#      x y z
#    x 3.853610 0.000000 0.000000 
#    y 0.000000 3.893500 0.000000 
#    z 0.000000 0.000000 3.854010 
# 
# 
# High freq. dielectric constant tensor:
#      x y z
#    x 1.818570 0.000000 0.000000 
#    y 0.000000 1.829470 0.000000 
#    z 0.000000 0.000000 1.821650 
# 
# From -- ./inp_files/20769.got.cif
#   From: 2010.03.12/outbox.cif.g09.slc.cpg/sg24_11_cif.got.tgz:20769.got - 2010.04.14 03:06:53.
