data_PCOD8166091
_publ_section_title
;
Structure prediction by ZEFSAII (Michael W. Deem and Ramdas Pophale) SiO2 
 PCOD8166091
Probable space group: I 21 21 21
;
_chemical_formula_sum "Si O2"
_cell_formula_units_Z 32
_cell_length_a 10.206176
_cell_length_b 9.048971
_cell_length_c 13.945501
_cell_angle_alpha 90.000000
_cell_angle_beta 90.000000
_cell_angle_gamma 90.000000
_cell_volume 1287.942193
_symmetry_space_group_name_H-M "I 21 21 21"
_symmetry_group_IT_number 24
_symmetry_cell_setting 'orthorhombic'
loop_
_space_group_symop_operation_xyz
x,y,z
-x,1/2-y,z
x,-y,1/2-z
1/2-x,y,-z
1/2+x,1/2+y,1/2+z
1/2-x,-y,1/2+z
1/2+x,1/2-y,-z
-x,1/2+y,1/2-z
loop_
_atom_site_type_symbol
_atom_site_label
_atom_site_fract_x
_atom_site_fract_y
_atom_site_fract_z
Si Si1 0.624291 0.664334 0.222547
Si Si2 0.699824 0.911436 0.347697
Si Si3 0.401800 0.114027 0.662442
Si Si4 0.046452 0.416045 0.031291
O O1 0.500000 0.750000 0.175568
O O2 0.579649 0.500000 0.250000
O O3 0.664491 0.741453 0.323631
O O4 0.751692 0.671801 0.153265
O O5 0.601713 0.971617 0.429447
O O6 0.846852 0.923269 0.384462
O O7 0.682468 0.000000 0.250000
O O8 0.500000 0.250000 0.680075
O O9 0.411977 0.000000 0.750000
O O10 0.432551 0.028866 0.563106
O O11 0.000000 0.250000 0.021197
#
# Coordination Sequence:
#
# PCOD8166091 Si02
#       4
#     8   8   8   8
#     4  11  23  40  67 103 143 192 243 300 371 440
#     4  11  24  44  73 108 151 198 246 309 380 443
#     4  11  22  41  74 110 146 195 254 311 369 442
#     4  11  23  43  72 109 150 197 253 308 368 448
#
# _framework density 24.845832999999999
#
# number of rings (size 3 to 8) (size 9 to 14) (size 15 to 20)
#    0.000    1.000    0.000    9.000    0.000    1.000 
#    0.000    7.500    0.000   21.000    0.000    1.750 
#    0.000    0.000    0.000    0.000    0.000    0.000 
#
# Total GULP energy -198398.412857 kJ/mol
# GULP energy per Si atom -12399.900804 kJ/mol
# Density = 2.478928 g / cm^3
# Si number density = 24.845833 Si / 1000 Ang^3
#
#
#
# Elastic Constant Matrix: (Units=GPa)
#
#
# Indices 1 2 3 4 5 6 
#
# 1 209.2534 65.8021 63.3731 0.0000 0.0000 0.0000
# 2 65.8021 136.7462 39.2927 0.0000 0.0000 0.0000
# 3 63.3731 39.2927 133.9791 0.0000 0.0000 0.0000
# 4 0.0000 0.0000 0.0000 26.0598 0.0000 0.0000
# 5 0.0000 0.0000 0.0000 0.0000 -32.1095 0.0000
# 6 0.0000 0.0000 0.0000 0.0000 0.0000 52.1068
#
#
#
# Elastic Compliance Matrix: (Units=1/GPa)
#
#
# Indices 1 2 3 4 5 6 
#
# 1 0.006193 -0.002335 -0.002244 0.000000 0.000000 0.000000
# 2 -0.002335 0.008866 -0.001496 0.000000 0.000000 0.000000
# 3 -0.002244 -0.001496 0.008964 0.000000 0.000000 0.000000
# 4 0.000000 0.000000 0.000000 0.038373 0.000000 0.000000
# 5 0.000000 0.000000 0.000000 0.000000 -0.031143 0.000000
# 6 0.000000 0.000000 0.000000 0.000000 0.000000 0.019191
#
#
# Mechanical properties :
#
#
# Convention : Reuss Voigt Hill
#
# Bulk Modulus (GPa) = 84.22658 90.76827 87.49742
# Shear Modulus (GPa) = 75.12832 29.97880 52.55356
#
# Velocity S-wave (km/s) = 5.50486 3.47737 4.60410
# Velocity P-wave (km/s) = 8.62426 7.26187 7.97222
#
# Compressibility (1/GPa) = 0.01187274
#
# Stress axis : x y z
#
# Youngs Moduli (GPa) = 161.47408 112.78722 111.55532
#
# Poissons Ratio (x) = 0.26337 0.25038
# Poissons Ratio (y) = 0.37706 0.16686
# Poissons Ratio (z) = 0.36243 0.16870
#
# Static dielectric constant tensor:
#      x y z
#    x 5.054960 0.000000 0.000000 
#    y 0.000000 4.894450 0.000000 
#    z 0.000000 0.000000 4.378580 
# 
# 
# High freq. dielectric constant tensor:
#      x y z
#    x 2.012590 0.000000 0.000000 
#    y 0.000000 2.000530 0.000000 
#    z 0.000000 0.000000 1.966510 
# 
# From -- ./inp_files/25459.got.cif
#   From: 2010.03.12/outbox.cif.g09.slc.cpg/sg24_13_cif.got.tgz:25459.got - 2010.04.14 03:06:53.
