data_PCOD8166791
_publ_section_title
;
Structure prediction by ZEFSAII (Michael W. Deem and Ramdas Pophale) SiO2 
 PCOD8166791
Probable space group: P M M 2
;
_chemical_formula_sum "Si O2"
_cell_formula_units_Z 32
_cell_length_a 9.214756
_cell_length_b 9.283647
_cell_length_c 20.289140
_cell_angle_alpha 90.000000
_cell_angle_beta 90.000000
_cell_angle_gamma 90.000000
_cell_volume 1735.665765
_symmetry_space_group_name_H-M "P M M 2"
_symmetry_group_IT_number 25
_symmetry_cell_setting 'orthorhombic'
loop_
_space_group_symop_operation_xyz
x,y,z
-x,-y,z
-x,y,z
x,-y,z
loop_
_atom_site_type_symbol
_atom_site_label
_atom_site_fract_x
_atom_site_fract_y
_atom_site_fract_z
Si Si1 0.667611 0.834587 0.553750
Si Si2 0.832788 0.668553 0.292960
Si Si3 0.667830 0.331254 0.163983
Si Si4 0.831469 0.167494 0.051493
Si Si5 0.839741 0.170778 0.904597
Si Si6 0.332345 0.169883 0.778960
Si Si7 0.335834 0.833000 0.401415
Si Si8 0.829883 0.331847 0.663148
O O1 0.500000 0.803340 0.570915
O O2 0.699512 0.803197 0.477525
O O3 0.769498 0.729089 0.594708
O O4 0.704304 0.000000 0.571219
O O5 0.807128 0.500000 0.301970
O O6 0.747219 0.727310 0.229338
O O7 0.776286 0.743405 0.358641
O O8 0.000000 0.707860 0.282844
O O9 0.500000 0.291839 0.170788
O O10 0.694740 0.500000 0.155796
O O11 0.731291 0.255846 0.100126
O O12 0.000000 0.197361 0.066828
O O13 0.795015 0.000000 0.059942
O O14 0.792722 0.221991 0.977561
O O15 0.725624 0.224004 0.849986
O O16 0.000000 0.231993 0.887166
O O17 0.847937 0.000000 0.905859
O O18 0.500000 0.211548 0.773976
O O19 0.245607 0.251562 0.723098
O O20 0.307601 0.000000 0.769792
O O21 0.500000 0.783876 0.385395
O O22 0.316326 0.000000 0.384813
O O23 0.793838 0.500000 0.667261
O O24 0.000000 0.301294 0.666554
#
# Coordination Sequence:
#
# PCOD8166791 Si02
#       8
#     4   4   4   4   4   4   4   4
#     4   9  19  37  59  81 105 135 172 211 253 306
#     4  10  21  36  54  76 103 137 176 216 258 306
#     4  10  21  36  53  74 102 138 179 218 257 306
#     4   9  18  33  54  80 107 135 170 212 258 309
#     4   8  15  30  52  77 105 136 170 209 254 306
#     4  10  20  34  55  81 105 133 172 215 259 309
#     4   9  19  36  57  81 108 136 168 209 256 306
#     4  11  24  38  52  75 107 140 175 215 257 303
#
# _framework density 18.436730000000001
#
# number of rings (size 3 to 8) (size 9 to 14) (size 15 to 20)
#    0.000    2.500    0.000    3.375    0.000    7.500 
#    0.000    5.625    0.000    0.750    0.000    0.000 
#    0.000    0.000    0.000    0.000    0.000    0.000 
#
# Total GULP energy -396833.716779 kJ/mol
# GULP energy per Si atom -12401.053649 kJ/mol
# Density = 1.839477 g / cm^3
# Si number density = 18.436730 Si / 1000 Ang^3
#
#
#
# Elastic Constant Matrix: (Units=GPa)
#
#
# Indices 1 2 3 4 5 6 
#
# 1 126.6859 60.7988 86.0391 0.0000 0.0000 0.0000
# 2 60.7988 50.5301 53.8101 0.0000 0.0000 0.0000
# 3 86.0391 53.8101 135.5508 0.0000 0.0000 0.0000
# 4 0.0000 0.0000 0.0000 -103.0303 0.0000 0.0000
# 5 0.0000 0.0000 0.0000 0.0000 41.8550 0.0000
# 6 0.0000 0.0000 0.0000 0.0000 0.0000 31.0098
#
#
#
# Elastic Compliance Matrix: (Units=1/GPa)
#
#
# Indices 1 2 3 4 5 6 
#
# 1 0.020948 -0.019135 -0.005701 0.000000 0.000000 0.000000
# 2 -0.019135 0.051761 -0.008402 0.000000 0.000000 0.000000
# 3 -0.005701 -0.008402 0.014331 0.000000 0.000000 0.000000
# 4 0.000000 0.000000 0.000000 -0.009706 0.000000 0.000000
# 5 0.000000 0.000000 0.000000 0.000000 0.023892 0.000000
# 6 0.000000 0.000000 0.000000 0.000000 0.000000 0.032248
#
#
# Mechanical properties :
#
#
# Convention : Reuss Voigt Hill
#
# Bulk Modulus (GPa) = 48.62566 79.34031 63.98298
# Shear Modulus (GPa) = 24.17741 1.44149 12.80945
#
# Velocity S-wave (km/s) = 3.62522 0.88519 2.63873
# Velocity P-wave (km/s) = 6.62982 6.64620 6.63802
#
# Compressibility (1/GPa) = 0.02056527
#
# Stress axis : x y z
#
# Youngs Moduli (GPa) = 47.73683 19.31957 69.77765
#
# Poissons Ratio (x) = 0.36967 0.39778
# Poissons Ratio (y) = 0.91342 0.58630
# Poissons Ratio (z) = 0.27213 0.16233
#
# Static dielectric constant tensor:
#      x y z
#    x 3.766170 0.000000 0.000000 
#    y 0.000000 3.175680 0.000000 
#    z 0.000000 0.000000 3.551380 
# 
# 
# High freq. dielectric constant tensor:
#      x y z
#    x 1.720060 0.000000 0.000000 
#    y 0.000000 1.693680 0.000000 
#    z 0.000000 0.000000 1.729430 
# 
# From -- ./inp_files/6494.got.cif
#   From: 2010.03.12/outbox.cif.g09.slc.cpg/sg25_4_cif.got.tgz:6494.got - 2010.04.14 03:30:10.
