data_PCOD8166157
_publ_section_title
;
Structure prediction by ZEFSAII (Michael W. Deem and Ramdas Pophale) SiO2 
 PCOD8166157
Probable space group: I 21 21 21
;
_chemical_formula_sum "Si O2"
_cell_formula_units_Z 36
_cell_length_a 9.437661
_cell_length_b 14.933673
_cell_length_c 12.443322
_cell_angle_alpha 90.000000
_cell_angle_beta 90.000000
_cell_angle_gamma 90.000000
_cell_volume 1753.748653
_symmetry_space_group_name_H-M "I 21 21 21"
_symmetry_group_IT_number 24
_symmetry_cell_setting 'orthorhombic'
loop_
_space_group_symop_operation_xyz
x,y,z
-x,1/2-y,z
x,-y,1/2-z
1/2-x,y,-z
1/2+x,1/2+y,1/2+z
1/2-x,-y,1/2+z
1/2+x,1/2-y,-z
-x,1/2+y,1/2-z
loop_
_atom_site_type_symbol
_atom_site_label
_atom_site_fract_x
_atom_site_fract_y
_atom_site_fract_z
Si Si1 0.750000 0.631057 0.500000
Si Si2 0.840945 0.737058 0.299453
Si Si3 0.024454 0.519117 0.482032
Si Si4 0.746179 0.929534 0.335416
Si Si5 0.395080 0.171061 0.564034
O O1 0.752497 0.688300 0.391694
O O2 0.617126 0.568402 0.489145
O O3 0.753750 0.829969 0.283948
O O4 0.851609 0.679042 0.189928
O O5 0.000000 0.750000 0.344135
O O6 0.091969 0.548860 0.369162
O O7 0.137246 0.552884 0.569044
O O8 0.987201 0.414912 0.469457
O O9 0.691375 0.000000 0.250000
O O10 0.500000 0.250000 0.530686
O O11 0.250000 0.175783 0.500000
#
# Coordination Sequence:
#
# PCOD8166157 Si02
#       5
#     4   8   8   8   8
#     4  12  24  44  68  98 136 174 232 288 350 410
#     4  11  24  43  70  98 136 182 227 286 353 423
#     4  11  25  44  69  99 136 179 230 286 351 424
#     4  11  24  43  70  99 135 181 231 284 349 421
#     4  11  26  46  69  99 137 184 227 283 358 432
#
# _framework density 20.527457999999999
#
# number of rings (size 3 to 8) (size 9 to 14) (size 15 to 20)
#    0.000    0.889    3.333    4.000    6.222    1.778 
#    0.000    0.000    0.000    0.000    0.000    0.000 
#    0.000    0.000    0.000    0.000    0.000    0.000 
#
# Total GULP energy -223057.939120 kJ/mol
# GULP energy per Si atom -12392.107729 kJ/mol
# Density = 2.048074 g / cm^3
# Si number density = 20.527458 Si / 1000 Ang^3
#
#
#
# Elastic Constant Matrix: (Units=GPa)
#
#
# Indices 1 2 3 4 5 6 
#
# 1 111.6133 41.0784 34.0792 0.0000 0.0000 0.0000
# 2 41.0784 134.8992 33.2287 -0.0003 0.0000 -0.0001
# 3 34.0792 33.2287 67.6545 -0.0005 0.0000 -0.0001
# 4 0.0000 -0.0003 -0.0005 27.8206 0.0000 -0.0001
# 5 0.0000 0.0000 0.0000 0.0000 27.7849 0.0000
# 6 0.0000 -0.0001 -0.0001 -0.0001 0.0000 43.2640
#
#
#
# Elastic Compliance Matrix: (Units=1/GPa)
#
#
# Indices 1 2 3 4 5 6 
#
# 1 0.011179 -0.002295 -0.004504 0.000000 0.000000 0.000000
# 2 -0.002295 0.008904 -0.003217 0.000000 0.000000 0.000000
# 3 -0.004504 -0.003217 0.018630 0.000000 0.000000 0.000000
# 4 0.000000 0.000000 0.000000 0.035945 0.000000 0.000000
# 5 0.000000 0.000000 0.000000 0.000000 0.035991 0.000000
# 6 0.000000 0.000000 0.000000 0.000000 0.000000 0.023114
#
#
# Mechanical properties :
#
#
# Convention : Reuss Voigt Hill
#
# Bulk Modulus (GPa) = 53.53060 58.99328 56.26194
# Shear Modulus (GPa) = 31.24556 33.49262 32.36909
#
# Velocity S-wave (km/s) = 3.90569 4.04369 3.97529
# Velocity P-wave (km/s) = 6.81714 7.11358 6.96694
#
# Compressibility (1/GPa) = 0.01868090
#
# Stress axis : x y z
#
# Youngs Moduli (GPa) = 89.45056 112.30599 53.67650
#
# Poissons Ratio (x) = 0.25771 0.24177
# Poissons Ratio (y) = 0.20527 0.17270
# Poissons Ratio (z) = 0.40291 0.36134
#
# Static dielectric constant tensor:
#      x y z
#    x 3.910050 0.000000 0.000000 
#    y 0.000000 3.958230 0.000000 
#    z 0.000000 0.000000 4.403780 
# 
# 
# High freq. dielectric constant tensor:
#      x y z
#    x 1.811660 0.000000 0.000000 
#    y 0.000000 1.817180 0.000000 
#    z 0.000000 0.000000 1.804040 
# 
# From -- ./inp_files/24455.got.cif
#   From: 2010.03.12/outbox.cif.g09.slc.cpg/sg24_13_cif.got.tgz:24455.got - 2010.04.14 03:06:53.
