data_PCOD8166520
_publ_section_title
;
Structure prediction by ZEFSAII (Michael W. Deem and Ramdas Pophale) SiO2 
 PCOD8166520
Probable space group: P M M 2
;
_chemical_formula_sum "Si O2"
_cell_formula_units_Z 32
_cell_length_a 14.031327
_cell_length_b 9.619473
_cell_length_c 12.920130
_cell_angle_alpha 90.000000
_cell_angle_beta 90.000000
_cell_angle_gamma 90.000000
_cell_volume 1743.881255
_symmetry_space_group_name_H-M "P M M 2"
_symmetry_group_IT_number 25
_symmetry_cell_setting 'orthorhombic'
loop_
_space_group_symop_operation_xyz
x,y,z
-x,-y,z
-x,y,z
x,-y,z
loop_
_atom_site_type_symbol
_atom_site_label
_atom_site_fract_x
_atom_site_fract_y
_atom_site_fract_z
Si Si1 0.111228 0.161598 0.291330
Si Si2 0.604232 0.335390 0.024576
Si Si3 0.104786 0.335807 0.902889
Si Si4 0.203435 0.663794 0.110750
Si Si5 0.387436 0.346166 0.797322
Si Si6 0.607451 0.840336 0.609776
Si Si7 0.205562 0.160299 0.502557
Si Si8 0.113425 0.656132 0.677005
O O1 0.147228 0.251912 0.196217
O O2 0.171169 0.212787 0.390649
O O3 0.000000 0.190942 0.311092
O O4 0.129825 0.000000 0.267122
O O5 0.500000 0.275064 0.057423
O O6 0.596693 0.500000 0.012236
O O7 0.683451 0.297987 0.111091
O O8 0.636283 0.281416 0.910481
O O9 0.093987 0.500000 0.906513
O O10 0.151938 0.296811 0.791354
O O11 0.000000 0.267470 0.914456
O O12 0.168161 0.285147 0.998461
O O13 0.186087 0.500000 0.129201
O O14 0.500000 0.357935 0.787090
O O15 0.341198 0.500000 0.783559
O O16 0.350142 0.247171 0.705792
O O17 0.500000 0.794692 0.576747
O O18 0.680007 0.817150 0.513717
O O19 0.607422 0.000000 0.645197
O O20 0.150173 0.240895 0.590745
O O21 0.177207 0.000000 0.515520
O O22 0.147618 0.500000 0.650023
O O23 0.000000 0.661621 0.681790
#
# Coordination Sequence:
#
# PCOD8166520 Si02
#       8
#     4   4   4   4   4   4   4   4
#     4  10  22  40  57  73  99 133 169 217 271 314
#     4   8  15  28  47  75 109 140 170 204 247 299
#     4   8  15  28  46  72 104 131 157 199 256 307
#     4  10  19  32  55  80 101 133 176 214 251 301
#     4   8  14  26  46  72 102 137 172 203 240 292
#     4   9  18  32  49  72 103 136 171 210 251 297
#     4  10  21  36  54  74  99 136 176 210 256 311
#     4   9  18  32  51  77 107 134 162 205 259 310
#
# _framework density 18.349872000000001
#
# number of rings (size 3 to 8) (size 9 to 14) (size 15 to 20)
#    0.000    3.000    0.000    2.250    1.750    2.500 
#    0.000    1.875    0.000    2.625    0.000    0.000 
#    0.000    0.000    0.000    0.000    0.000    0.000 
#
# Total GULP energy -396555.247734 kJ/mol
# GULP energy per Si atom -12392.351492 kJ/mol
# Density = 1.830811 g / cm^3
# Si number density = 18.349872 Si / 1000 Ang^3
#
#
#
# Elastic Constant Matrix: (Units=GPa)
#
#
# Indices 1 2 3 4 5 6 
#
# 1 76.6560 28.9220 49.8230 0.0000 0.0000 0.0000
# 2 28.9220 44.6259 42.0787 0.0000 0.0000 0.0000
# 3 49.8230 42.0787 109.6718 0.0000 0.0000 0.0000
# 4 0.0000 0.0000 0.0000 -99.5516 0.0000 0.0000
# 5 0.0000 0.0000 0.0000 0.0000 32.6245 0.0000
# 6 0.0000 0.0000 0.0000 0.0000 0.0000 19.3443
#
#
#
# Elastic Compliance Matrix: (Units=1/GPa)
#
#
# Indices 1 2 3 4 5 6 
#
# 1 0.019745 -0.006798 -0.006362 0.000000 0.000000 0.000000
# 2 -0.006798 0.037452 -0.011281 0.000000 0.000000 0.000000
# 3 -0.006362 -0.011281 0.016336 0.000000 0.000000 0.000000
# 4 0.000000 0.000000 0.000000 -0.010045 0.000000 0.000000
# 5 0.000000 0.000000 0.000000 0.000000 0.030652 0.000000
# 6 0.000000 0.000000 0.000000 0.000000 0.000000 0.051695
#
#
# Mechanical properties :
#
#
# Convention : Reuss Voigt Hill
#
# Bulk Modulus (GPa) = 40.56584 52.51124 46.53854
# Shear Modulus (GPa) = 24.63864 -2.17457 11.23203
#
# Velocity S-wave (km/s) = 3.66828 -1.08978 2.47676
# Velocity P-wave (km/s) = 6.33219 5.20531 5.79620
#
# Compressibility (1/GPa) = 0.02465128
#
# Stress axis : x y z
#
# Youngs Moduli (GPa) = 50.64568 26.70119 61.21286
#
# Poissons Ratio (x) = 0.18152 0.38942
# Poissons Ratio (y) = 0.34430 0.69054
# Poissons Ratio (z) = 0.32219 0.30122
#
# Static dielectric constant tensor:
#      x y z
#    x 3.719320 0.000000 0.000000 
#    y 0.000000 3.209630 0.000000 
#    z 0.000000 0.000000 3.384630 
# 
# 
# High freq. dielectric constant tensor:
#      x y z
#    x 1.727820 0.000000 0.000000 
#    y 0.000000 1.673600 0.000000 
#    z 0.000000 0.000000 1.695230 
# 
# From -- ./inp_files/4939.got.cif
#   From: 2010.03.12/outbox.cif.g09.slc.cpg/sg25_3_cif.got.tgz:4939.got - 2010.04.14 03:30:10.
