data_PCOD8166545
_publ_section_title
;
Structure prediction by ZEFSAII (Michael W. Deem and Ramdas Pophale) SiO2 
 PCOD8166545
Probable space group: P M M 2
;
_chemical_formula_sum "Si O2"
_cell_formula_units_Z 24
_cell_length_a 11.776972
_cell_length_b 8.938274
_cell_length_c 12.742469
_cell_angle_alpha 90.000000
_cell_angle_beta 90.000000
_cell_angle_gamma 90.000000
_cell_volume 1341.346227
_symmetry_space_group_name_H-M "P M M 2"
_symmetry_group_IT_number 25
_symmetry_cell_setting 'orthorhombic'
loop_
_space_group_symop_operation_xyz
x,y,z
-x,-y,z
-x,y,z
x,-y,z
loop_
_atom_site_type_symbol
_atom_site_label
_atom_site_fract_x
_atom_site_fract_y
_atom_site_fract_z
Si Si1 0.500000 0.677755 0.800071
Si Si2 0.500000 0.322179 0.038874
Si Si3 0.728149 0.822792 0.104332
Si Si4 0.133247 0.672376 0.924548
Si Si5 0.871165 0.823619 0.532334
Si Si6 0.261628 0.675499 0.715360
Si Si7 0.125587 0.177377 0.297603
O O1 0.500000 0.500000 0.804500
O O2 0.387906 0.737026 0.740837
O O3 0.500000 0.737678 0.919342
O O4 0.500000 0.500000 0.043458
O O5 0.391134 0.259857 0.098527
O O6 0.785615 0.763604 0.211760
O O7 0.709696 0.000000 0.104176
O O8 0.808636 0.779603 0.008145
O O9 0.165313 0.500000 0.949067
O O10 0.177912 0.717992 0.810096
O O11 0.000000 0.700204 0.927559
O O12 0.781602 0.749966 0.609647
O O13 0.837558 0.772375 0.414470
O O14 0.000000 0.771256 0.557646
O O15 0.862034 0.000000 0.544238
O O16 0.264565 0.500000 0.696578
O O17 0.000000 0.241992 0.271840
O O18 0.119341 0.000000 0.292944
#
# Coordination Sequence:
#
# PCOD8166545 Si02
#       7
#     2   2   4   4   4   4   4
#     4   9  18  35  56  71  96 142 181 208 252 315
#     4  11  21  39  58  73 104 148 183 214 266 323
#     4  11  21  34  55  82 107 136 180 225 266 313
#     4  10  20  33  51  77 109 143 175 213 270 331
#     4   9  18  34  55  78 105 139 176 215 264 316
#     4  10  19  34  54  76 102 138 180 217 260 314
#     4   8  16  33  55  77 106 142 173 209 266 324
#
# _framework density 17.892472000000001
#
# number of rings (size 3 to 8) (size 9 to 14) (size 15 to 20)
#    0.000    2.333    1.667    2.750    0.000    2.667 
#    0.000    2.917    0.000    5.000    0.000    0.000 
#    0.000    0.000    0.000    0.000    0.000    0.000 
#
# Total GULP energy -297591.427252 kJ/mol
# GULP energy per Si atom -12399.642802 kJ/mol
# Density = 1.785175 g / cm^3
# Si number density = 17.892472 Si / 1000 Ang^3
#
#
#
# Elastic Constant Matrix: (Units=GPa)
#
#
# Indices 1 2 3 4 5 6 
#
# 1 147.1763 38.6975 87.3887 0.0000 0.0000 0.0000
# 2 38.6975 42.2124 39.0561 0.0000 0.0000 0.0000
# 3 87.3887 39.0561 144.0958 0.0000 0.0000 0.0000
# 4 0.0000 0.0000 0.0000 6.5785 0.0000 0.0000
# 5 0.0000 0.0000 0.0000 0.0000 28.1853 0.0000
# 6 0.0000 0.0000 0.0000 0.0000 0.0000 28.5711
#
#
#
# Elastic Compliance Matrix: (Units=1/GPa)
#
#
# Indices 1 2 3 4 5 6 
#
# 1 0.011487 -0.005452 -0.005489 0.000000 0.000000 0.000000
# 2 -0.005452 0.034207 -0.005965 0.000000 0.000000 0.000000
# 3 -0.005489 -0.005965 0.011885 0.000000 0.000000 0.000000
# 4 0.000000 0.000000 0.000000 0.152010 0.000000 0.000000
# 5 0.000000 0.000000 0.000000 0.000000 0.035479 0.000000
# 6 0.000000 0.000000 0.000000 0.000000 0.000000 0.035000
#
#
# Mechanical properties :
#
#
# Convention : Reuss Voigt Hill
#
# Bulk Modulus (GPa) = 42.07428 73.75214 57.91321
# Shear Modulus (GPa) = 15.53742 23.88979 19.71361
#
# Velocity S-wave (km/s) = 2.95002 3.65798 3.32291
# Velocity P-wave (km/s) = 5.93040 7.69092 6.86731
#
# Compressibility (1/GPa) = 0.02376749
#
# Stress axis : x y z
#
# Youngs Moduli (GPa) = 87.05310 29.23376 84.13763
#
# Poissons Ratio (x) = 0.15939 0.46181
# Poissons Ratio (y) = 0.47465 0.50187
# Poissons Ratio (z) = 0.47781 0.17438
#
# Static dielectric constant tensor:
#      x y z
#    x 3.679410 0.000000 0.000000 
#    y 0.000000 3.068580 0.000000 
#    z 0.000000 0.000000 3.481310 
# 
# 
# High freq. dielectric constant tensor:
#      x y z
#    x 1.699340 0.000000 0.000000 
#    y 0.000000 1.668150 0.000000 
#    z 0.000000 0.000000 1.695610 
# 
# From -- ./inp_files/4007.got.cif
#   From: 2010.03.12/outbox.cif.g09.slc.cpg/sg25_3_cif.got.tgz:4007.got - 2010.04.14 03:30:10.
