data_PCOD8166451
_publ_section_title
;
Structure prediction by ZEFSAII (Michael W. Deem and Ramdas Pophale) SiO2 
 PCOD8166451
Probable space group: P M M 2
;
_chemical_formula_sum "Si O2"
_cell_formula_units_Z 28
_cell_length_a 14.407739
_cell_length_b 8.902378
_cell_length_c 12.894699
_cell_angle_alpha 90.000000
_cell_angle_beta 90.000000
_cell_angle_gamma 90.000000
_cell_volume 1653.914566
_symmetry_space_group_name_H-M "P M M 2"
_symmetry_group_IT_number 25
_symmetry_cell_setting 'orthorhombic'
loop_
_space_group_symop_operation_xyz
x,y,z
-x,-y,z
-x,y,z
x,-y,z
loop_
_atom_site_type_symbol
_atom_site_label
_atom_site_fract_x
_atom_site_fract_y
_atom_site_fract_z
Si Si1 0.393877 0.177715 0.485480
Si Si2 0.104980 0.175383 0.363701
Si Si3 0.899273 0.821411 0.600017
Si Si4 0.283413 0.323514 0.298137
Si Si5 0.608974 0.826615 0.117215
Si Si6 0.288376 0.178830 0.689767
Si Si7 0.397052 0.821735 0.884864
O O1 0.500000 0.230970 0.477595
O O2 0.335830 0.250361 0.394180
O O3 0.353954 0.232117 0.595809
O O4 0.385006 0.000000 0.473707
O O5 0.117637 0.230201 0.482094
O O6 0.176974 0.267437 0.293354
O O7 0.000000 0.208756 0.325803
O O8 0.127871 0.000000 0.353595
O O9 0.816294 0.758516 0.672102
O O10 0.000000 0.761253 0.639317
O O11 0.899930 0.000000 0.601751
O O12 0.285896 0.500000 0.311093
O O13 0.332996 0.279321 0.191817
O O14 0.500000 0.801410 0.136199
O O15 0.634641 0.000000 0.138205
O O16 0.636493 0.778328 0.000126
O O17 0.327255 0.244927 0.798132
O O18 0.286831 0.000000 0.693739
O O19 0.500000 0.756227 0.864120
O O20 0.401937 0.000000 0.875686
#
# Coordination Sequence:
#
# PCOD8166451 Si02
#       7
#     4   4   4   4   4   4   4
#     4  10  19  30  46  69  97 129 162 195 238 294
#     4   9  17  32  53  73  95 125 161 198 236 284
#     4   8  13  22  40  67  96 123 150 183 227 280
#     4  12  23  32  46  69  99 130 161 199 242 291
#     4   9  18  33  51  68  90 125 170 212 245 283
#     4   9  14  23  43  70  97 120 150 196 246 291
#     4   8  14  25  43  68  92 117 156 204 246 280
#
# _framework density 16.929531999999998
#
# number of rings (size 3 to 8) (size 9 to 14) (size 15 to 20)
#    0.000    2.714    1.429    3.857    0.000    4.286 
#    0.000    0.000    0.000    1.714    0.000    6.000 
#    0.000    0.000    0.000    0.000    0.000    0.000 
#
# Total GULP energy -347064.162334 kJ/mol
# GULP energy per Si atom -12395.148655 kJ/mol
# Density = 1.689100 g / cm^3
# Si number density = 16.929532 Si / 1000 Ang^3
#
#
#
# Elastic Constant Matrix: (Units=GPa)
#
#
# Indices 1 2 3 4 5 6 
#
# 1 120.1811 22.8134 57.1517 0.0000 0.0000 0.0000
# 2 22.8134 14.6584 15.2250 0.0000 0.0000 0.0000
# 3 57.1517 15.2250 103.3068 0.0000 0.0000 0.0000
# 4 0.0000 0.0000 0.0000 -0.5869 0.0000 0.0000
# 5 0.0000 0.0000 0.0000 0.0000 23.5155 0.0000
# 6 0.0000 0.0000 0.0000 0.0000 0.0000 7.1490
#
#
#
# Elastic Compliance Matrix: (Units=1/GPa)
#
#
# Indices 1 2 3 4 5 6 
#
# 1 0.013912 -0.016126 -0.005320 0.000000 0.000000 0.000000
# 2 -0.016126 0.099243 -0.005705 0.000000 0.000000 0.000000
# 3 -0.005320 -0.005705 0.013464 0.000000 0.000000 0.000000
# 4 0.000000 0.000000 0.000000 -1.703787 0.000000 0.000000
# 5 0.000000 0.000000 0.000000 0.000000 0.042525 0.000000
# 6 0.000000 0.000000 0.000000 0.000000 0.000000 0.139879
#
#
# Mechanical properties :
#
#
# Convention : Reuss Voigt Hill
#
# Bulk Modulus (GPa) = 13.82798 47.61406 30.72102
# Shear Modulus (GPa) = -3.79836 15.54593 5.87378
#
# Velocity S-wave (km/s) = -1.49950 3.03359 1.86469
# Velocity P-wave (km/s) = 2.27765 6.36051 4.77723
#
# Compressibility (1/GPa) = 0.07231714
#
# Stress axis : x y z
#
# Youngs Moduli (GPa) = 71.88238 10.07632 74.27422
#
# Poissons Ratio (x) = 0.16249 0.39511
# Poissons Ratio (y) = 1.15916 0.42372
# Poissons Ratio (z) = 0.38239 0.05748
#
# Static dielectric constant tensor:
#      x y z
#    x 3.568000 0.000000 0.000000 
#    y 0.000000 2.685030 0.000000 
#    z 0.000000 0.000000 3.247790 
# 
# 
# High freq. dielectric constant tensor:
#      x y z
#    x 1.661900 0.000000 0.000000 
#    y 0.000000 1.602310 0.000000 
#    z 0.000000 0.000000 1.639400 
# 
# From -- ./inp_files/5888.got.cif
#   From: 2010.03.12/outbox.cif.g09.slc.cpg/sg25_3_cif.got.tgz:5888.got - 2010.04.14 03:30:10.
