data_PCOD8166721
_publ_section_title
;
Structure prediction by ZEFSAII (Michael W. Deem and Ramdas Pophale) SiO2 
 PCOD8166721
Probable space group: P M M 2
;
_chemical_formula_sum "Si O2"
_cell_formula_units_Z 28
_cell_length_a 9.256003
_cell_length_b 9.256006
_cell_length_c 17.849296
_cell_angle_alpha 90.000000
_cell_angle_beta 90.000000
_cell_angle_gamma 90.000000
_cell_volume 1529.213790
_symmetry_space_group_name_H-M "P M M 2"
_symmetry_group_IT_number 25
_symmetry_cell_setting 'orthorhombic'
loop_
_space_group_symop_operation_xyz
x,y,z
-x,-y,z
-x,y,z
x,-y,z
loop_
_atom_site_type_symbol
_atom_site_label
_atom_site_fract_x
_atom_site_fract_y
_atom_site_fract_z
Si Si1 0.163195 0.828151 0.957790
Si Si2 0.329567 0.834042 0.522298
Si Si3 0.665958 0.170433 0.101950
Si Si4 0.328151 0.663195 0.666458
Si Si5 0.331636 0.168364 0.812124
Si Si6 0.167706 0.664148 0.398468
Si Si7 0.164148 0.667706 0.225780
O O1 0.244446 0.772763 0.883667
O O2 0.000000 0.768094 0.958179
O O3 0.165516 0.000000 0.958712
O O4 0.245745 0.768517 0.030790
O O5 0.500000 0.815478 0.515019
O O6 0.268517 0.745745 0.593458
O O7 0.259913 0.774495 0.446887
O O8 0.285374 0.000000 0.533165
O O9 0.500000 0.214626 0.091083
O O10 0.725505 0.240087 0.177361
O O11 0.684522 0.000000 0.109229
O O12 0.500000 0.665515 0.665536
O O13 0.268094 0.500000 0.666068
O O14 0.272763 0.744446 0.740580
O O15 0.500000 0.197395 0.827270
O O16 0.302605 0.000000 0.796978
O O17 0.214426 0.500000 0.416888
O O18 0.199514 0.699512 0.312124
O O19 0.000000 0.685915 0.416730
O O20 0.185914 0.500000 0.207517
O O21 0.000000 0.714427 0.207361
#
# Coordination Sequence:
#
# PCOD8166721 Si02
#       7
#     4   4   4   4   4   4   4
#     4   9  17  30  49  72  98 130 167 205 248 299
#     4  10  20  33  51  77 106 134 168 210 253 298
#     4  10  20  33  51  77 106 134 168 210 253 298
#     4   9  17  30  49  72  98 130 167 205 248 299
#     4   9  16  28  48  71  94 122 160 207 254 298
#     4   9  19  36  55  74  99 133 171 209 252 303
#     4   9  19  36  55  74  99 133 171 209 252 303
#
# _framework density 18.310061999999999
#
# number of rings (size 3 to 8) (size 9 to 14) (size 15 to 20)
#    0.000    2.714    0.000    2.571    0.000    6.857 
#    0.000    5.714    0.000    5.571    0.000    0.000 
#    0.000    0.000    0.000    0.000    0.000    0.000 
#
# Total GULP energy -347235.345092 kJ/mol
# GULP energy per Si atom -12401.262325 kJ/mol
# Density = 1.826839 g / cm^3
# Si number density = 18.310062 Si / 1000 Ang^3
#
#
#
# Elastic Constant Matrix: (Units=GPa)
#
#
# Indices 1 2 3 4 5 6 
#
# 1 82.7030 45.8323 65.5824 0.0000 0.0000 0.0000
# 2 45.8323 82.7032 65.5826 0.0000 0.0000 0.0000
# 3 65.5824 65.5826 140.5866 0.0000 0.0000 0.0000
# 4 0.0000 0.0000 0.0000 19.3956 0.0000 0.0000
# 5 0.0000 0.0000 0.0000 0.0000 19.3950 0.0000
# 6 0.0000 0.0000 0.0000 0.0000 0.0000 23.5197
#
#
#
# Elastic Compliance Matrix: (Units=1/GPa)
#
#
# Indices 1 2 3 4 5 6 
#
# 1 0.020985 -0.006137 -0.006927 0.000000 0.000000 0.000000
# 2 -0.006137 0.020985 -0.006927 0.000000 0.000000 0.000000
# 3 -0.006927 -0.006927 0.013575 0.000000 0.000000 0.000000
# 4 0.000000 0.000000 0.000000 0.051558 0.000000 0.000000
# 5 0.000000 0.000000 0.000000 0.000000 0.051560 0.000000
# 6 0.000000 0.000000 0.000000 0.000000 0.000000 0.042518
#
#
# Mechanical properties :
#
#
# Convention : Reuss Voigt Hill
#
# Bulk Modulus (GPa) = 64.24421 73.33194 68.78808
# Shear Modulus (GPa) = 20.29639 21.06175 20.67907
#
# Velocity S-wave (km/s) = 3.33300 3.39526 3.36427
# Velocity P-wave (km/s) = 7.06929 7.45033 7.26231
#
# Compressibility (1/GPa) = 0.01556560
#
# Stress axis : x y z
#
# Youngs Moduli (GPa) = 47.65309 47.65307 73.66232
#
# Poissons Ratio (x) = 0.29243 0.51023
# Poissons Ratio (y) = 0.29243 0.51023
# Poissons Ratio (z) = 0.33007 0.33007
#
# Static dielectric constant tensor:
#      x y z
#    x 3.221290 0.000000 0.000000 
#    y 0.000000 3.221290 0.000000 
#    z 0.000000 0.000000 3.473950 
# 
# 
# High freq. dielectric constant tensor:
#      x y z
#    x 1.693100 0.000000 0.000000 
#    y 0.000000 1.693100 0.000000 
#    z 0.000000 0.000000 1.723120 
# 
# From -- ./inp_files/6074.got.cif
#   From: 2010.03.12/outbox.cif.g09.slc.cpg/sg25_4_cif.got.tgz:6074.got - 2010.04.14 03:30:10.
