data_PCOD8166001
_publ_section_title
;
Structure prediction by ZEFSAII (Michael W. Deem and Ramdas Pophale) SiO2 
 PCOD8166001
Probable space group: I 21 21 21
;
_chemical_formula_sum "Si O2"
_cell_formula_units_Z 64
_cell_length_a 25.197038
_cell_length_b 11.077217
_cell_length_c 12.181562
_cell_angle_alpha 90.000000
_cell_angle_beta 90.000000
_cell_angle_gamma 90.000000
_cell_volume 3400.033017
_symmetry_space_group_name_H-M "I 21 21 21"
_symmetry_group_IT_number 24
_symmetry_cell_setting 'orthorhombic'
loop_
_space_group_symop_operation_xyz
x,y,z
-x,1/2-y,z
x,-y,1/2-z
1/2-x,y,-z
1/2+x,1/2+y,1/2+z
1/2-x,-y,1/2+z
1/2+x,1/2-y,-z
-x,1/2+y,1/2-z
loop_
_atom_site_type_symbol
_atom_site_label
_atom_site_fract_x
_atom_site_fract_y
_atom_site_fract_z
Si Si1 0.373309 0.855698 0.412122
Si Si2 0.703077 0.358483 0.264716
Si Si3 0.964149 0.643510 0.989622
Si Si4 0.653873 0.614650 0.009897
Si Si5 0.090152 0.253823 0.124773
Si Si6 0.027299 0.871007 0.737855
Si Si7 0.322149 0.861632 0.772834
Si Si8 0.496914 0.435836 0.863938
O O1 0.332735 0.792600 0.327226
O O2 0.385058 0.755760 0.503583
O O3 0.424295 0.901437 0.343414
O O4 0.347743 0.970523 0.473280
O O5 0.692562 0.500000 0.250000
O O6 0.681566 0.320246 0.385570
O O7 0.763338 0.326482 0.232125
O O8 0.904222 0.658716 0.029726
O O9 0.955851 0.661095 0.860113
O O10 0.000000 0.750000 0.039732
O O11 0.991880 0.520122 0.030123
O O12 0.687142 0.650949 0.903355
O O13 0.134792 0.228151 0.217867
O O14 0.063762 0.386534 0.133542
O O15 0.041306 0.164793 0.134479
O O16 0.000000 0.750000 0.687643
O O17 0.994744 0.000000 0.750000
O O18 0.338750 0.000000 0.750000
O O19 0.506053 0.500000 0.750000
#
# Coordination Sequence:
#
# PCOD8166001 Si02
#       8
#     8   8   8   8   8   8   8   8
#     4  11  19  35  54  79 115 147 188 233 287 342
#     4   9  20  32  52  80 112 148 184 236 290 341
#     4  11  22  35  56  82 114 149 184 233 287 343
#     4  11  18  33  54  77 116 151 188 221 288 345
#     4  11  23  36  58  83 109 158 182 230 284 341
#     4  11  21  34  54  81 114 155 188 232 288 346
#     4  11  20  34  51  81 114 147 188 234 286 341
#     4  11  24  38  54  82 117 148 192 226 282 350
#
# _framework density 18.823346999999998
#
# number of rings (size 3 to 8) (size 9 to 14) (size 15 to 20)
#    0.000    1.250    5.000    1.875    7.000    0.500 
#    0.000    0.000    0.000    0.000    0.000    4.375 
#    0.000    0.000    0.000    0.000    0.000    0.000 
#
# Total GULP energy -396472.590541 kJ/mol
# GULP energy per Si atom -12389.768454 kJ/mol
# Density = 1.878050 g / cm^3
# Si number density = 18.823347 Si / 1000 Ang^3
#
#
#
# Elastic Constant Matrix: (Units=GPa)
#
#
# Indices 1 2 3 4 5 6 
#
# 1 97.4904 26.4657 32.1134 0.0000 0.0000 0.0000
# 2 26.4657 48.8790 2.9770 0.0000 0.0000 0.0000
# 3 32.1134 2.9770 114.9875 0.0000 0.0000 0.0000
# 4 0.0000 0.0000 0.0000 7.7982 0.0000 0.0000
# 5 0.0000 0.0000 0.0000 0.0000 25.6940 0.0000
# 6 0.0000 0.0000 0.0000 0.0000 0.0000 17.1440
#
#
#
# Elastic Compliance Matrix: (Units=1/GPa)
#
#
# Indices 1 2 3 4 5 6 
#
# 1 0.013323 -0.006998 -0.003540 0.000000 0.000000 0.000000
# 2 -0.006998 0.024167 0.001329 0.000000 0.000000 0.000000
# 3 -0.003540 0.001329 0.009651 0.000000 0.000000 0.000000
# 4 0.000000 0.000000 0.000000 0.128235 0.000000 0.000000
# 5 0.000000 0.000000 0.000000 0.000000 0.038920 0.000000
# 6 0.000000 0.000000 0.000000 0.000000 0.000000 0.058329
#
#
# Mechanical properties :
#
#
# Convention : Reuss Voigt Hill
#
# Bulk Modulus (GPa) = 34.81581 42.71878 38.76730
# Shear Modulus (GPa) = 16.63243 23.44730 20.03986
#
# Velocity S-wave (km/s) = 2.97578 3.53321 3.26640
# Velocity P-wave (km/s) = 5.50847 6.27603 5.90473
#
# Compressibility (1/GPa) = 0.02872258
#
# Stress axis : x y z
#
# Youngs Moduli (GPa) = 75.05687 41.37869 103.61887
#
# Poissons Ratio (x) = 0.28958 0.36678
# Poissons Ratio (y) = 0.52527 -0.13769
# Poissons Ratio (z) = 0.26568 -0.05498
#
# Static dielectric constant tensor:
#      x y z
#    x 3.573480 0.000000 0.000000 
#    y 0.000000 3.334140 0.000000 
#    z 0.000000 0.000000 3.670110 
# 
# 
# High freq. dielectric constant tensor:
#      x y z
#    x 1.725630 0.000000 0.000000 
#    y 0.000000 1.671410 0.000000 
#    z 0.000000 0.000000 1.755520 
# 
# From -- ./inp_files/20130.got.cif
#   From: 2010.03.12/outbox.cif.g09.slc.cpg/sg24_11_cif.got.tgz:20130.got - 2010.04.14 03:06:53.
