data_PCOD8166822
_publ_section_title
;
Structure prediction by ZEFSAII (Michael W. Deem and Ramdas Pophale) SiO2 
 PCOD8166822
Probable space group: P M M 2
;
_chemical_formula_sum "Si O2"
_cell_formula_units_Z 24
_cell_length_a 8.997309
_cell_length_b 8.997267
_cell_length_c 15.550296
_cell_angle_alpha 90.000000
_cell_angle_beta 90.000000
_cell_angle_gamma 90.000000
_cell_volume 1258.814987
_symmetry_space_group_name_H-M "P M M 2"
_symmetry_group_IT_number 25
_symmetry_cell_setting 'orthorhombic'
loop_
_space_group_symop_operation_xyz
x,y,z
-x,-y,z
-x,y,z
x,-y,z
loop_
_atom_site_type_symbol
_atom_site_label
_atom_site_fract_x
_atom_site_fract_y
_atom_site_fract_z
Si Si1 0.324795 0.828364 0.802610
Si Si2 0.676622 0.667270 0.314726
Si Si3 0.167267 0.823377 0.974809
Si Si4 0.673322 0.826673 0.144766
Si Si5 0.328368 0.824794 0.486923
Si Si6 0.826990 0.673007 0.644766
O O1 0.500000 0.809065 0.807146
O O2 0.257096 0.767815 0.891713
O O3 0.261617 0.727908 0.727293
O O4 0.280581 0.000000 0.786019
O O5 0.500000 0.670756 0.311879
O O6 0.738200 0.500000 0.320248
O O7 0.738427 0.743536 0.228304
O O8 0.732191 0.757084 0.397825
O O9 0.000000 0.761792 0.969280
O O10 0.170740 0.000000 0.977658
O O11 0.243528 0.761573 0.061232
O O12 0.500000 0.794981 0.131539
O O13 0.704991 0.000000 0.157991
O O14 0.500000 0.780564 0.503513
O O15 0.227912 0.761641 0.562249
O O16 0.309088 0.000000 0.482375
O O17 0.794408 0.500000 0.630376
O O18 0.000000 0.705561 0.659148
#
# Coordination Sequence:
#
# PCOD8166822 Si02
#       6
#     4   4   4   4   4   4
#     4  10  20  35  57  83 107 135 176 222 265 312
#     4   9  17  30  50  76 105 137 173 215 263 312
#     4   9  17  30  50  76 105 137 173 215 263 312
#     4   9  16  28  48  73 100 132 174 221 262 304
#     4  10  20  35  57  83 107 135 176 222 265 312
#     4  11  24  39  54  76 108 143 176 213 262 318
#
# _framework density 19.065550999999999
#
# number of rings (size 3 to 8) (size 9 to 14) (size 15 to 20)
#    0.000    2.333    0.000    3.000    0.000    9.333 
#    0.000    1.667    0.000    6.500    0.000    0.000 
#    0.000    0.000    0.000    0.000    0.000    0.000 
#
# Total GULP energy -297651.164136 kJ/mol
# GULP energy per Si atom -12402.131839 kJ/mol
# Density = 1.902216 g / cm^3
# Si number density = 19.065551 Si / 1000 Ang^3
#
#
#
# Elastic Constant Matrix: (Units=GPa)
#
#
# Indices 1 2 3 4 5 6 
#
# 1 69.6637 31.1918 48.7452 0.0000 0.0000 0.0000
# 2 31.1918 69.6416 48.7380 0.0000 0.0000 0.0000
# 3 48.7452 48.7380 171.9018 0.0000 0.0000 0.0000
# 4 0.0000 0.0000 0.0000 -4.1745 0.0000 0.0000
# 5 0.0000 0.0000 0.0000 0.0000 -4.1981 0.0000
# 6 0.0000 0.0000 0.0000 0.0000 0.0000 20.5128
#
#
#
# Elastic Compliance Matrix: (Units=1/GPa)
#
#
# Indices 1 2 3 4 5 6 
#
# 1 0.019827 -0.006170 -0.003873 0.000000 0.000000 0.000000
# 2 -0.006170 0.019834 -0.003874 0.000000 0.000000 0.000000
# 3 -0.003873 -0.003874 0.008014 0.000000 0.000000 0.000000
# 4 0.000000 0.000000 0.000000 -0.239548 0.000000 0.000000
# 5 0.000000 0.000000 0.000000 0.000000 -0.238206 0.000000
# 6 0.000000 0.000000 0.000000 0.000000 0.000000 0.048750
#
#
# Mechanical properties :
#
#
# Convention : Reuss Voigt Hill
#
# Bulk Modulus (GPa) = 50.39960 63.17300 56.78630
# Shear Modulus (GPa) = -14.41413 14.59686 0.09136
#
# Velocity S-wave (km/s) = -2.75258 2.76998 0.21915
# Velocity P-wave (km/s) = 4.04846 6.59067 5.46932
#
# Compressibility (1/GPa) = 0.01984143
#
# Stress axis : x y z
#
# Youngs Moduli (GPa) = 50.43555 50.41923 124.78488
#
# Poissons Ratio (x) = 0.31109 0.48329
# Poissons Ratio (y) = 0.31119 0.48338
# Poissons Ratio (z) = 0.19534 0.19531
#
# Static dielectric constant tensor:
#      x y z
#    x 3.378060 0.000000 0.000000 
#    y 0.000000 3.377990 0.000000 
#    z 0.000000 0.000000 3.812040 
# 
# 
# High freq. dielectric constant tensor:
#      x y z
#    x 1.724460 0.000000 0.000000 
#    y 0.000000 1.724460 0.000000 
#    z 0.000000 0.000000 1.761330 
# 
# From -- ./inp_files/5284.got.cif
#   From: 2010.03.12/outbox.cif.g09.slc.cpg/sg25_3_cif.got.tgz:5284.got - 2010.04.14 03:30:10.
