data_PCOD8166766
_publ_section_title
;
Structure prediction by ZEFSAII (Michael W. Deem and Ramdas Pophale) SiO2 
 PCOD8166766
Probable space group: P M M 2
;
_chemical_formula_sum "Si O2"
_cell_formula_units_Z 24
_cell_length_a 7.595011
_cell_length_b 9.285424
_cell_length_c 17.316580
_cell_angle_alpha 90.000000
_cell_angle_beta 90.000000
_cell_angle_gamma 90.000000
_cell_volume 1221.215395
_symmetry_space_group_name_H-M "P M M 2"
_symmetry_group_IT_number 25
_symmetry_cell_setting 'orthorhombic'
loop_
_space_group_symop_operation_xyz
x,y,z
-x,-y,z
-x,y,z
x,-y,z
loop_
_atom_site_type_symbol
_atom_site_label
_atom_site_fract_x
_atom_site_fract_y
_atom_site_fract_z
Si Si1 0.289814 0.337884 0.591000
Si Si2 0.290957 0.162054 0.737141
Si Si3 0.298160 0.666560 0.887112
Si Si4 0.695269 0.828486 0.276895
Si Si5 0.000000 0.828566 0.166312
Si Si6 0.000000 0.666256 0.007326
Si Si7 0.708945 0.160139 0.446920
O O1 0.500000 0.337690 0.591446
O O2 0.216662 0.500000 0.595815
O O3 0.215474 0.248617 0.663815
O O4 0.215779 0.265560 0.512687
O O5 0.500000 0.160018 0.733132
O O6 0.229577 0.240185 0.815223
O O7 0.215019 0.000000 0.736145
O O8 0.500000 0.704020 0.909180
O O9 0.279595 0.500000 0.863265
O O10 0.175592 0.703947 0.959542
O O11 0.500000 0.767125 0.258455
O O12 0.760606 0.778790 0.362115
O O13 0.828397 0.771323 0.211924
O O14 0.689412 0.000000 0.277668
O O15 0.000000 0.765115 0.081672
O O16 0.000000 0.000000 0.160563
O O17 0.000000 0.500000 0.032301
O O18 0.500000 0.151004 0.452464
O O19 0.787927 0.000000 0.459826
#
# Coordination Sequence:
#
# PCOD8166766 Si02
#       7
#     4   4   4   4   2   2   4
#     4   9  15  22  36  63  98 131 165 204 242 285
#     4   9  16  26  43  69  99 130 166 206 245 285
#     4   9  18  34  54  73  97 131 166 199 241 293
#     4   8  15  29  49  73 100 129 162 202 247 291
#     4  10  20  34  54  77  98 125 162 201 244 297
#     4  10  22  38  54  75 102 129 158 197 248 301
#     4   8  13  23  40  61  88 124 163 201 241 284
#
# _framework density 19.652553999999999
#
# number of rings (size 3 to 8) (size 9 to 14) (size 15 to 20)
#    0.000    3.167    0.000    2.000    0.000    5.333 
#    0.000    0.833    0.000    2.000    0.000    3.500 
#    0.000    0.000    0.000    0.000    0.000    0.000 
#
# Total GULP energy -297514.186307 kJ/mol
# GULP energy per Si atom -12396.424429 kJ/mol
# Density = 1.960782 g / cm^3
# Si number density = 19.652554 Si / 1000 Ang^3
#
#
#
# Elastic Constant Matrix: (Units=GPa)
#
#
# Indices 1 2 3 4 5 6 
#
# 1 71.0129 27.6330 56.3111 0.0000 0.0000 0.0000
# 2 27.6330 105.8066 80.7110 0.0000 0.0000 0.0000
# 3 56.3111 80.7110 180.7936 0.0000 0.0000 0.0000
# 4 0.0000 0.0000 0.0000 24.8871 0.0000 0.0000
# 5 0.0000 0.0000 0.0000 0.0000 -11.9592 0.0000
# 6 0.0000 0.0000 0.0000 0.0000 0.0000 6.5606
#
#
#
# Elastic Compliance Matrix: (Units=1/GPa)
#
#
# Indices 1 2 3 4 5 6 
#
# 1 0.018732 -0.000670 -0.005535 0.000000 0.000000 0.000000
# 2 -0.000670 0.014356 -0.006200 0.000000 0.000000 0.000000
# 3 -0.005535 -0.006200 0.010023 0.000000 0.000000 0.000000
# 4 0.000000 0.000000 0.000000 0.040181 0.000000 0.000000
# 5 0.000000 0.000000 0.000000 0.000000 -0.083617 0.000000
# 6 0.000000 0.000000 0.000000 0.000000 0.000000 0.152424
#
#
# Mechanical properties :
#
#
# Convention : Reuss Voigt Hill
#
# Bulk Modulus (GPa) = 54.64375 76.32482 65.48428
# Shear Modulus (GPa) = 27.32098 16.76157 22.04127
#
# Velocity S-wave (km/s) = 3.73258 2.92361 3.35258
# Velocity P-wave (km/s) = 6.81480 7.09352 6.95556
#
# Compressibility (1/GPa) = 0.01830035
#
# Stress axis : x y z
#
# Youngs Moduli (GPa) = 53.38473 69.65865 99.76840
#
# Poissons Ratio (x) = 0.04664 0.55226
# Poissons Ratio (y) = 0.03575 0.61859
# Poissons Ratio (z) = 0.29551 0.43190
#
# Static dielectric constant tensor:
#      x y z
#    x 3.435450 0.000000 0.000000 
#    y 0.000000 3.523580 0.000000 
#    z 0.000000 0.000000 3.635270 
# 
# 
# High freq. dielectric constant tensor:
#      x y z
#    x 1.745760 0.000000 0.000000 
#    y 0.000000 1.742340 0.000000 
#    z 0.000000 0.000000 1.765890 
# 
# From -- ./inp_files/5999.got.cif
#   From: 2010.03.12/outbox.cif.g09.slc.cpg/sg25_3_cif.got.tgz:5999.got - 2010.04.14 03:30:10.
