data_PCOD8166381
_publ_section_title
;
Structure prediction by ZEFSAII (Michael W. Deem and Ramdas Pophale) SiO2 
 PCOD8166381
Probable space group: P M M 2
;
_chemical_formula_sum "Si O2"
_cell_formula_units_Z 24
_cell_length_a 11.762420
_cell_length_b 9.119560
_cell_length_c 12.799177
_cell_angle_alpha 90.000000
_cell_angle_beta 90.000000
_cell_angle_gamma 90.000000
_cell_volume 1372.943334
_symmetry_space_group_name_H-M "P M M 2"
_symmetry_group_IT_number 25
_symmetry_cell_setting 'orthorhombic'
loop_
_space_group_symop_operation_xyz
x,y,z
-x,-y,z
-x,y,z
x,-y,z
loop_
_atom_site_type_symbol
_atom_site_label
_atom_site_fract_x
_atom_site_fract_y
_atom_site_fract_z
Si Si1 0.262748 0.326052 0.494340
Si Si2 0.873753 0.325704 0.300206
Si Si3 0.133480 0.331084 0.698690
Si Si4 0.500000 0.829961 0.797923
Si Si5 0.257096 0.171845 0.884045
Si Si6 0.868659 0.671978 0.065497
Si Si7 0.500000 0.325799 0.577114
O O1 0.259986 0.500000 0.487969
O O2 0.213783 0.260045 0.385833
O O3 0.185377 0.272640 0.590380
O O4 0.390800 0.269447 0.512635
O O5 0.876517 0.500000 0.306474
O O6 0.837659 0.278949 0.183540
O O7 0.000000 0.265472 0.325432
O O8 0.167239 0.500000 0.718858
O O9 0.181512 0.234694 0.791423
O O10 0.000000 0.310214 0.692600
O O11 0.610517 0.789791 0.866272
O O12 0.500000 0.736869 0.692959
O O13 0.500000 0.000000 0.765798
O O14 0.236184 0.000000 0.889389
O O15 0.217587 0.241307 0.992499
O O16 0.848964 0.500000 0.048935
O O17 0.000000 0.711042 0.039971
O O18 0.500000 0.500000 0.589070
#
# Coordination Sequence:
#
# PCOD8166381 Si02
#       7
#     4   4   4   2   4   4   2
#     4   9  16  27  46  74 103 129 161 200 243 290
#     4   8  14  27  48  73 102 133 161 194 243 299
#     4  10  19  30  48  75 104 130 159 200 249 302
#     4  10  22  38  51  66  94 136 175 205 246 301
#     4  11  22  35  51  70  96 131 170 211 252 295
#     4   9  18  33  53  76 102 133 167 203 246 298
#     4  10  18  30  51  76 100 130 167 207 246 289
#
# _framework density 17.480692000000001
#
# number of rings (size 3 to 8) (size 9 to 14) (size 15 to 20)
#    0.000    2.500    1.667    2.500    0.000    5.333 
#    0.000    0.833    0.000    4.000    0.000    2.333 
#    0.000    0.000    0.000    0.000    0.000    0.000 
#
# Total GULP energy -297550.954749 kJ/mol
# GULP energy per Si atom -12397.956448 kJ/mol
# Density = 1.744091 g / cm^3
# Si number density = 17.480692 Si / 1000 Ang^3
#
#
#
# Elastic Constant Matrix: (Units=GPa)
#
#
# Indices 1 2 3 4 5 6 
#
# 1 137.0342 39.5483 94.3951 0.0000 0.0000 0.0000
# 2 39.5483 36.6682 41.5678 0.0000 0.0000 0.0000
# 3 94.3951 41.5678 162.3392 0.0000 0.0000 0.0000
# 4 0.0000 0.0000 0.0000 -3.9353 0.0000 0.0000
# 5 0.0000 0.0000 0.0000 0.0000 23.3262 0.0000
# 6 0.0000 0.0000 0.0000 0.0000 0.0000 20.3393
#
#
#
# Elastic Compliance Matrix: (Units=1/GPa)
#
#
# Indices 1 2 3 4 5 6 
#
# 1 0.013687 -0.008088 -0.005888 0.000000 0.000000 0.000000
# 2 -0.008088 0.043204 -0.006360 0.000000 0.000000 0.000000
# 3 -0.005888 -0.006360 0.011212 0.000000 0.000000 0.000000
# 4 0.000000 0.000000 0.000000 -0.254111 0.000000 0.000000
# 5 0.000000 0.000000 0.000000 0.000000 0.042870 0.000000
# 6 0.000000 0.000000 0.000000 0.000000 0.000000 0.049166
#
#
# Mechanical properties :
#
#
# Convention : Reuss Voigt Hill
#
# Bulk Modulus (GPa) = 36.45296 76.34045 56.39671
# Shear Modulus (GPa) = -113.23685 18.64808 -47.29438
#
# Velocity S-wave (km/s) = -8.05722 3.26971 -5.20711
# Velocity P-wave (km/s) = 8.10308 7.61713 1.95438
#
# Compressibility (1/GPa) = 0.02743262
#
# Stress axis : x y z
#
# Youngs Moduli (GPa) = 73.05957 23.14576 89.19000
#
# Poissons Ratio (x) = 0.18720 0.52514
# Poissons Ratio (y) = 0.59090 0.56723
# Poissons Ratio (z) = 0.43016 0.14720
#
# Static dielectric constant tensor:
#      x y z
#    x 3.571990 0.000000 0.000000 
#    y 0.000000 2.918290 0.000000 
#    z 0.000000 0.000000 3.460380 
# 
# 
# High freq. dielectric constant tensor:
#      x y z
#    x 1.681270 0.000000 0.000000 
#    y 0.000000 1.636720 0.000000 
#    z 0.000000 0.000000 1.681710 
# 
# From -- ./inp_files/3987.got.cif
#   From: 2010.03.12/outbox.cif.g09.slc.cpg/sg25_2_cif.got.tgz:3987.got - 2010.04.14 03:30:10.
