data_PCOD8166143
_publ_section_title
;
Structure prediction by ZEFSAII (Michael W. Deem and Ramdas Pophale) SiO2 
 PCOD8166143
Probable space group: I 21 21 21
;
_chemical_formula_sum "Si O2"
_cell_formula_units_Z 40
_cell_length_a 11.387801
_cell_length_b 8.288611
_cell_length_c 18.748376
_cell_angle_alpha 90.000000
_cell_angle_beta 90.000000
_cell_angle_gamma 90.000000
_cell_volume 1769.641449
_symmetry_space_group_name_H-M "I 21 21 21"
_symmetry_group_IT_number 24
_symmetry_cell_setting 'orthorhombic'
loop_
_space_group_symop_operation_xyz
x,y,z
-x,1/2-y,z
x,-y,1/2-z
1/2-x,y,-z
1/2+x,1/2+y,1/2+z
1/2-x,-y,1/2+z
1/2+x,1/2-y,-z
-x,1/2+y,1/2-z
loop_
_atom_site_type_symbol
_atom_site_label
_atom_site_fract_x
_atom_site_fract_y
_atom_site_fract_z
Si Si1 0.948597 0.918481 0.676326
Si Si2 0.414168 0.904181 0.061573
Si Si3 0.775849 0.901935 0.421335
Si Si4 0.973159 0.061480 0.327102
Si Si5 0.165891 0.970987 0.420953
O O1 0.835940 0.921539 0.627431
O O2 0.000000 0.750000 0.700229
O O3 0.914415 0.000000 0.750000
O O4 0.051821 0.996376 0.630932
O O5 0.500000 0.750000 0.060457
O O6 0.271773 0.895918 0.074660
O O7 0.427478 0.991699 0.985005
O O8 0.750000 0.975694 0.500000
O O9 0.796413 0.712406 0.430317
O O10 0.879172 0.005657 0.385821
O O11 0.000000 0.250000 0.328725
O O12 0.931733 0.000000 0.250000
O O13 0.098142 0.980902 0.346145
#
# Coordination Sequence:
#
# PCOD8166143 Si02
#       5
#     8   8   8   8   8
#     4  12  25  45  70 108 150 199 252 311 386 454
#     4  11  24  45  73 109 149 194 252 308 379 450
#     4  12  24  48  79 108 149 201 255 313 382 458
#     4  12  28  49  74 109 151 198 252 313 385 459
#     4  11  23  47  75 107 149 196 253 312 378 451
#
# _framework density 22.603449000000001
#
# number of rings (size 3 to 8) (size 9 to 14) (size 15 to 20)
#    0.000    0.400    4.000    4.800    2.800    0.800 
#    3.600    1.000    0.000    0.000    0.000    0.000 
#    0.000    0.000    0.000    0.000    0.000    0.000 
#
# Total GULP energy -247791.075181 kJ/mol
# GULP energy per Si atom -12389.553759 kJ/mol
# Density = 2.255200 g / cm^3
# Si number density = 22.603449 Si / 1000 Ang^3
#
#
#
# Elastic Constant Matrix: (Units=GPa)
#
#
# Indices 1 2 3 4 5 6 
#
# 1 116.8938 57.5665 82.9231 0.0000 0.0000 0.0000
# 2 57.5665 84.2908 86.1392 0.0000 0.0000 0.0000
# 3 82.9231 86.1392 176.4339 0.0000 0.0000 0.0000
# 4 0.0000 0.0000 0.0000 46.8471 0.0000 0.0000
# 5 0.0000 0.0000 0.0000 0.0000 88.0281 0.0000
# 6 0.0000 0.0000 0.0000 0.0000 0.0000 9.2325
#
#
#
# Elastic Compliance Matrix: (Units=1/GPa)
#
#
# Indices 1 2 3 4 5 6 
#
# 1 0.014082 -0.005695 -0.003838 0.000000 0.000000 0.000000
# 2 -0.005695 0.025980 -0.010007 0.000000 0.000000 0.000000
# 3 -0.003838 -0.010007 0.012357 0.000000 0.000000 0.000000
# 4 0.000000 0.000000 0.000000 0.021346 0.000000 0.000000
# 5 0.000000 0.000000 0.000000 0.000000 0.011360 0.000000
# 6 0.000000 0.000000 0.000000 0.000000 0.000000 0.108313
#
#
# Mechanical properties :
#
#
# Convention : Reuss Voigt Hill
#
# Bulk Modulus (GPa) = 74.97076 92.31957 83.64517
# Shear Modulus (GPa) = 21.10005 38.88752 29.99378
#
# Velocity S-wave (km/s) = 3.05862 4.15230 3.64669
# Velocity P-wave (km/s) = 6.76117 7.99504 7.40385
#
# Compressibility (1/GPa) = 0.01333853
#
# Stress axis : x y z
#
# Youngs Moduli (GPa) = 71.01209 38.49105 80.92258
#
# Poissons Ratio (x) = 0.21922 0.31058
# Poissons Ratio (y) = 0.40443 0.80982
# Poissons Ratio (z) = 0.27254 0.38519
#
# Static dielectric constant tensor:
#      x y z
#    x 3.649520 0.000000 0.000000 
#    y 0.000000 4.259670 0.000000 
#    z 0.000000 0.000000 4.283590 
# 
# 
# High freq. dielectric constant tensor:
#      x y z
#    x 1.906210 0.000000 0.000000 
#    y 0.000000 1.886450 0.000000 
#    z 0.000000 0.000000 1.911150 
# 
# From -- ./inp_files/30051.got.cif
#   From: 2010.03.12/outbox.cif.g09.slc.cpg/sg24_16_cif.got.tgz:30051.got - 2010.04.14 03:06:53.
