data_PCOD8166259
_publ_section_title
;
Structure prediction by ZEFSAII (Michael W. Deem and Ramdas Pophale) SiO2 
 PCOD8166259
Probable space group: I 21 21 21
;
_chemical_formula_sum "Si O2"
_cell_formula_units_Z 48
_cell_length_a 14.828967
_cell_length_b 18.247013
_cell_length_c 8.962924
_cell_angle_alpha 90.000000
_cell_angle_beta 90.000000
_cell_angle_gamma 90.000000
_cell_volume 2425.226997
_symmetry_space_group_name_H-M "I 21 21 21"
_symmetry_group_IT_number 24
_symmetry_cell_setting 'orthorhombic'
loop_
_space_group_symop_operation_xyz
x,y,z
-x,1/2-y,z
x,-y,1/2-z
1/2-x,y,-z
1/2+x,1/2+y,1/2+z
1/2-x,-y,1/2+z
1/2+x,1/2-y,-z
-x,1/2+y,1/2-z
loop_
_atom_site_type_symbol
_atom_site_label
_atom_site_fract_x
_atom_site_fract_y
_atom_site_fract_z
Si Si1 0.854167 0.813882 0.329384
Si Si2 0.645833 0.186118 0.170616
Si Si3 0.017032 0.575034 0.175198
Si Si4 0.517032 0.924966 0.175198
Si Si5 0.147186 0.144428 0.827344
Si Si6 0.647186 0.644428 0.672656
O O1 0.750000 0.833326 0.302321
O O2 0.881420 0.830908 0.500000
O O3 0.914323 0.861098 0.219043
O O4 0.872728 0.729230 0.292957
O O5 0.585677 0.138902 0.280958
O O6 0.627272 0.270769 0.207044
O O7 0.049989 0.500000 0.250000
O O8 0.916037 0.594082 0.226721
O O9 0.018003 0.564478 1.000000
O O10 0.416037 0.905917 0.226721
O O11 0.549988 0.000000 0.250000
O O12 0.250000 0.125143 0.786822
O O13 0.127529 0.127592 1.000000
#
# Coordination Sequence:
#
# PCOD8166259 Si02
#       6
#     8   8   8   8   8   8
#     4   9  19  38  63  87 112 145 184 227 277 333
#     4   9  19  38  63  87 112 145 184 227 277 333
#     4  12  25  38  55  81 115 153 189 230 279 330
#     4  12  25  38  55  81 115 153 189 230 279 330
#     4   9  19  38  63  87 112 145 184 227 277 333
#     4   9  19  38  63  87 112 145 184 227 277 333
#
# _framework density 19.791961000000001
#
# number of rings (size 3 to 8) (size 9 to 14) (size 15 to 20)
#    0.000    2.000    0.000    6.000    0.000    8.000 
#    0.000    3.333    0.000    0.000    0.000    0.000 
#    0.000    0.000    0.000    0.000    0.000    0.000 
#
# Total GULP energy -297709.818675 kJ/mol
# GULP energy per Si atom -12404.575778 kJ/mol
# Density = 1.974691 g / cm^3
# Si number density = 19.791961 Si / 1000 Ang^3
#
#
#
# Elastic Constant Matrix: (Units=GPa)
#
#
# Indices 1 2 3 4 5 6 
#
# 1 61.1386 13.0339 28.7259 0.0000 0.0000 0.0000
# 2 13.0339 43.8683 31.0046 0.0000 0.0000 0.0000
# 3 28.7259 31.0046 116.4453 0.0000 0.0000 0.0000
# 4 0.0000 0.0000 0.0000 35.1931 0.0000 0.0000
# 5 0.0000 0.0000 0.0000 0.0000 33.8935 0.0000
# 6 0.0000 0.0000 0.0000 0.0000 0.0000 12.6068
#
#
#
# Elastic Compliance Matrix: (Units=1/GPa)
#
#
# Indices 1 2 3 4 5 6 
#
# 1 0.018784 -0.002840 -0.003877 0.000000 0.000000 0.000000
# 2 -0.002840 0.028509 -0.006890 0.000000 0.000000 0.000000
# 3 -0.003877 -0.006890 0.011379 0.000000 0.000000 0.000000
# 4 0.000000 0.000000 0.000000 0.028415 0.000000 0.000000
# 5 0.000000 0.000000 0.000000 0.000000 0.029504 0.000000
# 6 0.000000 0.000000 0.000000 0.000000 0.000000 0.079322
#
#
# Mechanical properties :
#
#
# Convention : Reuss Voigt Hill
#
# Bulk Modulus (GPa) = 31.79086 40.77567 36.28326
# Shear Modulus (GPa) = 21.40283 26.25119 23.82701
#
# Velocity S-wave (km/s) = 3.29202 3.64587 3.47345
# Velocity P-wave (km/s) = 5.52695 6.19435 5.87015
#
# Compressibility (1/GPa) = 0.03145558
#
# Stress axis : x y z
#
# Youngs Moduli (GPa) = 53.23784 35.07646 87.88274
#
# Poissons Ratio (x) = 0.09963 0.34076
# Poissons Ratio (y) = 0.15122 0.60552
# Poissons Ratio (z) = 0.20643 0.24168
#
# Static dielectric constant tensor:
#      x y z
#    x 3.655340 0.000000 0.000000 
#    y 0.000000 3.550580 0.000000 
#    z 0.000000 0.000000 3.406440 
# 
# 
# High freq. dielectric constant tensor:
#      x y z
#    x 1.783060 0.000000 0.000000 
#    y 0.000000 1.771710 0.000000 
#    z 0.000000 0.000000 1.760500 
# 
# From -- ./inp_files/12788.got.cif
#   From: 2010.03.12/outbox.cif.g09.slc.cpg/sg24_7_cif.got.tgz:12788.got - 2010.04.14 03:06:53.
