data_PCOD8166594
_publ_section_title
;
Structure prediction by ZEFSAII (Michael W. Deem and Ramdas Pophale) SiO2 
 PCOD8166594
Probable space group: P M M 2
;
_chemical_formula_sum "Si O2"
_cell_formula_units_Z 28
_cell_length_a 9.167077
_cell_length_b 9.811954
_cell_length_c 18.066951
_cell_angle_alpha 90.000000
_cell_angle_beta 90.000000
_cell_angle_gamma 90.000000
_cell_volume 1625.066919
_symmetry_space_group_name_H-M "P M M 2"
_symmetry_group_IT_number 25
_symmetry_cell_setting 'orthorhombic'
loop_
_space_group_symop_operation_xyz
x,y,z
-x,-y,z
-x,y,z
x,-y,z
loop_
_atom_site_type_symbol
_atom_site_label
_atom_site_fract_x
_atom_site_fract_y
_atom_site_fract_z
Si Si1 0.336014 0.337280 0.950840
Si Si2 0.164177 0.338086 0.808847
Si Si3 0.168745 0.840554 0.545271
Si Si4 0.825891 0.348344 0.253606
Si Si5 0.328680 0.342138 0.662114
Si Si6 0.172779 0.150228 0.378121
Si Si7 0.162480 0.337613 0.091149
O O1 0.500000 0.281484 0.944347
O O2 0.334207 0.500000 0.950579
O O3 0.243902 0.279758 0.881680
O O4 0.267521 0.280386 0.027120
O O5 0.161921 0.500000 0.812598
O O6 0.251094 0.289436 0.736579
O O7 0.000000 0.279563 0.805814
O O8 0.272194 0.748853 0.595153
O O9 0.211583 0.802609 0.461088
O O10 0.000000 0.804794 0.561105
O O11 0.197299 0.000000 0.560514
O O12 0.763344 0.500000 0.266803
O O13 0.759028 0.252770 0.317714
O O14 0.779020 0.292416 0.172345
O O15 0.000000 0.352123 0.257007
O O16 0.500000 0.321033 0.672255
O O17 0.290533 0.500000 0.646177
O O18 0.000000 0.144759 0.369674
O O19 0.237835 0.000000 0.363133
O O20 0.156735 0.500000 0.089286
O O21 0.000000 0.279629 0.076897
#
# Coordination Sequence:
#
# PCOD8166594 Si02
#       7
#     4   4   4   4   4   4   4
#     4   9  15  22  34  54  82 114 144 175 215 261
#     4   9  16  26  41  61  86 116 148 182 222 266
#     4   9  18  32  49  69  92 119 154 193 230 273
#     4   8  13  21  35  57  83 110 142 179 217 258
#     4  10  20  32  46  67  95 123 152 188 230 276
#     4   8  14  25  41  62  87 112 141 181 224 262
#     4   8  13  21  33  51  77 108 141 175 210 252
#
# _framework density 17.230058
#
# number of rings (size 3 to 8) (size 9 to 14) (size 15 to 20)
#    0.000    3.286    0.000    3.000    0.000    5.143 
#    0.000    1.429    0.000    0.857    0.000    3.000 
#    0.000    5.714    0.000    0.000    0.000    0.000 
#
# Total GULP energy -347046.039686 kJ/mol
# GULP energy per Si atom -12394.501417 kJ/mol
# Density = 1.719084 g / cm^3
# Si number density = 17.230058 Si / 1000 Ang^3
#
#
#
# Elastic Constant Matrix: (Units=GPa)
#
#
# Indices 1 2 3 4 5 6 
#
# 1 90.2463 27.8170 66.3732 0.0000 0.0000 0.0000
# 2 27.8170 40.8577 53.2343 0.0000 0.0000 0.0000
# 3 66.3732 53.2343 169.0750 0.0000 0.0000 0.0000
# 4 0.0000 0.0000 0.0000 2.0217 0.0000 0.0000
# 5 0.0000 0.0000 0.0000 0.0000 8.7627 0.0000
# 6 0.0000 0.0000 0.0000 0.0000 0.0000 12.8459
#
#
#
# Elastic Compliance Matrix: (Units=1/GPa)
#
#
# Indices 1 2 3 4 5 6 
#
# 1 0.016076 -0.004616 -0.004858 0.000000 0.000000 0.000000
# 2 -0.004616 0.042825 -0.011672 0.000000 0.000000 0.000000
# 3 -0.004858 -0.011672 0.011496 0.000000 0.000000 0.000000
# 4 0.000000 0.000000 0.000000 0.494623 0.000000 0.000000
# 5 0.000000 0.000000 0.000000 0.000000 0.114120 0.000000
# 6 0.000000 0.000000 0.000000 0.000000 0.000000 0.077846
#
#
# Mechanical properties :
#
#
# Convention : Reuss Voigt Hill
#
# Bulk Modulus (GPa) = 35.57819 66.11422 50.84621
# Shear Modulus (GPa) = 6.18317 14.90971 10.54644
#
# Velocity S-wave (km/s) = 1.89641 2.94484 2.47674
# Velocity P-wave (km/s) = 5.04866 7.07231 6.14437
#
# Compressibility (1/GPa) = 0.02810711
#
# Stress axis : x y z
#
# Youngs Moduli (GPa) = 62.20368 23.35076 86.98420
#
# Poissons Ratio (x) = 0.10779 0.42253
# Poissons Ratio (y) = 0.28714 1.01525
# Poissons Ratio (z) = 0.30216 0.27254
#
# Static dielectric constant tensor:
#      x y z
#    x 3.042650 0.000000 0.000000 
#    y 0.000000 2.903990 0.000000 
#    z 0.000000 0.000000 3.519050 
# 
# 
# High freq. dielectric constant tensor:
#      x y z
#    x 1.640140 0.000000 0.000000 
#    y 0.000000 1.609380 0.000000 
#    z 0.000000 0.000000 1.683170 
# 
# From -- ./inp_files/6244.got.cif
#   From: 2010.03.12/outbox.cif.g09.slc.cpg/sg25_4_cif.got.tgz:6244.got - 2010.04.14 03:30:10.
