data_PCOD8166401
_publ_section_title
;
Structure prediction by ZEFSAII (Michael W. Deem and Ramdas Pophale) SiO2 
 PCOD8166401
Probable space group: P M M 2
;
_chemical_formula_sum "Si O2"
_cell_formula_units_Z 28
_cell_length_a 9.165987
_cell_length_b 19.541885
_cell_length_c 7.658234
_cell_angle_alpha 90.000000
_cell_angle_beta 90.000000
_cell_angle_gamma 90.000000
_cell_volume 1371.747958
_symmetry_space_group_name_H-M "P M M 2"
_symmetry_group_IT_number 25
_symmetry_cell_setting 'orthorhombic'
loop_
_space_group_symop_operation_xyz
x,y,z
-x,-y,z
-x,y,z
x,-y,z
loop_
_atom_site_type_symbol
_atom_site_label
_atom_site_fract_x
_atom_site_fract_y
_atom_site_fract_z
Si Si1 0.333258 0.420385 0.065140
Si Si2 0.172910 0.648037 0.752675
Si Si3 0.335886 0.075372 0.288461
Si Si4 0.672581 0.662156 0.409555
Si Si5 0.831519 0.204871 0.887072
Si Si6 0.664323 0.074391 0.873599
Si Si7 0.170412 0.794068 0.293440
O O1 0.500000 0.402042 0.015381
O O2 0.315061 0.500000 0.104795
O O3 0.284723 0.380729 0.238905
O O4 0.227375 0.399941 0.908381
O O5 0.253677 0.624877 0.575637
O O6 0.218132 0.726525 0.789863
O O7 0.000000 0.639136 0.734252
O O8 0.500000 0.093144 0.350069
O O9 0.223920 0.131790 0.362187
O O10 0.290701 0.000000 0.358861
O O11 0.329312 0.075259 0.080996
O O12 0.500000 0.666390 0.436766
O O13 0.740260 0.737494 0.397766
O O14 0.753969 0.138954 0.800257
O O15 0.000000 0.190680 0.861860
O O16 0.792451 0.214345 0.089858
O O17 0.500000 0.082904 0.806000
O O18 0.725337 0.000000 0.808842
O O19 0.000000 0.785509 0.334626
#
# Coordination Sequence:
#
# PCOD8166401 Si02
#       7
#     4   4   4   4   4   4   4
#     4  10  23  44  68  93 122 156 195 240 289 348
#     4  11  23  40  62  91 126 159 198 245 296 354
#     4   8  14  25  42  69 106 147 193 244 297 355
#     4  11  23  39  62  91 122 160 203 245 296 352
#     4   9  18  31  50  77 111 151 193 240 293 349
#     4   8  14  24  41  69 104 143 190 241 290 344
#     4  10  18  31  52  79 113 153 198 248 300 354
#
# _framework density 20.411912000000001
#
# number of rings (size 3 to 8) (size 9 to 14) (size 15 to 20)
#    0.000    2.429    1.429    2.143    0.000    3.714 
#    0.000    4.286    0.000    0.857    0.000    4.000 
#    0.000    0.000    0.000    0.000    0.000    0.000 
#
# Total GULP energy -347152.792709 kJ/mol
# GULP energy per Si atom -12398.314025 kJ/mol
# Density = 2.036545 g / cm^3
# Si number density = 20.411912 Si / 1000 Ang^3
#
#
#
# Elastic Constant Matrix: (Units=GPa)
#
#
# Indices 1 2 3 4 5 6 
#
# 1 86.3051 42.4478 40.7697 0.0000 0.0000 0.0000
# 2 42.4478 96.9149 34.0331 0.0000 0.0000 0.0000
# 3 40.7697 34.0331 79.8539 0.0000 0.0000 0.0000
# 4 0.0000 0.0000 0.0000 1.6285 0.0000 0.0000
# 5 0.0000 0.0000 0.0000 0.0000 24.5676 0.0000
# 6 0.0000 0.0000 0.0000 0.0000 0.0000 31.3602
#
#
#
# Elastic Compliance Matrix: (Units=1/GPa)
#
#
# Indices 1 2 3 4 5 6 
#
# 1 0.017282 -0.005258 -0.006583 0.000000 0.000000 0.000000
# 2 -0.005258 0.013734 -0.003169 0.000000 0.000000 0.000000
# 3 -0.006583 -0.003169 0.017234 0.000000 0.000000 0.000000
# 4 0.000000 0.000000 0.000000 0.614063 0.000000 0.000000
# 5 0.000000 0.000000 0.000000 0.000000 0.040704 0.000000
# 6 0.000000 0.000000 0.000000 0.000000 0.000000 0.031888
#
#
# Mechanical properties :
#
#
# Convention : Reuss Voigt Hill
#
# Bulk Modulus (GPa) = 54.84961 55.28612 55.06787
# Shear Modulus (GPa) = 6.48507 21.23282 13.85894
#
# Velocity S-wave (km/s) = 1.78438 3.22874 2.60852
# Velocity P-wave (km/s) = 5.58346 6.40654 6.00911
#
# Compressibility (1/GPa) = 0.01823167
#
# Stress axis : x y z
#
# Youngs Moduli (GPa) = 57.86213 72.81174 58.02390
#
# Poissons Ratio (x) = 0.38284 0.38196
# Poissons Ratio (y) = 0.30423 0.18387
# Poissons Ratio (z) = 0.38089 0.23073
#
# Static dielectric constant tensor:
#      x y z
#    x 3.679840 0.000000 0.000000 
#    y 0.000000 3.953860 0.000000 
#    z 0.000000 0.000000 3.533400 
# 
# 
# High freq. dielectric constant tensor:
#      x y z
#    x 1.791370 0.000000 0.000000 
#    y 0.000000 1.801600 0.000000 
#    z 0.000000 0.000000 1.780930 
# 
# From -- ./inp_files/2226.got.cif
#   From: 2010.03.12/outbox.cif.g09.slc.cpg/sg25_2_cif.got.tgz:2226.got - 2010.04.14 03:30:10.
