data_PCOD8166004
_publ_section_title
;
Structure prediction by ZEFSAII (Michael W. Deem and Ramdas Pophale) SiO2 
 PCOD8166004
Probable space group: I 21 21 21
;
_chemical_formula_sum "Si O2"
_cell_formula_units_Z 40
_cell_length_a 26.946466
_cell_length_b 12.987590
_cell_length_c 5.221824
_cell_angle_alpha 90.000000
_cell_angle_beta 90.000000
_cell_angle_gamma 90.000000
_cell_volume 1827.479930
_symmetry_space_group_name_H-M "I 21 21 21"
_symmetry_group_IT_number 24
_symmetry_cell_setting 'orthorhombic'
loop_
_space_group_symop_operation_xyz
x,y,z
-x,1/2-y,z
x,-y,1/2-z
1/2-x,y,-z
1/2+x,1/2+y,1/2+z
1/2-x,-y,1/2+z
1/2+x,1/2-y,-z
-x,1/2+y,1/2-z
loop_
_atom_site_type_symbol
_atom_site_label
_atom_site_fract_x
_atom_site_fract_y
_atom_site_fract_z
Si Si1 0.008104 0.500000 0.250000
Si Si2 0.891180 0.778275 0.743125
Si Si3 0.851583 0.500000 0.250000
Si Si4 0.207723 0.000000 0.750000
Si Si5 0.724496 0.275730 0.254572
Si Si6 0.574695 0.000000 0.250000
Si Si7 0.072954 0.173396 0.268336
O O1 0.040526 0.496819 0.502162
O O2 0.976802 0.393897 0.244860
O O3 0.834770 0.737981 0.759637
O O4 0.889285 0.901661 0.734098
O O5 0.918828 0.735942 0.492151
O O6 0.925773 0.748314 0.985982
O O7 0.822495 0.530213 0.500944
O O8 0.882390 0.401800 0.330577
O O9 0.240188 0.103155 0.716541
O O10 0.750000 0.220082 0.500000
O O11 0.750000 0.228880 0.000000
#
# Coordination Sequence:
#
# PCOD8166004 Si02
#       7
#     4   8   4   4   8   4   8
#     4  11  26  44  69 109 130 163 216 271 326 404
#     4  12  25  45  68  92 132 182 216 269 332 378
#     4  11  18  35  60  94 127 163 206 232 310 413
#     4  12  20  36  59  94 134 166 192 257 327 393
#     4  12  24  40  62  97 133 169 220 269 322 394
#     4  12  28  47  66  95 131 168 236 284 313 364
#     4  11  22  41  70  96 133 173 205 256 331 411
#
# _framework density 21.888065999999998
#
# number of rings (size 3 to 8) (size 9 to 14) (size 15 to 20)
#    0.000    0.400    4.000    5.400    0.000    8.000 
#    0.000    1.000    0.000    0.000    0.000    0.000 
#    0.000    0.000    0.000    0.000    0.000    0.000 
#
# Total GULP energy -247924.858879 kJ/mol
# GULP energy per Si atom -12396.242944 kJ/mol
# Density = 2.183825 g / cm^3
# Si number density = 21.888066 Si / 1000 Ang^3
#
#
#
# Elastic Constant Matrix: (Units=GPa)
#
#
# Indices 1 2 3 4 5 6 
#
# 1 76.5751 22.8488 54.4185 0.0000 -0.0001 0.0000
# 2 22.8488 116.5662 36.4422 0.0000 -0.0001 0.0000
# 3 54.4185 36.4422 193.3245 0.0000 -0.0004 0.0000
# 4 0.0000 0.0000 0.0000 13.0004 0.0001 0.0000
# 5 -0.0001 -0.0001 -0.0004 0.0001 5.2931 -0.0001
# 6 0.0000 0.0000 0.0000 0.0000 -0.0001 21.0013
#
#
#
# Elastic Compliance Matrix: (Units=1/GPa)
#
#
# Indices 1 2 3 4 5 6 
#
# 1 0.016719 -0.001919 -0.004344 0.000000 0.000000 0.000000
# 2 -0.001919 0.009336 -0.001220 0.000000 0.000000 0.000000
# 3 -0.004344 -0.001220 0.006625 0.000000 0.000000 0.000000
# 4 0.000000 0.000000 0.000000 0.076921 -0.000001 0.000000
# 5 0.000000 0.000000 0.000000 -0.000001 0.188925 0.000001
# 6 0.000000 0.000000 0.000000 0.000000 0.000001 0.047616
#
#
# Mechanical properties :
#
#
# Convention : Reuss Voigt Hill
#
# Bulk Modulus (GPa) = 56.45108 68.20943 62.33025
# Shear Modulus (GPa) = 13.62345 26.04272 19.83309
#
# Velocity S-wave (km/s) = 2.49753 3.45311 3.01344
# Velocity P-wave (km/s) = 5.84497 6.86506 6.37545
#
# Compressibility (1/GPa) = 0.01771445
#
# Stress axis : x y z
#
# Youngs Moduli (GPa) = 59.81179 107.10885 150.93214
#
# Poissons Ratio (x) = 0.20554 0.65572
# Poissons Ratio (y) = 0.11478 0.18410
# Poissons Ratio (z) = 0.25985 0.13065
#
# Static dielectric constant tensor:
#      x y z
#    x 3.831440 0.000000 0.000000 
#    y 0.000000 12.317360 0.000000 
#    z 0.000000 0.000000 4.243720 
# 
# 
# High freq. dielectric constant tensor:
#      x y z
#    x 1.856250 0.000000 0.000000 
#    y 0.000000 1.843550 0.000000 
#    z 0.000000 0.000000 1.897100 
# 
# From -- ./inp_files/6963.got.cif
#   From: 2010.03.12/outbox.cif.g09.slc.cpg/sg24_4_cif.got.tgz:6963.got - 2010.04.14 03:06:53.
