data_PCOD8166182
_publ_section_title
;
Structure prediction by ZEFSAII (Michael W. Deem and Ramdas Pophale) SiO2 
 PCOD8166182
Probable space group: I 21 21 21
;
_chemical_formula_sum "Si O2"
_cell_formula_units_Z 48
_cell_length_a 29.838908
_cell_length_b 7.818727
_cell_length_c 8.781095
_cell_angle_alpha 90.000000
_cell_angle_beta 90.000000
_cell_angle_gamma 90.000000
_cell_volume 2048.649446
_symmetry_space_group_name_H-M "I 21 21 21"
_symmetry_group_IT_number 24
_symmetry_cell_setting 'orthorhombic'
loop_
_space_group_symop_operation_xyz
x,y,z
-x,1/2-y,z
x,-y,1/2-z
1/2-x,y,-z
1/2+x,1/2+y,1/2+z
1/2-x,-y,1/2+z
1/2+x,1/2-y,-z
-x,1/2+y,1/2-z
loop_
_atom_site_type_symbol
_atom_site_label
_atom_site_fract_x
_atom_site_fract_y
_atom_site_fract_z
Si Si1 0.136743 0.955303 0.579042
Si Si2 0.601962 0.000000 0.250000
Si Si3 0.308722 0.500000 0.750000
Si Si4 0.869462 0.190600 0.479541
Si Si5 0.952395 0.700920 0.207072
Si Si6 0.788144 0.351833 0.120859
Si Si7 0.051223 0.741073 0.542006
O O1 0.166731 0.820572 0.483182
O O2 0.083548 0.905392 0.577614
O O3 0.152274 0.000000 0.750000
O O4 0.149980 0.119444 0.476775
O O5 0.630746 0.140687 0.340118
O O6 0.572042 0.077553 0.118862
O O7 0.339871 0.443157 0.610764
O O8 0.279274 0.664967 0.698872
O O9 0.918581 0.215926 0.410594
O O10 0.946316 0.500000 0.250000
O O11 0.948229 0.803138 0.364728
O O12 0.000000 0.750000 0.133078
O O13 0.790930 0.500000 0.250000
O O14 0.750000 0.400295 0.000000
O O15 0.000000 0.750000 0.602481
#
# Coordination Sequence:
#
# PCOD8166182 Si02
#       7
#     8   4   4   8   8   8   8
#     4  12  24  48  76 108 150 204 252 319 390 460
#     4  12  26  40  63 102 144 194 250 326 373 444
#     4  12  28  50  83 114 154 200 250 306 385 476
#     4  12  25  44  75 103 146 194 255 311 378 453
#     4  11  25  42  66  96 139 199 259 321 381 451
#     4  12  28  55  84 121 156 201 252 315 389 468
#     4  11  26  42  66 102 145 198 261 320 385 458
#
# _framework density 23.430071000000002
#
# number of rings (size 3 to 8) (size 9 to 14) (size 15 to 20)
#    0.000    0.333    5.000    3.500    7.000    1.333 
#    3.000    0.000    0.000    0.000    0.000    0.000 
#    0.000    0.000    0.000    0.000    0.000    0.000 
#
# Total GULP energy -297325.809705 kJ/mol
# GULP energy per Si atom -12388.575404 kJ/mol
# Density = 2.337674 g / cm^3
# Si number density = 23.430071 Si / 1000 Ang^3
#
#
#
# Elastic Constant Matrix: (Units=GPa)
#
#
# Indices 1 2 3 4 5 6 
#
# 1 88.8534 20.6730 40.1841 0.0000 0.0000 0.0000
# 2 20.6730 118.6370 30.2865 0.0000 0.0000 0.0000
# 3 40.1841 30.2865 115.3798 0.0000 0.0000 0.0000
# 4 0.0000 0.0000 0.0000 40.1966 0.0000 0.0000
# 5 0.0000 0.0000 0.0000 0.0000 45.9940 0.0000
# 6 0.0000 0.0000 0.0000 0.0000 0.0000 22.1725
#
#
#
# Elastic Compliance Matrix: (Units=1/GPa)
#
#
# Indices 1 2 3 4 5 6 
#
# 1 0.013526 -0.001237 -0.004386 0.000000 0.000000 0.000000
# 2 -0.001237 0.009148 -0.001970 0.000000 0.000000 0.000000
# 3 -0.004386 -0.001970 0.010712 0.000000 0.000000 0.000000
# 4 0.000000 0.000000 0.000000 0.024878 0.000000 0.000000
# 5 0.000000 0.000000 0.000000 0.000000 0.021742 0.000000
# 6 0.000000 0.000000 0.000000 0.000000 0.000000 0.045101
#
#
# Mechanical properties :
#
#
# Convention : Reuss Voigt Hill
#
# Bulk Modulus (GPa) = 54.95034 56.12860 55.53947
# Shear Modulus (GPa) = 34.16254 37.12107 35.64180
#
# Velocity S-wave (km/s) = 3.82260 3.98469 3.90449
# Velocity P-wave (km/s) = 6.55644 6.72147 6.63947
#
# Compressibility (1/GPa) = 0.01819825
#
# Stress axis : x y z
#
# Youngs Moduli (GPa) = 73.93207 109.31754 93.35531
#
# Poissons Ratio (x) = 0.13525 0.40946
# Poissons Ratio (y) = 0.09147 0.18394
# Poissons Ratio (z) = 0.32427 0.21539
#
# Static dielectric constant tensor:
#      x y z
#    x 4.057730 0.000000 0.000000 
#    y 0.000000 4.362060 0.000000 
#    z 0.000000 0.000000 4.366660 
# 
# 
# High freq. dielectric constant tensor:
#      x y z
#    x 1.902430 0.000000 0.000000 
#    y 0.000000 1.941060 0.000000 
#    z 0.000000 0.000000 1.943460 
# 
# From -- ./inp_files/16882.got.cif
#   From: 2010.03.12/outbox.cif.g09.slc.cpg/sg24_9_cif.got.tgz:16882.got - 2010.04.14 03:06:53.
