data_PCOD8166507
_publ_section_title
;
Structure prediction by ZEFSAII (Michael W. Deem and Ramdas Pophale) SiO2 
 PCOD8166507
Probable space group: P M M 2
;
_chemical_formula_sum "Si O2"
_cell_formula_units_Z 32
_cell_length_a 9.463670
_cell_length_b 16.483365
_cell_length_c 11.322996
_cell_angle_alpha 90.000000
_cell_angle_beta 90.000000
_cell_angle_gamma 90.000000
_cell_volume 1766.309551
_symmetry_space_group_name_H-M "P M M 2"
_symmetry_group_IT_number 25
_symmetry_cell_setting 'orthorhombic'
loop_
_space_group_symop_operation_xyz
x,y,z
-x,-y,z
-x,y,z
x,-y,z
loop_
_atom_site_type_symbol
_atom_site_label
_atom_site_fract_x
_atom_site_fract_y
_atom_site_fract_z
Si Si1 0.832500 0.589980 0.615830
Si Si2 0.167376 0.091056 0.634443
Si Si3 0.154864 0.407448 0.881035
Si Si4 0.154658 0.909427 0.139280
Si Si5 0.662153 0.289875 0.000200
Si Si6 0.163046 0.150450 0.887917
Si Si7 0.831233 0.752205 0.483040
Si Si8 0.662835 0.218367 0.252150
O O1 0.776831 0.500000 0.571439
O O2 0.782991 0.604638 0.749679
O O3 0.778224 0.668423 0.543720
O O4 0.000000 0.587122 0.611864
O O5 0.218537 0.107693 0.768631
O O6 0.220748 0.165504 0.551083
O O7 0.000000 0.089698 0.629756
O O8 0.222990 0.000000 0.596696
O O9 0.134513 0.500000 0.911595
O O10 0.000000 0.364874 0.893504
O O11 0.268891 0.376341 0.975138
O O12 0.278060 0.868841 0.214255
O O13 0.000000 0.868612 0.163494
O O14 0.151201 0.000000 0.185889
O O15 0.184484 0.909529 0.998847
O O16 0.500000 0.286482 0.963143
O O17 0.682156 0.275692 0.139062
O O18 0.745534 0.229589 0.913782
O O19 0.000000 0.176052 0.871477
O O20 0.756433 0.747167 0.357196
O O21 0.000000 0.753433 0.468637
O O22 0.500000 0.210056 0.290646
#
# Coordination Sequence:
#
# PCOD8166507 Si02
#       8
#     4   4   4   4   4   4   4   4
#     4   8  15  30  53  80 105 127 157 201 253 305
#     4   9  17  29  48  76 105 130 160 202 254 308
#     4   9  17  31  54  82 107 128 153 191 242 302
#     4   9  17  30  51  77  99 122 160 209 253 295
#     4  10  20  33  49  70  99 134 167 202 247 295
#     4   9  16  29  51  75  99 127 159 199 249 303
#     4  10  19  32  52  74  97 131 172 212 250 289
#     4  10  22  37  49  65  95 135 173 207 246 292
#
# _framework density 18.116869000000001
#
# number of rings (size 3 to 8) (size 9 to 14) (size 15 to 20)
#    0.000    2.750    0.000    2.625    0.000    6.000 
#    0.000    4.375    0.000    5.250    0.000    0.000 
#    0.000    0.000    0.000    0.000    0.000    0.000 
#
# Total GULP energy -396489.308927 kJ/mol
# GULP energy per Si atom -12390.290904 kJ/mol
# Density = 1.807563 g / cm^3
# Si number density = 18.116869 Si / 1000 Ang^3
#
#
#
# Elastic Constant Matrix: (Units=GPa)
#
#
# Indices 1 2 3 4 5 6 
#
# 1 66.9727 41.3369 43.5051 0.0000 0.0000 0.0000
# 2 41.3369 114.5774 59.5824 0.0000 0.0000 0.0000
# 3 43.5051 59.5824 79.2235 0.0000 0.0000 0.0000
# 4 0.0000 0.0000 0.0000 13.9639 0.0000 0.0000
# 5 0.0000 0.0000 0.0000 0.0000 18.4091 0.0000
# 6 0.0000 0.0000 0.0000 0.0000 0.0000 11.4116
#
#
#
# Elastic Compliance Matrix: (Units=1/GPa)
#
#
# Indices 1 2 3 4 5 6 
#
# 1 0.023799 -0.002940 -0.010858 0.000000 0.000000 0.000000
# 2 -0.002940 0.014697 -0.009439 0.000000 0.000000 0.000000
# 3 -0.010858 -0.009439 0.025684 0.000000 0.000000 0.000000
# 4 0.000000 0.000000 0.000000 0.071613 0.000000 0.000000
# 5 0.000000 0.000000 0.000000 0.000000 0.054321 0.000000
# 6 0.000000 0.000000 0.000000 0.000000 0.000000 0.087630
#
#
# Mechanical properties :
#
#
# Convention : Reuss Voigt Hill
#
# Bulk Modulus (GPa) = 56.47675 61.06917 58.77296
# Shear Modulus (GPa) = 15.14599 16.51354 15.82976
#
# Velocity S-wave (km/s) = 2.89453 3.02238 2.95915
# Velocity P-wave (km/s) = 6.51247 6.77948 6.64732
#
# Compressibility (1/GPa) = 0.01770640
#
# Stress axis : x y z
#
# Youngs Moduli (GPa) = 42.01769 68.04291 38.93465
#
# Poissons Ratio (x) = 0.20003 0.42277
# Poissons Ratio (y) = 0.12352 0.36749
# Poissons Ratio (z) = 0.45625 0.64224
#
# Static dielectric constant tensor:
#      x y z
#    x 3.229730 0.000000 0.000000 
#    y 0.000000 3.619450 0.000000 
#    z 0.000000 0.000000 3.309380 
# 
# 
# High freq. dielectric constant tensor:
#      x y z
#    x 1.669010 0.000000 0.000000 
#    y 0.000000 1.704400 0.000000 
#    z 0.000000 0.000000 1.692890 
# 
# From -- ./inp_files/4416.got.cif
#   From: 2010.03.12/outbox.cif.g09.slc.cpg/sg25_3_cif.got.tgz:4416.got - 2010.04.14 03:30:10.
