data_PCOD8166172
_publ_section_title
;
Structure prediction by ZEFSAII (Michael W. Deem and Ramdas Pophale) SiO2 
 PCOD8166172
Probable space group: I 21 21 21
;
_chemical_formula_sum "Si O2"
_cell_formula_units_Z 40
_cell_length_a 15.182071
_cell_length_b 14.640563
_cell_length_c 7.759648
_cell_angle_alpha 90.000000
_cell_angle_beta 90.000000
_cell_angle_gamma 90.000000
_cell_volume 1724.768519
_symmetry_space_group_name_H-M "I 21 21 21"
_symmetry_group_IT_number 24
_symmetry_cell_setting 'orthorhombic'
loop_
_space_group_symop_operation_xyz
x,y,z
-x,1/2-y,z
x,-y,1/2-z
1/2-x,y,-z
1/2+x,1/2+y,1/2+z
1/2-x,-y,1/2+z
1/2+x,1/2-y,-z
-x,1/2+y,1/2-z
loop_
_atom_site_type_symbol
_atom_site_label
_atom_site_fract_x
_atom_site_fract_y
_atom_site_fract_z
Si Si1 0.588807 0.619906 0.859340
Si Si2 0.266484 0.770017 0.692304
Si Si3 0.164244 0.574466 0.394236
Si Si4 0.578435 0.307729 0.278477
Si Si5 0.972942 0.572700 0.482856
O O1 0.687689 0.653210 0.811381
O O2 0.532989 0.640311 0.684815
O O3 0.581557 0.515319 0.919735
O O4 0.552743 0.674464 0.023792
O O5 0.250000 0.808297 0.500000
O O6 0.321650 0.675507 0.686156
O O7 0.170133 0.752789 0.773463
O O8 0.146902 0.500000 0.250000
O O9 0.250000 0.545484 0.500000
O O10 0.078019 0.565561 0.517755
O O11 0.500000 0.250000 0.194072
O O12 0.578779 0.396743 0.155010
#
# Coordination Sequence:
#
# PCOD8166172 Si02
#       5
#     8   8   8   8   8
#     4  11  25  46  74 106 139 196 243 294 370 431
#     4  11  24  47  71 107 145 191 241 301 369 432
#     4  11  25  45  74 105 146 196 236 304 365 438
#     4  12  26  44  75 110 144 193 243 301 363 442
#     4  11  25  50  70 105 149 190 238 309 368 428
#
# _framework density 23.191519
#
# number of rings (size 3 to 8) (size 9 to 14) (size 15 to 20)
#    0.000    0.800    4.000    3.600    2.800    4.800 
#   14.400    0.000    0.000    0.000    0.000    0.000 
#    0.000    0.000    0.000    0.000    0.000    0.000 
#
# Total GULP energy -247818.622467 kJ/mol
# GULP energy per Si atom -12390.931123 kJ/mol
# Density = 2.313873 g / cm^3
# Si number density = 23.191519 Si / 1000 Ang^3
#
#
#
# Elastic Constant Matrix: (Units=GPa)
#
#
# Indices 1 2 3 4 5 6 
#
# 1 137.9143 57.1057 15.6391 0.0000 0.0000 0.0000
# 2 57.1057 95.4313 24.0078 0.0000 0.0000 0.0000
# 3 15.6391 24.0078 125.2523 0.0000 0.0000 0.0000
# 4 0.0000 0.0000 0.0000 22.3020 0.0000 0.0000
# 5 0.0000 0.0000 0.0000 0.0000 36.8131 0.0000
# 6 0.0000 0.0000 0.0000 0.0000 0.0000 29.2037
#
#
#
# Elastic Compliance Matrix: (Units=1/GPa)
#
#
# Indices 1 2 3 4 5 6 
#
# 1 0.009641 -0.005743 -0.000103 0.000000 0.000000 0.000000
# 2 -0.005743 0.014431 -0.002049 0.000000 0.000000 0.000000
# 3 -0.000103 -0.002049 0.008389 0.000000 0.000000 0.000000
# 4 0.000000 0.000000 0.000000 0.044839 0.000000 0.000000
# 5 0.000000 0.000000 0.000000 0.000000 0.027164 0.000000
# 6 0.000000 0.000000 0.000000 0.000000 0.000000 0.034242
#
#
# Mechanical properties :
#
#
# Convention : Reuss Voigt Hill
#
# Bulk Modulus (GPa) = 59.98416 61.34476 60.66446
# Shear Modulus (GPa) = 31.23966 35.12011 33.17988
#
# Velocity S-wave (km/s) = 3.67417 3.89569 3.78655
# Velocity P-wave (km/s) = 6.62723 6.83696 6.73291
#
# Compressibility (1/GPa) = 0.01667107
#
# Stress axis : x y z
#
# Youngs Moduli (GPa) = 103.72887 69.29644 119.19698
#
# Poissons Ratio (x) = 0.39797 0.01227
# Poissons Ratio (y) = 0.59571 0.24423
# Poissons Ratio (z) = 0.01068 0.14199
#
# Static dielectric constant tensor:
#      x y z
#    x 4.194230 0.000000 0.000000 
#    y 0.000000 4.029430 0.000000 
#    z 0.000000 0.000000 4.453510 
# 
# 
# High freq. dielectric constant tensor:
#      x y z
#    x 1.921910 0.000000 0.000000 
#    y 0.000000 1.900670 0.000000 
#    z 0.000000 0.000000 1.927560 
# 
# From -- ./inp_files/12296.got.cif
#   From: 2010.03.12/outbox.cif.g09.slc.cpg/sg24_7_cif.got.tgz:12296.got - 2010.04.14 03:06:53.
