data_PCOD8166064
_publ_section_title
;
Structure prediction by ZEFSAII (Michael W. Deem and Ramdas Pophale) SiO2 
 PCOD8166064
Probable space group: I 21 21 21
;
_chemical_formula_sum "Si O2"
_cell_formula_units_Z 40
_cell_length_a 18.510923
_cell_length_b 11.596623
_cell_length_c 8.144861
_cell_angle_alpha 90.000000
_cell_angle_beta 90.000000
_cell_angle_gamma 90.000000
_cell_volume 1748.410033
_symmetry_space_group_name_H-M "I 21 21 21"
_symmetry_group_IT_number 24
_symmetry_cell_setting 'orthorhombic'
loop_
_space_group_symop_operation_xyz
x,y,z
-x,1/2-y,z
x,-y,1/2-z
1/2-x,y,-z
1/2+x,1/2+y,1/2+z
1/2-x,-y,1/2+z
1/2+x,1/2-y,-z
-x,1/2+y,1/2-z
loop_
_atom_site_type_symbol
_atom_site_label
_atom_site_fract_x
_atom_site_fract_y
_atom_site_fract_z
Si Si1 0.672941 0.838437 0.930371
Si Si2 0.570774 0.670578 0.105687
Si Si3 0.175484 0.753732 0.431704
Si Si4 0.440585 0.914709 0.466897
Si Si5 0.401263 0.449649 0.066674
O O1 0.683405 0.805436 0.743103
O O2 0.750000 0.875667 0.000000
O O3 0.641166 0.734208 0.037637
O O4 0.620298 0.948464 0.943417
O O5 0.500000 0.750000 0.084242
O O6 0.585058 0.634325 0.291929
O O7 0.563315 0.551917 0.005870
O O8 0.250000 0.809161 0.500000
O O9 0.113763 0.851511 0.408082
O O10 0.156340 0.653514 0.564085
O O11 0.525107 0.886602 0.493773
O O12 0.412128 0.500000 0.250000
#
# Coordination Sequence:
#
# PCOD8166064 Si02
#       5
#     8   8   8   8   8
#     4  12  26  45  70 101 142 186 234 294 351 410
#     4  11  21  43  71 104 136 184 231 278 347 420
#     4  12  27  45  67 104 145 184 236 287 351 417
#     4  11  23  42  73 102 140 183 228 285 346 419
#     4  12  22  45  73 104 138 184 235 287 353 414
#
# _framework density 22.877927
#
# number of rings (size 3 to 8) (size 9 to 14) (size 15 to 20)
#    0.000    0.400    4.000    6.600    0.000    3.200 
#    3.600    0.000    0.000    0.000    0.000    0.000 
#    0.000    0.000    0.000    0.000    0.000    0.000 
#
# Total GULP energy -248013.309376 kJ/mol
# GULP energy per Si atom -12400.665469 kJ/mol
# Density = 2.282586 g / cm^3
# Si number density = 22.877927 Si / 1000 Ang^3
#
#
#
# Elastic Constant Matrix: (Units=GPa)
#
#
# Indices 1 2 3 4 5 6 
#
# 1 143.6438 44.3170 55.8277 0.0000 0.0000 0.0000
# 2 44.3170 121.8921 35.6885 0.0000 0.0000 0.0000
# 3 55.8277 35.6885 64.0732 0.0000 0.0000 0.0000
# 4 0.0000 0.0000 0.0000 23.1515 0.0000 0.0000
# 5 0.0000 0.0000 0.0000 0.0000 35.4787 0.0000
# 6 0.0000 0.0000 0.0000 0.0000 0.0000 41.8875
#
#
#
# Elastic Compliance Matrix: (Units=1/GPa)
#
#
# Indices 1 2 3 4 5 6 
#
# 1 0.010720 -0.001389 -0.008566 0.000000 0.000000 0.000000
# 2 -0.001389 0.009983 -0.004350 0.000000 0.000000 0.000000
# 3 -0.008566 -0.004350 0.025494 0.000000 0.000000 0.000000
# 4 0.000000 0.000000 0.000000 0.043194 0.000000 0.000000
# 5 0.000000 0.000000 0.000000 0.000000 0.028186 0.000000
# 6 0.000000 0.000000 0.000000 0.000000 0.000000 0.023873
#
#
# Mechanical properties :
#
#
# Convention : Reuss Voigt Hill
#
# Bulk Modulus (GPa) = 56.86537 66.80839 61.83688
# Shear Modulus (GPa) = 28.42173 33.02195 30.72184
#
# Velocity S-wave (km/s) = 3.52848 3.80333 3.66848
# Velocity P-wave (km/s) = 6.44284 6.96797 6.71054
#
# Compressibility (1/GPa) = 0.01758539
#
# Stress axis : x y z
#
# Youngs Moduli (GPa) = 93.28699 100.17378 39.22512
#
# Poissons Ratio (x) = 0.13917 0.33601
# Poissons Ratio (y) = 0.12960 0.17062
# Poissons Ratio (z) = 0.79912 0.43574
#
# Static dielectric constant tensor:
#      x y z
#    x 4.269720 0.000000 0.000000 
#    y 0.000000 4.432720 0.000000 
#    z 0.000000 0.000000 3.882010 
# 
# 
# High freq. dielectric constant tensor:
#      x y z
#    x 1.909800 0.000000 0.000000 
#    y 0.000000 1.916710 0.000000 
#    z 0.000000 0.000000 1.884670 
# 
# From -- ./inp_files/10719.got.cif
#   From: 2010.03.12/outbox.cif.g09.slc.cpg/sg24_6_cif.got.tgz:10719.got - 2010.04.14 03:06:53.
