data_PCOD8166111
_publ_section_title
;
Structure prediction by ZEFSAII (Michael W. Deem and Ramdas Pophale) SiO2 
 PCOD8166111
Probable space group: I 21 21 21
;
_chemical_formula_sum "Si O2"
_cell_formula_units_Z 32
_cell_length_a 19.912456
_cell_length_b 8.074281
_cell_length_c 9.571619
_cell_angle_alpha 90.000000
_cell_angle_beta 90.000000
_cell_angle_gamma 90.000000
_cell_volume 1538.913083
_symmetry_space_group_name_H-M "I 21 21 21"
_symmetry_group_IT_number 24
_symmetry_cell_setting 'orthorhombic'
loop_
_space_group_symop_operation_xyz
x,y,z
-x,1/2-y,z
x,-y,1/2-z
1/2-x,y,-z
1/2+x,1/2+y,1/2+z
1/2-x,-y,1/2+z
1/2+x,1/2-y,-z
-x,1/2+y,1/2-z
loop_
_atom_site_type_symbol
_atom_site_label
_atom_site_fract_x
_atom_site_fract_y
_atom_site_fract_z
Si Si1 0.571998 0.314218 0.800897
Si Si2 0.836959 0.816488 0.079000
Si Si3 0.202854 0.813618 0.799324
Si Si4 0.826014 0.191412 0.981629
O O1 0.500000 0.250000 0.851404
O O2 0.567826 0.500000 0.750000
O O3 0.595853 0.203015 0.669309
O O4 0.623108 0.303708 0.930189
O O5 0.774621 0.777174 0.181301
O O6 0.837043 0.692424 0.946305
O O7 0.832600 0.001901 0.024353
O O8 0.159062 0.715231 0.683380
O O9 0.214812 0.000000 0.750000
O O10 0.750000 0.258331 0.000000
#
# Coordination Sequence:
#
# PCOD8166111 Si02
#       4
#     8   8   8   8
#     4  12  26  46  69  97 136 180 225 272 336 406
#     4  11  23  39  62  96 134 172 219 271 331 395
#     4  11  23  37  60  97 131 166 217 278 328 380
#     4  12  23  39  66  97 135 173 223 275 332 391
#
# _framework density 20.793897999999999
#
# number of rings (size 3 to 8) (size 9 to 14) (size 15 to 20)
#    0.000    0.500    5.000    5.250    3.500    0.000 
#    0.000    1.250    0.000    0.000    0.000    0.000 
#    0.000    0.000    0.000    0.000    0.000    0.000 
#
# Total GULP energy -198451.773715 kJ/mol
# GULP energy per Si atom -12403.235857 kJ/mol
# Density = 2.074657 g / cm^3
# Si number density = 20.793898 Si / 1000 Ang^3
#
#
#
# Elastic Constant Matrix: (Units=GPa)
#
#
# Indices 1 2 3 4 5 6 
#
# 1 114.8481 33.7087 61.5734 0.0000 0.0000 0.0000
# 2 33.7087 127.1632 51.1859 0.0000 0.0000 0.0000
# 3 61.5734 51.1859 140.3520 0.0000 0.0000 0.0000
# 4 0.0000 0.0000 0.0000 35.2048 0.0000 0.0000
# 5 0.0000 0.0000 0.0000 0.0000 33.9143 0.0000
# 6 0.0000 0.0000 0.0000 0.0000 0.0000 27.1023
#
#
#
# Elastic Compliance Matrix: (Units=1/GPa)
#
#
# Indices 1 2 3 4 5 6 
#
# 1 0.011538 -0.001197 -0.004625 0.000000 0.000000 0.000000
# 2 -0.001197 0.009341 -0.002882 0.000000 0.000000 0.000000
# 3 -0.004625 -0.002882 0.010205 0.000000 0.000000 0.000000
# 4 0.000000 0.000000 0.000000 0.028405 0.000000 0.000000
# 5 0.000000 0.000000 0.000000 0.000000 0.029486 0.000000
# 6 0.000000 0.000000 0.000000 0.000000 0.000000 0.036897
#
#
# Mechanical properties :
#
#
# Convention : Reuss Voigt Hill
#
# Bulk Modulus (GPa) = 73.11693 75.03326 74.07510
# Shear Modulus (GPa) = 33.82046 34.97064 34.39555
#
# Velocity S-wave (km/s) = 4.03732 4.10539 4.07150
# Velocity P-wave (km/s) = 7.54800 7.65735 7.60287
#
# Compressibility (1/GPa) = 0.01367672
#
# Stress axis : x y z
#
# Youngs Moduli (GPa) = 86.66825 107.05420 97.99032
#
# Poissons Ratio (x) = 0.12812 0.45325
# Poissons Ratio (y) = 0.10372 0.28237
# Poissons Ratio (z) = 0.40088 0.30849
#
# Static dielectric constant tensor:
#      x y z
#    x 3.968610 0.000000 0.000000 
#    y 0.000000 3.792390 0.000000 
#    z 0.000000 0.000000 4.407010 
# 
# 
# High freq. dielectric constant tensor:
#      x y z
#    x 1.773250 0.000000 0.000000 
#    y 0.000000 1.829110 0.000000 
#    z 0.000000 0.000000 1.835900 
# 
# From -- ./inp_files/14754.got.cif
#   From: 2010.03.12/outbox.cif.g09.slc.cpg/sg24_8_cif.got.tgz:14754.got - 2010.04.14 03:06:53.
