data_PCOD8166720
_publ_section_title
;
Structure prediction by ZEFSAII (Michael W. Deem and Ramdas Pophale) SiO2 
 PCOD8166720
Probable space group: P M M 2
;
_chemical_formula_sum "Si O2"
_cell_formula_units_Z 24
_cell_length_a 9.635777
_cell_length_b 13.980573
_cell_length_c 10.181346
_cell_angle_alpha 90.000000
_cell_angle_beta 90.000000
_cell_angle_gamma 90.000000
_cell_volume 1371.566625
_symmetry_space_group_name_H-M "P M M 2"
_symmetry_group_IT_number 25
_symmetry_cell_setting 'orthorhombic'
loop_
_space_group_symop_operation_xyz
x,y,z
-x,-y,z
-x,y,z
x,-y,z
loop_
_atom_site_type_symbol
_atom_site_label
_atom_site_fract_x
_atom_site_fract_y
_atom_site_fract_z
Si Si1 0.159223 0.106494 0.711490
Si Si2 0.342394 0.611306 0.615841
Si Si3 0.161977 0.611081 0.112127
Si Si4 0.160961 0.701275 0.840269
Si Si5 0.340793 0.893527 0.459707
Si Si6 0.659703 0.701973 0.340017
O O1 0.188400 0.184737 0.824793
O O2 0.250174 0.132744 0.585815
O O3 0.000000 0.111420 0.665672
O O4 0.195704 0.000000 0.765344
O O5 0.500000 0.637901 0.654007
O O6 0.324534 0.500000 0.589845
O O7 0.243813 0.642086 0.733095
O O8 0.297932 0.663584 0.482705
O O9 0.198578 0.500000 0.092298
O O10 0.244213 0.652890 0.234048
O O11 0.000000 0.625958 0.139980
O O12 0.211009 0.669096 0.983842
O O13 0.000000 0.675448 0.821053
O O14 0.500000 0.886793 0.506256
O O15 0.313746 0.816864 0.343636
O O16 0.304871 0.000000 0.406633
O O17 0.500000 0.677520 0.306927
#
# Coordination Sequence:
#
# PCOD8166720 Si02
#       6
#     4   4   4   4   4   4
#     4   9  17  30  51  79 107 134 166 207 256 308
#     4  10  20  33  51  77 105 130 167 219 265 308
#     4  10  22  38  53  72 103 142 180 216 257 307
#     4  10  20  35  54  76 104 137 173 214 258 307
#     4   9  17  31  53  79 106 135 166 206 257 308
#     4  10  20  35  54  77 105 136 172 214 259 308
#
# _framework density 17.498239000000002
#
# number of rings (size 3 to 8) (size 9 to 14) (size 15 to 20)
#    0.000    2.333    1.667    1.000    0.000    4.000 
#    0.000    0.833    0.000    1.000    0.000    0.000 
#    0.000    0.000    0.000    0.000    0.000    0.000 
#
# Total GULP energy -297578.132635 kJ/mol
# GULP energy per Si atom -12399.088860 kJ/mol
# Density = 1.745841 g / cm^3
# Si number density = 17.498239 Si / 1000 Ang^3
#
#
#
# Elastic Constant Matrix: (Units=GPa)
#
#
# Indices 1 2 3 4 5 6 
#
# 1 57.4211 40.8956 49.6021 0.0000 0.0000 0.0000
# 2 40.8956 108.8354 48.0585 0.0000 0.0000 0.0000
# 3 49.6021 48.0585 84.9551 0.0000 0.0000 0.0000
# 4 0.0000 0.0000 0.0000 30.3272 0.0000 0.0000
# 5 0.0000 0.0000 0.0000 0.0000 41.4835 0.0000
# 6 0.0000 0.0000 0.0000 0.0000 0.0000 8.1962
#
#
#
# Elastic Compliance Matrix: (Units=1/GPa)
#
#
# Indices 1 2 3 4 5 6 
#
# 1 0.037818 -0.005945 -0.018717 0.000000 0.000000 0.000000
# 2 -0.005945 0.013182 -0.003986 0.000000 0.000000 0.000000
# 3 -0.018717 -0.003986 0.024954 0.000000 0.000000 0.000000
# 4 0.000000 0.000000 0.000000 0.032974 0.000000 0.000000
# 5 0.000000 0.000000 0.000000 0.000000 0.024106 0.000000
# 6 0.000000 0.000000 0.000000 0.000000 0.000000 0.122008
#
#
# Mechanical properties :
#
#
# Convention : Reuss Voigt Hill
#
# Bulk Modulus (GPa) = 53.59823 58.70266 56.15044
# Shear Modulus (GPa) = 15.69573 23.51174 19.60373
#
# Velocity S-wave (km/s) = 2.99823 3.66958 3.35076
# Velocity P-wave (km/s) = 6.53322 7.18157 6.86505
#
# Compressibility (1/GPa) = 0.01865733
#
# Stress axis : x y z
#
# Youngs Moduli (GPa) = 26.44231 75.85971 40.07375
#
# Poissons Ratio (x) = 0.45102 0.75007
# Poissons Ratio (y) = 0.15721 0.15973
# Poissons Ratio (z) = 0.49493 0.30236
#
# Static dielectric constant tensor:
#      x y z
#    x 3.270700 0.000000 0.000000 
#    y 0.000000 3.663070 0.000000 
#    z 0.000000 0.000000 3.026340 
# 
# 
# High freq. dielectric constant tensor:
#      x y z
#    x 1.676530 0.000000 0.000000 
#    y 0.000000 1.699310 0.000000 
#    z 0.000000 0.000000 1.648080 
# 
# From -- ./inp_files/1989.got.cif
#   From: 2010.03.12/outbox.cif.g09.slc.cpg/sg25_1_cif.got.tgz:1989.got - 2010.04.14 03:30:10.
