data_PCOD8166975
_publ_section_title
;
Structure prediction by ZEFSAII (Michael W. Deem and Ramdas Pophale) SiO2 
 PCOD8166975
Probable space group: P M M 2
;
_chemical_formula_sum "Si O2"
_cell_formula_units_Z 20
_cell_length_a 9.278261
_cell_length_b 7.450929
_cell_length_c 14.585537
_cell_angle_alpha 90.000000
_cell_angle_beta 90.000000
_cell_angle_gamma 90.000000
_cell_volume 1008.322442
_symmetry_space_group_name_H-M "P M M 2"
_symmetry_group_IT_number 25
_symmetry_cell_setting 'orthorhombic'
loop_
_space_group_symop_operation_xyz
x,y,z
-x,-y,z
-x,y,z
x,-y,z
loop_
_atom_site_type_symbol
_atom_site_label
_atom_site_fract_x
_atom_site_fract_y
_atom_site_fract_z
Si Si1 0.331541 0.791275 0.254710
Si Si2 0.827993 0.500000 0.139630
Si Si3 0.838907 0.786349 0.629000
Si Si4 0.666388 0.500000 0.952213
Si Si5 0.340746 0.787188 0.460228
Si Si6 0.666167 0.795427 0.804810
O O1 0.500000 0.750565 0.236848
O O2 0.232883 0.678504 0.186784
O O3 0.288966 0.733754 0.358282
O O4 0.298662 0.000000 0.237271
O O5 0.000000 0.500000 0.143935
O O6 0.776388 0.500000 0.035363
O O7 0.765600 0.707058 0.537030
O O8 0.755582 0.719244 0.718950
O O9 0.000000 0.709930 0.633272
O O10 0.836740 0.000000 0.625445
O O11 0.500000 0.500000 0.985809
O O12 0.699887 0.677333 0.893482
O O13 0.500000 0.708396 0.478203
O O14 0.347342 0.000000 0.467005
O O15 0.500000 0.780551 0.776116
O O16 0.709040 0.000000 0.828576
#
# Coordination Sequence:
#
# PCOD8166975 Si02
#       6
#     4   2   4   2   4   4
#     4   9  19  38  63  86 110 147 194 238 277 323
#     4  12  26  40  57  84 117 148 179 228 294 352
#     4   9  16  26  45  76 112 146 175 208 258 321
#     4  10  22  40  59  78 101 134 183 234 276 326
#     4   8  14  27  50  79 108 140 180 223 264 309
#     4   9  18  34  56  79 103 135 177 224 269 314
#
# _framework density 19.834924999999998
#
# number of rings (size 3 to 8) (size 9 to 14) (size 15 to 20)
#    0.000    2.800    0.000    2.700    0.000    5.200 
#    0.000    5.000    0.000    2.400    0.000    0.000 
#    0.000    0.000    0.000    0.000    0.000    0.000 
#
# Total GULP energy -247965.915233 kJ/mol
# GULP energy per Si atom -12398.295762 kJ/mol
# Density = 1.978978 g / cm^3
# Si number density = 19.834925 Si / 1000 Ang^3
#
#
#
# Elastic Constant Matrix: (Units=GPa)
#
#
# Indices 1 2 3 4 5 6 
#
# 1 137.8291 45.4114 98.2918 0.0000 0.0000 0.0000
# 2 45.4114 78.4940 52.1667 0.0000 0.0000 0.0000
# 3 98.2918 52.1667 160.6094 0.0000 0.0000 0.0000
# 4 0.0000 0.0000 0.0000 109.7534 0.0000 0.0000
# 5 0.0000 0.0000 0.0000 0.0000 18.0789 0.0000
# 6 0.0000 0.0000 0.0000 0.0000 0.0000 14.3205
#
#
#
# Elastic Compliance Matrix: (Units=1/GPa)
#
#
# Indices 1 2 3 4 5 6 
#
# 1 0.013383 -0.002932 -0.007238 0.000000 0.000000 0.000000
# 2 -0.002932 0.016889 -0.003691 0.000000 0.000000 0.000000
# 3 -0.007238 -0.003691 0.011855 0.000000 0.000000 0.000000
# 4 0.000000 0.000000 0.000000 0.009111 0.000000 0.000000
# 5 0.000000 0.000000 0.000000 0.000000 0.055313 0.000000
# 6 0.000000 0.000000 0.000000 0.000000 0.000000 0.069830
#
#
# Mechanical properties :
#
#
# Convention : Reuss Voigt Hill
#
# Bulk Modulus (GPa) = 69.42319 85.40804 77.41561
# Shear Modulus (GPa) = 23.93414 40.50138 32.21776
#
# Velocity S-wave (km/s) = 3.47748 4.52367 4.03463
# Velocity P-wave (km/s) = 7.15544 8.39271 7.79865
#
# Compressibility (1/GPa) = 0.01440441
#
# Stress axis : x y z
#
# Youngs Moduli (GPa) = 74.72041 59.20866 84.35382
#
# Poissons Ratio (x) = 0.17362 0.61055
# Poissons Ratio (y) = 0.21910 0.31137
# Poissons Ratio (z) = 0.54083 0.21855
#
# Static dielectric constant tensor:
#      x y z
#    x 3.680490 0.000000 0.000000 
#    y 0.000000 3.443580 0.000000 
#    z 0.000000 0.000000 3.638220 
# 
# 
# High freq. dielectric constant tensor:
#      x y z
#    x 1.760970 0.000000 0.000000 
#    y 0.000000 1.765320 0.000000 
#    z 0.000000 0.000000 1.773080 
# 
# From -- ./inp_files/5174.got.cif
#   From: 2010.03.12/outbox.cif.g09.slc.cpg/sg25_3_cif.got.tgz:5174.got - 2010.04.14 03:30:10.
