data_PCOD8166352
_publ_section_title
;
Structure prediction by ZEFSAII (Michael W. Deem and Ramdas Pophale) SiO2 
 PCOD8166352
Probable space group: P M M 2
;
_chemical_formula_sum "Si O2"
_cell_formula_units_Z 32
_cell_length_a 14.114000
_cell_length_b 9.069034
_cell_length_c 15.630359
_cell_angle_alpha 90.000000
_cell_angle_beta 90.000000
_cell_angle_gamma 90.000000
_cell_volume 2000.691358
_symmetry_space_group_name_H-M "P M M 2"
_symmetry_group_IT_number 25
_symmetry_cell_setting 'orthorhombic'
loop_
_space_group_symop_operation_xyz
x,y,z
-x,-y,z
-x,y,z
x,-y,z
loop_
_atom_site_type_symbol
_atom_site_label
_atom_site_fract_x
_atom_site_fract_y
_atom_site_fract_z
Si Si1 0.605565 0.175743 0.897340
Si Si2 0.612871 0.163976 0.083916
Si Si3 0.718206 0.674982 0.416264
Si Si4 0.607426 0.673575 0.249465
Si Si5 0.610158 0.170310 0.567930
Si Si6 0.725765 0.172499 0.738099
Si Si7 0.107487 0.827777 0.481008
Si Si8 0.107658 0.670522 0.659789
O O1 0.500000 0.239878 0.881050
O O2 0.675021 0.233041 0.823425
O O3 0.599796 0.000000 0.895582
O O4 0.645066 0.226358 0.990796
O O5 0.500000 0.161766 0.083625
O O6 0.651643 0.263391 0.161537
O O7 0.653323 0.000000 0.098183
O O8 0.727503 0.500000 0.420200
O O9 0.668103 0.729532 0.329643
O O10 0.657286 0.728153 0.496582
O O11 0.822482 0.747444 0.415139
O O12 0.500000 0.730172 0.262940
O O13 0.610313 0.500000 0.242220
O O14 0.500000 0.210271 0.574932
O O15 0.657230 0.206100 0.658704
O O16 0.625471 0.000000 0.542730
O O17 0.823225 0.263689 0.731519
O O18 0.749730 0.000000 0.744774
O O19 0.126294 0.761741 0.574074
O O20 0.000000 0.798812 0.450637
O O21 0.131251 0.000000 0.485522
O O22 0.130857 0.500000 0.641537
O O23 0.000000 0.690587 0.691827
#
# Coordination Sequence:
#
# PCOD8166352 Si02
#       8
#     4   4   4   4   4   4   4   4
#     4   8  14  26  45  69  96 123 152 187 227 271
#     4   8  14  26  45  67  89 117 154 193 229 265
#     4  11  21  32  47  67  93 125 157 190 231 276
#     4   9  18  31  45  64  93 126 156 187 226 270
#     4  10  20  31  43  63  93 128 162 190 219 262
#     4  10  18  29  47  69  93 123 156 190 228 271
#     4  10  20  34  51  69  89 115 151 195 238 278
#     4  10  20  33  48  66  90 120 153 192 236 276
#
# _framework density 15.994472
#
# number of rings (size 3 to 8) (size 9 to 14) (size 15 to 20)
#    0.000    2.500    1.250    2.625    0.000    4.750 
#    0.000    1.875    0.000    1.875    0.000    0.875 
#    0.000    1.000    0.000    0.000    0.000    0.000 
#
# Total GULP energy -396743.502734 kJ/mol
# GULP energy per Si atom -12398.234460 kJ/mol
# Density = 1.595807 g / cm^3
# Si number density = 15.994472 Si / 1000 Ang^3
#
#
#
# Elastic Constant Matrix: (Units=GPa)
#
#
# Indices 1 2 3 4 5 6 
#
# 1 98.0502 40.1105 59.3564 0.0000 0.0000 0.0000
# 2 40.1105 56.7829 44.4603 0.0000 0.0000 0.0000
# 3 59.3564 44.4603 132.2035 0.0000 0.0000 0.0000
# 4 0.0000 0.0000 0.0000 10.3527 0.0000 0.0000
# 5 0.0000 0.0000 0.0000 0.0000 12.4411 0.0000
# 6 0.0000 0.0000 0.0000 0.0000 0.0000 23.9945
#
#
#
# Elastic Compliance Matrix: (Units=1/GPa)
#
#
# Indices 1 2 3 4 5 6 
#
# 1 0.016209 -0.007807 -0.004652 0.000000 0.000000 0.000000
# 2 -0.007807 0.027666 -0.005799 0.000000 0.000000 0.000000
# 3 -0.004652 -0.005799 0.011603 0.000000 0.000000 0.000000
# 4 0.000000 0.000000 0.000000 0.096593 0.000000 0.000000
# 5 0.000000 0.000000 0.000000 0.000000 0.080379 0.000000
# 6 0.000000 0.000000 0.000000 0.000000 0.000000 0.041676
#
#
# Mechanical properties :
#
#
# Convention : Reuss Voigt Hill
#
# Bulk Modulus (GPa) = 52.73728 63.87679 58.30703
# Shear Modulus (GPa) = 15.77474 18.89829 17.33651
#
# Velocity S-wave (km/s) = 3.14389 3.44110 3.29585
# Velocity P-wave (km/s) = 6.79871 7.47072 7.14263
#
# Compressibility (1/GPa) = 0.01896192
#
# Stress axis : x y z
#
# Youngs Moduli (GPa) = 61.69536 36.14489 86.18593
#
# Poissons Ratio (x) = 0.28219 0.40091
# Poissons Ratio (y) = 0.48168 0.49979
# Poissons Ratio (z) = 0.28699 0.20960
#
# Static dielectric constant tensor:
#      x y z
#    x 3.077750 0.000000 0.000000 
#    y 0.000000 2.966920 0.000000 
#    z 0.000000 0.000000 3.183010 
# 
# 
# High freq. dielectric constant tensor:
#      x y z
#    x 1.598200 0.000000 0.000000 
#    y 0.000000 1.607790 0.000000 
#    z 0.000000 0.000000 1.604540 
# 
# From -- ./inp_files/5690.got.cif
#   From: 2010.03.12/outbox.cif.g09.slc.cpg/sg25_3_cif.got.tgz:5690.got - 2010.04.14 03:30:10.
