data_PCOD8166777
_publ_section_title
;
Structure prediction by ZEFSAII (Michael W. Deem and Ramdas Pophale) SiO2 
 PCOD8166777
Probable space group: P M M 2
;
_chemical_formula_sum "Si O2"
_cell_formula_units_Z 32
_cell_length_a 8.605138
_cell_length_b 14.157483
_cell_length_c 14.111515
_cell_angle_alpha 90.000000
_cell_angle_beta 90.000000
_cell_angle_gamma 90.000000
_cell_volume 1719.164878
_symmetry_space_group_name_H-M "P M M 2"
_symmetry_group_IT_number 25
_symmetry_cell_setting 'orthorhombic'
loop_
_space_group_symop_operation_xyz
x,y,z
-x,-y,z
-x,y,z
x,-y,z
loop_
_atom_site_type_symbol
_atom_site_label
_atom_site_fract_x
_atom_site_fract_y
_atom_site_fract_z
Si Si1 0.682097 0.608150 0.071220
Si Si2 0.682207 0.247023 0.230509
Si Si3 0.816626 0.894546 0.091840
Si Si4 0.817862 0.749474 0.932675
Si Si5 0.318340 0.760004 0.727966
Si Si6 0.316510 0.739755 0.444292
Si Si7 0.817343 0.108642 0.576423
Si Si8 0.182860 0.391662 0.597168
O O1 0.500000 0.619015 0.050009
O O2 0.731645 0.500000 0.084220
O O3 0.729175 0.662228 0.167635
O O4 0.776359 0.650389 0.982558
O O5 0.500000 0.231291 0.231758
O O6 0.756475 0.152238 0.188349
O O7 0.744562 0.262237 0.336602
O O8 0.000000 0.897102 0.096702
O O9 0.747593 0.000000 0.082812
O O10 0.762372 0.834278 0.001076
O O11 0.720674 0.761146 0.837920
O O12 0.000000 0.753008 0.909874
O O13 0.500000 0.775194 0.712064
O O14 0.227681 0.845136 0.676772
O O15 0.268516 0.659787 0.683883
O O16 0.500000 0.724072 0.450880
O O17 0.272526 0.839672 0.491296
O O18 0.231645 0.654257 0.497655
O O19 0.000000 0.120289 0.560203
O O20 0.765824 0.000000 0.577194
O O21 0.235490 0.500000 0.597287
O O22 0.000000 0.380360 0.611665
#
# Coordination Sequence:
#
# PCOD8166777 Si02
#       8
#     4   4   4   4   4   4   4   4
#     4   9  18  34  54  75 102 136 174 215 257 304
#     4   9  19  34  52  77 106 137 172 211 258 306
#     4   9  19  35  54  76 102 135 174 213 254 302
#     4  10  20  35  54  76 105 137 170 212 259 309
#     4  11  22  36  56  80 106 136 172 215 260 310
#     4  10  20  34  54  79 108 140 174 215 260 309
#     4  10  21  37  56  77 104 139 176 215 260 309
#     4  10  21  37  56  78 105 137 174 216 260 308
#
# _framework density 18.613689999999998
#
# number of rings (size 3 to 8) (size 9 to 14) (size 15 to 20)
#    0.000    2.250    0.000    4.125    0.000    6.000 
#    0.000    5.000    0.000    0.000    0.000    0.000 
#    0.000    0.000    0.000    0.000    0.000    0.000 
#
# Total GULP energy -396889.050381 kJ/mol
# GULP energy per Si atom -12402.782824 kJ/mol
# Density = 1.857132 g / cm^3
# Si number density = 18.613690 Si / 1000 Ang^3
#
#
#
# Elastic Constant Matrix: (Units=GPa)
#
#
# Indices 1 2 3 4 5 6 
#
# 1 35.6210 14.9962 11.2214 0.0000 0.0000 0.0000
# 2 14.9962 128.8744 25.6248 0.0000 0.0000 0.0000
# 3 11.2214 25.6248 101.5715 0.0000 0.0000 0.0000
# 4 0.0000 0.0000 0.0000 12.3234 0.0000 0.0000
# 5 0.0000 0.0000 0.0000 0.0000 23.6807 0.0000
# 6 0.0000 0.0000 0.0000 0.0000 0.0000 24.9493
#
#
#
# Elastic Compliance Matrix: (Units=1/GPa)
#
#
# Indices 1 2 3 4 5 6 
#
# 1 0.030146 -0.002996 -0.002575 0.000000 0.000000 0.000000
# 2 -0.002996 0.008467 -0.001805 0.000000 0.000000 0.000000
# 3 -0.002575 -0.001805 0.010585 0.000000 0.000000 0.000000
# 4 0.000000 0.000000 0.000000 0.081147 0.000000 0.000000
# 5 0.000000 0.000000 0.000000 0.000000 0.042228 0.000000
# 6 0.000000 0.000000 0.000000 0.000000 0.000000 0.040081
#
#
# Mechanical properties :
#
#
# Convention : Reuss Voigt Hill
#
# Bulk Modulus (GPa) = 29.03052 41.08352 35.05702
# Shear Modulus (GPa) = 20.93037 26.47233 23.70135
#
# Velocity S-wave (km/s) = 3.35694 3.77529 3.57224
# Velocity P-wave (km/s) = 5.53675 6.41275 5.99078
#
# Compressibility (1/GPa) = 0.03444650
#
# Stress axis : x y z
#
# Youngs Moduli (GPa) = 33.17234 118.10523 94.47222
#
# Poissons Ratio (x) = 0.35383 0.24323
# Poissons Ratio (y) = 0.09938 0.17053
# Poissons Ratio (z) = 0.08541 0.21319
#
# Static dielectric constant tensor:
#      x y z
#    x 3.399090 0.000000 0.000000 
#    y 0.000000 3.616560 0.000000 
#    z 0.000000 0.000000 3.490550 
# 
# 
# High freq. dielectric constant tensor:
#      x y z
#    x 1.726130 0.000000 0.000000 
#    y 0.000000 1.724340 0.000000 
#    z 0.000000 0.000000 1.724630 
# 
# From -- ./inp_files/5704.got.cif
#   From: 2010.03.12/outbox.cif.g09.slc.cpg/sg25_3_cif.got.tgz:5704.got - 2010.04.14 03:30:10.
