data_PCOD8166979
_publ_section_title
;
Structure prediction by ZEFSAII (Michael W. Deem and Ramdas Pophale) SiO2 
 PCOD8166979
Probable space group: P M M 2
;
_chemical_formula_sum "Si O2"
_cell_formula_units_Z 32
_cell_length_a 8.598110
_cell_length_b 15.267225
_cell_length_c 11.782362
_cell_angle_alpha 90.000000
_cell_angle_beta 90.000000
_cell_angle_gamma 90.000000
_cell_volume 1546.662176
_symmetry_space_group_name_H-M "P M M 2"
_symmetry_group_IT_number 25
_symmetry_cell_setting 'orthorhombic'
loop_
_space_group_symop_operation_xyz
x,y,z
-x,-y,z
-x,y,z
x,-y,z
loop_
_atom_site_type_symbol
_atom_site_label
_atom_site_fract_x
_atom_site_fract_y
_atom_site_fract_z
Si Si1 0.320349 0.648112 0.454460
Si Si2 0.822081 0.166494 0.465302
Si Si3 0.679713 0.401036 0.705129
Si Si4 0.321102 0.250825 0.080880
Si Si5 0.178214 0.098909 0.220917
Si Si6 0.321789 0.901555 0.686936
Si Si7 0.177784 0.599022 0.225117
Si Si8 0.820565 0.244573 0.838501
O O1 0.500000 0.629937 0.427046
O O2 0.291878 0.751376 0.459143
O O3 0.271496 0.605761 0.573826
O O4 0.217635 0.603124 0.357925
O O5 0.794166 0.106796 0.355400
O O6 0.783711 0.110322 0.576140
O O7 0.000000 0.199217 0.472053
O O8 0.500000 0.373948 0.719753
O O9 0.709195 0.500000 0.747321
O O10 0.783232 0.336909 0.780066
O O11 0.500000 0.252031 0.043597
O O12 0.289706 0.164184 0.153906
O O13 0.287901 0.336810 0.154952
O O14 0.213892 0.251793 0.970932
O O15 0.000000 0.121808 0.190777
O O16 0.219194 0.000000 0.184383
O O17 0.500000 0.885119 0.652514
O O18 0.277672 0.834390 0.785740
O O19 0.296547 0.000000 0.733456
O O20 0.202534 0.500000 0.181368
O O21 0.000000 0.629155 0.208561
O O22 0.000000 0.222958 0.819760
#
# Coordination Sequence:
#
# PCOD8166979 Si02
#       8
#     4   4   4   4   4   4   4   4
#     4  11  21  36  63  96 131 169 207 251 310 373
#     4  11  21  36  63  96 131 169 207 251 310 373
#     4  10  22  41  65  93 128 167 207 254 308 370
#     4  12  26  44  67  91 122 164 210 263 315 373
#     4  10  22  41  65  93 128 167 207 254 308 370
#     4  11  24  42  65  94 129 167 210 260 312 370
#     4  11  24  42  65  94 129 167 210 260 312 370
#     4  12  26  44  67  91 122 164 210 263 315 373
#
# _framework density 20.689715
#
# number of rings (size 3 to 8) (size 9 to 14) (size 15 to 20)
#    0.000    1.000    2.500    4.500    0.000    5.500 
#    0.000    0.000    0.000    0.000    0.000    0.000 
#    0.000    0.000    0.000    0.000    0.000    0.000 
#
# Total GULP energy -397013.017243 kJ/mol
# GULP energy per Si atom -12406.656789 kJ/mol
# Density = 2.064262 g / cm^3
# Si number density = 20.689715 Si / 1000 Ang^3
#
#
#
# Elastic Constant Matrix: (Units=GPa)
#
#
# Indices 1 2 3 4 5 6 
#
# 1 65.0234 30.6220 20.6438 0.0000 0.0000 0.0000
# 2 30.6220 122.8873 34.2775 0.0000 0.0000 0.0000
# 3 20.6438 34.2775 100.5213 0.0000 0.0000 0.0000
# 4 0.0000 0.0000 0.0000 15.9750 0.0000 0.0000
# 5 0.0000 0.0000 0.0000 0.0000 35.0882 0.0000
# 6 0.0000 0.0000 0.0000 0.0000 0.0000 21.7261
#
#
#
# Elastic Compliance Matrix: (Units=1/GPa)
#
#
# Indices 1 2 3 4 5 6 
#
# 1 0.017927 -0.003802 -0.002385 0.000000 0.000000 0.000000
# 2 -0.003802 0.009799 -0.002561 0.000000 0.000000 0.000000
# 3 -0.002385 -0.002561 0.011311 0.000000 0.000000 0.000000
# 4 0.000000 0.000000 0.000000 0.062598 0.000000 0.000000
# 5 0.000000 0.000000 0.000000 0.000000 0.028500 0.000000
# 6 0.000000 0.000000 0.000000 0.000000 0.000000 0.046028
#
#
# Mechanical properties :
#
#
# Convention : Reuss Voigt Hill
#
# Bulk Modulus (GPa) = 46.42160 51.05763 48.73961
# Shear Modulus (GPa) = 24.89569 28.08378 26.48974
#
# Velocity S-wave (km/s) = 3.47261 3.68826 3.58206
# Velocity P-wave (km/s) = 6.21003 6.54744 6.38097
#
# Compressibility (1/GPa) = 0.02154169
#
# Stress axis : x y z
#
# Youngs Moduli (GPa) = 55.78257 102.04930 88.40814
#
# Poissons Ratio (x) = 0.38797 0.21087
# Poissons Ratio (y) = 0.21208 0.22639
# Poissons Ratio (z) = 0.13305 0.26132
#
# Static dielectric constant tensor:
#      x y z
#    x 3.762720 0.000000 0.000000 
#    y 0.000000 3.793700 0.000000 
#    z 0.000000 0.000000 3.660440 
# 
# 
# High freq. dielectric constant tensor:
#      x y z
#    x 1.812810 0.000000 0.000000 
#    y 0.000000 1.820040 0.000000 
#    z 0.000000 0.000000 1.805250 
# 
# From -- ./inp_files/4214.got.cif
#   From: 2010.03.12/outbox.cif.g09.slc.cpg/sg25_3_cif.got.tgz:4214.got - 2010.04.14 03:30:10.
