data_PCOD8166389
_publ_section_title
;
Structure prediction by ZEFSAII (Michael W. Deem and Ramdas Pophale) SiO2 
 PCOD8166389
Probable space group: P M M 2
;
_chemical_formula_sum "Si O2"
_cell_formula_units_Z 28
_cell_length_a 14.160604
_cell_length_b 8.933115
_cell_length_c 12.858843
_cell_angle_alpha 90.000000
_cell_angle_beta 90.000000
_cell_angle_gamma 90.000000
_cell_volume 1626.621831
_symmetry_space_group_name_H-M "P M M 2"
_symmetry_group_IT_number 25
_symmetry_cell_setting 'orthorhombic'
loop_
_space_group_symop_operation_xyz
x,y,z
-x,-y,z
-x,y,z
x,-y,z
loop_
_atom_site_type_symbol
_atom_site_label
_atom_site_fract_x
_atom_site_fract_y
_atom_site_fract_z
Si Si1 0.274337 0.324318 0.722780
Si Si2 0.283709 0.175893 0.116561
Si Si3 0.892711 0.173094 0.820395
Si Si4 0.388806 0.328646 0.299193
Si Si5 0.604314 0.322904 0.532224
Si Si6 0.893213 0.324142 0.038932
Si Si7 0.609384 0.326289 0.928168
O O1 0.253003 0.500000 0.715221
O O2 0.175760 0.236011 0.731369
O O3 0.323550 0.261165 0.618401
O O4 0.342054 0.286533 0.819264
O O5 0.334281 0.218580 0.223198
O O6 0.179134 0.247727 0.118410
O O7 0.273033 0.000000 0.109446
O O8 0.344131 0.231276 0.019146
O O9 0.000000 0.197453 0.782749
O O10 0.871698 0.000000 0.843295
O O11 0.871012 0.265290 0.924116
O O12 0.500000 0.308623 0.282431
O O13 0.359752 0.500000 0.276037
O O14 0.360123 0.282060 0.416512
O O15 0.500000 0.253872 0.551501
O O16 0.596203 0.500000 0.543459
O O17 0.875951 0.500000 0.038336
O O18 0.000000 0.283228 0.072704
O O19 0.500000 0.282851 0.918825
O O20 0.622392 0.500000 0.956353
#
# Coordination Sequence:
#
# PCOD8166389 Si02
#       7
#     4   4   4   4   4   4   4
#     4  10  18  30  52  78 103 132 168 211 255 301
#     4  12  23  33  49  74 106 138 168 207 255 307
#     4  10  20  33  49  72 104 138 169 204 250 304
#     4   9  18  34  55  75  99 135 178 219 256 297
#     4   8  15  30  53  79 102 129 171 218 257 294
#     4  10  20  35  55  76  98 128 169 213 255 304
#     4  10  20  32  47  71 104 139 170 202 247 302
#
# _framework density 17.213588999999999
#
# number of rings (size 3 to 8) (size 9 to 14) (size 15 to 20)
#    0.000    2.143    1.429    3.857    0.000    5.714 
#    0.000    0.714    0.000    3.000    0.000    2.000 
#    0.000    0.000    0.000    0.000    0.000    0.000 
#
# Total GULP energy -347230.931574 kJ/mol
# GULP energy per Si atom -12401.104699 kJ/mol
# Density = 1.717441 g / cm^3
# Si number density = 17.213589 Si / 1000 Ang^3
#
#
#
# Elastic Constant Matrix: (Units=GPa)
#
#
# Indices 1 2 3 4 5 6 
#
# 1 110.8780 49.6928 60.0673 0.0000 0.0000 0.0000
# 2 49.6928 74.9467 44.6686 0.0000 0.0000 0.0000
# 3 60.0673 44.6686 110.4901 0.0000 0.0000 0.0000
# 4 0.0000 0.0000 0.0000 2.1493 0.0000 0.0000
# 5 0.0000 0.0000 0.0000 0.0000 23.0124 0.0000
# 6 0.0000 0.0000 0.0000 0.0000 0.0000 20.5091
#
#
#
# Elastic Compliance Matrix: (Units=1/GPa)
#
#
# Indices 1 2 3 4 5 6 
#
# 1 0.014954 -0.006679 -0.005429 0.000000 0.000000 0.000000
# 2 -0.006679 0.020561 -0.004682 0.000000 0.000000 0.000000
# 3 -0.005429 -0.004682 0.013895 0.000000 0.000000 0.000000
# 4 0.000000 0.000000 0.000000 0.465273 0.000000 0.000000
# 5 0.000000 0.000000 0.000000 0.000000 0.043455 0.000000
# 6 0.000000 0.000000 0.000000 0.000000 0.000000 0.048759
#
#
# Mechanical properties :
#
#
# Convention : Reuss Voigt Hill
#
# Bulk Modulus (GPa) = 63.17002 67.24135 65.20568
# Shear Modulus (GPa) = 7.74291 18.59323 13.16807
#
# Velocity S-wave (km/s) = 2.12318 3.29013 2.76883
# Velocity P-wave (km/s) = 6.54125 7.31990 6.94150
#
# Compressibility (1/GPa) = 0.01583029
#
# Stress axis : x y z
#
# Youngs Moduli (GPa) = 66.87382 48.63465 71.96927
#
# Poissons Ratio (x) = 0.32483 0.39074
# Poissons Ratio (y) = 0.44665 0.33693
# Poissons Ratio (z) = 0.36308 0.22769
#
# Static dielectric constant tensor:
#      x y z
#    x 3.418220 0.000000 0.000000 
#    y 0.000000 3.052600 0.000000 
#    z 0.000000 0.000000 3.205350 
# 
# 
# High freq. dielectric constant tensor:
#      x y z
#    x 1.669730 0.000000 0.000000 
#    y 0.000000 1.652160 0.000000 
#    z 0.000000 0.000000 1.648280 
# 
# From -- ./inp_files/4805.got.cif
#   From: 2010.03.12/outbox.cif.g09.slc.cpg/sg25_3_cif.got.tgz:4805.got - 2010.04.14 03:30:10.
