data_PCOD8166084
_publ_section_title
;
Structure prediction by ZEFSAII (Michael W. Deem and Ramdas Pophale) SiO2 
 PCOD8166084
Probable space group: I 21 21 21
;
_chemical_formula_sum "Si O2"
_cell_formula_units_Z 32
_cell_length_a 14.165500
_cell_length_b 10.538955
_cell_length_c 9.372039
_cell_angle_alpha 90.000000
_cell_angle_beta 90.000000
_cell_angle_gamma 90.000000
_cell_volume 1399.147645
_symmetry_space_group_name_H-M "I 21 21 21"
_symmetry_group_IT_number 24
_symmetry_cell_setting 'orthorhombic'
loop_
_space_group_symop_operation_xyz
x,y,z
-x,1/2-y,z
x,-y,1/2-z
1/2-x,y,-z
1/2+x,1/2+y,1/2+z
1/2-x,-y,1/2+z
1/2+x,1/2-y,-z
-x,1/2+y,1/2-z
loop_
_atom_site_type_symbol
_atom_site_label
_atom_site_fract_x
_atom_site_fract_y
_atom_site_fract_z
Si Si1 0.247764 0.623531 0.171416
Si Si2 0.990416 0.049201 0.094955
Si Si3 0.343702 0.234704 0.904047
Si Si4 0.460180 0.385600 0.337516
O O1 0.202768 0.500000 0.250000
O O2 0.189609 0.742172 0.238637
O O3 0.354985 0.629955 0.220025
O O4 0.250000 0.620068 0.000000
O O5 0.097190 0.104264 0.086025
O O6 0.913179 0.152510 0.044432
O O7 0.968475 0.000000 0.250000
O O8 0.975130 0.921887 0.002319
O O9 0.250000 0.229446 0.000000
O O10 0.500000 0.250000 0.300082
O O11 0.510700 0.500000 0.250000
#
# Coordination Sequence:
#
# PCOD8166084 Si02
#       4
#     8   8   8   8
#     4  11  22  40  70 103 135 185 248 295 353 443
#     4  11  26  45  73 105 144 191 243 301 364 437
#     4  11  24  45  73 103 146 189 241 303 370 433
#     4  11  26  44  72 103 144 190 242 296 360 437
#
# _framework density 22.871068000000001
#
# number of rings (size 3 to 8) (size 9 to 14) (size 15 to 20)
#    0.000    1.000    0.000    7.500   14.000    0.000 
#    4.500    0.000    0.000    0.000    0.000    0.000 
#    0.000    0.000    0.000    0.000    0.000    0.000 
#
# Total GULP energy -198287.058555 kJ/mol
# GULP energy per Si atom -12392.941160 kJ/mol
# Density = 2.281901 g / cm^3
# Si number density = 22.871068 Si / 1000 Ang^3
#
#
#
# Elastic Constant Matrix: (Units=GPa)
#
#
# Indices 1 2 3 4 5 6 
#
# 1 138.4155 53.9283 26.5748 0.0000 0.0000 0.0000
# 2 53.9283 117.5989 17.1556 0.0000 0.0000 0.0000
# 3 26.5748 17.1556 106.6576 0.0000 0.0000 0.0000
# 4 0.0000 0.0000 0.0000 25.5508 0.0000 0.0000
# 5 0.0000 0.0000 0.0000 0.0000 29.4678 0.0000
# 6 0.0000 0.0000 0.0000 0.0000 0.0000 42.2546
#
#
#
# Elastic Compliance Matrix: (Units=1/GPa)
#
#
# Indices 1 2 3 4 5 6 
#
# 1 0.009064 -0.003919 -0.001628 0.000000 0.000000 0.000000
# 2 -0.003919 0.010402 -0.000697 0.000000 0.000000 0.000000
# 3 -0.001628 -0.000697 0.009894 0.000000 0.000000 0.000000
# 4 0.000000 0.000000 0.000000 0.039138 0.000000 0.000000
# 5 0.000000 0.000000 0.000000 0.000000 0.033935 0.000000
# 6 0.000000 0.000000 0.000000 0.000000 0.000000 0.023666
#
#
# Mechanical properties :
#
#
# Convention : Reuss Voigt Hill
#
# Bulk Modulus (GPa) = 59.26888 61.99883 60.63385
# Shear Modulus (GPa) = 34.67145 37.12219 35.89682
#
# Velocity S-wave (km/s) = 3.89775 4.03315 3.96603
# Velocity P-wave (km/s) = 6.79906 6.98965 6.89501
#
# Compressibility (1/GPa) = 0.01687226
#
# Stress axis : x y z
#
# Youngs Moduli (GPa) = 110.32497 96.13219 101.07641
#
# Poissons Ratio (x) = 0.37675 0.16456
# Poissons Ratio (y) = 0.43238 0.07042
# Poissons Ratio (z) = 0.17961 0.06698
#
# Static dielectric constant tensor:
#      x y z
#    x 4.378730 0.000000 0.000000 
#    y 0.000000 4.309400 0.000000 
#    z 0.000000 0.000000 3.972100 
# 
# 
# High freq. dielectric constant tensor:
#      x y z
#    x 1.914930 0.000000 0.000000 
#    y 0.000000 1.878580 0.000000 
#    z 0.000000 0.000000 1.912250 
# 
# From -- ./inp_files/10204.got.cif
#   From: 2010.03.12/outbox.cif.g09.slc.cpg/sg24_6_cif.got.tgz:10204.got - 2010.04.14 03:06:53.
