data_PCOD8166232
_publ_section_title
;
Structure prediction by ZEFSAII (Michael W. Deem and Ramdas Pophale) SiO2 
 PCOD8166232
Probable space group: I 21 21 21
;
_chemical_formula_sum "Si O2"
_cell_formula_units_Z 48
_cell_length_a 14.161978
_cell_length_b 16.267691
_cell_length_c 9.171804
_cell_angle_alpha 90.000000
_cell_angle_beta 90.000000
_cell_angle_gamma 90.000000
_cell_volume 2113.024805
_symmetry_space_group_name_H-M "I 21 21 21"
_symmetry_group_IT_number 24
_symmetry_cell_setting 'orthorhombic'
loop_
_space_group_symop_operation_xyz
x,y,z
-x,1/2-y,z
x,-y,1/2-z
1/2-x,y,-z
1/2+x,1/2+y,1/2+z
1/2-x,-y,1/2+z
1/2+x,1/2-y,-z
-x,1/2+y,1/2-z
loop_
_atom_site_type_symbol
_atom_site_label
_atom_site_fract_x
_atom_site_fract_y
_atom_site_fract_z
Si Si1 0.468723 0.891457 0.003129
Si Si2 0.259152 0.294818 0.163223
Si Si3 0.080353 0.198726 0.222873
Si Si4 0.827627 0.067979 0.624724
Si Si5 0.637456 0.442749 0.983062
Si Si6 0.077395 0.181680 0.800891
O O1 0.572491 0.924372 0.043956
O O2 0.422658 0.838907 0.131968
O O3 0.401483 0.966321 0.957248
O O4 0.470350 0.826303 0.873122
O O5 0.163256 0.265141 0.237736
O O6 0.308826 0.349938 0.284622
O O7 0.323256 0.215049 0.140114
O O8 0.250000 0.335566 0.000000
O O9 0.000000 0.250000 0.133481
O O10 0.115639 0.114844 0.153208
O O11 0.750000 0.049692 0.500000
O O12 0.827526 0.000000 0.750000
O O13 0.573940 0.405690 0.115618
O O14 0.750000 0.449075 0.000000
O O15 0.000000 0.250000 0.842612
#
# Coordination Sequence:
#
# PCOD8166232 Si02
#       6
#     8   8   8   8   8   8
#     4  12  29  44  73 109 152 194 245 317 382 451
#     4  12  26  47  76 110 150 198 255 312 375 459
#     4  12  26  47  72 108 148 197 253 309 373 449
#     4  12  28  52  77 111 152 202 258 317 390 455
#     4  12  26  48  71 109 146 198 246 309 381 447
#     4  12  23  45  74 105 145 195 244 302 380 451
#
# _framework density 22.716251
#
# number of rings (size 3 to 8) (size 9 to 14) (size 15 to 20)
#    0.000    0.000    5.000    4.500    4.667    4.000 
#    0.000    0.000    0.000    0.000    0.000    0.000 
#    0.000    0.000    0.000    0.000    0.000    0.000 
#
# Total GULP energy -297466.864821 kJ/mol
# GULP energy per Si atom -12394.452701 kJ/mol
# Density = 2.266455 g / cm^3
# Si number density = 22.716251 Si / 1000 Ang^3
#
#
#
# Elastic Constant Matrix: (Units=GPa)
#
#
# Indices 1 2 3 4 5 6 
#
# 1 145.9607 48.7379 40.1242 0.0000 0.0000 0.0000
# 2 48.7379 95.4602 25.3047 0.0000 0.0000 0.0000
# 3 40.1242 25.3047 124.6921 0.0000 0.0000 0.0000
# 4 0.0000 0.0000 0.0000 -23.2301 0.0000 0.0000
# 5 0.0000 0.0000 0.0000 0.0000 44.8767 0.0000
# 6 0.0000 0.0000 0.0000 0.0000 0.0000 33.8127
#
#
#
# Elastic Compliance Matrix: (Units=1/GPa)
#
#
# Indices 1 2 3 4 5 6 
#
# 1 0.008710 -0.003915 -0.002008 0.000000 0.000000 0.000000
# 2 -0.003915 0.012831 -0.001344 0.000000 0.000000 0.000000
# 3 -0.002008 -0.001344 0.008939 0.000000 0.000000 0.000000
# 4 0.000000 0.000000 0.000000 -0.043048 0.000000 0.000000
# 5 0.000000 0.000000 0.000000 0.000000 0.022283 0.000000
# 6 0.000000 0.000000 0.000000 0.000000 0.000000 0.029575
#
#
# Mechanical properties :
#
#
# Convention : Reuss Voigt Hill
#
# Bulk Modulus (GPa) = 62.71472 66.04962 64.38217
# Shear Modulus (GPa) = 84.54514 27.88826 56.21670
#
# Velocity S-wave (km/s) = 6.10727 3.50763 4.98007
# Velocity P-wave (km/s) = 8.79769 6.74860 7.84038
#
# Compressibility (1/GPa) = 0.01594522
#
# Stress axis : x y z
#
# Youngs Moduli (GPa) = 114.80438 77.93875 111.87173
#
# Poissons Ratio (x) = 0.30511 0.22469
# Poissons Ratio (y) = 0.44944 0.15036
# Poissons Ratio (z) = 0.23058 0.10476
#
# Static dielectric constant tensor:
#      x y z
#    x 4.748260 0.000000 0.000000 
#    y 0.000000 4.058610 0.000000 
#    z 0.000000 0.000000 4.188560 
# 
# 
# High freq. dielectric constant tensor:
#      x y z
#    x 1.908140 0.000000 0.000000 
#    y 0.000000 1.910280 0.000000 
#    z 0.000000 0.000000 1.906400 
# 
# From -- ./inp_files/12809.got.cif
#   From: 2010.03.12/outbox.cif.g09.slc.cpg/sg24_7_cif.got.tgz:12809.got - 2010.04.14 03:06:53.
