data_PCOD8166386
_publ_section_title
;
Structure prediction by ZEFSAII (Michael W. Deem and Ramdas Pophale) SiO2 
 PCOD8166386
Probable space group: P M M 2
;
_chemical_formula_sum "Si O2"
_cell_formula_units_Z 32
_cell_length_a 14.786067
_cell_length_b 8.630483
_cell_length_c 12.467968
_cell_angle_alpha 90.000000
_cell_angle_beta 90.000000
_cell_angle_gamma 90.000000
_cell_volume 1591.048616
_symmetry_space_group_name_H-M "P M M 2"
_symmetry_group_IT_number 25
_symmetry_cell_setting 'orthorhombic'
loop_
_space_group_symop_operation_xyz
x,y,z
-x,-y,z
-x,y,z
x,-y,z
loop_
_atom_site_type_symbol
_atom_site_label
_atom_site_fract_x
_atom_site_fract_y
_atom_site_fract_z
Si Si1 0.833199 0.820043 0.907560
Si Si2 0.599263 0.820623 0.620208
Si Si3 0.103291 0.183835 0.328564
Si Si4 0.403306 0.318904 0.069870
Si Si5 0.099141 0.324081 0.711034
Si Si6 0.208353 0.317054 0.129377
Si Si7 0.345977 0.679646 0.836445
Si Si8 0.784302 0.182002 0.528484
O O1 0.909978 0.760219 0.826450
O O2 0.741668 0.787552 0.841989
O O3 0.844982 0.000000 0.934983
O O4 0.838356 0.722157 0.016639
O O5 0.500000 0.794385 0.566876
O O6 0.599754 0.722508 0.729632
O O7 0.678045 0.768364 0.536291
O O8 0.614038 0.000000 0.650268
O O9 0.150694 0.234058 0.219600
O O10 0.164358 0.254664 0.425413
O O11 0.000000 0.248063 0.335070
O O12 0.101071 0.000000 0.333251
O O13 0.500000 0.250726 0.114258
O O14 0.401119 0.500000 0.092113
O O15 0.312640 0.250834 0.126723
O O16 0.404443 0.286411 0.942551
O O17 0.132042 0.500000 0.726591
O O18 0.169651 0.237331 0.636640
O O19 0.000000 0.317340 0.657374
O O20 0.206544 0.500000 0.147873
O O21 0.317111 0.500000 0.833202
O O22 0.794232 0.000000 0.520000
#
# Coordination Sequence:
#
# PCOD8166386 Si02
#       8
#     4   4   4   4   4   4   4   4
#     4  11  21  35  56  82 117 157 191 230 285 348
#     4  10  20  33  52  82 118 156 196 236 284 343
#     4  10  22  41  63  84 108 146 197 246 295 354
#     4   8  15  29  50  78 112 149 186 223 272 333
#     4  11  23  37  56  85 118 150 187 236 292 350
#     4  10  21  37  59  86 115 147 188 242 294 341
#     4  10  18  30  51  80 115 155 197 238 280 332
#     4  10  21  39  61  83 113 152 193 240 289 345
#
# _framework density 20.112521000000001
#
# number of rings (size 3 to 8) (size 9 to 14) (size 15 to 20)
#    0.000    2.000    1.250    3.750    0.000    3.500 
#    0.000    0.625    0.000    8.250    0.000    0.000 
#    0.000    0.000    0.000    0.000    0.000    0.000 
#
# Total GULP energy -396576.269780 kJ/mol
# GULP energy per Si atom -12393.008431 kJ/mol
# Density = 2.006674 g / cm^3
# Si number density = 20.112521 Si / 1000 Ang^3
#
#
#
# Elastic Constant Matrix: (Units=GPa)
#
#
# Indices 1 2 3 4 5 6 
#
# 1 153.0049 -10.2124 68.4826 0.0000 0.0000 0.0000
# 2 -10.2124 -144.1521 -1.8087 0.0000 0.0000 0.0000
# 3 68.4826 -1.8087 101.2464 0.0000 0.0000 0.0000
# 4 0.0000 0.0000 0.0000 14.6877 0.0000 0.0000
# 5 0.0000 0.0000 0.0000 0.0000 24.3708 0.0000
# 6 0.0000 0.0000 0.0000 0.0000 0.0000 15.2626
#
#
#
# Elastic Compliance Matrix: (Units=1/GPa)
#
#
# Indices 1 2 3 4 5 6 
#
# 1 0.009325 -0.000581 -0.006317 0.000000 0.000000 0.000000
# 2 -0.000581 -0.006899 0.000270 0.000000 0.000000 0.000000
# 3 -0.006317 0.000270 0.014155 0.000000 0.000000 0.000000
# 4 0.000000 0.000000 0.000000 0.068084 0.000000 0.000000
# 5 0.000000 0.000000 0.000000 0.000000 0.041033 0.000000
# 6 0.000000 0.000000 0.000000 0.000000 0.000000 0.065520
#
#
# Mechanical properties :
#
#
# Convention : Reuss Voigt Hill
#
# Bulk Modulus (GPa) = 300.99029 24.78026 162.88528
# Shear Modulus (GPa) = 24.32123 14.44006 19.38065
#
# Velocity S-wave (km/s) = 3.48121 2.68239 3.10758
# Velocity P-wave (km/s) = 12.88940 4.68414 9.69736
#
# Compressibility (1/GPa) = 0.00332237
#
# Stress axis : x y z
#
# Youngs Moduli (GPa) = 107.24391 -144.94177 70.64727
#
# Poissons Ratio (x) = -0.08426 0.44631
# Poissons Ratio (y) = 0.06234 -0.01907
# Poissons Ratio (z) = 0.67751 0.03913
#
# Static dielectric constant tensor:
#      x y z
#    x 4.049460 0.000000 0.000000 
#    y 0.000000 3.443420 0.000000 
#    z 0.000000 0.000000 3.634900 
# 
# 
# High freq. dielectric constant tensor:
#      x y z
#    x 1.800580 0.000000 0.000000 
#    y 0.000000 1.766270 0.000000 
#    z 0.000000 0.000000 1.760980 
# 
# From -- ./inp_files/4946.got.cif
#   From: 2010.03.12/outbox.cif.g09.slc.cpg/sg25_3_cif.got.tgz:4946.got - 2010.04.14 03:30:10.
