data_PCOD8166999
_publ_section_title
;
Structure prediction by ZEFSAII (Michael W. Deem and Ramdas Pophale) SiO2 
 PCOD8166999
Probable space group: P M M 2
;
_chemical_formula_sum "Si O2"
_cell_formula_units_Z 32
_cell_length_a 9.537753
_cell_length_b 9.491845
_cell_length_c 20.842509
_cell_angle_alpha 90.000000
_cell_angle_beta 90.000000
_cell_angle_gamma 90.000000
_cell_volume 1886.890538
_symmetry_space_group_name_H-M "P M M 2"
_symmetry_group_IT_number 25
_symmetry_cell_setting 'orthorhombic'
loop_
_space_group_symop_operation_xyz
x,y,z
-x,-y,z
-x,y,z
x,-y,z
loop_
_atom_site_type_symbol
_atom_site_label
_atom_site_fract_x
_atom_site_fract_y
_atom_site_fract_z
Si Si1 0.341971 0.168874 0.139410
Si Si2 0.162527 0.336827 0.623048
Si Si3 0.337966 0.337220 0.500936
Si Si4 0.666303 0.154156 0.001508
Si Si5 0.661894 0.164256 0.376946
Si Si6 0.657381 0.168474 0.864219
Si Si7 0.837044 0.836573 0.745718
Si Si8 0.841421 0.832300 0.256388
O O1 0.500000 0.219214 0.156137
O O2 0.236101 0.227715 0.193146
O O3 0.339332 0.000000 0.136773
O O4 0.293370 0.230188 0.069123
O O5 0.191608 0.500000 0.637795
O O6 0.248697 0.284904 0.561496
O O7 0.215833 0.248224 0.683819
O O8 0.000000 0.307366 0.608904
O O9 0.500000 0.310444 0.517160
O O10 0.307665 0.500000 0.485526
O O11 0.289749 0.247543 0.439859
O O12 0.500000 0.136633 0.000352
O O13 0.709482 0.230049 0.934075
O O14 0.737364 0.000000 0.002251
O O15 0.500000 0.195082 0.359758
O O16 0.757088 0.220148 0.318686
O O17 0.686651 0.000000 0.390113
O O18 0.500000 0.220386 0.848859
O O19 0.757575 0.224122 0.807985
O O20 0.661732 0.000000 0.868443
O O21 0.000000 0.810593 0.758072
O O22 0.802203 0.000000 0.734104
O O23 0.000000 0.773597 0.258556
O O24 0.840640 0.000000 0.254382
#
# Coordination Sequence:
#
# PCOD8166999 Si02
#       8
#     4   4   4   4   4   4   4   4
#     4   8  12  19  32  48  69 102 139 168 197 238
#     4   9  18  32  47  61  80 108 137 162 194 241
#     4   9  18  32  48  65  84 104 129 166 206 237
#     4   7  10  17  30  48  70  99 135 168 196 233
#     4   9  17  29  44  61  82 109 137 162 194 241
#     4   8  13  22  36  54  77 105 136 168 201 238
#     4   9  17  28  41  59  83 108 134 166 202 237
#     4   9  16  24  34  52  79 107 135 169 204 234
#
# _framework density 16.959118
#
# number of rings (size 3 to 8) (size 9 to 14) (size 15 to 20)
#    0.000    3.500    0.000    1.875    0.000    3.000 
#    0.000    0.625    0.000    3.750    0.000    0.000 
#    0.000    1.000    0.000    4.750    0.000    6.250 
#
# Total GULP energy -396516.253989 kJ/mol
# GULP energy per Si atom -12391.132937 kJ/mol
# Density = 1.692052 g / cm^3
# Si number density = 16.959118 Si / 1000 Ang^3
#
#
#
# Elastic Constant Matrix: (Units=GPa)
#
#
# Indices 1 2 3 4 5 6 
#
# 1 80.1477 20.4240 87.5286 0.0000 0.0000 0.0000
# 2 20.4240 21.3546 40.4769 0.0000 0.0000 0.0000
# 3 87.5286 40.4769 205.8843 0.0000 0.0000 0.0000
# 4 0.0000 0.0000 0.0000 0.5113 0.0000 0.0000
# 5 0.0000 0.0000 0.0000 0.0000 17.4626 0.0000
# 6 0.0000 0.0000 0.0000 0.0000 0.0000 10.5696
#
#
#
# Elastic Compliance Matrix: (Units=1/GPa)
#
#
# Indices 1 2 3 4 5 6 
#
# 1 0.023717 -0.005693 -0.008964 0.000000 0.000000 0.000000
# 2 -0.005693 0.076011 -0.012523 0.000000 0.000000 0.000000
# 3 -0.008964 -0.012523 0.011130 0.000000 0.000000 0.000000
# 4 0.000000 0.000000 0.000000 1.955733 0.000000 0.000000
# 5 0.000000 0.000000 0.000000 0.000000 0.057265 0.000000
# 6 0.000000 0.000000 0.000000 0.000000 0.000000 0.094611
#
#
# Mechanical properties :
#
#
# Convention : Reuss Voigt Hill
#
# Bulk Modulus (GPa) = 17.69989 67.13842 42.41916
# Shear Modulus (GPa) = 2.18182 16.30584 9.24383
#
# Velocity S-wave (km/s) = 1.13548 3.10414 2.33720
# Velocity P-wave (km/s) = 3.48978 7.24720 5.68772
#
# Compressibility (1/GPa) = 0.05649751
#
# Stress axis : x y z
#
# Youngs Moduli (GPa) = 42.16431 13.15599 89.84778
#
# Poissons Ratio (x) = 0.07490 0.80536
# Poissons Ratio (y) = 0.24004 1.12521
# Poissons Ratio (z) = 0.37794 0.16476
#
# Static dielectric constant tensor:
#      x y z
#    x 3.114800 0.000000 0.000000 
#    y 0.000000 2.630510 0.000000 
#    z 0.000000 0.000000 3.613540 
# 
# 
# High freq. dielectric constant tensor:
#      x y z
#    x 1.638730 0.000000 0.000000 
#    y 0.000000 1.587560 0.000000 
#    z 0.000000 0.000000 1.675320 
# 
# From -- ./inp_files/6263.got.cif
#   From: 2010.03.12/outbox.cif.g09.slc.cpg/sg25_4_cif.got.tgz:6263.got - 2010.04.14 03:30:10.
