data_PCOD8166027
_publ_section_title
;
Structure prediction by ZEFSAII (Michael W. Deem and Ramdas Pophale) SiO2 
 PCOD8166027
Probable space group: I 21 21 21
;
_chemical_formula_sum "Si O2"
_cell_formula_units_Z 36
_cell_length_a 17.324688
_cell_length_b 14.944154
_cell_length_c 7.364611
_cell_angle_alpha 90.000000
_cell_angle_beta 90.000000
_cell_angle_gamma 90.000000
_cell_volume 1906.718449
_symmetry_space_group_name_H-M "I 21 21 21"
_symmetry_group_IT_number 24
_symmetry_cell_setting 'orthorhombic'
loop_
_space_group_symop_operation_xyz
x,y,z
-x,1/2-y,z
x,-y,1/2-z
1/2-x,y,-z
1/2+x,1/2+y,1/2+z
1/2-x,-y,1/2+z
1/2+x,1/2-y,-z
-x,1/2+y,1/2-z
loop_
_atom_site_type_symbol
_atom_site_label
_atom_site_fract_x
_atom_site_fract_y
_atom_site_fract_z
Si Si1 0.938573 0.671842 0.759247
Si Si2 0.839999 0.766927 0.483417
Si Si3 0.066582 0.558809 0.596858
Si Si4 0.072376 0.184214 0.330105
Si Si5 0.995963 0.500000 0.250000
O O1 0.867032 0.691677 0.626440
O O2 0.000000 0.750000 0.750328
O O3 0.984710 0.585275 0.690436
O O4 0.904128 0.663641 0.962382
O O5 0.750000 0.783267 0.500000
O O6 0.882238 0.859491 0.528473
O O7 0.858944 0.732858 0.279645
O O8 0.111576 0.500000 0.750000
O O9 0.049819 0.493689 0.427398
O O10 0.054532 0.089929 0.233069
O O11 0.000000 0.250000 0.316265
#
# Coordination Sequence:
#
# PCOD8166027 Si02
#       5
#     8   8   8   8   4
#     4   9  19  35  61  84 109 154 210 251 289 343
#     4  11  23  40  58  86 133 168 191 242 315 385
#     4  11  21  38  62  94 119 153 212 260 303 352
#     4  11  20  37  63  92 113 157 216 261 298 349
#     4  12  20  34  68  92 114 150 212 272 296 340
#
# _framework density 18.880604999999999
#
# number of rings (size 3 to 8) (size 9 to 14) (size 15 to 20)
#    0.000    1.333    6.667    0.667    0.000    0.889 
#    2.000    0.000    7.333    0.000    0.000    0.000 
#    0.000    0.000    0.000    0.000    0.000    0.000 
#
# Total GULP energy -223153.390122 kJ/mol
# GULP energy per Si atom -12397.410562 kJ/mol
# Density = 1.883763 g / cm^3
# Si number density = 18.880605 Si / 1000 Ang^3
#
#
#
# Elastic Constant Matrix: (Units=GPa)
#
#
# Indices 1 2 3 4 5 6 
#
# 1 80.9700 26.2149 47.7177 0.0000 0.0000 0.0000
# 2 26.2149 91.4469 29.8715 0.0000 0.0000 0.0000
# 3 47.7177 29.8715 155.3547 0.0000 0.0000 0.0000
# 4 0.0000 0.0000 0.0000 35.9331 0.0000 0.0000
# 5 0.0000 0.0000 0.0000 0.0000 14.0110 0.0000
# 6 0.0000 0.0000 0.0000 0.0000 0.0000 7.3819
#
#
#
# Elastic Compliance Matrix: (Units=1/GPa)
#
#
# Indices 1 2 3 4 5 6 
#
# 1 0.015892 -0.003160 -0.004274 0.000000 0.000000 0.000000
# 2 -0.003160 0.012296 -0.001394 0.000000 0.000000 0.000000
# 3 -0.004274 -0.001394 0.008018 0.000000 0.000000 0.000000
# 4 0.000000 0.000000 0.000000 0.027829 0.000000 0.000000
# 5 0.000000 0.000000 0.000000 0.000000 0.071372 0.000000
# 6 0.000000 0.000000 0.000000 0.000000 0.000000 0.135467
#
#
# Mechanical properties :
#
#
# Convention : Reuss Voigt Hill
#
# Bulk Modulus (GPa) = 53.90431 59.48666 56.69548
# Shear Modulus (GPa) = 16.96569 26.39637 21.68103
#
# Velocity S-wave (km/s) = 3.00088 3.74313 3.39237
# Velocity P-wave (km/s) = 6.37331 7.08918 6.74076
#
# Compressibility (1/GPa) = 0.01855139
#
# Stress axis : x y z
#
# Youngs Moduli (GPa) = 62.92547 81.32475 124.72610
#
# Poissons Ratio (x) = 0.25696 0.53304
# Poissons Ratio (y) = 0.19882 0.17385
# Poissons Ratio (z) = 0.26892 0.11335
#
# Static dielectric constant tensor:
#      x y z
#    x 2.969660 0.000000 0.000000 
#    y 0.000000 3.552090 0.000000 
#    z 0.000000 0.000000 3.928220 
# 
# 
# High freq. dielectric constant tensor:
#      x y z
#    x 1.673190 0.000000 0.000000 
#    y 0.000000 1.742250 0.000000 
#    z 0.000000 0.000000 1.761770 
# 
# From -- ./inp_files/12190.got.cif
#   From: 2010.03.12/outbox.cif.g09.slc.cpg/sg24_7_cif.got.tgz:12190.got - 2010.04.14 03:06:53.
