data_PCOD8166821
_publ_section_title
;
Structure prediction by ZEFSAII (Michael W. Deem and Ramdas Pophale) SiO2 
 PCOD8166821
Probable space group: P M M 2
;
_chemical_formula_sum "Si O2"
_cell_formula_units_Z 28
_cell_length_a 8.996041
_cell_length_b 9.297692
_cell_length_c 18.066568
_cell_angle_alpha 90.000000
_cell_angle_beta 90.000000
_cell_angle_gamma 90.000000
_cell_volume 1511.131440
_symmetry_space_group_name_H-M "P M M 2"
_symmetry_group_IT_number 25
_symmetry_cell_setting 'orthorhombic'
loop_
_space_group_symop_operation_xyz
x,y,z
-x,-y,z
-x,y,z
x,-y,z
loop_
_atom_site_type_symbol
_atom_site_label
_atom_site_fract_x
_atom_site_fract_y
_atom_site_fract_z
Si Si1 0.176163 0.841041 0.841410
Si Si2 0.173943 0.166641 0.562667
Si Si3 0.177268 0.661223 0.704951
Si Si4 0.326897 0.331734 0.136179
Si Si5 0.824909 0.834010 0.268156
Si Si6 0.171857 0.831199 0.007658
Si Si7 0.332597 0.170931 0.416054
O O1 0.241712 0.733439 0.779772
O O2 0.000000 0.849615 0.834441
O O3 0.242569 0.000000 0.827004
O O4 0.217399 0.788737 0.923892
O O5 0.234819 0.252096 0.633648
O O6 0.255132 0.229867 0.490273
O O7 0.000000 0.190780 0.550608
O O8 0.211551 0.000000 0.575790
O O9 0.239863 0.500000 0.700775
O O10 0.000000 0.662629 0.706684
O O11 0.500000 0.301284 0.149212
O O12 0.291202 0.500000 0.133612
O O13 0.234475 0.261025 0.201693
O O14 0.277769 0.261750 0.059250
O O15 0.754696 0.773774 0.344024
O O16 0.000000 0.816371 0.274065
O O17 0.780100 0.000000 0.254233
O O18 0.000000 0.792759 0.023550
O O19 0.198206 0.000000 0.021795
O O20 0.500000 0.230137 0.412493
O O21 0.327839 0.000000 0.417760
#
# Coordination Sequence:
#
# PCOD8166821 Si02
#       7
#     4   4   4   4   4   4   4
#     4   8  14  26  45  70  99 127 157 199 249 295
#     4   9  16  27  45  68  94 125 162 204 247 289
#     4   9  16  25  40  66  98 129 162 200 243 291
#     4  11  24  38  51  72 104 139 172 205 246 299
#     4  10  20  35  57  82 104 128 164 209 254 301
#     4   9  18  33  54  79 103 129 167 213 257 302
#     4   9  17  30  50  75 100 127 162 204 248 294
#
# _framework density 18.529161999999999
#
# number of rings (size 3 to 8) (size 9 to 14) (size 15 to 20)
#    0.000    2.714    0.000    3.000    0.000    8.000 
#    0.000    2.143    0.000    3.857    0.000    2.000 
#    0.000    0.000    0.000    0.000    0.000    0.000 
#
# Total GULP energy -347179.548625 kJ/mol
# GULP energy per Si atom -12399.269594 kJ/mol
# Density = 1.848699 g / cm^3
# Si number density = 18.529162 Si / 1000 Ang^3
#
#
#
# Elastic Constant Matrix: (Units=GPa)
#
#
# Indices 1 2 3 4 5 6 
#
# 1 55.9218 32.4331 44.6476 0.0000 0.0000 0.0000
# 2 32.4331 82.7630 68.4123 0.0000 0.0000 0.0000
# 3 44.6476 68.4123 169.4535 0.0000 0.0000 0.0000
# 4 0.0000 0.0000 0.0000 3.3923 0.0000 0.0000
# 5 0.0000 0.0000 0.0000 0.0000 4.1933 0.0000
# 6 0.0000 0.0000 0.0000 0.0000 0.0000 18.1126
#
#
#
# Elastic Compliance Matrix: (Units=1/GPa)
#
#
# Indices 1 2 3 4 5 6 
#
# 1 0.024756 -0.006468 -0.003911 0.000000 0.000000 0.000000
# 2 -0.006468 0.019825 -0.006299 0.000000 0.000000 0.000000
# 3 -0.003911 -0.006299 0.009475 0.000000 0.000000 0.000000
# 4 0.000000 0.000000 0.000000 0.294786 0.000000 0.000000
# 5 0.000000 0.000000 0.000000 0.000000 0.238473 0.000000
# 6 0.000000 0.000000 0.000000 0.000000 0.000000 0.055210
#
#
# Mechanical properties :
#
#
# Convention : Reuss Voigt Hill
#
# Bulk Modulus (GPa) = 48.31413 66.56937 57.44175
# Shear Modulus (GPa) = 7.32297 15.98267 11.65282
#
# Velocity S-wave (km/s) = 1.99015 2.94014 2.51049
# Velocity P-wave (km/s) = 5.60466 6.89425 6.28263
#
# Compressibility (1/GPa) = 0.02069788
#
# Stress axis : x y z
#
# Youngs Moduli (GPa) = 40.39352 50.44238 105.53978
#
# Poissons Ratio (x) = 0.32628 0.41281
# Poissons Ratio (y) = 0.26128 0.66483
# Poissons Ratio (z) = 0.15800 0.31775
#
# Static dielectric constant tensor:
#      x y z
#    x 3.135420 0.000000 0.000000 
#    y 0.000000 3.326360 0.000000 
#    z 0.000000 0.000000 3.686920 
# 
# 
# High freq. dielectric constant tensor:
#      x y z
#    x 1.687940 0.000000 0.000000 
#    y 0.000000 1.697960 0.000000 
#    z 0.000000 0.000000 1.738300 
# 
# From -- ./inp_files/6097.got.cif
#   From: 2010.03.12/outbox.cif.g09.slc.cpg/sg25_4_cif.got.tgz:6097.got - 2010.04.14 03:30:10.
