data_PCOD8166256
_publ_section_title
;
Structure prediction by ZEFSAII (Michael W. Deem and Ramdas Pophale) SiO2 
 PCOD8166256
Probable space group: I 21 21 21
;
_chemical_formula_sum "Si O2"
_cell_formula_units_Z 32
_cell_length_a 16.236448
_cell_length_b 15.706079
_cell_length_c 5.317599
_cell_angle_alpha 90.000000
_cell_angle_beta 90.000000
_cell_angle_gamma 90.000000
_cell_volume 1356.045893
_symmetry_space_group_name_H-M "I 21 21 21"
_symmetry_group_IT_number 24
_symmetry_cell_setting 'orthorhombic'
loop_
_space_group_symop_operation_xyz
x,y,z
-x,1/2-y,z
x,-y,1/2-z
1/2-x,y,-z
1/2+x,1/2+y,1/2+z
1/2-x,-y,1/2+z
1/2+x,1/2-y,-z
-x,1/2+y,1/2-z
loop_
_atom_site_type_symbol
_atom_site_label
_atom_site_fract_x
_atom_site_fract_y
_atom_site_fract_z
Si Si1 0.696038 0.807198 0.751884
Si Si2 0.895650 0.325409 0.519009
Si Si3 0.250000 0.051205 0.500000
Si Si4 0.500000 0.250000 0.101006
Si Si5 0.540330 0.099067 0.738630
O O1 0.750000 0.808241 0.500000
O O2 0.639562 0.891240 0.783869
O O3 0.750000 0.796577 0.000000
O O4 0.632893 0.725881 0.764304
O O5 0.826478 0.392895 0.594847
O O6 0.913931 0.257840 0.740388
O O7 0.985143 0.369579 0.494263
O O8 0.277371 0.000000 0.750000
O O9 0.509599 0.159190 0.963602
O O10 0.519569 0.000000 0.750000
#
# Coordination Sequence:
#
# PCOD8166256 Si02
#       5
#     8   8   4   4   8
#     4  12  26  49  80 110 154 209 263 328 396 470
#     4  12  26  48  78 111 156 211 261 328 401 480
#     4  12  32  48  76 124 162 204 270 336 402 478
#     4  12  24  50  80 112 158 210 272 320 410 476
#     4  12  28  47  78 113 158 206 268 329 399 478
#
# _framework density 23.598022
#
# number of rings (size 3 to 8) (size 9 to 14) (size 15 to 20)
#    0.000    0.000    6.250    2.250    8.750    1.000 
#    0.000    0.000    0.000    0.000    0.000    0.000 
#    0.000    0.000    0.000    0.000    0.000    0.000 
#
# Total GULP energy -198218.313575 kJ/mol
# GULP energy per Si atom -12388.644598 kJ/mol
# Density = 2.354431 g / cm^3
# Si number density = 23.598022 Si / 1000 Ang^3
#
#
#
# Elastic Constant Matrix: (Units=GPa)
#
#
# Indices 1 2 3 4 5 6 
#
# 1 123.7166 60.9303 39.6746 0.0000 0.0000 0.0000
# 2 60.9303 149.6842 58.9147 0.0000 0.0000 0.0000
# 3 39.6746 58.9147 104.4223 0.0000 0.0000 0.0000
# 4 0.0000 0.0000 0.0000 26.8772 0.0000 0.0000
# 5 0.0000 0.0000 0.0000 0.0000 36.4845 0.0000
# 6 0.0000 0.0000 0.0000 0.0000 0.0000 39.2904
#
#
#
# Elastic Compliance Matrix: (Units=1/GPa)
#
#
# Indices 1 2 3 4 5 6 
#
# 1 0.010429 -0.003452 -0.002015 0.000000 0.000000 0.000000
# 2 -0.003452 0.009731 -0.004178 0.000000 0.000000 0.000000
# 3 -0.002015 -0.004178 0.012699 0.000000 0.000000 0.000000
# 4 0.000000 0.000000 0.000000 0.037206 0.000000 0.000000
# 5 0.000000 0.000000 0.000000 0.000000 0.027409 0.000000
# 6 0.000000 0.000000 0.000000 0.000000 0.000000 0.025451
#
#
# Mechanical properties :
#
#
# Convention : Reuss Voigt Hill
#
# Bulk Modulus (GPa) = 73.69988 77.42915 75.56452
# Shear Modulus (GPa) = 34.07397 35.08400 34.57898
#
# Velocity S-wave (km/s) = 3.80403 3.86000 3.83212
# Velocity P-wave (km/s) = 7.11291 7.26286 7.18827
#
# Compressibility (1/GPa) = 0.01356854
#
# Stress axis : x y z
#
# Youngs Moduli (GPa) = 95.88285 102.76868 78.74414
#
# Poissons Ratio (x) = 0.35480 0.15865
# Poissons Ratio (y) = 0.33102 0.32901
# Poissons Ratio (z) = 0.19318 0.42939
#
# Static dielectric constant tensor:
#      x y z
#    x 4.976220 0.000000 0.000000 
#    y 0.000000 4.205560 0.000000 
#    z 0.000000 0.000000 4.239890 
# 
# 
# High freq. dielectric constant tensor:
#      x y z
#    x 1.964270 0.000000 0.000000 
#    y 0.000000 1.921290 0.000000 
#    z 0.000000 0.000000 1.931570 
# 
# From -- ./inp_files/4294.got.cif
#   From: 2010.03.12/outbox.cif.g09.slc.cpg/sg24_3_cif.got.tgz:4294.got - 2010.04.14 03:06:53.
