data_PCOD8166369
_publ_section_title
;
Structure prediction by ZEFSAII (Michael W. Deem and Ramdas Pophale) SiO2 
 PCOD8166369
Probable space group: P M M 2
;
_chemical_formula_sum "Si O2"
_cell_formula_units_Z 32
_cell_length_a 9.122521
_cell_length_b 14.245329
_cell_length_c 15.396281
_cell_angle_alpha 90.000000
_cell_angle_beta 90.000000
_cell_angle_gamma 90.000000
_cell_volume 2000.797723
_symmetry_space_group_name_H-M "P M M 2"
_symmetry_group_IT_number 25
_symmetry_cell_setting 'orthorhombic'
loop_
_space_group_symop_operation_xyz
x,y,z
-x,-y,z
-x,y,z
x,-y,z
loop_
_atom_site_type_symbol
_atom_site_label
_atom_site_fract_x
_atom_site_fract_y
_atom_site_fract_z
Si Si1 0.673181 0.281129 0.076500
Si Si2 0.828823 0.293484 0.745349
Si Si3 0.830618 0.391459 0.925979
Si Si4 0.327771 0.608715 0.588254
Si Si5 0.170298 0.106319 0.020920
Si Si6 0.826184 0.102165 0.824552
Si Si7 0.329108 0.391438 0.246922
Si Si8 0.165407 0.611580 0.416816
O O1 0.500000 0.276804 0.069526
O O2 0.737696 0.176121 0.081703
O O3 0.723922 0.334858 0.162887
O O4 0.732825 0.334790 0.992901
O O5 0.797055 0.356205 0.829377
O O6 0.732028 0.331550 0.667705
O O7 0.774316 0.186551 0.762616
O O8 0.000000 0.297493 0.720031
O O9 0.787365 0.500000 0.931258
O O10 0.000000 0.374192 0.949415
O O11 0.500000 0.623478 0.579324
O O12 0.287291 0.500000 0.603758
O O13 0.253098 0.647881 0.500770
O O14 0.000000 0.133559 0.026645
O O15 0.196098 0.000000 0.053290
O O16 0.229865 0.118474 0.922596
O O17 0.000000 0.101678 0.829437
O O18 0.770107 0.000000 0.790040
O O19 0.500000 0.377593 0.265900
O O20 0.291180 0.500000 0.229941
O O21 0.242229 0.350504 0.329632
O O22 0.169213 0.500000 0.415419
O O23 0.000000 0.650229 0.420955
#
# Coordination Sequence:
#
# PCOD8166369 Si02
#       8
#     4   4   4   4   4   4   4   4
#     4  11  21  31  46  69  98 129 160 195 237 287
#     4  10  18  30  48  68  91 121 160 200 233 271
#     4  10  20  32  45  63  92 130 168 201 232 271
#     4  10  20  32  46  66  95 128 157 188 231 283
#     4   9  17  32  52  69  89 121 161 203 244 284
#     4   8  14  27  48  69  88 115 153 197 241 279
#     4   9  18  32  47  65  94 130 161 189 229 280
#     4   9  17  30  49  71  91 115 153 199 238 271
#
# _framework density 15.993620999999999
#
# number of rings (size 3 to 8) (size 9 to 14) (size 15 to 20)
#    0.000    2.500    1.250    2.625    0.000    5.250 
#    0.000    1.250    0.000    0.375    0.000    0.875 
#    0.000    5.000    0.000    0.000    0.000    0.000 
#
# Total GULP energy -396770.127126 kJ/mol
# GULP energy per Si atom -12399.066473 kJ/mol
# Density = 1.595722 g / cm^3
# Si number density = 15.993621 Si / 1000 Ang^3
#
#
#
# Elastic Constant Matrix: (Units=GPa)
#
#
# Indices 1 2 3 4 5 6 
#
# 1 63.9163 37.4955 49.2295 0.0000 0.0000 0.0000
# 2 37.4955 93.8803 48.3871 0.0000 0.0000 0.0000
# 3 49.2295 48.3871 101.4989 0.0000 0.0000 0.0000
# 4 0.0000 0.0000 0.0000 6.9935 0.0000 0.0000
# 5 0.0000 0.0000 0.0000 0.0000 30.4284 0.0000
# 6 0.0000 0.0000 0.0000 0.0000 0.0000 19.6966
#
#
#
# Elastic Compliance Matrix: (Units=1/GPa)
#
#
# Indices 1 2 3 4 5 6 
#
# 1 0.026838 -0.005316 -0.010483 0.000000 0.000000 0.000000
# 2 -0.005316 0.015175 -0.004656 0.000000 0.000000 0.000000
# 3 -0.010483 -0.004656 0.017156 0.000000 0.000000 0.000000
# 4 0.000000 0.000000 0.000000 0.142990 0.000000 0.000000
# 5 0.000000 0.000000 0.000000 0.000000 0.032864 0.000000
# 6 0.000000 0.000000 0.000000 0.000000 0.000000 0.050770
#
#
# Mechanical properties :
#
#
# Convention : Reuss Voigt Hill
#
# Bulk Modulus (GPa) = 54.76519 58.83556 56.80037
# Shear Modulus (GPa) = 15.02453 19.70258 17.36356
#
# Velocity S-wave (km/s) = 3.06830 3.51365 3.29850
# Velocity P-wave (km/s) = 6.84608 7.30259 7.07802
#
# Compressibility (1/GPa) = 0.01825977
#
# Stress axis : x y z
#
# Youngs Moduli (GPa) = 37.26039 65.89906 58.28763
#
# Poissons Ratio (x) = 0.35032 0.61102
# Poissons Ratio (y) = 0.19808 0.27137
# Poissons Ratio (z) = 0.39060 0.30681
#
# Static dielectric constant tensor:
#      x y z
#    x 2.954720 0.000000 0.000000 
#    y 0.000000 3.243720 0.000000 
#    z 0.000000 0.000000 3.004060 
# 
# 
# High freq. dielectric constant tensor:
#      x y z
#    x 1.607860 0.000000 0.000000 
#    y 0.000000 1.600030 0.000000 
#    z 0.000000 0.000000 1.602890 
# 
# From -- ./inp_files/5668.got.cif
#   From: 2010.03.12/outbox.cif.g09.slc.cpg/sg25_3_cif.got.tgz:5668.got - 2010.04.14 03:30:10.
