data_PCOD8166380
_publ_section_title
;
Structure prediction by ZEFSAII (Michael W. Deem and Ramdas Pophale) SiO2 
 PCOD8166380
Probable space group: P M M 2
;
_chemical_formula_sum "Si O2"
_cell_formula_units_Z 32
_cell_length_a 14.636072
_cell_length_b 8.948520
_cell_length_c 12.482769
_cell_angle_alpha 90.000000
_cell_angle_beta 90.000000
_cell_angle_gamma 90.000000
_cell_volume 1634.883023
_symmetry_space_group_name_H-M "P M M 2"
_symmetry_group_IT_number 25
_symmetry_cell_setting 'orthorhombic'
loop_
_space_group_symop_operation_xyz
x,y,z
-x,-y,z
-x,y,z
x,-y,z
loop_
_atom_site_type_symbol
_atom_site_label
_atom_site_fract_x
_atom_site_fract_y
_atom_site_fract_z
Si Si1 0.229266 0.677859 0.393250
Si Si2 0.894914 0.677165 0.591113
Si Si3 0.396669 0.172793 0.301353
Si Si4 0.792276 0.825097 0.786330
Si Si5 0.599018 0.171699 0.863686
Si Si6 0.634877 0.666957 0.077994
Si Si7 0.097746 0.322981 0.214052
Si Si8 0.836006 0.667378 0.996942
O O1 0.239374 0.500000 0.394218
O O2 0.168900 0.732952 0.493780
O O3 0.330181 0.749276 0.388967
O O4 0.177825 0.742191 0.288001
O O5 0.896339 0.500000 0.596016
O O6 0.847588 0.737182 0.697515
O O7 0.000000 0.735959 0.580141
O O8 0.500000 0.194424 0.343708
O O9 0.388839 0.241549 0.183574
O O10 0.370218 0.000000 0.293593
O O11 0.684583 0.774162 0.789903
O O12 0.837654 0.783084 0.899682
O O13 0.802719 0.000000 0.764737
O O14 0.500000 0.190377 0.804007
O O15 0.618091 0.000000 0.893386
O O16 0.589503 0.260191 0.973999
O O17 0.595518 0.500000 0.092034
O O18 0.741913 0.661541 0.060771
O O19 0.108671 0.500000 0.215913
O O20 0.000000 0.275237 0.263677
O O21 0.097448 0.270745 0.089776
O O22 0.861737 0.500000 0.955536
#
# Coordination Sequence:
#
# PCOD8166380 Si02
#       8
#     4   4   4   4   4   4   4   4
#     4  10  20  38  61  85 110 139 184 238 283 328
#     4  10  22  41  65  88 109 140 184 234 287 342
#     4  11  23  36  52  78 114 155 192 225 271 333
#     4  10  21  36  56  82 113 149 190 235 278 326
#     4   9  18  33  52  77 112 153 192 228 275 333
#     4  10  18  30  50  79 113 150 192 234 273 320
#     4   9  16  29  53  83 111 140 175 220 279 341
#     4   9  17  31  51  79 115 150 184 226 278 332
#
# _framework density 19.573264999999999
#
# number of rings (size 3 to 8) (size 9 to 14) (size 15 to 20)
#    0.000    2.250    1.250    1.875    0.000    6.500 
#    0.000    1.875    0.000    4.125    0.000    0.000 
#    0.000    0.000    0.000    0.000    0.000    0.000 
#
# Total GULP energy -396545.879515 kJ/mol
# GULP energy per Si atom -12392.058735 kJ/mol
# Density = 1.952872 g / cm^3
# Si number density = 19.573265 Si / 1000 Ang^3
#
#
#
# Elastic Constant Matrix: (Units=GPa)
#
#
# Indices 1 2 3 4 5 6 
#
# 1 128.2538 32.2351 63.4941 0.0000 0.0000 0.0000
# 2 32.2351 42.3229 25.0983 0.0000 0.0000 0.0000
# 3 63.4941 25.0983 87.5372 0.0000 0.0000 0.0000
# 4 0.0000 0.0000 0.0000 15.8409 0.0000 0.0000
# 5 0.0000 0.0000 0.0000 0.0000 18.0555 0.0000
# 6 0.0000 0.0000 0.0000 0.0000 0.0000 22.9783
#
#
#
# Elastic Compliance Matrix: (Units=1/GPa)
#
#
# Indices 1 2 3 4 5 6 
#
# 1 0.013056 -0.005215 -0.007975 0.000000 0.000000 0.000000
# 2 -0.005215 0.030551 -0.004977 0.000000 0.000000 0.000000
# 3 -0.007975 -0.004977 0.018635 0.000000 0.000000 0.000000
# 4 0.000000 0.000000 0.000000 0.063128 0.000000 0.000000
# 5 0.000000 0.000000 0.000000 0.000000 0.055385 0.000000
# 6 0.000000 0.000000 0.000000 0.000000 0.000000 0.043519
#
#
# Mechanical properties :
#
#
# Convention : Reuss Voigt Hill
#
# Bulk Modulus (GPa) = 38.59662 55.52988 47.06325
# Shear Modulus (GPa) = 18.57059 20.52737 19.54898
#
# Velocity S-wave (km/s) = 3.08356 3.24195 3.16374
# Velocity P-wave (km/s) = 5.69558 6.51502 6.11903
#
# Compressibility (1/GPa) = 0.02590900
#
# Stress axis : x y z
#
# Youngs Moduli (GPa) = 76.59513 32.73201 53.66234
#
# Poissons Ratio (x) = 0.17069 0.42794
# Poissons Ratio (y) = 0.39942 0.26708
# Poissons Ratio (z) = 0.61082 0.16291
#
# Static dielectric constant tensor:
#      x y z
#    x 3.942190 0.000000 0.000000 
#    y 0.000000 3.403980 0.000000 
#    z 0.000000 0.000000 3.443980 
# 
# 
# High freq. dielectric constant tensor:
#      x y z
#    x 1.780290 0.000000 0.000000 
#    y 0.000000 1.741360 0.000000 
#    z 0.000000 0.000000 1.740010 
# 
# From -- ./inp_files/4891.got.cif
#   From: 2010.03.12/outbox.cif.g09.slc.cpg/sg25_3_cif.got.tgz:4891.got - 2010.04.14 03:30:10.
