data_PCOD8166252
_publ_section_title
;
Structure prediction by ZEFSAII (Michael W. Deem and Ramdas Pophale) SiO2 
 PCOD8166252
Probable space group: I 21 21 21
;
_chemical_formula_sum "Si O2"
_cell_formula_units_Z 48
_cell_length_a 16.388200
_cell_length_b 7.860816
_cell_length_c 15.976042
_cell_angle_alpha 90.000000
_cell_angle_beta 90.000000
_cell_angle_gamma 90.000000
_cell_volume 2058.107616
_symmetry_space_group_name_H-M "I 21 21 21"
_symmetry_group_IT_number 24
_symmetry_cell_setting 'orthorhombic'
loop_
_space_group_symop_operation_xyz
x,y,z
-x,1/2-y,z
x,-y,1/2-z
1/2-x,y,-z
1/2+x,1/2+y,1/2+z
1/2-x,-y,1/2+z
1/2+x,1/2-y,-z
-x,1/2+y,1/2-z
loop_
_atom_site_type_symbol
_atom_site_label
_atom_site_fract_x
_atom_site_fract_y
_atom_site_fract_z
Si Si1 0.000000 0.250000 0.079750
Si Si2 0.596661 0.500000 0.250000
Si Si3 0.199905 0.264065 0.858576
Si Si4 0.097176 0.283709 0.374231
Si Si5 0.807231 0.000000 0.250000
Si Si6 0.406213 0.503436 0.476463
Si Si7 0.352758 0.064700 0.846075
Si Si8 0.000000 0.750000 0.865001
O O1 0.074840 0.202224 0.141068
O O2 0.015415 0.406223 0.017077
O O3 0.645944 0.648775 0.296585
O O4 0.539526 0.598085 0.186182
O O5 0.244438 0.418965 0.814172
O O6 0.149151 0.350334 0.933955
O O7 0.271417 0.139331 0.888580
O O8 0.133678 0.353280 0.286615
O O9 0.133831 0.414673 0.442601
O O10 0.000000 0.250000 0.367910
O O11 0.133466 0.103113 0.400344
O O12 0.431196 0.346833 0.417828
O O13 0.345799 0.000000 0.750000
#
# Coordination Sequence:
#
# PCOD8166252 Si02
#       8
#     4   4   8   8   4   8   8   4
#     4  12  26  45  73 108 148 200 252 304 380 455
#     4  12  24  47  77 110 144 204 260 314 372 459
#     4  12  26  47  72 110 151 195 247 318 385 447
#     4  12  26  45  74 110 150 199 258 312 377 454
#     4  12  26  45  73 108 148 200 252 304 380 455
#     4  12  26  47  72 110 151 195 247 318 385 447
#     4  12  26  45  74 110 150 199 258 312 377 454
#     4  12  24  47  77 110 144 204 260 314 372 459
#
# _framework density 23.322398
#
# number of rings (size 3 to 8) (size 9 to 14) (size 15 to 20)
#    0.000    0.000    5.000    4.000    2.333    2.667 
#    0.000    1.667    0.000    0.000    0.000    0.000 
#    0.000    0.000    0.000    0.000    0.000    0.000 
#
# Total GULP energy -297355.038098 kJ/mol
# GULP energy per Si atom -12389.793254 kJ/mol
# Density = 2.326932 g / cm^3
# Si number density = 23.322398 Si / 1000 Ang^3
#
#
#
# Elastic Constant Matrix: (Units=GPa)
#
#
# Indices 1 2 3 4 5 6 
#
# 1 105.2081 33.7816 37.9119 0.0000 0.0000 0.0000
# 2 33.7816 112.9739 16.6717 0.0000 0.0000 0.0000
# 3 37.9119 16.6717 69.8792 0.0000 0.0000 0.0000
# 4 0.0000 0.0000 0.0000 57.4349 0.0000 0.0000
# 5 0.0000 0.0000 0.0000 0.0000 1.9284 0.0000
# 6 0.0000 0.0000 0.0000 0.0000 0.0000 40.2673
#
#
#
# Elastic Compliance Matrix: (Units=1/GPa)
#
#
# Indices 1 2 3 4 5 6 
#
# 1 0.012654 -0.002872 -0.006180 0.000000 0.000000 0.000000
# 2 -0.002872 0.009826 -0.000786 0.000000 0.000000 0.000000
# 3 -0.006180 -0.000786 0.017851 0.000000 0.000000 0.000000
# 4 0.000000 0.000000 0.000000 0.017411 0.000000 0.000000
# 5 0.000000 0.000000 0.000000 0.000000 0.518554 0.000000
# 6 0.000000 0.000000 0.000000 0.000000 0.000000 0.024834
#
#
# Mechanical properties :
#
#
# Convention : Reuss Voigt Hill
#
# Bulk Modulus (GPa) = 48.41469 51.64352 50.02910
# Shear Modulus (GPa) = 7.96570 33.23920 20.60245
#
# Velocity S-wave (km/s) = 1.85010 3.77928 2.97539
# Velocity P-wave (km/s) = 5.03665 6.42148 5.77075
#
# Compressibility (1/GPa) = 0.02065489
#
# Stress axis : x y z
#
# Youngs Moduli (GPa) = 79.02563 101.76688 56.01949
#
# Poissons Ratio (x) = 0.29226 0.34621
# Poissons Ratio (y) = 0.22695 0.04405
# Poissons Ratio (z) = 0.48839 0.08002
#
# Static dielectric constant tensor:
#      x y z
#    x 4.215780 0.000000 0.000000 
#    y 0.000000 5.179250 0.000000 
#    z 0.000000 0.000000 4.148550 
# 
# 
# High freq. dielectric constant tensor:
#      x y z
#    x 1.916560 0.000000 0.000000 
#    y 0.000000 1.960970 0.000000 
#    z 0.000000 0.000000 1.918810 
# 
# From -- ./inp_files/30778.got.cif
#   From: 2010.03.12/outbox.cif.g09.slc.cpg/sg24_16_cif.got.tgz:30778.got - 2010.04.14 03:06:53.
