data_PCOD8166852
_publ_section_title
;
Structure prediction by ZEFSAII (Michael W. Deem and Ramdas Pophale) SiO2 
 PCOD8166852
Probable space group: P M M 2
;
_chemical_formula_sum "Si O2"
_cell_formula_units_Z 20
_cell_length_a 7.756133
_cell_length_b 9.049600
_cell_length_c 14.743313
_cell_angle_alpha 90.000000
_cell_angle_beta 90.000000
_cell_angle_gamma 90.000000
_cell_volume 1034.831683
_symmetry_space_group_name_H-M "P M M 2"
_symmetry_group_IT_number 25
_symmetry_cell_setting 'orthorhombic'
loop_
_space_group_symop_operation_xyz
x,y,z
-x,-y,z
-x,y,z
x,-y,z
loop_
_atom_site_type_symbol
_atom_site_label
_atom_site_fract_x
_atom_site_fract_y
_atom_site_fract_z
Si Si1 0.500000 0.175173 0.701010
Si Si2 0.193517 0.673057 0.011809
Si Si3 0.500000 0.175949 0.906584
Si Si4 0.803905 0.174736 0.573706
Si Si5 0.697653 0.669010 0.202826
Si Si6 0.202748 0.664893 0.394034
O O1 0.500000 0.234040 0.803392
O O2 0.674169 0.232695 0.651621
O O3 0.500000 0.000000 0.699969
O O4 0.244790 0.500000 0.009204
O O5 0.199309 0.732244 0.116104
O O6 0.000000 0.698784 0.974435
O O7 0.326321 0.764084 0.951651
O O8 0.500000 0.000000 0.913329
O O9 0.733693 0.238870 0.478765
O O10 0.000000 0.227818 0.595914
O O11 0.797876 0.000000 0.565167
O O12 0.500000 0.688523 0.176974
O O13 0.753526 0.500000 0.216569
O O14 0.739376 0.745224 0.299725
O O15 0.283516 0.500000 0.402539
O O16 0.000000 0.655637 0.394908
#
# Coordination Sequence:
#
# PCOD8166852 Si02
#       6
#     2   4   2   4   4   4
#     4   9  20  37  56  75  98 134 177 217 262 323
#     4  10  20  37  61  84 110 147 187 226 271 326
#     4  11  23  39  58  83 112 140 181 235 286 333
#     4   9  18  34  54  74  99 134 174 213 256 311
#     4   9  16  28  50  78 107 140 179 215 253 314
#     4   9  17  29  47  75 107 136 171 213 255 303
#
# _framework density 19.326815
#
# number of rings (size 3 to 8) (size 9 to 14) (size 15 to 20)
#    0.000    2.600    1.000    0.900    1.400    3.600 
#    0.000    5.000    0.000    4.800    0.000    0.000 
#    0.000    0.000    0.000    0.000    0.000    0.000 
#
# Total GULP energy -247882.718315 kJ/mol
# GULP energy per Si atom -12394.135916 kJ/mol
# Density = 1.928283 g / cm^3
# Si number density = 19.326815 Si / 1000 Ang^3
#
#
#
# Elastic Constant Matrix: (Units=GPa)
#
#
# Indices 1 2 3 4 5 6 
#
# 1 107.2162 31.3526 79.0034 0.0000 0.0000 0.0000
# 2 31.3526 36.9656 39.0799 0.0000 0.0000 0.0000
# 3 79.0034 39.0799 173.0255 0.0000 0.0000 0.0000
# 4 0.0000 0.0000 0.0000 27.9814 0.0000 0.0000
# 5 0.0000 0.0000 0.0000 0.0000 25.1547 0.0000
# 6 0.0000 0.0000 0.0000 0.0000 0.0000 19.4942
#
#
#
# Elastic Compliance Matrix: (Units=1/GPa)
#
#
# Indices 1 2 3 4 5 6 
#
# 1 0.015466 -0.007425 -0.005385 0.000000 0.000000 0.000000
# 2 -0.007425 0.039102 -0.005442 0.000000 0.000000 0.000000
# 3 -0.005385 -0.005442 0.009467 0.000000 0.000000 0.000000
# 4 0.000000 0.000000 0.000000 0.035738 0.000000 0.000000
# 5 0.000000 0.000000 0.000000 0.000000 0.039754 0.000000
# 6 0.000000 0.000000 0.000000 0.000000 0.000000 0.051297
#
#
# Mechanical properties :
#
#
# Convention : Reuss Voigt Hill
#
# Bulk Modulus (GPa) = 36.31968 68.45322 52.38645
# Shear Modulus (GPa) = 21.14122 25.71084 23.42603
#
# Velocity S-wave (km/s) = 3.31097 3.65131 3.48530
# Velocity P-wave (km/s) = 5.78359 7.29875 6.58489
#
# Compressibility (1/GPa) = 0.02753328
#
# Stress axis : x y z
#
# Youngs Moduli (GPa) = 64.65817 25.57389 105.62749
#
# Poissons Ratio (x) = 0.18988 0.56878
# Poissons Ratio (y) = 0.48007 0.57478
# Poissons Ratio (z) = 0.34817 0.13916
#
# Static dielectric constant tensor:
#      x y z
#    x 3.604650 0.000000 0.000000 
#    y 0.000000 2.889700 0.000000 
#    z 0.000000 0.000000 3.810920 
# 
# 
# High freq. dielectric constant tensor:
#      x y z
#    x 1.761390 0.000000 0.000000 
#    y 0.000000 1.702010 0.000000 
#    z 0.000000 0.000000 1.759540 
# 
# From -- ./inp_files/5132.got.cif
#   From: 2010.03.12/outbox.cif.g09.slc.cpg/sg25_3_cif.got.tgz:5132.got - 2010.04.14 03:30:10.
