data_PCOD8166474
_publ_section_title
;
Structure prediction by ZEFSAII (Michael W. Deem and Ramdas Pophale) SiO2 
 PCOD8166474
Probable space group: P M M 2
;
_chemical_formula_sum "Si O2"
_cell_formula_units_Z 24
_cell_length_a 26.937557
_cell_length_b 8.540037
_cell_length_c 5.174904
_cell_angle_alpha 90.000000
_cell_angle_beta 90.000000
_cell_angle_gamma 90.000000
_cell_volume 1190.474936
_symmetry_space_group_name_H-M "P M M 2"
_symmetry_group_IT_number 25
_symmetry_cell_setting 'orthorhombic'
loop_
_space_group_symop_operation_xyz
x,y,z
-x,-y,z
-x,y,z
x,-y,z
loop_
_atom_site_type_symbol
_atom_site_label
_atom_site_fract_x
_atom_site_fract_y
_atom_site_fract_z
Si Si1 0.276058 0.314056 0.607550
Si Si2 0.057561 0.182160 0.584899
Si Si3 0.386033 0.814088 0.604439
Si Si4 0.780842 0.313822 0.106823
Si Si5 0.106502 0.315985 0.084220
Si Si6 0.444189 0.186383 0.104296
O O1 0.276047 0.500000 0.607513
O O2 0.331643 0.255019 0.601614
O O3 0.246618 0.248297 0.360004
O O4 0.248281 0.246763 0.859147
O O5 0.074119 0.227035 0.296876
O O6 0.000000 0.223530 0.613136
O O7 0.067669 0.000000 0.632351
O O8 0.087239 0.281058 0.796971
O O9 0.415093 0.750945 0.854503
O O10 0.382614 0.000000 0.604743
O O11 0.415683 0.751328 0.356049
O O12 0.780243 0.500000 0.101046
O O13 0.837232 0.253636 0.104471
O O14 0.103201 0.500000 0.137673
O O15 0.500000 0.254368 0.102897
O O16 0.446100 0.000000 0.103634
#
# Coordination Sequence:
#
# PCOD8166474 Si02
#       6
#     4   4   4   4   4   4
#     4  10  19  34  54  74 102 139 172 204 260 326
#     4  11  24  41  59  84 122 159 186 224 289 355
#     4  10  19  31  49  74 100 125 164 214 253 295
#     4   9  19  35  55  78 104 137 176 220 265 313
#     4  11  22  39  64  89 112 145 198 249 278 319
#     4   9  17  30  49  71  96 129 166 205 253 305
#
# _framework density 20.160018999999998
#
# number of rings (size 3 to 8) (size 9 to 14) (size 15 to 20)
#    0.000    2.000    0.000    4.000    0.000    8.000 
#    0.000    5.000    0.000    3.000    0.000    0.000 
#    0.000    0.000    0.000    0.000    0.000    0.000 
#
# Total GULP energy -297682.620238 kJ/mol
# GULP energy per Si atom -12403.442510 kJ/mol
# Density = 2.011413 g / cm^3
# Si number density = 20.160019 Si / 1000 Ang^3
#
#
#
# Elastic Constant Matrix: (Units=GPa)
#
#
# Indices 1 2 3 4 5 6 
#
# 1 158.2989 35.1827 65.7240 0.0000 0.0000 0.0000
# 2 35.1827 19.7615 21.1482 0.0000 0.0000 0.0000
# 3 65.7240 21.1482 165.1195 0.0000 0.0000 0.0000
# 4 0.0000 0.0000 0.0000 17.3027 0.0000 0.0000
# 5 0.0000 0.0000 0.0000 0.0000 49.4666 0.0000
# 6 0.0000 0.0000 0.0000 0.0000 0.0000 30.0863
#
#
#
# Elastic Compliance Matrix: (Units=1/GPa)
#
#
# Indices 1 2 3 4 5 6 
#
# 1 0.011095 -0.017414 -0.002186 0.000000 0.000000 0.000000
# 2 -0.017414 0.085973 -0.004080 0.000000 0.000000 0.000000
# 3 -0.002186 -0.004080 0.007449 0.000000 0.000000 0.000000
# 4 0.000000 0.000000 0.000000 0.057795 0.000000 0.000000
# 5 0.000000 0.000000 0.000000 0.000000 0.020216 0.000000
# 6 0.000000 0.000000 0.000000 0.000000 0.000000 0.033238
#
#
# Mechanical properties :
#
#
# Convention : Reuss Voigt Hill
#
# Bulk Modulus (GPa) = 17.49558 65.25440 41.37499
# Shear Modulus (GPa) = 17.71941 34.11278 25.91610
#
# Velocity S-wave (km/s) = 2.96791 4.11798 3.58930
# Velocity P-wave (km/s) = 4.52126 7.41949 6.14372
#
# Compressibility (1/GPa) = 0.05715730
#
# Stress axis : x y z
#
# Youngs Moduli (GPa) = 90.13011 11.63159 134.24928
#
# Poissons Ratio (x) = 0.20255 0.29346
# Poissons Ratio (y) = 1.56952 0.54771
# Poissons Ratio (z) = 0.19702 0.04745
#
# Static dielectric constant tensor:
#      x y z
#    x 3.831220 0.000000 0.000000 
#    y 0.000000 3.230170 0.000000 
#    z 0.000000 0.000000 4.044620 
# 
# 
# High freq. dielectric constant tensor:
#      x y z
#    x 1.806340 0.000000 0.000000 
#    y 0.000000 1.747630 0.000000 
#    z 0.000000 0.000000 1.808060 
# 
# From -- ./inp_files/310.got.cif
#   From: 2010.03.12/outbox.cif.g09.slc.cpg/sg25_1_cif.got.tgz:310.got - 2010.04.14 03:30:10.
