data_PCOD8166016
_publ_section_title
;
Structure prediction by ZEFSAII (Michael W. Deem and Ramdas Pophale) SiO2 
 PCOD8166016
Probable space group: I 21 21 21
;
_chemical_formula_sum "Si O2"
_cell_formula_units_Z 44
_cell_length_a 9.525589
_cell_length_b 18.359149
_cell_length_c 12.954835
_cell_angle_alpha 90.000000
_cell_angle_beta 90.000000
_cell_angle_gamma 90.000000
_cell_volume 2265.563669
_symmetry_space_group_name_H-M "I 21 21 21"
_symmetry_group_IT_number 24
_symmetry_cell_setting 'orthorhombic'
loop_
_space_group_symop_operation_xyz
x,y,z
-x,1/2-y,z
x,-y,1/2-z
1/2-x,y,-z
1/2+x,1/2+y,1/2+z
1/2-x,-y,1/2+z
1/2+x,1/2-y,-z
-x,1/2+y,1/2-z
loop_
_atom_site_type_symbol
_atom_site_label
_atom_site_fract_x
_atom_site_fract_y
_atom_site_fract_z
Si Si1 0.519870 0.500000 0.750000
Si Si2 0.376058 0.920294 0.426968
Si Si3 0.132571 0.430879 0.069846
Si Si4 0.740089 0.568430 0.123255
Si Si5 0.334209 0.733969 0.597955
Si Si6 0.376119 0.193495 0.240875
O O1 0.404235 0.463944 0.821545
O O2 0.612980 0.559358 0.813913
O O3 0.250000 0.894042 0.500000
O O4 0.493788 0.939273 0.505874
O O5 0.430094 0.856303 0.353074
O O6 0.338658 0.991214 0.357821
O O7 0.190130 0.351488 0.096319
O O8 0.250000 0.471867 0.000000
O O9 0.659121 0.640061 0.163716
O O10 0.750000 0.578946 0.000000
O O11 0.500000 0.750000 0.591531
O O12 0.250000 0.767912 0.500000
O O13 0.266116 0.765742 0.703414
O O14 0.500000 0.250000 0.271381
#
# Coordination Sequence:
#
# PCOD8166016 Si02
#       6
#     4   8   8   8   8   8
#     4  12  20  44  66  92 128 172 224 276 322 396
#     4  11  19  39  69  96 121 165 224 276 313 386
#     4  11  23  38  58  97 130 162 210 276 344 379
#     4  11  22  41  70  93 119 172 236 265 300 391
#     4  11  21  36  58  91 130 164 205 265 335 397
#     4  12  23  38  62  96 132 167 208 267 334 391
#
# _framework density 19.421215
#
# number of rings (size 3 to 8) (size 9 to 14) (size 15 to 20)
#    0.000    0.727    5.455    6.545    0.000    0.000 
#    6.545    2.727    0.000    0.000    0.000    0.000 
#    0.000    0.000    0.000    0.000    0.000    0.000 
#
# Total GULP energy -272591.676113 kJ/mol
# GULP energy per Si atom -12390.530732 kJ/mol
# Density = 1.937701 g / cm^3
# Si number density = 19.421215 Si / 1000 Ang^3
#
#
#
# Elastic Constant Matrix: (Units=GPa)
#
#
# Indices 1 2 3 4 5 6 
#
# 1 108.3697 38.4336 48.8780 0.0000 -0.0006 0.0000
# 2 38.4336 104.1297 44.5348 -0.0001 0.0018 0.0000
# 3 48.8780 44.5348 115.9795 -0.0001 -0.0007 -0.0001
# 4 0.0000 -0.0001 -0.0001 40.7155 0.0007 -0.0001
# 5 -0.0006 0.0018 -0.0007 0.0007 -546.4496 0.0005
# 6 0.0000 0.0000 -0.0001 -0.0001 0.0005 27.5378
#
#
#
# Elastic Compliance Matrix: (Units=1/GPa)
#
#
# Indices 1 2 3 4 5 6 
#
# 1 0.012001 -0.002712 -0.004016 0.000000 0.000000 0.000000
# 2 -0.002712 0.012103 -0.003505 0.000000 0.000000 0.000000
# 3 -0.004016 -0.003505 0.011661 0.000000 0.000000 0.000000
# 4 0.000000 0.000000 0.000000 0.024561 0.000000 0.000000
# 5 0.000000 0.000000 0.000000 0.000000 -0.001830 0.000000
# 6 0.000000 0.000000 0.000000 0.000000 0.000000 0.036314
#
#
# Mechanical properties :
#
#
# Convention : Reuss Voigt Hill
#
# Bulk Modulus (GPa) = 65.36284 65.79685 65.57984
# Shear Modulus (GPa) = 41.53715 -82.53043 -20.49664
#
# Velocity S-wave (km/s) = 4.62968 -6.52589 -3.25218
# Velocity P-wave (km/s) = 7.89348 4.77814 4.44277
#
# Compressibility (1/GPa) = 0.01529921
#
# Stress axis : x y z
#
# Youngs Moduli (GPa) = 83.32721 82.62292 85.75887
#
# Poissons Ratio (x) = 0.22405 0.34444
# Poissons Ratio (y) = 0.22596 0.30056
# Poissons Ratio (z) = 0.33467 0.28957
#
# Static dielectric constant tensor:
#      x y z
#    x 3.577900 0.000000 0.000000 
#    y 0.000000 3.863630 0.000000 
#    z 0.000000 0.000000 3.608580 
# 
# 
# High freq. dielectric constant tensor:
#      x y z
#    x 1.753320 0.000000 0.000000 
#    y 0.000000 1.752730 0.000000 
#    z 0.000000 0.000000 1.754750 
# 
# From -- ./inp_files/12644.got.cif
#   From: 2010.03.12/outbox.cif.g09.slc.cpg/sg24_7_cif.got.tgz:12644.got - 2010.04.14 03:06:53.
