data_PCOD8166970
_publ_section_title
;
Structure prediction by ZEFSAII (Michael W. Deem and Ramdas Pophale) SiO2 
 PCOD8166970
Probable space group: P M M 2
;
_chemical_formula_sum "Si O2"
_cell_formula_units_Z 20
_cell_length_a 7.735676
_cell_length_b 9.213463
_cell_length_c 14.238284
_cell_angle_alpha 90.000000
_cell_angle_beta 90.000000
_cell_angle_gamma 90.000000
_cell_volume 1014.796169
_symmetry_space_group_name_H-M "P M M 2"
_symmetry_group_IT_number 25
_symmetry_cell_setting 'orthorhombic'
loop_
_space_group_symop_operation_xyz
x,y,z
-x,-y,z
-x,y,z
x,-y,z
loop_
_atom_site_type_symbol
_atom_site_label
_atom_site_fract_x
_atom_site_fract_y
_atom_site_fract_z
Si Si1 0.800419 0.669790 0.513530
Si Si2 0.808216 0.335283 0.953607
Si Si3 0.304379 0.838005 0.125998
Si Si4 0.798900 0.337365 0.298658
Si Si5 0.500000 0.671823 0.819972
Si Si6 0.500000 0.173710 0.623124
O O1 0.761711 0.500000 0.531532
O O2 0.764397 0.710581 0.405440
O O3 0.673977 0.767924 0.574790
O O4 0.000000 0.703949 0.539779
O O5 0.763881 0.500000 0.981087
O O6 0.807971 0.247109 0.050219
O O7 0.000000 0.321242 0.909130
O O8 0.669914 0.280669 0.877807
O O9 0.500000 0.837869 0.089659
O O10 0.300489 0.768618 0.229126
O O11 0.229830 0.000000 0.133623
O O12 0.728830 0.500000 0.283277
O O13 0.000000 0.330454 0.275079
O O14 0.500000 0.500000 0.795835
O O15 0.500000 0.768867 0.728372
O O16 0.500000 0.000000 0.620994
#
# Coordination Sequence:
#
# PCOD8166970 Si02
#       6
#     4   4   4   4   2   2
#     4   9  20  41  66  90 118 157 207 255 296 346
#     4  10  21  39  64  89 112 146 195 245 291 340
#     4  11  23  35  51  82 124 162 195 231 283 351
#     4   9  19  36  58  84 113 150 199 247 287 334
#     4  10  22  42  63  86 115 148 195 248 296 348
#     4  12  26  40  61  92 127 158 191 242 308 372
#
# _framework density 19.708390000000001
#
# number of rings (size 3 to 8) (size 9 to 14) (size 15 to 20)
#    0.000    2.000    1.000    3.300    1.400    7.200 
#    0.000    4.000    0.000    0.000    0.000    0.000 
#    0.000    0.000    0.000    0.000    0.000    0.000 
#
# Total GULP energy -248020.225763 kJ/mol
# GULP energy per Si atom -12401.011288 kJ/mol
# Density = 1.966353 g / cm^3
# Si number density = 19.708390 Si / 1000 Ang^3
#
#
#
# Elastic Constant Matrix: (Units=GPa)
#
#
# Indices 1 2 3 4 5 6 
#
# 1 115.5623 53.9898 63.6071 0.0000 0.0000 0.0000
# 2 53.9898 117.1794 76.1001 0.0000 0.0000 0.0000
# 3 63.6071 76.1001 131.7562 0.0000 0.0000 0.0000
# 4 0.0000 0.0000 0.0000 -1.5977 0.0000 0.0000
# 5 0.0000 0.0000 0.0000 0.0000 23.1383 0.0000
# 6 0.0000 0.0000 0.0000 0.0000 0.0000 22.1197
#
#
#
# Elastic Compliance Matrix: (Units=1/GPa)
#
#
# Indices 1 2 3 4 5 6 
#
# 1 0.012378 -0.002916 -0.004291 0.000000 0.000000 0.000000
# 2 -0.002916 0.014343 -0.006877 0.000000 0.000000 0.000000
# 3 -0.004291 -0.006877 0.013633 0.000000 0.000000 0.000000
# 4 0.000000 0.000000 0.000000 -0.625889 0.000000 0.000000
# 5 0.000000 0.000000 0.000000 0.000000 0.043218 0.000000
# 6 0.000000 0.000000 0.000000 0.000000 0.000000 0.045209
#
#
# Mechanical properties :
#
#
# Convention : Reuss Voigt Hill
#
# Bulk Modulus (GPa) = 82.05910 83.54355 82.80132
# Shear Modulus (GPa) = -10.75553 20.11878 4.68162
#
# Velocity S-wave (km/s) = -2.33863 3.19850 1.54292
# Velocity P-wave (km/s) = 5.86812 7.49149 6.72894
#
# Compressibility (1/GPa) = 0.01218634
#
# Stress axis : x y z
#
# Youngs Moduli (GPa) = 80.79079 69.71807 73.34978
#
# Poissons Ratio (x) = 0.20330 0.31476
# Poissons Ratio (y) = 0.23559 0.50441
# Poissons Ratio (z) = 0.34669 0.47943
#
# Static dielectric constant tensor:
#      x y z
#    x 3.643940 0.000000 0.000000 
#    y 0.000000 3.516310 0.000000 
#    z 0.000000 0.000000 3.459140 
# 
# 
# High freq. dielectric constant tensor:
#      x y z
#    x 1.779800 0.000000 0.000000 
#    y 0.000000 1.756570 0.000000 
#    z 0.000000 0.000000 1.762290 
# 
# From -- ./inp_files/5169.got.cif
#   From: 2010.03.12/outbox.cif.g09.slc.cpg/sg25_3_cif.got.tgz:5169.got - 2010.04.14 03:30:10.
