data_PCOD8166079
_publ_section_title
;
Structure prediction by ZEFSAII (Michael W. Deem and Ramdas Pophale) SiO2 
 PCOD8166079
Probable space group: I 21 21 21
;
_chemical_formula_sum "Si O2"
_cell_formula_units_Z 52
_cell_length_a 19.689094
_cell_length_b 18.714906
_cell_length_c 7.315661
_cell_angle_alpha 90.000000
_cell_angle_beta 90.000000
_cell_angle_gamma 90.000000
_cell_volume 2695.671425
_symmetry_space_group_name_H-M "I 21 21 21"
_symmetry_group_IT_number 24
_symmetry_cell_setting 'orthorhombic'
loop_
_space_group_symop_operation_xyz
x,y,z
-x,1/2-y,z
x,-y,1/2-z
1/2-x,y,-z
1/2+x,1/2+y,1/2+z
1/2-x,-y,1/2+z
1/2+x,1/2-y,-z
-x,1/2+y,1/2-z
loop_
_atom_site_type_symbol
_atom_site_label
_atom_site_fract_x
_atom_site_fract_y
_atom_site_fract_z
Si Si1 0.676473 0.724140 0.571599
Si Si2 0.991165 0.420900 0.309290
Si Si3 0.484452 0.421420 0.275541
Si Si4 0.242337 0.000000 0.750000
Si Si5 0.341513 0.114492 0.621325
Si Si6 0.635153 0.608519 0.294637
Si Si7 0.051631 0.684912 0.480571
O O1 0.750000 0.748761 0.500000
O O2 0.685304 0.682868 0.764641
O O3 0.638191 0.675235 0.425749
O O4 0.626700 0.791740 0.585666
O O5 0.013824 0.500000 0.250000
O O6 0.015519 0.401394 0.512390
O O7 0.910550 0.413429 0.288835
O O8 0.025441 0.363649 0.181559
O O9 0.451734 0.500000 0.250000
O O10 0.560467 0.425423 0.190524
O O11 0.442017 0.638770 0.332770
O O12 0.288088 0.049713 0.621990
O O13 0.190979 0.050921 0.867106
O O14 0.349870 0.136006 0.410587
O O15 0.000000 0.750000 0.513561
#
# Coordination Sequence:
#
# PCOD8166079 Si02
#       7
#     8   8   8   4   8   8   8
#     4  12  26  42  60  86 130 171 204 253 323 365
#     4  11  22  39  65  93 126 164 212 267 317 365
#     4  11  22  39  65  93 126 164 212 267 317 365
#     4  12  22  32  54  90 136 174 200 230 286 386
#     4  11  24  35  55  89 128 171 208 241 293 379
#     4  11  24  35  55  89 128 171 208 241 293 379
#     4  12  24  42  64  96 129 163 219 266 312 384
#
# _framework density 19.290185999999999
#
# number of rings (size 3 to 8) (size 9 to 14) (size 15 to 20)
#    0.000    0.615    7.692    0.462    4.308    1.846 
#    0.000    0.000    0.000    0.923    0.000    0.000 
#    0.000    0.000    0.000    0.000    0.000    0.000 
#
# Total GULP energy -322453.087920 kJ/mol
# GULP energy per Si atom -12402.041843 kJ/mol
# Density = 1.924628 g / cm^3
# Si number density = 19.290186 Si / 1000 Ang^3
#
#
#
# Elastic Constant Matrix: (Units=GPa)
#
#
# Indices 1 2 3 4 5 6 
#
# 1 75.6733 45.6844 30.0107 0.0000 0.0000 0.0000
# 2 45.6844 112.2662 43.9019 0.0000 0.0000 0.0000
# 3 30.0107 43.9019 81.4833 0.0000 0.0000 0.0000
# 4 0.0000 0.0000 0.0000 30.0495 0.0000 0.0000
# 5 0.0000 0.0000 0.0000 0.0000 17.7114 0.0000
# 6 0.0000 0.0000 0.0000 0.0000 0.0000 33.7068
#
#
#
# Elastic Compliance Matrix: (Units=1/GPa)
#
#
# Indices 1 2 3 4 5 6 
#
# 1 0.018252 -0.006079 -0.003447 0.000000 0.000000 0.000000
# 2 -0.006079 0.013310 -0.004932 0.000000 0.000000 0.000000
# 3 -0.003447 -0.004932 0.016199 0.000000 0.000000 0.000000
# 4 0.000000 0.000000 0.000000 0.033278 0.000000 0.000000
# 5 0.000000 0.000000 0.000000 0.000000 0.056461 0.000000
# 6 0.000000 0.000000 0.000000 0.000000 0.000000 0.029668
#
#
# Mechanical properties :
#
#
# Convention : Reuss Voigt Hill
#
# Bulk Modulus (GPa) = 53.06582 56.51298 54.78940
# Shear Modulus (GPa) = 24.70772 26.28193 25.49482
#
# Velocity S-wave (km/s) = 3.58277 3.69514 3.63939
# Velocity P-wave (km/s) = 6.68461 6.89676 6.79151
#
# Compressibility (1/GPa) = 0.01884452
#
# Stress axis : x y z
#
# Youngs Moduli (GPa) = 54.78930 75.13168 61.73109
#
# Poissons Ratio (x) = 0.45675 0.21277
# Poissons Ratio (y) = 0.33308 0.30447
# Poissons Ratio (z) = 0.18885 0.37056
#
# Static dielectric constant tensor:
#      x y z
#    x 3.466270 0.000000 0.000000 
#    y 0.000000 3.575370 0.000000 
#    z 0.000000 0.000000 3.566780 
# 
# 
# High freq. dielectric constant tensor:
#      x y z
#    x 1.725840 0.000000 0.000000 
#    y 0.000000 1.732730 0.000000 
#    z 0.000000 0.000000 1.769470 
# 
# From -- ./inp_files/15181.got.cif
#   From: 2010.03.12/outbox.cif.g09.slc.cpg/sg24_8_cif.got.tgz:15181.got - 2010.04.14 03:06:53.
