data_PCOD8166844
_publ_section_title
;
Structure prediction by ZEFSAII (Michael W. Deem and Ramdas Pophale) SiO2 
 PCOD8166844
Probable space group: P M M 2
;
_chemical_formula_sum "Si O2"
_cell_formula_units_Z 24
_cell_length_a 18.660558
_cell_length_b 8.975509
_cell_length_c 7.504492
_cell_angle_alpha 90.000000
_cell_angle_beta 90.000000
_cell_angle_gamma 90.000000
_cell_volume 1256.912403
_symmetry_space_group_name_H-M "P M M 2"
_symmetry_group_IT_number 25
_symmetry_cell_setting 'orthorhombic'
loop_
_space_group_symop_operation_xyz
x,y,z
-x,-y,z
-x,y,z
x,-y,z
loop_
_atom_site_type_symbol
_atom_site_label
_atom_site_fract_x
_atom_site_fract_y
_atom_site_fract_z
Si Si1 0.181538 0.674801 0.461090
Si Si2 0.164952 0.173468 0.826135
Si Si3 0.330424 0.826357 0.460586
Si Si4 0.917074 0.328841 0.131661
Si Si5 0.582647 0.327127 0.166187
Si Si6 0.671618 0.170571 0.869271
O O1 0.192784 0.500000 0.483324
O O2 0.150413 0.739806 0.643714
O O3 0.256924 0.746655 0.406487
O O4 0.124875 0.715735 0.309336
O O5 0.244765 0.206831 0.897487
O O6 0.155346 0.000000 0.785623
O O7 0.107668 0.225712 0.970006
O O8 0.394233 0.763732 0.340541
O O9 0.350516 0.796910 0.665746
O O10 0.319576 0.000000 0.423073
O O11 0.902262 0.500000 0.079722
O O12 0.000000 0.298704 0.169226
O O13 0.500000 0.292610 0.128617
O O14 0.596802 0.500000 0.202515
O O15 0.626644 0.279216 0.992943
O O16 0.654862 0.000000 0.920934
#
# Coordination Sequence:
#
# PCOD8166844 Si02
#       6
#     4   4   4   4   4   4
#     4  10  20  36  60  85 110 145 186 230 278 327
#     4  10  21  37  58  85 113 142 182 231 279 329
#     4  10  21  38  60  84 110 143 185 232 277 326
#     4  10  22  38  55  79 112 149 187 226 272 328
#     4  11  24  38  54  81 115 148 182 224 275 330
#     4   9  20  38  59  82 108 141 182 227 273 324
#
# _framework density 19.094408999999999
#
# number of rings (size 3 to 8) (size 9 to 14) (size 15 to 20)
#    0.000    2.000    0.000    4.000    0.000   11.000 
#    0.000    5.000    0.000    0.000    0.000    0.000 
#    0.000    0.000    0.000    0.000    0.000    0.000 
#
# Total GULP energy -297731.743876 kJ/mol
# GULP energy per Si atom -12405.489328 kJ/mol
# Density = 1.905095 g / cm^3
# Si number density = 19.094409 Si / 1000 Ang^3
#
#
#
# Elastic Constant Matrix: (Units=GPa)
#
#
# Indices 1 2 3 4 5 6 
#
# 1 61.5869 29.0177 39.3280 0.0000 0.0000 0.0000
# 2 29.0177 84.2762 42.6234 0.0000 0.0000 0.0000
# 3 39.3280 42.6234 94.6157 0.0000 0.0000 0.0000
# 4 0.0000 0.0000 0.0000 34.4341 0.0000 0.0000
# 5 0.0000 0.0000 0.0000 0.0000 10.2530 0.0000
# 6 0.0000 0.0000 0.0000 0.0000 0.0000 22.7771
#
#
#
# Elastic Compliance Matrix: (Units=1/GPa)
#
#
# Indices 1 2 3 4 5 6 
#
# 1 0.023107 -0.004013 -0.007797 0.000000 0.000000 0.000000
# 2 -0.004013 0.016064 -0.005569 0.000000 0.000000 0.000000
# 3 -0.007797 -0.005569 0.016319 0.000000 0.000000 0.000000
# 4 0.000000 0.000000 0.000000 0.029041 0.000000 0.000000
# 5 0.000000 0.000000 0.000000 0.000000 0.097532 0.000000
# 6 0.000000 0.000000 0.000000 0.000000 0.000000 0.043904
#
#
# Mechanical properties :
#
#
# Convention : Reuss Voigt Hill
#
# Bulk Modulus (GPa) = 48.23315 51.37966 49.80641
# Shear Modulus (GPa) = 18.68227 22.12681 20.40454
#
# Velocity S-wave (km/s) = 3.13136 3.40782 3.27251
# Velocity P-wave (km/s) = 6.19589 6.51544 6.35767
#
# Compressibility (1/GPa) = 0.02073263
#
# Stress axis : x y z
#
# Youngs Moduli (GPa) = 43.27727 62.25183 61.27993
#
# Poissons Ratio (x) = 0.24980 0.47779
# Poissons Ratio (y) = 0.17366 0.34125
# Poissons Ratio (z) = 0.33743 0.34666
#
# Static dielectric constant tensor:
#      x y z
#    x 3.441730 0.000000 0.000000 
#    y 0.000000 3.573880 0.000000 
#    z 0.000000 0.000000 3.542680 
# 
# 
# High freq. dielectric constant tensor:
#      x y z
#    x 1.736790 0.000000 0.000000 
#    y 0.000000 1.752550 0.000000 
#    z 0.000000 0.000000 1.752640 
# 
# From -- ./inp_files/3354.got.cif
#   From: 2010.03.12/outbox.cif.g09.slc.cpg/sg25_2_cif.got.tgz:3354.got - 2010.04.14 03:30:10.
