data_PCOD8166952
_publ_section_title
;
Structure prediction by ZEFSAII (Michael W. Deem and Ramdas Pophale) SiO2 
 PCOD8166952
Probable space group: P M M 2
;
_chemical_formula_sum "Si O2"
_cell_formula_units_Z 32
_cell_length_a 13.627670
_cell_length_b 8.977282
_cell_length_c 12.944071
_cell_angle_alpha 90.000000
_cell_angle_beta 90.000000
_cell_angle_gamma 90.000000
_cell_volume 1583.570353
_symmetry_space_group_name_H-M "P M M 2"
_symmetry_group_IT_number 25
_symmetry_cell_setting 'orthorhombic'
loop_
_space_group_symop_operation_xyz
x,y,z
-x,-y,z
-x,y,z
x,-y,z
loop_
_atom_site_type_symbol
_atom_site_label
_atom_site_fract_x
_atom_site_fract_y
_atom_site_fract_z
Si Si1 0.790324 0.174359 0.346990
Si Si2 0.208756 0.675854 0.755964
Si Si3 0.389065 0.674394 0.267763
Si Si4 0.383639 0.664661 0.038662
Si Si5 0.116290 0.332263 0.155022
Si Si6 0.114875 0.170992 0.564222
Si Si7 0.612306 0.825753 0.836212
Si Si8 0.883366 0.831104 0.951974
O O1 0.679125 0.236238 0.347092
O O2 0.855501 0.249484 0.259326
O O3 0.836140 0.215586 0.456606
O O4 0.790107 0.000000 0.326599
O O5 0.209961 0.500000 0.766736
O O6 0.157318 0.720277 0.650126
O O7 0.320275 0.738569 0.754636
O O8 0.149077 0.745168 0.850235
O O9 0.500000 0.734797 0.278983
O O10 0.385880 0.500000 0.292648
O O11 0.343655 0.705619 0.152872
O O12 0.500000 0.662914 0.051303
O O13 0.347491 0.500000 0.004207
O O14 0.350763 0.783459 0.952101
O O15 0.158476 0.500000 0.157617
O O16 0.000000 0.333155 0.146625
O O17 0.160666 0.250509 0.053529
O O18 0.000000 0.198449 0.553630
O O19 0.137857 0.000000 0.594126
O O20 0.500000 0.774804 0.819501
O O21 0.624822 0.000000 0.819823
O O22 0.000000 0.830594 0.956035
O O23 0.843172 0.000000 0.948121
#
# Coordination Sequence:
#
# PCOD8166952 Si02
#       8
#     4   4   4   4   4   4   4   4
#     4  11  23  38  61  90 120 157 201 248 302 360
#     4  12  25  39  61  90 120 155 197 246 304 365
#     4   9  19  36  57  83 120 163 204 248 298 352
#     4   8  15  30  52  78 112 155 198 241 290 342
#     4  10  21  37  58  86 121 158 196 242 297 358
#     4  10  23  45  68  88 115 154 202 254 304 358
#     4  10  21  37  58  85 119 159 203 248 293 349
#     4  10  21  38  60  86 119 157 196 242 297 358
#
# _framework density 20.207502000000002
#
# number of rings (size 3 to 8) (size 9 to 14) (size 15 to 20)
#    0.000    2.000    0.000    4.125    1.750    6.250 
#    0.000    1.875    0.000    0.750    0.000    0.000 
#    0.000    0.000    0.000    0.000    0.000    0.000 
#
# Total GULP energy -396890.954957 kJ/mol
# GULP energy per Si atom -12402.842342 kJ/mol
# Density = 2.016151 g / cm^3
# Si number density = 20.207502 Si / 1000 Ang^3
#
#
#
# Elastic Constant Matrix: (Units=GPa)
#
#
# Indices 1 2 3 4 5 6 
#
# 1 62.1339 41.0025 48.9457 0.0000 0.0000 0.0000
# 2 41.0025 134.5281 74.7379 0.0000 0.0000 0.0000
# 3 48.9457 74.7379 126.9048 0.0000 0.0000 0.0000
# 4 0.0000 0.0000 0.0000 10.4720 0.0000 0.0000
# 5 0.0000 0.0000 0.0000 0.0000 36.2485 0.0000
# 6 0.0000 0.0000 0.0000 0.0000 0.0000 31.2218
#
#
#
# Elastic Compliance Matrix: (Units=1/GPa)
#
#
# Indices 1 2 3 4 5 6 
#
# 1 0.024028 -0.003233 -0.007364 0.000000 0.000000 0.000000
# 2 -0.003233 0.011483 -0.005516 0.000000 0.000000 0.000000
# 3 -0.007364 -0.005516 0.013968 0.000000 0.000000 0.000000
# 4 0.000000 0.000000 0.000000 0.095493 0.000000 0.000000
# 5 0.000000 0.000000 0.000000 0.000000 0.027587 0.000000
# 6 0.000000 0.000000 0.000000 0.000000 0.000000 0.032029
#
#
# Mechanical properties :
#
#
# Convention : Reuss Voigt Hill
#
# Bulk Modulus (GPa) = 57.95283 72.54879 65.25081
# Shear Modulus (GPa) = 20.61306 26.18050 23.39678
#
# Velocity S-wave (km/s) = 3.19732 3.60333 3.40638
# Velocity P-wave (km/s) = 6.50935 7.30012 6.91605
#
# Compressibility (1/GPa) = 0.01725541
#
# Stress axis : x y z
#
# Youngs Moduli (GPa) = 41.61786 87.08487 71.58973
#
# Poissons Ratio (x) = 0.28151 0.52716
# Poissons Ratio (y) = 0.13453 0.39488
# Poissons Ratio (z) = 0.30646 0.48035
#
# Static dielectric constant tensor:
#      x y z
#    x 3.836210 0.000000 0.000000 
#    y 0.000000 3.817180 0.000000 
#    z 0.000000 0.000000 3.577050 
# 
# 
# High freq. dielectric constant tensor:
#      x y z
#    x 1.807880 0.000000 0.000000 
#    y 0.000000 1.791350 0.000000 
#    z 0.000000 0.000000 1.772800 
# 
# From -- ./inp_files/4206.got.cif
#   From: 2010.03.12/outbox.cif.g09.slc.cpg/sg25_3_cif.got.tgz:4206.got - 2010.04.14 03:30:10.
