data_PCOD8166961
_publ_section_title
;
Structure prediction by ZEFSAII (Michael W. Deem and Ramdas Pophale) SiO2 
 PCOD8166961
Probable space group: P M M 2
;
_chemical_formula_sum "Si O2"
_cell_formula_units_Z 32
_cell_length_a 14.684505
_cell_length_b 8.990029
_cell_length_c 12.211362
_cell_angle_alpha 90.000000
_cell_angle_beta 90.000000
_cell_angle_gamma 90.000000
_cell_volume 1612.072279
_symmetry_space_group_name_H-M "P M M 2"
_symmetry_group_IT_number 25
_symmetry_cell_setting 'orthorhombic'
loop_
_space_group_symop_operation_xyz
x,y,z
-x,-y,z
-x,y,z
x,-y,z
loop_
_atom_site_type_symbol
_atom_site_label
_atom_site_fract_x
_atom_site_fract_y
_atom_site_fract_z
Si Si1 0.605560 0.325730 0.480490
Si Si2 0.900655 0.675312 0.261718
Si Si3 0.255318 0.827226 0.633809
Si Si4 0.744681 0.827226 0.889626
Si Si5 0.892386 0.327507 0.498858
Si Si6 0.892387 0.327505 0.024578
Si Si7 0.608141 0.832882 0.261718
Si Si8 0.394438 0.325733 0.042945
O O1 0.500000 0.287566 0.500298
O O2 0.622413 0.500000 0.470110
O O3 0.660854 0.262244 0.582491
O O4 0.643314 0.252075 0.369190
O O5 0.914675 0.500000 0.261719
O O6 0.853269 0.719179 0.377244
O O7 0.000000 0.751062 0.261714
O O8 0.853266 0.719177 0.146192
O O9 0.255695 0.794079 0.761717
O O10 0.158751 0.772585 0.587072
O O11 0.267920 0.000000 0.607467
O O12 0.841246 0.772580 0.936363
O O13 0.732080 0.000000 0.915967
O O14 0.660850 0.737760 0.940941
O O15 0.870782 0.500000 0.522386
O O16 0.000000 0.297184 0.507154
O O17 0.870793 0.500000 0.001048
O O18 0.000000 0.297166 0.016283
O O19 0.500000 0.833346 0.261721
O O20 0.643312 0.747929 0.154243
O O21 0.647488 0.000000 0.261718
O O22 0.500000 0.287587 0.023137
O O23 0.377573 0.500000 0.053326
#
# Coordination Sequence:
#
# PCOD8166961 Si02
#       8
#     4   4   4   4   4   4   4   4
#     4  10  21  38  61  87 114 145 184 233 285 334
#     4   7  12  27  53  84 112 136 168 214 271 331
#     4  11  25  41  55  76 110 152 195 237 284 340
#     4  11  25  41  55  76 110 152 195 237 284 340
#     4   9  18  35  60  86 112 144 182 228 282 338
#     4   9  18  35  60  86 112 144 182 228 282 338
#     4   9  17  32  57  88 120 150 180 218 271 338
#     4  10  21  38  61  87 114 145 184 233 285 334
#
# _framework density 19.850224999999998
#
# number of rings (size 3 to 8) (size 9 to 14) (size 15 to 20)
#    0.000    2.500    0.000    3.375    0.000    7.500 
#    0.000    9.375    0.000    2.250    0.000    0.000 
#    0.000    0.000    0.000    0.000    0.000    0.000 
#
# Total GULP energy -396666.892199 kJ/mol
# GULP energy per Si atom -12395.840381 kJ/mol
# Density = 1.980505 g / cm^3
# Si number density = 19.850225 Si / 1000 Ang^3
#
#
#
# Elastic Constant Matrix: (Units=GPa)
#
#
# Indices 1 2 3 4 5 6 
#
# 1 83.5357 44.6210 55.9371 0.0000 0.0000 0.0000
# 2 44.6210 100.1535 72.2045 0.0000 0.0000 0.0000
# 3 55.9371 72.2045 142.2754 0.0000 0.0000 0.0000
# 4 0.0000 0.0000 0.0000 36.1733 0.0000 0.0000
# 5 0.0000 0.0000 0.0000 0.0000 44.3968 0.0000
# 6 0.0000 0.0000 0.0000 0.0000 0.0000 26.7880
#
#
#
# Elastic Compliance Matrix: (Units=1/GPa)
#
#
# Indices 1 2 3 4 5 6 
#
# 1 0.017423 -0.004453 -0.004590 0.000000 0.000000 0.000000
# 2 -0.004453 0.016884 -0.006818 0.000000 0.000000 0.000000
# 3 -0.004590 -0.006818 0.012293 0.000000 0.000000 0.000000
# 4 0.000000 0.000000 0.000000 0.027645 0.000000 0.000000
# 5 0.000000 0.000000 0.000000 0.000000 0.022524 0.000000
# 6 0.000000 0.000000 0.000000 0.000000 0.000000 0.037330
#
#
# Mechanical properties :
#
#
# Convention : Reuss Voigt Hill
#
# Bulk Modulus (GPa) = 67.21249 74.61000 70.91124
# Shear Modulus (GPa) = 29.27727 31.68509 30.48118
#
# Velocity S-wave (km/s) = 3.84462 3.99959 3.92287
# Velocity P-wave (km/s) = 7.32403 7.68095 7.50462
#
# Compressibility (1/GPa) = 0.01487819
#
# Stress axis : x y z
#
# Youngs Moduli (GPa) = 57.39426 59.22818 81.34583
#
# Poissons Ratio (x) = 0.26377 0.37338
# Poissons Ratio (y) = 0.25560 0.55459
# Poissons Ratio (z) = 0.26344 0.40380
#
# Static dielectric constant tensor:
#      x y z
#    x 3.412350 0.000000 0.000000 
#    y 0.000000 3.534410 0.000000 
#    z 0.000000 0.000000 3.777080 
# 
# 
# High freq. dielectric constant tensor:
#      x y z
#    x 1.767920 0.000000 0.000000 
#    y 0.000000 1.764750 0.000000 
#    z 0.000000 0.000000 1.779800 
# 
# From -- ./inp_files/4915.got.cif
#   From: 2010.03.12/outbox.cif.g09.slc.cpg/sg25_3_cif.got.tgz:4915.got - 2010.04.14 03:30:10.
