data_PCOD8166409
_publ_section_title
;
Structure prediction by ZEFSAII (Michael W. Deem and Ramdas Pophale) SiO2 
 PCOD8166409
Probable space group: P M M 2
;
_chemical_formula_sum "Si O2"
_cell_formula_units_Z 24
_cell_length_a 11.627341
_cell_length_b 9.530619
_cell_length_c 12.743385
_cell_angle_alpha 90.000000
_cell_angle_beta 90.000000
_cell_angle_gamma 90.000000
_cell_volume 1412.167856
_symmetry_space_group_name_H-M "P M M 2"
_symmetry_group_IT_number 25
_symmetry_cell_setting 'orthorhombic'
loop_
_space_group_symop_operation_xyz
x,y,z
-x,-y,z
-x,y,z
x,-y,z
loop_
_atom_site_type_symbol
_atom_site_label
_atom_site_fract_x
_atom_site_fract_y
_atom_site_fract_z
Si Si1 0.131888 0.662027 0.924420
Si Si2 0.500000 0.337712 0.626178
Si Si3 0.743074 0.835261 0.331231
Si Si4 0.133593 0.162817 0.125933
Si Si5 0.500000 0.836346 0.413148
Si Si6 0.134820 0.160835 0.537090
Si Si7 0.745827 0.662603 0.712328
O O1 0.144622 0.500000 0.955608
O O2 0.217021 0.702522 0.829939
O O3 0.000000 0.696428 0.892477
O O4 0.171729 0.753642 0.022989
O O5 0.500000 0.500000 0.592341
O O6 0.500000 0.247333 0.521164
O O7 0.388504 0.301246 0.696184
O O8 0.793886 0.773233 0.223316
O O9 0.609037 0.796902 0.341632
O O10 0.808380 0.773440 0.432572
O O11 0.766423 0.000000 0.328711
O O12 0.000000 0.186217 0.151850
O O13 0.161469 0.000000 0.106121
O O14 0.500000 0.000000 0.443804
O O15 0.175336 0.248382 0.635843
O O16 0.000000 0.173859 0.524286
O O17 0.173885 0.000000 0.553606
O O18 0.771372 0.500000 0.689806
#
# Coordination Sequence:
#
# PCOD8166409 Si02
#       7
#     4   2   4   4   2   4   4
#     4   9  18  33  51  70  95 128 164 202 247 297
#     4  10  20  34  51  72  98 132 171 207 244 293
#     4   9  17  30  49  73  99 128 162 199 244 294
#     4   9  17  31  51  72  96 127 162 201 245 293
#     4  10  18  32  53  72  96 134 169 199 244 299
#     4  10  19  30  48  75 103 128 160 204 249 298
#     4  10  20  34  51  71  99 133 167 205 250 298
#
# _framework density 16.995145999999998
#
# number of rings (size 3 to 8) (size 9 to 14) (size 15 to 20)
#    0.000    2.500    1.667    1.000    0.000    3.667 
#    0.000    4.167    0.000    2.000    0.000    0.000 
#    0.000    0.000    0.000    0.000    0.000    0.000 
#
# Total GULP energy -297610.899440 kJ/mol
# GULP energy per Si atom -12400.454143 kJ/mol
# Density = 1.695646 g / cm^3
# Si number density = 16.995146 Si / 1000 Ang^3
#
#
#
# Elastic Constant Matrix: (Units=GPa)
#
#
# Indices 1 2 3 4 5 6 
#
# 1 96.4661 35.0677 70.2834 0.0000 0.0000 0.0000
# 2 35.0677 45.7148 56.0629 0.0000 0.0000 0.0000
# 3 70.2834 56.0629 151.7271 0.0000 0.0000 0.0000
# 4 0.0000 0.0000 0.0000 4.0941 0.0000 0.0000
# 5 0.0000 0.0000 0.0000 0.0000 27.6296 0.0000
# 6 0.0000 0.0000 0.0000 0.0000 0.0000 17.7377
#
#
#
# Elastic Compliance Matrix: (Units=1/GPa)
#
#
# Indices 1 2 3 4 5 6 
#
# 1 0.016502 -0.006006 -0.005425 0.000000 0.000000 0.000000
# 2 -0.006006 0.042186 -0.012806 0.000000 0.000000 0.000000
# 3 -0.005425 -0.012806 0.013836 0.000000 0.000000 0.000000
# 4 0.000000 0.000000 0.000000 0.244252 0.000000 0.000000
# 5 0.000000 0.000000 0.000000 0.000000 0.036193 0.000000
# 6 0.000000 0.000000 0.000000 0.000000 0.000000 0.056377
#
#
# Mechanical properties :
#
#
# Convention : Reuss Voigt Hill
#
# Bulk Modulus (GPa) = 41.57856 68.52623 55.05240
# Shear Modulus (GPa) = 10.73340 18.72522 14.72931
#
# Velocity S-wave (km/s) = 2.51581 3.32294 2.94713
# Velocity P-wave (km/s) = 5.74083 7.42503 6.63657
#
# Compressibility (1/GPa) = 0.02405086
#
# Stress axis : x y z
#
# Youngs Moduli (GPa) = 60.59815 23.70441 72.27772
#
# Poissons Ratio (x) = 0.14236 0.39211
# Poissons Ratio (y) = 0.36393 0.92557
# Poissons Ratio (z) = 0.32875 0.30355
#
# Static dielectric constant tensor:
#      x y z
#    x 3.303360 0.000000 0.000000 
#    y 0.000000 3.067680 0.000000 
#    z 0.000000 0.000000 3.242650 
# 
# 
# High freq. dielectric constant tensor:
#      x y z
#    x 1.659060 0.000000 0.000000 
#    y 0.000000 1.635770 0.000000 
#    z 0.000000 0.000000 1.655820 
# 
# From -- ./inp_files/2660.got.cif
#   From: 2010.03.12/outbox.cif.g09.slc.cpg/sg25_2_cif.got.tgz:2660.got - 2010.04.14 03:30:10.
