data_PCOD8166397
_publ_section_title
;
Structure prediction by ZEFSAII (Michael W. Deem and Ramdas Pophale) SiO2 
 PCOD8166397
Probable space group: P M M 2
;
_chemical_formula_sum "Si O2"
_cell_formula_units_Z 28
_cell_length_a 9.545187
_cell_length_b 17.937369
_cell_length_c 9.335671
_cell_angle_alpha 90.000000
_cell_angle_beta 90.000000
_cell_angle_gamma 90.000000
_cell_volume 1598.411965
_symmetry_space_group_name_H-M "P M M 2"
_symmetry_group_IT_number 25
_symmetry_cell_setting 'orthorhombic'
loop_
_space_group_symop_operation_xyz
x,y,z
-x,-y,z
-x,y,z
x,-y,z
loop_
_atom_site_type_symbol
_atom_site_label
_atom_site_fract_x
_atom_site_fract_y
_atom_site_fract_z
Si Si1 0.660505 0.685257 0.274350
Si Si2 0.153682 0.083607 0.941214
Si Si3 0.842126 0.295104 0.838784
Si Si4 0.833739 0.082292 0.617328
Si Si5 0.343672 0.802818 0.032620
Si Si6 0.838258 0.585582 0.066653
Si Si7 0.837779 0.755134 0.523140
O O1 0.500000 0.660344 0.307617
O O2 0.660280 0.758650 0.178954
O O3 0.740822 0.619414 0.191291
O O4 0.741504 0.707954 0.417025
O O5 0.217027 0.089609 0.781022
O O6 0.000000 0.121656 0.947869
O O7 0.140320 0.000000 0.993225
O O8 0.259246 0.120761 0.054929
O O9 0.821754 0.292654 0.668754
O O10 0.000000 0.270266 0.877440
O O11 0.734136 0.237219 0.902913
O O12 0.811781 0.375594 0.911795
O O13 0.784340 0.157821 0.534285
O O14 0.000000 0.081261 0.617987
O O15 0.781479 0.000000 0.556417
O O16 0.500000 0.819299 0.981690
O O17 0.796065 0.500000 0.046729
O O18 0.000000 0.594701 0.114282
O O19 0.000000 0.754627 0.472577
#
# Coordination Sequence:
#
# PCOD8166397 Si02
#       7
#     4   4   4   4   4   4   4
#     4  10  22  36  50  72 105 143 175 206 250 305
#     4   9  16  28  48  72  97 127 167 217 267 308
#     4   9  17  31  53  78 102 128 164 210 259 302
#     4   8  14  26  46  72 100 130 167 214 263 303
#     4  10  19  31  47  69  98 133 171 210 253 302
#     4   9  18  35  59  83 104 129 165 209 255 308
#     4  10  18  31  52  77 104 137 175 217 260 302
#
# _framework density 17.517386999999999
#
# number of rings (size 3 to 8) (size 9 to 14) (size 15 to 20)
#    0.000    2.714    1.429    1.714    0.000    2.857 
#    0.000    1.429    0.000    5.571    0.000    0.000 
#    0.000    0.000    0.000    0.000    0.000    0.000 
#
# Total GULP energy -346880.030012 kJ/mol
# GULP energy per Si atom -12388.572500 kJ/mol
# Density = 1.747752 g / cm^3
# Si number density = 17.517387 Si / 1000 Ang^3
#
#
#
# Elastic Constant Matrix: (Units=GPa)
#
#
# Indices 1 2 3 4 5 6 
#
# 1 102.2283 50.8002 47.5334 0.0000 0.0000 0.0000
# 2 50.8002 122.4551 47.5617 0.0000 0.0000 0.0000
# 3 47.5334 47.5617 68.4421 0.0000 0.0000 0.0000
# 4 0.0000 0.0000 0.0000 19.6884 0.0000 0.0000
# 5 0.0000 0.0000 0.0000 0.0000 21.4359 0.0000
# 6 0.0000 0.0000 0.0000 0.0000 0.0000 -24.8263
#
#
#
# Elastic Compliance Matrix: (Units=1/GPa)
#
#
# Indices 1 2 3 4 5 6 
#
# 1 0.015224 -0.003026 -0.008471 0.000000 0.000000 0.000000
# 2 -0.003026 0.011787 -0.006089 0.000000 0.000000 0.000000
# 3 -0.008471 -0.006089 0.024725 0.000000 0.000000 0.000000
# 4 0.000000 0.000000 0.000000 0.050791 0.000000 0.000000
# 5 0.000000 0.000000 0.000000 0.000000 0.046651 0.000000
# 6 0.000000 0.000000 0.000000 0.000000 0.000000 -0.040280
#
#
# Mechanical properties :
#
#
# Convention : Reuss Voigt Hill
#
# Bulk Modulus (GPa) = 60.36912 64.99068 62.67990
# Shear Modulus (GPa) = 33.42437 13.07495 23.24966
#
# Velocity S-wave (km/s) = 4.37288 2.73499 3.64707
# Velocity P-wave (km/s) = 7.74812 6.86693 7.32080
#
# Compressibility (1/GPa) = 0.01656476
#
# Stress axis : x y z
#
# Youngs Moduli (GPa) = 65.68479 84.84235 40.44418
#
# Poissons Ratio (x) = 0.25671 0.34259
# Poissons Ratio (y) = 0.19874 0.24628
# Poissons Ratio (z) = 0.55640 0.51663
#
# Static dielectric constant tensor:
#      x y z
#    x 3.480200 0.000000 0.000000 
#    y 0.000000 3.500220 0.000000 
#    z 0.000000 0.000000 3.013250 
# 
# 
# High freq. dielectric constant tensor:
#      x y z
#    x 1.664170 0.000000 0.000000 
#    y 0.000000 1.677840 0.000000 
#    z 0.000000 0.000000 1.649860 
# 
# From -- ./inp_files/2293.got.cif
#   From: 2010.03.12/outbox.cif.g09.slc.cpg/sg25_2_cif.got.tgz:2293.got - 2010.04.14 03:30:10.
