data_PCOD8166648
_publ_section_title
;
Structure prediction by ZEFSAII (Michael W. Deem and Ramdas Pophale) SiO2 
 PCOD8166648
Probable space group: P M M 2
;
_chemical_formula_sum "Si O2"
_cell_formula_units_Z 28
_cell_length_a 9.114523
_cell_length_b 9.124022
_cell_length_c 18.124997
_cell_angle_alpha 90.000000
_cell_angle_beta 90.000000
_cell_angle_gamma 90.000000
_cell_volume 1507.294840
_symmetry_space_group_name_H-M "P M M 2"
_symmetry_group_IT_number 25
_symmetry_cell_setting 'orthorhombic'
loop_
_space_group_symop_operation_xyz
x,y,z
-x,-y,z
-x,y,z
x,-y,z
loop_
_atom_site_type_symbol
_atom_site_label
_atom_site_fract_x
_atom_site_fract_y
_atom_site_fract_z
Si Si1 0.835450 0.674157 0.511180
Si Si2 0.832846 0.673913 0.957906
Si Si3 0.670958 0.829571 0.089836
Si Si4 0.829096 0.830057 0.239287
Si Si5 0.165011 0.325685 0.673748
Si Si6 0.335481 0.674675 0.813778
Si Si7 0.333891 0.325761 0.369877
O O1 0.837645 0.500000 0.509765
O O2 0.781875 0.727352 0.592421
O O3 0.726138 0.733874 0.448425
O O4 0.000000 0.733048 0.495628
O O5 0.825116 0.500000 0.962633
O O6 0.762790 0.731177 0.881608
O O7 0.000000 0.729942 0.961987
O O8 0.740239 0.737770 0.024475
O O9 0.500000 0.792507 0.095709
O O10 0.746825 0.779585 0.165476
O O11 0.699647 0.000000 0.074410
O O12 0.767897 0.736385 0.306233
O O13 0.000000 0.796172 0.229149
O O14 0.799283 0.000000 0.255907
O O15 0.167411 0.500000 0.677021
O O16 0.270026 0.261213 0.737332
O O17 0.000000 0.269541 0.688371
O O18 0.500000 0.735636 0.823294
O O19 0.335499 0.500000 0.811790
O O20 0.500000 0.269230 0.360245
O O21 0.326222 0.500000 0.366570
#
# Coordination Sequence:
#
# PCOD8166648 Si02
#       7
#     4   4   4   4   4   4   4
#     4   8  14  25  41  62  91 127 163 199 239 282
#     4  10  20  33  50  73 101 132 165 201 241 285
#     4  10  21  37  56  76  98 125 158 198 244 292
#     4  10  21  37  56  75  95 124 163 202 240 287
#     4   8  13  22  37  58  87 124 162 197 236 283
#     4   9  16  25  39  62  93 127 161 199 242 284
#     4  10  20  32  48  73 103 132 162 199 244 290
#
# _framework density 18.576326000000002
#
# number of rings (size 3 to 8) (size 9 to 14) (size 15 to 20)
#    0.000    2.714    0.000    3.000    0.000    6.286 
#    0.000    2.857    0.000    0.000    0.000    1.000 
#    0.000    1.143    0.000    0.000    0.000    0.000 
#
# Total GULP energy -347143.227178 kJ/mol
# GULP energy per Si atom -12397.972399 kJ/mol
# Density = 1.853405 g / cm^3
# Si number density = 18.576326 Si / 1000 Ang^3
#
#
#
# Elastic Constant Matrix: (Units=GPa)
#
#
# Indices 1 2 3 4 5 6 
#
# 1 132.4126 20.4655 79.6006 0.0000 0.0000 0.0000
# 2 20.4655 12.5345 23.2605 0.0000 0.0000 0.0000
# 3 79.6006 23.2605 162.3773 0.0000 0.0000 0.0000
# 4 0.0000 0.0000 0.0000 -10.5692 0.0000 0.0000
# 5 0.0000 0.0000 0.0000 0.0000 31.4989 0.0000
# 6 0.0000 0.0000 0.0000 0.0000 0.0000 18.0821
#
#
#
# Elastic Compliance Matrix: (Units=1/GPa)
#
#
# Indices 1 2 3 4 5 6 
#
# 1 0.011839 -0.011659 -0.004134 0.000000 0.000000 0.000000
# 2 -0.011659 0.120149 -0.011496 0.000000 0.000000 0.000000
# 3 -0.004134 -0.011496 0.009832 0.000000 0.000000 0.000000
# 4 0.000000 0.000000 0.000000 -0.094614 0.000000 0.000000
# 5 0.000000 0.000000 0.000000 0.000000 0.031747 0.000000
# 6 0.000000 0.000000 0.000000 0.000000 0.000000 0.055303
#
#
# Mechanical properties :
#
#
# Convention : Reuss Voigt Hill
#
# Bulk Modulus (GPa) = 11.46232 61.55307 36.50769
# Shear Modulus (GPa) = 22.94486 20.06888 21.50687
#
# Velocity S-wave (km/s) = 3.51831 3.29043 3.40627
# Velocity P-wave (km/s) = 4.76324 6.90239 5.93007
#
# Compressibility (1/GPa) = 0.08724240
#
# Stress axis : x y z
#
# Youngs Moduli (GPa) = 84.46572 8.32301 101.71278
#
# Poissons Ratio (x) = 0.09704 0.42044
# Poissons Ratio (y) = 0.98482 1.16926
# Poissons Ratio (z) = 0.34914 0.09568
#
# Static dielectric constant tensor:
#      x y z
#    x 3.724010 0.000000 0.000000 
#    y 0.000000 2.866270 0.000000 
#    z 0.000000 0.000000 3.744930 
# 
# 
# High freq. dielectric constant tensor:
#      x y z
#    x 1.732810 0.000000 0.000000 
#    y 0.000000 1.659410 0.000000 
#    z 0.000000 0.000000 1.740340 
# 
# From -- ./inp_files/6222.got.cif
#   From: 2010.03.12/outbox.cif.g09.slc.cpg/sg25_4_cif.got.tgz:6222.got - 2010.04.14 03:30:10.
