data_PCOD8166659
_publ_section_title
;
Structure prediction by ZEFSAII (Michael W. Deem and Ramdas Pophale) SiO2 
 PCOD8166659
Probable space group: P M M 2
;
_chemical_formula_sum "Si O2"
_cell_formula_units_Z 28
_cell_length_a 9.173876
_cell_length_b 9.532384
_cell_length_c 17.655031
_cell_angle_alpha 90.000000
_cell_angle_beta 90.000000
_cell_angle_gamma 90.000000
_cell_volume 1543.913196
_symmetry_space_group_name_H-M "P M M 2"
_symmetry_group_IT_number 25
_symmetry_cell_setting 'orthorhombic'
loop_
_space_group_symop_operation_xyz
x,y,z
-x,-y,z
-x,y,z
x,-y,z
loop_
_atom_site_type_symbol
_atom_site_label
_atom_site_fract_x
_atom_site_fract_y
_atom_site_fract_z
Si Si1 0.831346 0.340155 0.360730
Si Si2 0.327032 0.344805 0.102097
Si Si3 0.834219 0.337718 0.535903
Si Si4 0.326826 0.840565 0.239244
Si Si5 0.829595 0.837758 0.807674
Si Si6 0.330684 0.162533 0.656726
Si Si7 0.332893 0.335202 0.932334
O O1 0.787601 0.500000 0.341213
O O2 0.800046 0.308689 0.448334
O O3 0.733488 0.234531 0.313354
O O4 0.000000 0.314673 0.341541
O O5 0.500000 0.351790 0.105797
O O6 0.263717 0.500000 0.120047
O O7 0.265574 0.235773 0.163802
O O8 0.281690 0.297567 0.017679
O O9 0.809787 0.500000 0.555466
O O10 0.723226 0.246597 0.584148
O O11 0.000000 0.293856 0.554755
O O12 0.500000 0.833289 0.242269
O O13 0.270863 0.000000 0.237450
O O14 0.752642 0.784193 0.731299
O O15 0.772328 0.748951 0.877652
O O16 0.000000 0.811695 0.798174
O O17 0.792243 0.000000 0.822764
O O18 0.500000 0.192323 0.669335
O O19 0.297744 0.000000 0.641635
O O20 0.500000 0.288710 0.918921
O O21 0.315736 0.500000 0.917313
#
# Coordination Sequence:
#
# PCOD8166659 Si02
#       7
#     4   4   4   4   4   4   4
#     4   9  19  36  55  74  99 134 174 211 250 300
#     4   8  15  30  51  73  99 133 171 209 251 300
#     4   9  19  36  56  77 101 131 169 211 254 301
#     4  10  20  32  49  77 108 135 168 210 254 301
#     4  10  21  36  53  74 102 137 174 208 247 299
#     4  10  21  36  54  77 104 134 169 208 251 300
#     4   9  18  33  54  79 103 129 167 213 257 302
#
# _framework density 18.135733999999999
#
# number of rings (size 3 to 8) (size 9 to 14) (size 15 to 20)
#    0.000    2.714    0.000    3.000    0.000    5.714 
#    0.000    6.429    0.000    0.857    0.000    0.000 
#    0.000    0.000    0.000    0.000    0.000    0.000 
#
# Total GULP energy -347222.273980 kJ/mol
# GULP energy per Si atom -12400.795499 kJ/mol
# Density = 1.809446 g / cm^3
# Si number density = 18.135734 Si / 1000 Ang^3
#
#
#
# Elastic Constant Matrix: (Units=GPa)
#
#
# Indices 1 2 3 4 5 6 
#
# 1 62.5131 43.6569 50.3383 0.0000 0.0000 0.0000
# 2 43.6569 95.9582 73.8583 0.0000 0.0000 0.0000
# 3 50.3383 73.8583 123.5596 0.0000 0.0000 0.0000
# 4 0.0000 0.0000 0.0000 15.4222 0.0000 0.0000
# 5 0.0000 0.0000 0.0000 0.0000 14.0802 0.0000
# 6 0.0000 0.0000 0.0000 0.0000 0.0000 30.3619
#
#
#
# Elastic Compliance Matrix: (Units=1/GPa)
#
#
# Indices 1 2 3 4 5 6 
#
# 1 0.026006 -0.006810 -0.006524 0.000000 0.000000 0.000000
# 2 -0.006810 0.021085 -0.009829 0.000000 0.000000 0.000000
# 3 -0.006524 -0.009829 0.016627 0.000000 0.000000 0.000000
# 4 0.000000 0.000000 0.000000 0.064842 0.000000 0.000000
# 5 0.000000 0.000000 0.000000 0.000000 0.071022 0.000000
# 6 0.000000 0.000000 0.000000 0.000000 0.000000 0.032936
#
#
# Mechanical properties :
#
#
# Convention : Reuss Voigt Hill
#
# Bulk Modulus (GPa) = 57.50148 68.63753 63.06950
# Shear Modulus (GPa) = 17.56599 19.58469 18.57534
#
# Velocity S-wave (km/s) = 3.11559 3.28974 3.20385
# Velocity P-wave (km/s) = 6.68711 7.23592 6.96692
#
# Compressibility (1/GPa) = 0.01739086
#
# Stress axis : x y z
#
# Youngs Moduli (GPa) = 38.45254 47.42727 60.14441
#
# Poissons Ratio (x) = 0.32298 0.39239
# Poissons Ratio (y) = 0.26186 0.59117
# Poissons Ratio (z) = 0.25087 0.46617
#
# Static dielectric constant tensor:
#      x y z
#    x 3.140780 0.000000 0.000000 
#    y 0.000000 3.539660 0.000000 
#    z 0.000000 0.000000 3.425680 
# 
# 
# High freq. dielectric constant tensor:
#      x y z
#    x 1.686400 0.000000 0.000000 
#    y 0.000000 1.700310 0.000000 
#    z 0.000000 0.000000 1.712380 
# 
# From -- ./inp_files/6024.got.cif
#   From: 2010.03.12/outbox.cif.g09.slc.cpg/sg25_4_cif.got.tgz:6024.got - 2010.04.14 03:30:10.
