data_PCOD8166489
_publ_section_title
;
Structure prediction by ZEFSAII (Michael W. Deem and Ramdas Pophale) SiO2 
 PCOD8166489
Probable space group: P M M 2
;
_chemical_formula_sum "Si O2"
_cell_formula_units_Z 32
_cell_length_a 9.225166
_cell_length_b 14.500461
_cell_length_c 12.500695
_cell_angle_alpha 90.000000
_cell_angle_beta 90.000000
_cell_angle_gamma 90.000000
_cell_volume 1672.207467
_symmetry_space_group_name_H-M "P M M 2"
_symmetry_group_IT_number 25
_symmetry_cell_setting 'orthorhombic'
loop_
_space_group_symop_operation_xyz
x,y,z
-x,-y,z
-x,y,z
x,-y,z
loop_
_atom_site_type_symbol
_atom_site_label
_atom_site_fract_x
_atom_site_fract_y
_atom_site_fract_z
Si Si1 0.336648 0.136810 0.527900
Si Si2 0.340340 0.341291 0.463274
Si Si3 0.159753 0.398743 0.646346
Si Si4 0.168243 0.896900 0.312777
Si Si5 0.170380 0.713395 0.844372
Si Si6 0.165300 0.898235 0.741435
Si Si7 0.670748 0.606787 0.031592
Si Si8 0.671283 0.725409 0.237417
O O1 0.500000 0.096602 0.519423
O O2 0.342441 0.246309 0.527764
O O3 0.242660 0.101040 0.428743
O O4 0.266369 0.104508 0.638068
O O5 0.500000 0.384870 0.454768
O O6 0.243360 0.408002 0.534351
O O7 0.276980 0.327561 0.344460
O O8 0.155181 0.500000 0.698339
O O9 0.229595 0.332108 0.734727
O O10 0.000000 0.361588 0.618793
O O11 0.245263 0.823584 0.232662
O O12 0.000000 0.869360 0.325755
O O13 0.182841 0.000000 0.263289
O O14 0.206517 0.822506 0.832342
O O15 0.000000 0.694375 0.861283
O O16 0.254811 0.667020 0.940758
O O17 0.000000 0.879489 0.703987
O O18 0.180775 0.000000 0.793824
O O19 0.500000 0.609271 0.012568
O O20 0.724897 0.500000 0.033508
O O21 0.713241 0.657675 0.141404
O O22 0.500000 0.747039 0.242734
#
# Coordination Sequence:
#
# PCOD8166489 Si02
#       8
#     4   4   4   4   4   4   4   4
#     4  10  19  31  50  78 113 152 190 228 270 323
#     4   9  18  32  51  77 109 144 179 217 269 329
#     4  10  20  33  51  77 108 143 180 220 274 335
#     4  10  20  33  52  81 116 153 191 228 269 324
#     4  10  21  38  58  80 112 148 184 232 283 333
#     4  10  20  34  54  80 110 148 190 229 276 331
#     4  10  22  41  64  86 108 140 186 238 287 338
#     4   9  20  38  58  82 111 144 184 233 285 332
#
# _framework density 19.136382000000001
#
# number of rings (size 3 to 8) (size 9 to 14) (size 15 to 20)
#    0.000    2.250    1.250    2.250    0.000    7.750 
#    0.000    1.875    0.000    2.250    0.000    0.000 
#    0.000    0.000    0.000    0.000    0.000    0.000 
#
# Total GULP energy -396632.303193 kJ/mol
# GULP energy per Si atom -12394.759475 kJ/mol
# Density = 1.909283 g / cm^3
# Si number density = 19.136382 Si / 1000 Ang^3
#
#
#
# Elastic Constant Matrix: (Units=GPa)
#
#
# Indices 1 2 3 4 5 6 
#
# 1 75.7455 45.6018 46.6944 0.0000 0.0000 0.0000
# 2 45.6018 135.9794 68.5482 0.0000 0.0000 0.0000
# 3 46.6944 68.5482 115.4676 0.0000 0.0000 0.0000
# 4 0.0000 0.0000 0.0000 21.2123 0.0000 0.0000
# 5 0.0000 0.0000 0.0000 0.0000 25.3517 0.0000
# 6 0.0000 0.0000 0.0000 0.0000 0.0000 53.9668
#
#
#
# Elastic Compliance Matrix: (Units=1/GPa)
#
#
# Indices 1 2 3 4 5 6 
#
# 1 0.018689 -0.003507 -0.005476 0.000000 0.000000 0.000000
# 2 -0.003507 0.011153 -0.005203 0.000000 0.000000 0.000000
# 3 -0.005476 -0.005203 0.013963 0.000000 0.000000 0.000000
# 4 0.000000 0.000000 0.000000 0.047142 0.000000 0.000000
# 5 0.000000 0.000000 0.000000 0.000000 0.039445 0.000000
# 6 0.000000 0.000000 0.000000 0.000000 0.000000 0.018530
#
#
# Mechanical properties :
#
#
# Convention : Reuss Voigt Hill
#
# Bulk Modulus (GPa) = 64.79104 72.09791 68.44448
# Shear Modulus (GPa) = 27.40641 31.19604 29.30123
#
# Velocity S-wave (km/s) = 3.78850 4.04195 3.91727
# Velocity P-wave (km/s) = 7.28478 7.71627 7.50362
#
# Compressibility (1/GPa) = 0.01543423
#
# Stress axis : x y z
#
# Youngs Moduli (GPa) = 53.50702 89.66212 71.61570
#
# Poissons Ratio (x) = 0.31446 0.39214
# Poissons Ratio (y) = 0.18766 0.37260
# Poissons Ratio (z) = 0.29299 0.46649
#
# Static dielectric constant tensor:
#      x y z
#    x 3.528930 0.000000 0.000000 
#    y 0.000000 3.693020 0.000000 
#    z 0.000000 0.000000 3.273950 
# 
# 
# High freq. dielectric constant tensor:
#      x y z
#    x 1.739230 0.000000 0.000000 
#    y 0.000000 1.757350 0.000000 
#    z 0.000000 0.000000 1.717300 
# 
# From -- ./inp_files/4257.got.cif
#   From: 2010.03.12/outbox.cif.g09.slc.cpg/sg25_3_cif.got.tgz:4257.got - 2010.04.14 03:30:10.
