data_PCOD8166614
_publ_section_title
;
Structure prediction by ZEFSAII (Michael W. Deem and Ramdas Pophale) SiO2 
 PCOD8166614
Probable space group: P M M 2
;
_chemical_formula_sum "Si O2"
_cell_formula_units_Z 28
_cell_length_a 9.375560
_cell_length_b 9.362814
_cell_length_c 18.129146
_cell_angle_alpha 90.000000
_cell_angle_beta 90.000000
_cell_angle_gamma 90.000000
_cell_volume 1591.405885
_symmetry_space_group_name_H-M "P M M 2"
_symmetry_group_IT_number 25
_symmetry_cell_setting 'orthorhombic'
loop_
_space_group_symop_operation_xyz
x,y,z
-x,-y,z
-x,y,z
x,-y,z
loop_
_atom_site_type_symbol
_atom_site_label
_atom_site_fract_x
_atom_site_fract_y
_atom_site_fract_z
Si Si1 0.835340 0.168353 0.702440
Si Si2 0.669863 0.159529 0.002790
Si Si3 0.329816 0.839245 0.279267
Si Si4 0.658724 0.169868 0.840993
Si Si5 0.336201 0.332313 0.580363
Si Si6 0.669190 0.341874 0.414870
Si Si7 0.670137 0.338900 0.139731
O O1 0.763781 0.226775 0.777661
O O2 0.765074 0.243868 0.633124
O O3 0.000000 0.210256 0.705585
O O4 0.811964 0.000000 0.693970
O O5 0.500000 0.152839 0.005873
O O6 0.715545 0.218420 0.921828
O O7 0.731010 0.000000 0.016780
O O8 0.730107 0.264900 0.065484
O O9 0.500000 0.840408 0.279485
O O10 0.269958 0.768345 0.354485
O O11 0.272372 0.748892 0.209943
O O12 0.270011 0.000000 0.273892
O O13 0.500000 0.231522 0.825752
O O14 0.652231 0.000000 0.841060
O O15 0.500000 0.287640 0.594363
O O16 0.316232 0.500000 0.594409
O O17 0.288656 0.292194 0.497113
O O18 0.500000 0.350015 0.409277
O O19 0.731487 0.500000 0.398591
O O20 0.500000 0.339218 0.139292
O O21 0.729425 0.500000 0.143801
#
# Coordination Sequence:
#
# PCOD8166614 Si02
#       7
#     4   4   4   4   4   4   4
#     4  10  20  32  47  69  95 121 151 188 230 277
#     4   8  13  22  36  52  71 100 140 180 214 253
#     4   9  15  21  31  50  77 109 143 174 206 251
#     4   8  14  26  44  63  84 114 150 186 225 267
#     4   9  18  32  49  68  90 119 155 192 231 276
#     4   8  14  25  39  55  78 108 142 180 220 261
#     4   9  15  21  30  47  75 109 139 169 210 256
#
# _framework density 17.594505000000002
#
# number of rings (size 3 to 8) (size 9 to 14) (size 15 to 20)
#    0.000    3.286    0.000    3.000    0.000    5.143 
#    0.000    2.143    0.000    2.571    0.000    0.000 
#    0.000    1.143    0.000    6.000    0.000    6.714 
#
# Total GULP energy -347043.805655 kJ/mol
# GULP energy per Si atom -12394.421631 kJ/mol
# Density = 1.755446 g / cm^3
# Si number density = 17.594505 Si / 1000 Ang^3
#
#
#
# Elastic Constant Matrix: (Units=GPa)
#
#
# Indices 1 2 3 4 5 6 
#
# 1 44.4412 28.1901 47.1529 0.0000 0.0000 0.0000
# 2 28.1901 100.7066 84.1375 0.0000 0.0000 0.0000
# 3 47.1529 84.1375 184.9896 0.0000 0.0000 0.0000
# 4 0.0000 0.0000 0.0000 22.4458 0.0000 0.0000
# 5 0.0000 0.0000 0.0000 0.0000 0.3217 0.0000
# 6 0.0000 0.0000 0.0000 0.0000 0.0000 11.1868
#
#
#
# Elastic Compliance Matrix: (Units=1/GPa)
#
#
# Indices 1 2 3 4 5 6 
#
# 1 0.031552 -0.003408 -0.006492 0.000000 0.000000 0.000000
# 2 -0.003408 0.016384 -0.006583 0.000000 0.000000 0.000000
# 3 -0.006492 -0.006583 0.010055 0.000000 0.000000 0.000000
# 4 0.000000 0.000000 0.000000 0.044552 0.000000 0.000000
# 5 0.000000 0.000000 0.000000 0.000000 3.108901 0.000000
# 6 0.000000 0.000000 0.000000 0.000000 0.000000 0.089391
#
#
# Mechanical properties :
#
#
# Convention : Reuss Voigt Hill
#
# Bulk Modulus (GPa) = 39.96219 72.12204 56.04212
# Shear Modulus (GPa) = 1.49605 18.16798 9.83201
#
# Velocity S-wave (km/s) = 0.92311 3.21689 2.36648
# Velocity P-wave (km/s) = 4.88860 7.40797 6.27600
#
# Compressibility (1/GPa) = 0.02502365
#
# Stress axis : x y z
#
# Youngs Moduli (GPa) = 31.69384 61.03622 99.45578
#
# Poissons Ratio (x) = 0.20800 0.64571
# Poissons Ratio (y) = 0.10801 0.65472
# Poissons Ratio (z) = 0.20577 0.40180
#
# Static dielectric constant tensor:
#      x y z
#    x 2.672000 0.000000 0.000000 
#    y 0.000000 3.281850 0.000000 
#    z 0.000000 0.000000 3.655170 
# 
# 
# High freq. dielectric constant tensor:
#      x y z
#    x 1.606240 0.000000 0.000000 
#    y 0.000000 1.667070 0.000000 
#    z 0.000000 0.000000 1.700860 
# 
# From -- ./inp_files/6416.got.cif
#   From: 2010.03.12/outbox.cif.g09.slc.cpg/sg25_4_cif.got.tgz:6416.got - 2010.04.14 03:30:10.
