data_PCOD8166848
_publ_section_title
;
Structure prediction by ZEFSAII (Michael W. Deem and Ramdas Pophale) SiO2 
 PCOD8166848
Probable space group: P M M 2
;
_chemical_formula_sum "Si O2"
_cell_formula_units_Z 32
_cell_length_a 15.401674
_cell_length_b 8.733769
_cell_length_c 11.954539
_cell_angle_alpha 90.000000
_cell_angle_beta 90.000000
_cell_angle_gamma 90.000000
_cell_volume 1608.060784
_symmetry_space_group_name_H-M "P M M 2"
_symmetry_group_IT_number 25
_symmetry_cell_setting 'orthorhombic'
loop_
_space_group_symop_operation_xyz
x,y,z
-x,-y,z
-x,y,z
x,-y,z
loop_
_atom_site_type_symbol
_atom_site_label
_atom_site_fract_x
_atom_site_fract_y
_atom_site_fract_z
Si Si1 0.642327 0.820725 0.551510
Si Si2 0.250777 0.680549 0.937739
Si Si3 0.096090 0.181942 0.326538
Si Si4 0.901253 0.179561 0.799821
Si Si5 0.841644 0.180642 0.561905
Si Si6 0.596309 0.675773 0.777506
Si Si7 0.255089 0.180251 0.179630
Si Si8 0.597832 0.324466 0.324436
O O1 0.742025 0.770659 0.559315
O O2 0.596599 0.778645 0.667062
O O3 0.597579 0.726453 0.453122
O O4 0.631519 0.000000 0.527124
O O5 0.248776 0.500000 0.941256
O O6 0.160269 0.739720 0.888980
O O7 0.332103 0.739374 0.864004
O O8 0.264685 0.740446 0.061472
O O9 0.112413 0.249036 0.451273
O O10 0.168376 0.244651 0.240818
O O11 0.000000 0.233058 0.286302
O O12 0.103930 0.000000 0.331850
O O13 0.884674 0.246635 0.675156
O O14 0.000000 0.214083 0.834910
O O15 0.880608 0.000000 0.802669
O O16 0.853524 0.000000 0.562359
O O17 0.500000 0.689860 0.831542
O O18 0.616925 0.500000 0.745674
O O19 0.338818 0.217002 0.253854
O O20 0.248633 0.000000 0.162217
O O21 0.500000 0.306133 0.277876
O O22 0.628616 0.500000 0.314668
#
# Coordination Sequence:
#
# PCOD8166848 Si02
#       8
#     4   4   4   4   4   4   4   4
#     4  11  20  34  60  92 122 151 190 242 295 348
#     4  11  24  41  60  83 115 159 202 247 301 357
#     4   9  17  32  57  88 118 148 184 230 288 348
#     4  10  20  36  61  90 119 154 197 245 297 355
#     4   9  16  30  55  88 120 147 182 235 294 346
#     4  10  22  40  60  83 114 154 197 238 290 359
#     4  11  23  40  62  89 117 151 200 254 298 344
#     4  11  24  41  61  86 120 161 199 237 291 358
#
# _framework density 19.899744999999999
#
# number of rings (size 3 to 8) (size 9 to 14) (size 15 to 20)
#    0.000    1.750    2.500    2.250    0.000    6.000 
#    0.000    2.500    0.000    1.125    0.000    0.000 
#    0.000    0.000    0.000    0.000    0.000    0.000 
#
# Total GULP energy -396849.734286 kJ/mol
# GULP energy per Si atom -12401.554196 kJ/mol
# Density = 1.985445 g / cm^3
# Si number density = 19.899745 Si / 1000 Ang^3
#
#
#
# Elastic Constant Matrix: (Units=GPa)
#
#
# Indices 1 2 3 4 5 6 
#
# 1 127.2580 25.4232 48.5070 0.0000 0.0000 0.0000
# 2 25.4232 33.5794 8.1261 0.0000 0.0000 0.0000
# 3 48.5070 8.1261 109.1621 0.0000 0.0000 0.0000
# 4 0.0000 0.0000 0.0000 28.3808 0.0000 0.0000
# 5 0.0000 0.0000 0.0000 0.0000 12.0128 0.0000
# 6 0.0000 0.0000 0.0000 0.0000 0.0000 22.2310
#
#
#
# Elastic Compliance Matrix: (Units=1/GPa)
#
#
# Indices 1 2 3 4 5 6 
#
# 1 0.010956 -0.007247 -0.004329 0.000000 0.000000 0.000000
# 2 -0.007247 0.035120 0.000606 0.000000 0.000000 0.000000
# 3 -0.004329 0.000606 0.011039 0.000000 0.000000 0.000000
# 4 0.000000 0.000000 0.000000 0.035235 0.000000 0.000000
# 5 0.000000 0.000000 0.000000 0.000000 0.083244 0.000000
# 6 0.000000 0.000000 0.000000 0.000000 0.000000 0.044982
#
#
# Mechanical properties :
#
#
# Convention : Reuss Voigt Hill
#
# Bulk Modulus (GPa) = 28.42907 48.23468 38.33188
# Shear Modulus (GPa) = 19.66627 25.05448 22.36037
#
# Velocity S-wave (km/s) = 3.14708 3.55214 3.35573
# Velocity P-wave (km/s) = 5.24620 6.41210 5.85823
#
# Compressibility (1/GPa) = 0.03517526
#
# Stress axis : x y z
#
# Youngs Moduli (GPa) = 91.27488 28.47344 90.58677
#
# Poissons Ratio (x) = 0.20635 0.39214
# Poissons Ratio (y) = 0.66149 -0.05489
# Poissons Ratio (z) = 0.39512 -0.01725
#
# Static dielectric constant tensor:
#      x y z
#    x 3.845900 0.000000 0.000000 
#    y 0.000000 3.340950 0.000000 
#    z 0.000000 0.000000 3.654280 
# 
# 
# High freq. dielectric constant tensor:
#      x y z
#    x 1.792240 0.000000 0.000000 
#    y 0.000000 1.749180 0.000000 
#    z 0.000000 0.000000 1.774450 
# 
# From -- ./inp_files/4184.got.cif
#   From: 2010.03.12/outbox.cif.g09.slc.cpg/sg25_3_cif.got.tgz:4184.got - 2010.04.14 03:30:10.
