data_PCOD8166178
_publ_section_title
;
Structure prediction by ZEFSAII (Michael W. Deem and Ramdas Pophale) SiO2 
 PCOD8166178
Probable space group: I 21 21 21
;
_chemical_formula_sum "Si O2"
_cell_formula_units_Z 32
_cell_length_a 12.340983
_cell_length_b 8.109747
_cell_length_c 12.243061
_cell_angle_alpha 90.000000
_cell_angle_beta 90.000000
_cell_angle_gamma 90.000000
_cell_volume 1225.313090
_symmetry_space_group_name_H-M "I 21 21 21"
_symmetry_group_IT_number 24
_symmetry_cell_setting 'orthorhombic'
loop_
_space_group_symop_operation_xyz
x,y,z
-x,1/2-y,z
x,-y,1/2-z
1/2-x,y,-z
1/2+x,1/2+y,1/2+z
1/2-x,-y,1/2+z
1/2+x,1/2-y,-z
-x,1/2+y,1/2-z
loop_
_atom_site_type_symbol
_atom_site_label
_atom_site_fract_x
_atom_site_fract_y
_atom_site_fract_z
Si Si1 0.000000 0.750000 0.489130
Si Si2 0.914472 0.517556 0.875481
Si Si3 0.699053 0.130616 0.891585
Si Si4 0.780195 0.240668 0.341587
Si Si5 0.000000 0.750000 0.033379
O O1 0.068327 0.628111 0.409165
O O2 0.910198 0.661745 0.567762
O O3 0.949969 0.500000 0.750000
O O4 0.806032 0.629055 0.889709
O O5 0.011595 0.599300 0.946866
O O6 0.723415 0.253986 0.790195
O O7 0.746659 0.947958 0.872353
O O8 0.750000 0.207474 0.000000
O O9 0.897220 0.283750 0.389756
#
# Coordination Sequence:
#
# PCOD8166178 Si02
#       5
#     4   8   8   8   4
#     4  12  26  50  78 118 160 204 276 342 400 486
#     4  12  27  48  78 121 157 216 269 339 409 485
#     4  11  24  49  77 116 162 212 272 334 405 490
#     4  11  26  47  79 114 161 219 264 335 409 482
#     4  12  24  50  78 114 166 210 276 326 414 492
#
# _framework density 26.115774999999999
#
# number of rings (size 3 to 8) (size 9 to 14) (size 15 to 20)
#    0.000    0.500    2.500    5.250    0.000    6.000 
#    4.500    0.000    0.000    0.000    0.000    0.000 
#    0.000    0.000    0.000    0.000    0.000    0.000 
#
# Total GULP energy -198236.312762 kJ/mol
# GULP energy per Si atom -12389.769548 kJ/mol
# Density = 2.605633 g / cm^3
# Si number density = 26.115775 Si / 1000 Ang^3
#
#
#
# Elastic Constant Matrix: (Units=GPa)
#
#
# Indices 1 2 3 4 5 6 
#
# 1 117.3630 50.7336 60.0504 0.0000 0.0000 0.0000
# 2 50.7336 105.4409 39.2980 0.0000 0.0000 0.0000
# 3 60.0504 39.2980 178.6083 0.0000 0.0000 0.0000
# 4 0.0000 0.0000 0.0000 39.0844 0.0000 0.0000
# 5 0.0000 0.0000 0.0000 0.0000 35.3224 0.0000
# 6 0.0000 0.0000 0.0000 0.0000 0.0000 31.8488
#
#
#
# Elastic Compliance Matrix: (Units=1/GPa)
#
#
# Indices 1 2 3 4 5 6 
#
# 1 0.012102 -0.004691 -0.003037 0.000000 0.000000 0.000000
# 2 -0.004691 0.012150 -0.001096 0.000000 0.000000 0.000000
# 3 -0.003037 -0.001096 0.006861 0.000000 0.000000 0.000000
# 4 0.000000 0.000000 0.000000 0.025586 0.000000 0.000000
# 5 0.000000 0.000000 0.000000 0.000000 0.028311 0.000000
# 6 0.000000 0.000000 0.000000 0.000000 0.000000 0.031398
#
#
# Mechanical properties :
#
#
# Convention : Reuss Voigt Hill
#
# Bulk Modulus (GPa) = 74.26673 77.95292 76.10982
# Shear Modulus (GPa) = 36.08959 38.00645 37.04802
#
# Velocity S-wave (km/s) = 3.72143 3.81899 3.77053
# Velocity P-wave (km/s) = 6.85308 7.02567 6.93991
#
# Compressibility (1/GPa) = 0.01346498
#
# Stress axis : x y z
#
# Youngs Moduli (GPa) = 82.62870 82.30656 145.75190
#
# Poissons Ratio (x) = 0.38613 0.44261
# Poissons Ratio (y) = 0.38764 0.15974
# Poissons Ratio (z) = 0.25092 0.09020
#
# Static dielectric constant tensor:
#      x y z
#    x 4.361330 0.000000 0.000000 
#    y 0.000000 4.611190 0.000000 
#    z 0.000000 0.000000 5.128560 
# 
# 
# High freq. dielectric constant tensor:
#      x y z
#    x 2.036810 0.000000 0.000000 
#    y 0.000000 2.043110 0.000000 
#    z 0.000000 0.000000 2.066820 
# 
# From -- ./inp_files/20372.got.cif
#   From: 2010.03.12/outbox.cif.g09.slc.cpg/sg24_11_cif.got.tgz:20372.got - 2010.04.14 03:06:53.
