data_PCOD8166882
_publ_section_title
;
Structure prediction by ZEFSAII (Michael W. Deem and Ramdas Pophale) SiO2 
 PCOD8166882
Probable space group: P M M 2
;
_chemical_formula_sum "Si O2"
_cell_formula_units_Z 32
_cell_length_a 9.745245
_cell_length_b 9.400839
_cell_length_c 20.156196
_cell_angle_alpha 90.000000
_cell_angle_beta 90.000000
_cell_angle_gamma 90.000000
_cell_volume 1846.579244
_symmetry_space_group_name_H-M "P M M 2"
_symmetry_group_IT_number 25
_symmetry_cell_setting 'orthorhombic'
loop_
_space_group_symop_operation_xyz
x,y,z
-x,-y,z
-x,y,z
x,-y,z
loop_
_atom_site_type_symbol
_atom_site_label
_atom_site_fract_x
_atom_site_fract_y
_atom_site_fract_z
Si Si1 0.159230 0.333898 0.282290
Si Si2 0.341883 0.165075 0.028695
Si Si3 0.160905 0.337303 0.634556
Si Si4 0.341107 0.162993 0.382448
Si Si5 0.654273 0.165323 0.535581
Si Si6 0.847646 0.669274 0.781834
Si Si7 0.158228 0.164358 0.151765
Si Si8 0.341796 0.666115 0.899443
O O1 0.191315 0.500000 0.275503
O O2 0.247703 0.269869 0.341419
O O3 0.202725 0.258427 0.214147
O O4 0.000000 0.305170 0.298039
O O5 0.500000 0.198070 0.045826
O O6 0.250353 0.215046 0.090355
O O7 0.318688 0.000000 0.012797
O O8 0.292201 0.252999 0.965029
O O9 0.207413 0.500000 0.627166
O O10 0.239302 0.247568 0.580367
O O11 0.197592 0.279572 0.708409
O O12 0.000000 0.321184 0.621549
O O13 0.500000 0.190093 0.365121
O O14 0.311968 0.196306 0.459104
O O15 0.302013 0.000000 0.365816
O O16 0.500000 0.216393 0.551927
O O17 0.669498 0.000000 0.551027
O O18 0.849653 0.500000 0.781302
O O19 0.742815 0.727215 0.836973
O O20 0.000000 0.726763 0.798680
O O21 0.000000 0.189654 0.132681
O O22 0.186604 0.000000 0.169434
O O23 0.500000 0.698028 0.884225
O O24 0.313901 0.500000 0.910662
#
# Coordination Sequence:
#
# PCOD8166882 Si02
#       8
#     4   4   4   4   4   4   4   4
#     4  10  21  35  51  75 105 131 158 198 245 290
#     4   9  18  32  48  67  93 123 154 191 236 283
#     4   9  18  32  50  73 100 129 163 203 245 291
#     4   9  19  36  55  73  96 129 167 203 240 287
#     4   9  19  35  52  72  99 129 163 203 244 288
#     4   8  15  29  47  67  93 124 157 193 233 279
#     4   9  18  33  51  69  92 125 162 196 232 280
#     4   9  17  29  46  68  92 119 154 194 233 277
#
# _framework density 17.329339999999998
#
# number of rings (size 3 to 8) (size 9 to 14) (size 15 to 20)
#    0.000    3.000    0.000    1.875    0.000    4.500 
#    0.000    6.875    0.000    2.250    0.000    0.000 
#    0.000    0.000    0.000    0.000    0.000    0.000 
#
# Total GULP energy -396791.452240 kJ/mol
# GULP energy per Si atom -12399.732883 kJ/mol
# Density = 1.728990 g / cm^3
# Si number density = 17.329340 Si / 1000 Ang^3
#
#
#
# Elastic Constant Matrix: (Units=GPa)
#
#
# Indices 1 2 3 4 5 6 
#
# 1 74.1875 44.1344 77.5241 0.0000 0.0000 0.0000
# 2 44.1344 64.0731 65.8366 0.0000 0.0000 0.0000
# 3 77.5241 65.8366 138.5949 0.0000 0.0000 0.0000
# 4 0.0000 0.0000 0.0000 45.3139 0.0000 0.0000
# 5 0.0000 0.0000 0.0000 0.0000 38.2684 0.0000
# 6 0.0000 0.0000 0.0000 0.0000 0.0000 26.5722
#
#
#
# Elastic Compliance Matrix: (Units=1/GPa)
#
#
# Indices 1 2 3 4 5 6 
#
# 1 0.034252 -0.007632 -0.015534 0.000000 0.000000 0.000000
# 2 -0.007632 0.032190 -0.011022 0.000000 0.000000 0.000000
# 3 -0.015534 -0.011022 0.021140 0.000000 0.000000 0.000000
# 4 0.000000 0.000000 0.000000 0.022068 0.000000 0.000000
# 5 0.000000 0.000000 0.000000 0.000000 0.026131 0.000000
# 6 0.000000 0.000000 0.000000 0.000000 0.000000 0.037633
#
#
# Mechanical properties :
#
#
# Convention : Reuss Voigt Hill
#
# Bulk Modulus (GPa) = 52.06666 72.42731 62.24698
# Shear Modulus (GPa) = 20.14573 27.98824 24.06698
#
# Velocity S-wave (km/s) = 3.41328 4.02316 3.73070
# Velocity P-wave (km/s) = 6.75607 7.96658 7.38617
#
# Compressibility (1/GPa) = 0.01920615
#
# Stress axis : x y z
#
# Youngs Moduli (GPa) = 29.19536 31.06602 47.30393
#
# Poissons Ratio (x) = 0.23710 0.73480
# Poissons Ratio (y) = 0.22282 0.52138
# Poissons Ratio (z) = 0.45351 0.34241
#
# Static dielectric constant tensor:
#      x y z
#    x 3.338910 0.000000 0.000000 
#    y 0.000000 3.023950 0.000000 
#    z 0.000000 0.000000 3.301960 
# 
# 
# High freq. dielectric constant tensor:
#      x y z
#    x 1.669110 0.000000 0.000000 
#    y 0.000000 1.653350 0.000000 
#    z 0.000000 0.000000 1.675210 
# 
# From -- ./inp_files/6541.got.cif
#   From: 2010.03.12/outbox.cif.g09.slc.cpg/sg25_4_cif.got.tgz:6541.got - 2010.04.14 03:30:10.
