data_PCOD8166557
_publ_section_title
;
Structure prediction by ZEFSAII (Michael W. Deem and Ramdas Pophale) SiO2 
 PCOD8166557
Probable space group: P M M 2
;
_chemical_formula_sum "Si O2"
_cell_formula_units_Z 32
_cell_length_a 15.433029
_cell_length_b 8.946292
_cell_length_c 11.918709
_cell_angle_alpha 90.000000
_cell_angle_beta 90.000000
_cell_angle_gamma 90.000000
_cell_volume 1645.596890
_symmetry_space_group_name_H-M "P M M 2"
_symmetry_group_IT_number 25
_symmetry_cell_setting 'orthorhombic'
loop_
_space_group_symop_operation_xyz
x,y,z
-x,-y,z
-x,y,z
x,-y,z
loop_
_atom_site_type_symbol
_atom_site_label
_atom_site_fract_x
_atom_site_fract_y
_atom_site_fract_z
Si Si1 0.903162 0.671641 0.012240
Si Si2 0.251439 0.324225 0.855476
Si Si3 0.153297 0.824111 0.233486
Si Si4 0.095575 0.177563 0.473832
Si Si5 0.596517 0.330300 0.021281
Si Si6 0.352233 0.175677 0.241387
Si Si7 0.401377 0.672212 0.468019
Si Si8 0.742997 0.177580 0.616294
O O1 0.882417 0.500000 0.037844
O O2 0.897123 0.756818 0.129051
O O3 0.000000 0.694147 0.963202
O O4 0.834250 0.730968 0.921431
O O5 0.248673 0.500000 0.828050
O O6 0.256558 0.231120 0.742904
O O7 0.335535 0.279448 0.927335
O O8 0.112200 0.761328 0.348394
O O9 0.252871 0.775390 0.230718
O O10 0.142658 0.000000 0.225987
O O11 0.169345 0.239307 0.557214
O O12 0.000000 0.231266 0.513935
O O13 0.100757 0.000000 0.471518
O O14 0.500000 0.318823 0.969466
O O15 0.617308 0.500000 0.059602
O O16 0.600214 0.222275 0.127817
O O17 0.395646 0.260799 0.344067
O O18 0.362739 0.000000 0.261801
O O19 0.500000 0.688316 0.510665
O O20 0.372591 0.500000 0.464912
O O21 0.340729 0.760197 0.553595
O O22 0.738820 0.000000 0.611178
#
# Coordination Sequence:
#
# PCOD8166557 Si02
#       8
#     4   4   4   4   4   4   4   4
#     4  10  21  37  58  85 117 153 194 239 286 338
#     4  10  22  40  58  80 113 155 197 242 289 339
#     4  10  19  34  58  86 117 152 188 231 288 349
#     4   9  18  35  58  84 116 152 187 228 284 346
#     4  10  21  38  60  84 112 151 194 232 282 349
#     4  11  21  35  59  91 122 150 186 236 290 342
#     4  11  24  41  62  87 117 156 196 233 285 354
#     4  11  23  40  61  87 116 150 196 249 294 337
#
# _framework density 19.445831999999999
#
# number of rings (size 3 to 8) (size 9 to 14) (size 15 to 20)
#    0.000    1.750    2.500    1.875    0.000    6.000 
#    0.000    1.250    0.000    1.875    0.000    0.000 
#    0.000    0.000    0.000    0.000    0.000    0.000 
#
# Total GULP energy -396878.835901 kJ/mol
# GULP energy per Si atom -12402.463622 kJ/mol
# Density = 1.940157 g / cm^3
# Si number density = 19.445832 Si / 1000 Ang^3
#
#
#
# Elastic Constant Matrix: (Units=GPa)
#
#
# Indices 1 2 3 4 5 6 
#
# 1 152.0469 41.3710 72.1557 0.0000 0.0000 0.0000
# 2 41.3710 57.8315 42.4674 0.0000 0.0000 0.0000
# 3 72.1557 42.4674 139.9178 0.0000 0.0000 0.0000
# 4 0.0000 0.0000 0.0000 33.8305 0.0000 0.0000
# 5 0.0000 0.0000 0.0000 0.0000 -6.4906 0.0000
# 6 0.0000 0.0000 0.0000 0.0000 0.0000 21.2449
#
#
#
# Elastic Compliance Matrix: (Units=1/GPa)
#
#
# Indices 1 2 3 4 5 6 
#
# 1 0.009398 -0.004072 -0.003611 0.000000 0.000000 0.000000
# 2 -0.004072 0.024015 -0.005189 0.000000 0.000000 0.000000
# 3 -0.003611 -0.005189 0.010584 0.000000 0.000000 0.000000
# 4 0.000000 0.000000 0.000000 0.029559 0.000000 0.000000
# 5 0.000000 0.000000 0.000000 0.000000 -0.154069 0.000000
# 6 0.000000 0.000000 0.000000 0.000000 0.000000 0.047070
#
#
# Mechanical properties :
#
#
# Convention : Reuss Voigt Hill
#
# Bulk Modulus (GPa) = 54.78261 73.53159 64.15710
# Shear Modulus (GPa) = -3098.49015 22.63710 -1537.92652
#
# Velocity S-wave (km/s) = -39.96066 3.41561 -28.15305
# Velocity P-wave (km/s) = 45.83565 7.31101 31.99575
#
# Compressibility (1/GPa) = 0.01825397
#
# Stress axis : x y z
#
# Youngs Moduli (GPa) = 106.40079 41.64066 94.48041
#
# Poissons Ratio (x) = 0.16955 0.34116
# Poissons Ratio (y) = 0.43324 0.49027
# Poissons Ratio (z) = 0.38421 0.21608
#
# Static dielectric constant tensor:
#      x y z
#    x 3.945840 0.000000 0.000000 
#    y 0.000000 3.401530 0.000000 
#    z 0.000000 0.000000 3.466550 
# 
# 
# High freq. dielectric constant tensor:
#      x y z
#    x 1.777370 0.000000 0.000000 
#    y 0.000000 1.742290 0.000000 
#    z 0.000000 0.000000 1.750680 
# 
# From -- ./inp_files/4168.got.cif
#   From: 2010.03.12/outbox.cif.g09.slc.cpg/sg25_3_cif.got.tgz:4168.got - 2010.04.14 03:30:10.
