data_PCOD8166693
_publ_section_title
;
Structure prediction by ZEFSAII (Michael W. Deem and Ramdas Pophale) SiO2 
 PCOD8166693
Probable space group: P M M 2
;
_chemical_formula_sum "Si O2"
_cell_formula_units_Z 24
_cell_length_a 9.516064
_cell_length_b 9.068362
_cell_length_c 15.573985
_cell_angle_alpha 90.000000
_cell_angle_beta 90.000000
_cell_angle_gamma 90.000000
_cell_volume 1343.958798
_symmetry_space_group_name_H-M "P M M 2"
_symmetry_group_IT_number 25
_symmetry_cell_setting 'orthorhombic'
loop_
_space_group_symop_operation_xyz
x,y,z
-x,-y,z
-x,y,z
x,-y,z
loop_
_atom_site_type_symbol
_atom_site_label
_atom_site_fract_x
_atom_site_fract_y
_atom_site_fract_z
Si Si1 0.333175 0.663962 0.639380
Si Si2 0.832991 0.166290 0.124709
Si Si3 0.656536 0.675547 0.451949
Si Si4 0.665656 0.829861 0.806935
Si Si5 0.163027 0.673204 0.953965
Si Si6 0.162878 0.327284 0.293762
O O1 0.500000 0.653687 0.636269
O O2 0.271797 0.500000 0.658243
O O3 0.283201 0.723495 0.545730
O O4 0.283260 0.775771 0.713180
O O5 0.775395 0.245561 0.210116
O O6 0.000000 0.169542 0.126610
O O7 0.774687 0.000000 0.121280
O O8 0.779304 0.252803 0.041050
O O9 0.500000 0.739598 0.436775
O O10 0.651764 0.500000 0.450106
O O11 0.757126 0.735910 0.377099
O O12 0.500000 0.804381 0.818909
O O13 0.746493 0.734108 0.876207
O O14 0.706988 0.000000 0.817212
O O15 0.186309 0.500000 0.962206
O O16 0.000000 0.712568 0.938220
O O17 0.189164 0.500000 0.280405
O O18 0.000000 0.291427 0.307558
#
# Coordination Sequence:
#
# PCOD8166693 Si02
#       6
#     4   4   4   4   4   4
#     4   8  14  27  47  67  89 122 161 195 229 276
#     4   9  17  30  48  68  92 124 157 188 229 284
#     4   8  14  26  45  67  90 119 155 192 230 272
#     4  10  20  33  50  73 100 129 160 195 238 288
#     4  10  20  34  53  75  96 122 160 202 241 284
#     4   9  16  27  45  68  91 116 151 194 233 271
#
# _framework density 17.857690000000002
#
# number of rings (size 3 to 8) (size 9 to 14) (size 15 to 20)
#    0.000    3.000    0.000    2.500    0.000    4.000 
#    0.000    2.500    0.000    7.500    0.000    0.000 
#    0.000    0.000    0.000    0.000    0.000    0.000 
#
# Total GULP energy -297519.981166 kJ/mol
# GULP energy per Si atom -12396.665882 kJ/mol
# Density = 1.781705 g / cm^3
# Si number density = 17.857690 Si / 1000 Ang^3
#
#
#
# Elastic Constant Matrix: (Units=GPa)
#
#
# Indices 1 2 3 4 5 6 
#
# 1 37.7894 27.3257 47.6250 0.0000 0.0000 0.0000
# 2 27.3257 77.7392 58.4904 0.0000 0.0000 0.0000
# 3 47.6250 58.4904 178.3534 0.0000 0.0000 0.0000
# 4 0.0000 0.0000 0.0000 11.3813 0.0000 0.0000
# 5 0.0000 0.0000 0.0000 0.0000 32.7773 0.0000
# 6 0.0000 0.0000 0.0000 0.0000 0.0000 16.5879
#
#
#
# Elastic Compliance Matrix: (Units=1/GPa)
#
#
# Indices 1 2 3 4 5 6 
#
# 1 0.043992 -0.008795 -0.008863 0.000000 0.000000 0.000000
# 2 -0.008795 0.018836 -0.003829 0.000000 0.000000 0.000000
# 3 -0.008863 -0.003829 0.009229 0.000000 0.000000 0.000000
# 4 0.000000 0.000000 0.000000 0.087863 0.000000 0.000000
# 5 0.000000 0.000000 0.000000 0.000000 0.030509 0.000000
# 6 0.000000 0.000000 0.000000 0.000000 0.000000 0.060285
#
#
# Mechanical properties :
#
#
# Convention : Reuss Voigt Hill
#
# Bulk Modulus (GPa) = 34.38358 62.30714 48.34536
# Shear Modulus (GPa) = 16.48097 22.84536 19.66317
#
# Velocity S-wave (km/s) = 3.04123 3.58061 3.32189
# Velocity P-wave (km/s) = 5.62389 7.21533 6.46874
#
# Compressibility (1/GPa) = 0.02908365
#
# Stress axis : x y z
#
# Youngs Moduli (GPa) = 22.73166 53.09088 108.35482
#
# Poissons Ratio (x) = 0.46694 0.96030
# Poissons Ratio (y) = 0.19993 0.41484
# Poissons Ratio (z) = 0.20146 0.20326
#
# Static dielectric constant tensor:
#      x y z
#    x 2.699770 0.000000 0.000000 
#    y 0.000000 3.252670 0.000000 
#    z 0.000000 0.000000 3.744440 
# 
# 
# High freq. dielectric constant tensor:
#      x y z
#    x 1.647500 0.000000 0.000000 
#    y 0.000000 1.677830 0.000000 
#    z 0.000000 0.000000 1.710580 
# 
# From -- ./inp_files/3905.got.cif
#   From: 2010.03.12/outbox.cif.g09.slc.cpg/sg25_2_cif.got.tgz:3905.got - 2010.04.14 03:30:10.
