data_PCOD8166478
_publ_section_title
;
Structure prediction by ZEFSAII (Michael W. Deem and Ramdas Pophale) SiO2 
 PCOD8166478
Probable space group: P M M 2
;
_chemical_formula_sum "Si O2"
_cell_formula_units_Z 28
_cell_length_a 19.404239
_cell_length_b 8.836571
_cell_length_c 9.660251
_cell_angle_alpha 90.000000
_cell_angle_beta 90.000000
_cell_angle_gamma 90.000000
_cell_volume 1656.413636
_symmetry_space_group_name_H-M "P M M 2"
_symmetry_group_IT_number 25
_symmetry_cell_setting 'orthorhombic'
loop_
_space_group_symop_operation_xyz
x,y,z
-x,-y,z
-x,y,z
x,-y,z
loop_
_atom_site_type_symbol
_atom_site_label
_atom_site_fract_x
_atom_site_fract_y
_atom_site_fract_z
Si Si1 0.076732 0.826173 0.713330
Si Si2 0.794422 0.173491 0.863157
Si Si3 0.579754 0.324132 0.586315
Si Si4 0.692302 0.178608 0.088302
Si Si5 0.578276 0.823775 0.876037
Si Si6 0.198602 0.677808 0.590362
Si Si7 0.307156 0.820082 0.398153
O O1 0.118404 0.733845 0.594438
O O2 0.000000 0.758784 0.735152
O O3 0.072369 0.000000 0.665944
O O4 0.121437 0.812706 0.857221
O O5 0.762236 0.231449 0.007573
O O6 0.771233 0.000000 0.838320
O O7 0.764148 0.271002 0.734196
O O8 0.500000 0.292234 0.551870
O O9 0.598353 0.500000 0.576939
O O10 0.598061 0.267988 0.739389
O O11 0.624440 0.234811 0.474801
O O12 0.690622 0.246992 0.241945
O O13 0.690759 0.000000 0.102917
O O14 0.626272 0.234388 0.000985
O O15 0.500000 0.791721 0.921606
O O16 0.590630 0.000000 0.844051
O O17 0.202136 0.500000 0.572197
O O18 0.237415 0.755713 0.463860
O O19 0.304511 0.000000 0.401776
#
# Coordination Sequence:
#
# PCOD8166478 Si02
#       7
#     4   4   4   4   4   4   4
#     4   8  15  29  52  79 102 127 163 207 249 291
#     4   8  15  30  50  72  97 127 162 205 248 291
#     4  10  21  36  52  72  99 130 166 210 256 301
#     4   9  18  31  49  71  97 128 165 208 250 291
#     4   9  17  31  52  75  96 123 163 209 252 295
#     4  10  19  31  49  75 103 133 164 200 245 294
#     4  11  21  33  50  72 100 135 171 208 246 292
#
# _framework density 16.903991000000001
#
# number of rings (size 3 to 8) (size 9 to 14) (size 15 to 20)
#    0.857    1.857    0.000    2.571    0.000    2.857 
#    0.000    4.286    0.000    2.571    0.000    4.000 
#    0.000    0.000    0.000    0.000    0.000    0.000 
#
# Total GULP energy -346916.216217 kJ/mol
# GULP energy per Si atom -12389.864865 kJ/mol
# Density = 1.686552 g / cm^3
# Si number density = 16.903991 Si / 1000 Ang^3
#
#
#
# Elastic Constant Matrix: (Units=GPa)
#
#
# Indices 1 2 3 4 5 6 
#
# 1 134.9966 38.1149 76.9162 0.0000 0.0000 0.0000
# 2 38.1149 69.7698 42.0662 0.0000 0.0000 0.0000
# 3 76.9162 42.0662 133.8105 0.0000 0.0000 0.0000
# 4 0.0000 0.0000 0.0000 5.4674 0.0000 0.0000
# 5 0.0000 0.0000 0.0000 0.0000 8.6605 0.0000
# 6 0.0000 0.0000 0.0000 0.0000 0.0000 18.2108
#
#
#
# Elastic Compliance Matrix: (Units=1/GPa)
#
#
# Indices 1 2 3 4 5 6 
#
# 1 0.011448 -0.002821 -0.005694 0.000000 0.000000 0.000000
# 2 -0.002821 0.018380 -0.004157 0.000000 0.000000 0.000000
# 3 -0.005694 -0.004157 0.012053 0.000000 0.000000 0.000000
# 4 0.000000 0.000000 0.000000 0.182902 0.000000 0.000000
# 5 0.000000 0.000000 0.000000 0.000000 0.115466 0.000000
# 6 0.000000 0.000000 0.000000 0.000000 0.000000 0.054912
#
#
# Mechanical properties :
#
#
# Convention : Reuss Voigt Hill
#
# Bulk Modulus (GPa) = 60.46577 72.53015 66.49796
# Shear Modulus (GPa) = 11.73660 18.56639 15.15149
#
# Velocity S-wave (km/s) = 2.63783 3.31772 2.99712
# Velocity P-wave (km/s) = 6.71754 7.59451 7.16945
#
# Compressibility (1/GPa) = 0.01653828
#
# Stress axis : x y z
#
# Youngs Moduli (GPa) = 87.35013 54.40649 82.96862
#
# Poissons Ratio (x) = 0.15349 0.47240
# Poissons Ratio (y) = 0.24643 0.34486
# Poissons Ratio (z) = 0.49734 0.22614
#
# Static dielectric constant tensor:
#      x y z
#    x 3.300940 0.000000 0.000000 
#    y 0.000000 2.998070 0.000000 
#    z 0.000000 0.000000 3.170470 
# 
# 
# High freq. dielectric constant tensor:
#      x y z
#    x 1.652440 0.000000 0.000000 
#    y 0.000000 1.639900 0.000000 
#    z 0.000000 0.000000 1.628730 
# 
# From -- ./inp_files/3565.got.cif
#   From: 2010.03.12/outbox.cif.g09.slc.cpg/sg25_2_cif.got.tgz:3565.got - 2010.04.14 03:30:10.
