data_PCOD8166938
_publ_section_title
;
Structure prediction by ZEFSAII (Michael W. Deem and Ramdas Pophale) SiO2 
 PCOD8166938
Probable space group: P M M 2
;
_chemical_formula_sum "Si O2"
_cell_formula_units_Z 24
_cell_length_a 14.961318
_cell_length_b 9.116408
_cell_length_c 9.486416
_cell_angle_alpha 90.000000
_cell_angle_beta 90.000000
_cell_angle_gamma 90.000000
_cell_volume 1293.885282
_symmetry_space_group_name_H-M "P M M 2"
_symmetry_group_IT_number 25
_symmetry_cell_setting 'orthorhombic'
loop_
_space_group_symop_operation_xyz
x,y,z
-x,-y,z
-x,y,z
x,-y,z
loop_
_atom_site_type_symbol
_atom_site_label
_atom_site_fract_x
_atom_site_fract_y
_atom_site_fract_z
Si Si1 0.247252 0.826081 0.104410
Si Si2 0.896226 0.329172 0.289013
Si Si3 0.745212 0.828536 0.783035
Si Si4 0.603736 0.669891 0.276991
Si Si5 0.398503 0.670952 0.598414
Si Si6 0.898268 0.830472 0.573875
O O1 0.159941 0.753408 0.171068
O O2 0.337993 0.772384 0.177111
O O3 0.239747 0.000000 0.119548
O O4 0.249059 0.773779 0.942919
O O5 0.872261 0.500000 0.286893
O O6 0.869389 0.267404 0.441542
O O7 0.000000 0.299588 0.256867
O O8 0.661747 0.755841 0.707850
O O9 0.837213 0.784887 0.705574
O O10 0.728464 0.000000 0.776836
O O11 0.500000 0.702685 0.246835
O O12 0.625442 0.500000 0.246381
O O13 0.628410 0.708964 0.438000
O O14 0.500000 0.719852 0.625776
O O15 0.386844 0.500000 0.626029
O O16 0.000000 0.798302 0.618892
O O17 0.884881 0.000000 0.531478
#
# Coordination Sequence:
#
# PCOD8166938 Si02
#       6
#     4   4   4   4   4   4
#     4  11  23  36  52  78 112 146 178 215 261 314
#     4  10  21  37  57  81 107 136 175 222 267 313
#     4  10  22  36  51  77 110 142 175 213 259 310
#     4   9  19  37  59  81 106 138 178 223 267 312
#     4   9  19  36  57  79 102 133 175 220 265 312
#     4   9  18  35  58  80 103 135 175 217 263 315
#
# _framework density 18.548784000000001
#
# number of rings (size 3 to 8) (size 9 to 14) (size 15 to 20)
#    0.000    2.333    0.000    3.000    0.000    8.333 
#    0.000    6.667    0.000    2.000    0.000    0.000 
#    0.000    0.000    0.000    0.000    0.000    0.000 
#
# Total GULP energy -297669.223074 kJ/mol
# GULP energy per Si atom -12402.884295 kJ/mol
# Density = 1.850657 g / cm^3
# Si number density = 18.548784 Si / 1000 Ang^3
#
#
#
# Elastic Constant Matrix: (Units=GPa)
#
#
# Indices 1 2 3 4 5 6 
#
# 1 113.8559 52.1036 90.0359 0.0000 0.0000 0.0000
# 2 52.1036 67.7277 68.4353 0.0000 0.0000 0.0000
# 3 90.0359 68.4353 164.7340 0.0000 0.0000 0.0000
# 4 0.0000 0.0000 0.0000 21.0863 0.0000 0.0000
# 5 0.0000 0.0000 0.0000 0.0000 9.2089 0.0000
# 6 0.0000 0.0000 0.0000 0.0000 0.0000 35.4293
#
#
#
# Elastic Compliance Matrix: (Units=1/GPa)
#
#
# Indices 1 2 3 4 5 6 
#
# 1 0.016907 -0.006324 -0.006613 0.000000 0.000000 0.000000
# 2 -0.006324 0.027812 -0.008098 0.000000 0.000000 0.000000
# 3 -0.006613 -0.008098 0.013049 0.000000 0.000000 0.000000
# 4 0.000000 0.000000 0.000000 0.047424 0.000000 0.000000
# 5 0.000000 0.000000 0.000000 0.000000 0.108590 0.000000
# 6 0.000000 0.000000 0.000000 0.000000 0.000000 0.028225
#
#
# Mechanical properties :
#
#
# Convention : Reuss Voigt Hill
#
# Bulk Modulus (GPa) = 63.70216 85.27413 74.48814
# Shear Modulus (GPa) = 17.28248 22.19444 19.73846
#
# Velocity S-wave (km/s) = 3.05574 3.46286 3.26565
# Velocity P-wave (km/s) = 6.84599 7.87790 7.38000
#
# Compressibility (1/GPa) = 0.01569806
#
# Stress axis : x y z
#
# Youngs Moduli (GPa) = 59.14774 35.95506 76.63541
#
# Poissons Ratio (x) = 0.22739 0.50680
# Poissons Ratio (y) = 0.37407 0.62056
# Poissons Ratio (z) = 0.39115 0.29115
#
# Static dielectric constant tensor:
#      x y z
#    x 3.481550 0.000000 0.000000 
#    y 0.000000 3.369920 0.000000 
#    z 0.000000 0.000000 3.473910 
# 
# 
# High freq. dielectric constant tensor:
#      x y z
#    x 1.733040 0.000000 0.000000 
#    y 0.000000 1.718680 0.000000 
#    z 0.000000 0.000000 1.717240 
# 
# From -- ./inp_files/1980.got.cif
#   From: 2010.03.12/outbox.cif.g09.slc.cpg/sg25_1_cif.got.tgz:1980.got - 2010.04.14 03:30:10.
