data_PCOD8166296
_publ_section_title
;
Structure prediction by ZEFSAII (Michael W. Deem and Ramdas Pophale) SiO2 
 PCOD8166296
Probable space group: I 21 21 21
;
_chemical_formula_sum "Si O2"
_cell_formula_units_Z 64
_cell_length_a 9.709762
_cell_length_b 13.860925
_cell_length_c 33.868465
_cell_angle_alpha 90.000000
_cell_angle_beta 90.000000
_cell_angle_gamma 90.000000
_cell_volume 4558.230810
_symmetry_space_group_name_H-M "I 21 21 21"
_symmetry_group_IT_number 24
_symmetry_cell_setting 'orthorhombic'
loop_
_space_group_symop_operation_xyz
x,y,z
-x,1/2-y,z
x,-y,1/2-z
1/2-x,y,-z
1/2+x,1/2+y,1/2+z
1/2-x,-y,1/2+z
1/2+x,1/2-y,-z
-x,1/2+y,1/2-z
loop_
_atom_site_type_symbol
_atom_site_label
_atom_site_fract_x
_atom_site_fract_y
_atom_site_fract_z
Si Si1 0.151624 0.864339 0.533410
Si Si2 0.161416 0.861499 0.622181
Si Si3 0.837097 0.356080 0.267112
Si Si4 0.162903 0.643920 0.232888
Si Si5 0.663084 0.958453 0.687938
Si Si6 0.848376 0.135661 0.966590
Si Si7 0.661416 0.861499 0.377819
Si Si8 0.336916 0.958453 0.687938
O O1 0.250000 0.910190 0.500000
O O2 0.202828 0.889710 0.577432
O O3 0.145085 0.750000 0.528906
O O4 1.000000 0.908049 0.526478
O O5 0.197104 0.750000 0.630667
O O6 0.253257 0.929508 0.649386
O O7 1.000000 0.880413 0.629561
O O8 0.774398 0.250000 0.276279
O O9 0.788001 0.390491 0.223950
O O10 0.793880 0.431714 0.301026
O O11 1.000000 0.351908 0.265800
O O12 0.206120 0.568286 0.198974
O O13 0.211999 0.609509 0.276050
O O14 0.746743 0.929508 0.649386
O O15 0.500000 0.949134 0.679904
O O16 0.797171 0.110290 0.922568
O O17 0.750000 0.089810 0.000000
#
# Coordination Sequence:
#
# PCOD8166296 Si02
#       8
#     8   8   8   8   8   8   8   8
#     4   8  14  24  36  50  70  97 125 149 177 215
#     4   9  17  27  37  52  78 106 125 149 189 225
#     4   8  14  25  39  55  77 100 122 156 196 222
#     4   8  14  25  39  55  77 100 122 156 196 222
#     4   9  16  25  40  59  73  94 131 162 183 217
#     4   8  14  24  36  50  70  97 125 149 177 215
#     4   9  17  27  37  52  78 106 125 149 189 225
#     4   9  16  25  40  59  73  94 131 162 183 217
#
# _framework density 14.040535999999999
#
# number of rings (size 3 to 8) (size 9 to 14) (size 15 to 20)
#    0.000    3.500    0.000    3.750    0.000    2.500 
#    0.000    5.000    0.000    2.250    0.000    0.000 
#    0.000    1.000    0.000    2.250    0.000    3.500 
#
# Total GULP energy -396528.971372 kJ/mol
# GULP energy per Si atom -12391.530355 kJ/mol
# Density = 1.400858 g / cm^3
# Si number density = 14.040536 Si / 1000 Ang^3
#
#
#
# Elastic Constant Matrix: (Units=GPa)
#
#
# Indices 1 2 3 4 5 6 
#
# 1 48.4196 29.8088 55.6042 0.0000 0.0000 0.0000
# 2 29.8088 86.0852 50.0829 0.0000 0.0000 0.0000
# 3 55.6042 50.0829 117.9198 0.0000 0.0000 0.0000
# 4 0.0000 0.0000 0.0000 18.0765 0.0000 0.0000
# 5 0.0000 0.0000 0.0000 0.0000 27.5312 0.0000
# 6 0.0000 0.0000 0.0000 0.0000 0.0000 12.9128
#
#
#
# Elastic Compliance Matrix: (Units=1/GPa)
#
#
# Indices 1 2 3 4 5 6 
#
# 1 0.046279 -0.004422 -0.019944 0.000000 0.000000 0.000000
# 2 -0.004422 0.015851 -0.004647 0.000000 0.000000 0.000000
# 3 -0.019944 -0.004647 0.019859 0.000000 0.000000 0.000000
# 4 0.000000 0.000000 0.000000 0.055320 0.000000 0.000000
# 5 0.000000 0.000000 0.000000 0.000000 0.036322 0.000000
# 6 0.000000 0.000000 0.000000 0.000000 0.000000 0.077442
#
#
# Mechanical properties :
#
#
# Convention : Reuss Voigt Hill
#
# Bulk Modulus (GPa) = 41.73289 58.15740 49.94514
# Shear Modulus (GPa) = 15.76849 19.49936 17.63393
#
# Velocity S-wave (km/s) = 3.35486 3.73069 3.54775
# Velocity P-wave (km/s) = 6.69286 7.75038 7.24095
#
# Compressibility (1/GPa) = 0.02396192
#
# Stress axis : x y z
#
# Youngs Moduli (GPa) = 21.60821 63.08662 50.35553
#
# Poissons Ratio (x) = 0.27895 1.00431
# Poissons Ratio (y) = 0.09554 0.23402
# Poissons Ratio (z) = 0.43096 0.29318
#
# Static dielectric constant tensor:
#      x y z
#    x 2.676570 0.000000 0.000000 
#    y 0.000000 2.861130 0.000000 
#    z 0.000000 0.000000 2.761760 
# 
# 
# High freq. dielectric constant tensor:
#      x y z
#    x 1.518180 0.000000 0.000000 
#    y 0.000000 1.500130 0.000000 
#    z 0.000000 0.000000 1.533090 
# 
# From -- ./inp_files/38461.got.cif
#   From: 2010.03.12/outbox.cif.g09.slc.cpg/sg24_20_cif.got.tgz:38461.got - 2010.04.14 03:06:53.
