data_PCOD8166063
_publ_section_title
;
Structure prediction by ZEFSAII (Michael W. Deem and Ramdas Pophale) SiO2 
 PCOD8166063
Probable space group: I 21 21 21
;
_chemical_formula_sum "Si O2"
_cell_formula_units_Z 48
_cell_length_a 19.019070
_cell_length_b 14.781847
_cell_length_c 8.346613
_cell_angle_alpha 90.000000
_cell_angle_beta 90.000000
_cell_angle_gamma 90.000000
_cell_volume 2346.541596
_symmetry_space_group_name_H-M "I 21 21 21"
_symmetry_group_IT_number 24
_symmetry_cell_setting 'orthorhombic'
loop_
_space_group_symop_operation_xyz
x,y,z
-x,1/2-y,z
x,-y,1/2-z
1/2-x,y,-z
1/2+x,1/2+y,1/2+z
1/2-x,-y,1/2+z
1/2+x,1/2-y,-z
-x,1/2+y,1/2-z
loop_
_atom_site_type_symbol
_atom_site_label
_atom_site_fract_x
_atom_site_fract_y
_atom_site_fract_z
Si Si1 0.795425 0.095299 0.660461
Si Si2 0.309684 0.069222 0.386817
Si Si3 0.793881 0.729091 0.659189
Si Si4 0.060804 0.987063 0.065210
Si Si5 0.549286 0.678397 0.400534
Si Si6 0.545720 0.910576 0.146372
O O1 0.750000 0.092749 0.500000
O O2 0.767788 0.172435 0.782206
O O3 0.875355 0.123811 0.614942
O O4 0.789356 0.000000 0.750000
O O5 0.250000 0.027330 0.500000
O O6 0.279957 0.160395 0.306483
O O7 0.379721 0.079417 0.492587
O O8 0.331210 0.000000 0.250000
O O9 0.750000 0.702292 0.500000
O O10 0.877041 0.728291 0.627540
O O11 0.072903 0.000000 0.250000
O O12 0.987267 0.937769 0.026103
O O13 0.064702 0.087062 0.993132
O O14 0.500000 0.750000 0.498623
O O15 0.505367 0.660276 0.236152
O O16 0.550352 0.000000 0.250000
#
# Coordination Sequence:
#
# PCOD8166063 Si02
#       6
#     8   8   8   8   8   8
#     4  11  24  45  69  95 129 176 226 282 340 395
#     4  12  23  39  63  93 137 176 208 261 332 407
#     4  12  25  42  66  99 132 173 225 275 332 404
#     4  11  23  40  64 100 130 168 219 273 329 402
#     4  11  21  43  68  89 127 178 219 263 330 403
#     4   9  19  40  66  87 120 169 216 258 326 395
#
# _framework density 20.455634
#
# number of rings (size 3 to 8) (size 9 to 14) (size 15 to 20)
#    0.000    1.000    5.000    2.500    2.333    0.667 
#    3.000    0.833    0.000    0.000    0.000    0.000 
#    0.000    0.000    0.000    0.000    0.000    0.000 
#
# Total GULP energy -297486.389413 kJ/mol
# GULP energy per Si atom -12395.266226 kJ/mol
# Density = 2.040908 g / cm^3
# Si number density = 20.455634 Si / 1000 Ang^3
#
#
#
# Elastic Constant Matrix: (Units=GPa)
#
#
# Indices 1 2 3 4 5 6 
#
# 1 129.6559 18.6770 65.5063 0.0000 0.0000 0.0000
# 2 18.6770 99.0324 41.0040 0.0000 0.0000 0.0000
# 3 65.5063 41.0040 135.5052 0.0000 0.0000 0.0000
# 4 0.0000 0.0000 0.0000 18.5784 0.0000 0.0000
# 5 0.0000 0.0000 0.0000 0.0000 -3.6446 0.0000
# 6 0.0000 0.0000 0.0000 0.0000 0.0000 31.7675
#
#
#
# Elastic Compliance Matrix: (Units=1/GPa)
#
#
# Indices 1 2 3 4 5 6 
#
# 1 0.010207 0.000135 -0.004975 0.000000 0.000000 0.000000
# 2 0.000135 0.011546 -0.003559 0.000000 0.000000 0.000000
# 3 -0.004975 -0.003559 0.010862 0.000000 0.000000 0.000000
# 4 0.000000 0.000000 0.000000 0.053826 0.000000 0.000000
# 5 0.000000 0.000000 0.000000 0.000000 -0.274376 0.000000
# 6 0.000000 0.000000 0.000000 0.000000 0.000000 0.031479
#
#
# Mechanical properties :
#
#
# Convention : Reuss Voigt Hill
#
# Bulk Modulus (GPa) = 63.22613 68.28534 65.75574
# Shear Modulus (GPa) = -37.20615 25.27400 -5.96608
#
# Velocity S-wave (km/s) = -4.26945 3.51886 -1.70966
# Velocity P-wave (km/s) = 2.58297 7.06855 5.32147
#
# Compressibility (1/GPa) = 0.01581624
#
# Stress axis : x y z
#
# Youngs Moduli (GPa) = 97.97352 86.61118 92.06576
#
# Poissons Ratio (x) = -0.01169 0.45803
# Poissons Ratio (y) = -0.01322 0.32766
# Poissons Ratio (z) = 0.48742 0.30825
#
# Static dielectric constant tensor:
#      x y z
#    x 3.915640 0.000000 0.000000 
#    y 0.000000 4.486500 0.000000 
#    z 0.000000 0.000000 3.419880 
# 
# 
# High freq. dielectric constant tensor:
#      x y z
#    x 1.809680 0.000000 0.000000 
#    y 0.000000 1.806780 0.000000 
#    z 0.000000 0.000000 1.779750 
# 
# From -- ./inp_files/14148.got.cif
#   From: 2010.03.12/outbox.cif.g09.slc.cpg/sg24_8_cif.got.tgz:14148.got - 2010.04.14 03:06:53.
