data_PCOD8166567
_publ_section_title
;
Structure prediction by ZEFSAII (Michael W. Deem and Ramdas Pophale) SiO2 
 PCOD8166567
Probable space group: P M M 2
;
_chemical_formula_sum "Si O2"
_cell_formula_units_Z 28
_cell_length_a 8.733272
_cell_length_b 17.711656
_cell_length_c 9.338669
_cell_angle_alpha 90.000000
_cell_angle_beta 90.000000
_cell_angle_gamma 90.000000
_cell_volume 1444.511946
_symmetry_space_group_name_H-M "P M M 2"
_symmetry_group_IT_number 25
_symmetry_cell_setting 'orthorhombic'
loop_
_space_group_symop_operation_xyz
x,y,z
-x,-y,z
-x,y,z
x,-y,z
loop_
_atom_site_type_symbol
_atom_site_label
_atom_site_fract_x
_atom_site_fract_y
_atom_site_fract_z
Si Si1 0.679069 0.848122 0.024140
Si Si2 0.822741 0.411816 0.027954
Si Si3 0.318929 0.845367 0.352316
Si Si4 0.322371 0.587349 0.326623
Si Si5 0.180184 0.708132 0.523298
Si Si6 0.828978 0.000000 0.014059
Si Si7 0.174295 0.000000 0.354458
Si Si8 0.319869 0.291996 0.831577
O O1 0.500000 0.859675 0.018374
O O2 0.731574 0.834876 0.187455
O O3 0.749943 0.924025 0.956096
O O4 0.732910 0.776846 0.932298
O O5 0.792774 0.500000 0.004598
O O6 0.768379 0.387019 0.185392
O O7 0.000000 0.390452 0.010626
O O8 0.722853 0.369775 0.909142
O O9 0.500000 0.837734 0.373388
O O10 0.233339 0.782145 0.441200
O O11 0.262986 0.926312 0.411796
O O12 0.500000 0.604854 0.299552
O O13 0.293507 0.500000 0.362603
O O14 0.262348 0.634269 0.460812
O O15 0.225272 0.715745 0.687492
O O16 0.000000 0.698028 0.508008
O O17 0.819884 0.000000 0.184273
O O18 0.000000 0.000000 0.955156
O O19 0.000000 0.000000 0.411086
O O20 0.500000 0.290278 0.798913
#
# Coordination Sequence:
#
# PCOD8166567 Si02
#       8
#     4   4   4   4   4   2   2   4
#     4   9  19  35  57  82 109 142 182 228 275 326
#     4  10  21  38  61  89 118 147 182 228 281 333
#     4  10  19  35  59  85 112 145 187 233 282 338
#     4  10  21  39  63  88 113 145 187 232 278 334
#     4  12  25  39  56  81 115 152 189 235 288 339
#     4   9  17  29  52  83 112 141 176 222 274 327
#     4   9  17  31  52  83 116 145 182 228 280 333
#     4  11  23  39  58  81 112 152 194 233 277 334
#
# _framework density 19.383707999999999
#
# number of rings (size 3 to 8) (size 9 to 14) (size 15 to 20)
#    0.000    1.857    0.000    4.286    0.000    6.857 
#    0.000    0.714    0.000    2.571    0.000    0.000 
#    0.000    0.000    0.000    0.000    0.000    0.000 
#
# Total GULP energy -347324.161466 kJ/mol
# GULP energy per Si atom -12404.434338 kJ/mol
# Density = 1.933959 g / cm^3
# Si number density = 19.383708 Si / 1000 Ang^3
#
#
#
# Elastic Constant Matrix: (Units=GPa)
#
#
# Indices 1 2 3 4 5 6 
#
# 1 47.4591 41.6341 17.6895 0.0000 0.0000 0.0000
# 2 41.6341 117.3913 53.3587 0.0000 0.0000 0.0000
# 3 17.6895 53.3587 80.4970 0.0000 0.0000 0.0000
# 4 0.0000 0.0000 0.0000 2.5393 0.0000 0.0000
# 5 0.0000 0.0000 0.0000 0.0000 31.0581 0.0000
# 6 0.0000 0.0000 0.0000 0.0000 0.0000 36.3475
#
#
#
# Elastic Compliance Matrix: (Units=1/GPa)
#
#
# Indices 1 2 3 4 5 6 
#
# 1 0.030613 -0.011163 0.000672 0.000000 0.000000 0.000000
# 2 -0.011163 0.016262 -0.008327 0.000000 0.000000 0.000000
# 3 0.000672 -0.008327 0.017795 0.000000 0.000000 0.000000
# 4 0.000000 0.000000 0.000000 0.393812 0.000000 0.000000
# 5 0.000000 0.000000 0.000000 0.000000 0.032198 0.000000
# 6 0.000000 0.000000 0.000000 0.000000 0.000000 0.027512
#
#
# Mechanical properties :
#
#
# Convention : Reuss Voigt Hill
#
# Bulk Modulus (GPa) = 36.98882 52.30134 44.64508
# Shear Modulus (GPa) = 8.85210 22.83331 15.84271
#
# Velocity S-wave (km/s) = 2.13932 3.43587 2.86198
# Velocity P-wave (km/s) = 5.02256 6.54072 5.83126
#
# Compressibility (1/GPa) = 0.02703519
#
# Stress axis : x y z
#
# Youngs Moduli (GPa) = 32.66595 61.49214 56.19694
#
# Poissons Ratio (x) = 0.68642 -0.03777
# Poissons Ratio (y) = 0.36464 0.46793
# Poissons Ratio (z) = -0.02195 0.51202
#
# Static dielectric constant tensor:
#      x y z
#    x 3.621500 0.000000 0.000000 
#    y 0.000000 3.730540 0.000000 
#    z 0.000000 0.000000 3.412600 
# 
# 
# High freq. dielectric constant tensor:
#      x y z
#    x 1.766450 0.000000 0.000000 
#    y 0.000000 1.770230 0.000000 
#    z 0.000000 0.000000 1.732190 
# 
# From -- ./inp_files/2252.got.cif
#   From: 2010.03.12/outbox.cif.g09.slc.cpg/sg25_2_cif.got.tgz:2252.got - 2010.04.14 03:30:10.
