data_PCOD8166392
_publ_section_title
;
Structure prediction by ZEFSAII (Michael W. Deem and Ramdas Pophale) SiO2 
 PCOD8166392
Probable space group: P M M 2
;
_chemical_formula_sum "Si O2"
_cell_formula_units_Z 32
_cell_length_a 8.805813
_cell_length_b 14.631166
_cell_length_c 12.313388
_cell_angle_alpha 90.000000
_cell_angle_beta 90.000000
_cell_angle_gamma 90.000000
_cell_volume 1586.448435
_symmetry_space_group_name_H-M "P M M 2"
_symmetry_group_IT_number 25
_symmetry_cell_setting 'orthorhombic'
loop_
_space_group_symop_operation_xyz
x,y,z
-x,-y,z
-x,y,z
x,-y,z
loop_
_atom_site_type_symbol
_atom_site_label
_atom_site_fract_x
_atom_site_fract_y
_atom_site_fract_z
Si Si1 0.679232 0.604690 0.914640
Si Si2 0.826029 0.099901 0.208743
Si Si3 0.324878 0.100864 0.661950
Si Si4 0.670315 0.600877 0.286297
Si Si5 0.176031 0.286652 0.109159
Si Si6 0.324559 0.153101 0.421622
Si Si7 0.823847 0.665490 0.479296
Si Si8 0.178668 0.285859 0.718669
O O1 0.500000 0.604076 0.906311
O O2 0.740068 0.500000 0.925027
O O3 0.744744 0.651847 0.808248
O O4 0.725129 0.665955 0.016810
O O5 0.779293 0.179427 0.123102
O O6 0.721181 0.095850 0.315830
O O7 0.000000 0.116905 0.244692
O O8 0.807954 0.000000 0.152187
O O9 0.500000 0.121117 0.687556
O O10 0.296804 0.097525 0.532418
O O11 0.229925 0.179767 0.722506
O O12 0.277723 0.000000 0.706171
O O13 0.500000 0.641535 0.280234
O O14 0.671726 0.500000 0.234467
O O15 0.787261 0.664696 0.222626
O O16 0.726162 0.591962 0.411627
O O17 0.000000 0.298778 0.079509
O O18 0.500000 0.183471 0.412977
O O19 0.213385 0.239241 0.421315
O O20 0.772349 0.668875 0.604509
O O21 0.000000 0.641675 0.470132
O O22 0.000000 0.287270 0.736399
#
# Coordination Sequence:
#
# PCOD8166392 Si02
#       8
#     4   4   4   4   4   4   4   4
#     4  11  25  45  68  90 113 148 197 252 308 365
#     4  10  21  36  55  83 120 159 197 239 290 349
#     4   9  18  33  54  84 123 164 204 244 290 347
#     4  11  23  37  56  85 120 157 195 240 297 358
#     4  11  23  40  63  88 118 155 197 246 298 352
#     4  10  18  30  52  82 118 160 203 244 287 341
#     4  10  20  35  55  83 120 159 196 239 294 352
#     4  10  22  39  61  89 120 154 198 249 301 357
#
# _framework density 20.170839999999998
#
# number of rings (size 3 to 8) (size 9 to 14) (size 15 to 20)
#    0.000    1.750    1.250    3.000    0.000    7.500 
#    0.000    3.125    0.000    2.250    0.000    0.000 
#    0.000    0.000    0.000    0.000    0.000    0.000 
#
# Total GULP energy -396697.660306 kJ/mol
# GULP energy per Si atom -12396.801885 kJ/mol
# Density = 2.012493 g / cm^3
# Si number density = 20.170840 Si / 1000 Ang^3
#
#
#
# Elastic Constant Matrix: (Units=GPa)
#
#
# Indices 1 2 3 4 5 6 
#
# 1 64.7630 39.4779 33.4899 0.0000 0.0000 0.0000
# 2 39.4779 141.4326 59.0412 0.0000 0.0000 0.0000
# 3 33.4899 59.0412 97.5577 0.0000 0.0000 0.0000
# 4 0.0000 0.0000 0.0000 23.5247 0.0000 0.0000
# 5 0.0000 0.0000 0.0000 0.0000 33.5989 0.0000
# 6 0.0000 0.0000 0.0000 0.0000 0.0000 71.6863
#
#
#
# Elastic Compliance Matrix: (Units=1/GPa)
#
#
# Indices 1 2 3 4 5 6 
#
# 1 0.020090 -0.003651 -0.004687 0.000000 0.000000 0.000000
# 2 -0.003651 0.010124 -0.004874 0.000000 0.000000 0.000000
# 3 -0.004687 -0.004874 0.014809 0.000000 0.000000 0.000000
# 4 0.000000 0.000000 0.000000 0.042508 0.000000 0.000000
# 5 0.000000 0.000000 0.000000 0.000000 0.029763 0.000000
# 6 0.000000 0.000000 0.000000 0.000000 0.000000 0.013950
#
#
# Mechanical properties :
#
#
# Convention : Reuss Voigt Hill
#
# Bulk Modulus (GPa) = 53.76465 63.08570 58.42518
# Shear Modulus (GPa) = 30.51237 37.21160 33.86198
#
# Velocity S-wave (km/s) = 3.89356 4.29980 4.10171
# Velocity P-wave (km/s) = 6.85023 7.48295 7.17357
#
# Compressibility (1/GPa) = 0.01859958
#
# Stress axis : x y z
#
# Youngs Moduli (GPa) = 49.77524 98.77338 67.52732
#
# Poissons Ratio (x) = 0.36064 0.31650
# Poissons Ratio (y) = 0.18174 0.32911
# Poissons Ratio (z) = 0.23330 0.48139
#
# Static dielectric constant tensor:
#      x y z
#    x 3.627170 0.000000 0.000000 
#    y 0.000000 3.875030 0.000000 
#    z 0.000000 0.000000 3.583840 
# 
# 
# High freq. dielectric constant tensor:
#      x y z
#    x 1.790110 0.000000 0.000000 
#    y 0.000000 1.795670 0.000000 
#    z 0.000000 0.000000 1.766550 
# 
# From -- ./inp_files/4281.got.cif
#   From: 2010.03.12/outbox.cif.g09.slc.cpg/sg25_3_cif.got.tgz:4281.got - 2010.04.14 03:30:10.
