data_PCOD8166469
_publ_section_title
;
Structure prediction by ZEFSAII (Michael W. Deem and Ramdas Pophale) SiO2 
 PCOD8166469
Probable space group: P M M 2
;
_chemical_formula_sum "Si O2"
_cell_formula_units_Z 24
_cell_length_a 9.199163
_cell_length_b 16.550153
_cell_length_c 9.110736
_cell_angle_alpha 90.000000
_cell_angle_beta 90.000000
_cell_angle_gamma 90.000000
_cell_volume 1387.087281
_symmetry_space_group_name_H-M "P M M 2"
_symmetry_group_IT_number 25
_symmetry_cell_setting 'orthorhombic'
loop_
_space_group_symop_operation_xyz
x,y,z
-x,-y,z
-x,y,z
x,-y,z
loop_
_atom_site_type_symbol
_atom_site_label
_atom_site_fract_x
_atom_site_fract_y
_atom_site_fract_z
Si Si1 0.340079 0.172357 0.988840
Si Si2 0.830127 0.741488 0.756225
Si Si3 0.167957 0.590381 0.944125
Si Si4 0.670205 0.091794 0.273915
Si Si5 0.172981 0.763497 0.422893
Si Si6 0.337057 0.669671 0.186365
O O1 0.500000 0.151917 0.927290
O O2 0.236446 0.184169 0.849310
O O3 0.286550 0.102617 0.101407
O O4 0.342918 0.252784 0.084365
O O5 0.780465 0.654361 0.820397
O O6 0.778187 0.747702 0.589501
O O7 0.000000 0.752767 0.768253
O O8 0.192950 0.500000 0.881956
O O9 0.000000 0.605704 0.983386
O O10 0.258427 0.599126 0.094718
O O11 0.500000 0.114627 0.293148
O O12 0.766529 0.149057 0.376495
O O13 0.701650 0.000000 0.320847
O O14 0.243930 0.690723 0.330596
O O15 0.000000 0.762111 0.401584
O O16 0.500000 0.642214 0.230946
#
# Coordination Sequence:
#
# PCOD8166469 Si02
#       6
#     4   4   4   4   4   4
#     4   8  15  28  47  68  88 116 154 192 230 276
#     4   9  18  31  47  69  97 127 158 194 235 283
#     4   9  17  31  51  72  94 123 160 201 244 287
#     4   9  18  33  51  71  95 123 159 202 244 286
#     4  10  19  31  48  71  99 129 162 197 235 284
#     4   9  17  30  48  69  93 122 157 194 232 278
#
# _framework density 17.302443
#
# number of rings (size 3 to 8) (size 9 to 14) (size 15 to 20)
#    0.000    3.000    0.000    2.000    0.000    6.000 
#    0.000    1.667    0.000    6.000    0.000    0.000 
#    0.000    0.000    0.000    0.000    0.000    0.000 
#
# Total GULP energy -297483.487334 kJ/mol
# GULP energy per Si atom -12395.145306 kJ/mol
# Density = 1.726306 g / cm^3
# Si number density = 17.302443 Si / 1000 Ang^3
#
#
#
# Elastic Constant Matrix: (Units=GPa)
#
#
# Indices 1 2 3 4 5 6 
#
# 1 71.6477 31.2156 58.7769 0.0000 0.0000 0.0000
# 2 31.2156 69.5580 43.8003 0.0000 0.0000 0.0000
# 3 58.7769 43.8003 134.2328 0.0000 0.0000 0.0000
# 4 0.0000 0.0000 0.0000 18.2618 0.0000 0.0000
# 5 0.0000 0.0000 0.0000 0.0000 24.2795 0.0000
# 6 0.0000 0.0000 0.0000 0.0000 0.0000 21.6441
#
#
#
# Elastic Compliance Matrix: (Units=1/GPa)
#
#
# Indices 1 2 3 4 5 6 
#
# 1 0.023100 -0.005031 -0.008473 0.000000 0.000000 0.000000
# 2 -0.005031 0.019190 -0.004059 0.000000 0.000000 0.000000
# 3 -0.008473 -0.004059 0.012484 0.000000 0.000000 0.000000
# 4 0.000000 0.000000 0.000000 0.054759 0.000000 0.000000
# 5 0.000000 0.000000 0.000000 0.000000 0.041187 0.000000
# 6 0.000000 0.000000 0.000000 0.000000 0.000000 0.046202
#
#
# Mechanical properties :
#
#
# Convention : Reuss Voigt Hill
#
# Bulk Modulus (GPa) = 50.89492 60.33601 55.61547
# Shear Modulus (GPa) = 20.95569 22.28014 21.61791
#
# Velocity S-wave (km/s) = 3.48392 3.59233 3.53854
# Velocity P-wave (km/s) = 6.75739 7.22174 6.99342
#
# Compressibility (1/GPa) = 0.01964833
#
# Stress axis : x y z
#
# Youngs Moduli (GPa) = 43.28940 52.11028 80.10024
#
# Poissons Ratio (x) = 0.26217 0.67872
# Poissons Ratio (y) = 0.21780 0.32511
# Poissons Ratio (z) = 0.36681 0.21150
#
# Static dielectric constant tensor:
#      x y z
#    x 3.342960 0.000000 0.000000 
#    y 0.000000 3.185530 0.000000 
#    z 0.000000 0.000000 3.285450 
# 
# 
# High freq. dielectric constant tensor:
#      x y z
#    x 1.670540 0.000000 0.000000 
#    y 0.000000 1.647770 0.000000 
#    z 0.000000 0.000000 1.655900 
# 
# From -- ./inp_files/2101.got.cif
#   From: 2010.03.12/outbox.cif.g09.slc.cpg/sg25_2_cif.got.tgz:2101.got - 2010.04.14 03:30:10.
