data_PCOD8166022
_publ_section_title
;
Structure prediction by ZEFSAII (Michael W. Deem and Ramdas Pophale) SiO2 
 PCOD8166022
Probable space group: I 21 21 21
;
_chemical_formula_sum "Si O2"
_cell_formula_units_Z 40
_cell_length_a 4.970269
_cell_length_b 21.144399
_cell_length_c 19.784929
_cell_angle_alpha 90.000000
_cell_angle_beta 90.000000
_cell_angle_gamma 90.000000
_cell_volume 2079.264485
_symmetry_space_group_name_H-M "I 21 21 21"
_symmetry_group_IT_number 24
_symmetry_cell_setting 'orthorhombic'
loop_
_space_group_symop_operation_xyz
x,y,z
-x,1/2-y,z
x,-y,1/2-z
1/2-x,y,-z
1/2+x,1/2+y,1/2+z
1/2-x,-y,1/2+z
1/2+x,1/2-y,-z
-x,1/2+y,1/2-z
loop_
_atom_site_type_symbol
_atom_site_label
_atom_site_fract_x
_atom_site_fract_y
_atom_site_fract_z
Si Si1 0.502130 0.148485 0.540850
Si Si2 0.431168 0.497382 0.559468
Si Si3 0.903167 0.396189 0.735167
Si Si4 0.573957 0.820714 0.804772
Si Si5 0.566011 0.515464 0.356419
O O1 0.250000 0.175219 0.500000
O O2 0.500475 0.172940 0.616766
O O3 0.750000 0.177359 0.500000
O O4 0.502017 0.072942 0.536559
O O5 0.250000 0.531220 0.500000
O O6 0.720799 0.528224 0.581468
O O7 0.238550 0.499929 0.623638
O O8 0.617439 0.362902 0.741429
O O9 0.846375 0.452534 0.682566
O O10 0.963118 0.423231 0.809287
O O11 0.123099 0.344647 0.710175
O O12 0.500000 0.750000 0.782272
#
# Coordination Sequence:
#
# PCOD8166022 Si02
#       5
#     8   8   8   8   8
#     4  11  21  34  52  73 109 151 194 231 264 310
#     4  11  20  33  55  85 115 146 180 229 286 333
#     4  11  22  38  56  81 107 147 196 232 294 331
#     4  12  24  39  55  77 112 150 201 244 274 326
#     4  11  20  36  59  80 111 145 187 234 281 356
#
# _framework density 19.237570999999999
#
# number of rings (size 3 to 8) (size 9 to 14) (size 15 to 20)
#    0.000    0.800    4.000    6.000    0.000    4.000 
#    0.000    0.000    0.000    0.000    0.000    0.000 
#    0.000   44.800    0.000    0.000    0.000    0.000 
#
# Total GULP energy -247860.333339 kJ/mol
# GULP energy per Si atom -12393.016667 kJ/mol
# Density = 1.919379 g / cm^3
# Si number density = 19.237571 Si / 1000 Ang^3
#
#
#
# Elastic Constant Matrix: (Units=GPa)
#
#
# Indices 1 2 3 4 5 6 
#
# 1 109.4056 11.6254 9.9149 0.0000 0.0000 0.0000
# 2 11.6254 59.9289 23.1020 0.0000 0.0000 0.0000
# 3 9.9149 23.1020 43.8941 0.0000 0.0000 0.0000
# 4 0.0000 0.0000 0.0000 14.7216 0.0000 0.0000
# 5 0.0000 0.0000 0.0000 0.0000 36.9461 0.0000
# 6 0.0000 0.0000 0.0000 0.0000 0.0000 4.6009
#
#
#
# Elastic Compliance Matrix: (Units=1/GPa)
#
#
# Indices 1 2 3 4 5 6 
#
# 1 0.009407 -0.001262 -0.001461 0.000000 0.000000 0.000000
# 2 -0.001262 0.021103 -0.010822 0.000000 0.000000 0.000000
# 3 -0.001461 -0.010822 0.028808 0.000000 0.000000 0.000000
# 4 0.000000 0.000000 0.000000 0.067927 0.000000 0.000000
# 5 0.000000 0.000000 0.000000 0.000000 0.027066 0.000000
# 6 0.000000 0.000000 0.000000 0.000000 0.000000 0.217348
#
#
# Mechanical properties :
#
#
# Convention : Reuss Voigt Hill
#
# Bulk Modulus (GPa) = 31.02802 33.61259 32.32030
# Shear Modulus (GPa) = 12.21030 22.49281 17.35155
#
# Velocity S-wave (km/s) = 2.52208 3.42308 3.00653
# Velocity P-wave (km/s) = 4.96438 5.75618 5.37488
#
# Compressibility (1/GPa) = 0.03222894
#
# Stress axis : x y z
#
# Youngs Moduli (GPa) = 106.30666 47.38697 34.71296
#
# Poissons Ratio (x) = 0.05979 0.05071
# Poissons Ratio (y) = 0.13412 0.37565
# Poissons Ratio (z) = 0.15529 0.51281
#
# Static dielectric constant tensor:
#      x y z
#    x 3.634740 0.000000 0.000000 
#    y 0.000000 3.217650 0.000000 
#    z 0.000000 0.000000 3.590570 
# 
# 
# High freq. dielectric constant tensor:
#      x y z
#    x 1.777900 0.000000 0.000000 
#    y 0.000000 1.701650 0.000000 
#    z 0.000000 0.000000 1.739050 
# 
# From -- ./inp_files/28604.got.cif
#   From: 2010.03.12/outbox.cif.g09.slc.cpg/sg24_15_cif.got.tgz:28604.got - 2010.04.14 03:06:53.
