data_PCOD8166028
_publ_section_title
;
Structure prediction by ZEFSAII (Michael W. Deem and Ramdas Pophale) SiO2 
 PCOD8166028
Probable space group: I 21 21 21
;
_chemical_formula_sum "Si O2"
_cell_formula_units_Z 60
_cell_length_a 18.808628
_cell_length_b 11.452351
_cell_length_c 14.965746
_cell_angle_alpha 90.000000
_cell_angle_beta 90.000000
_cell_angle_gamma 90.000000
_cell_volume 3223.666731
_symmetry_space_group_name_H-M "I 21 21 21"
_symmetry_group_IT_number 24
_symmetry_cell_setting 'orthorhombic'
loop_
_space_group_symop_operation_xyz
x,y,z
-x,1/2-y,z
x,-y,1/2-z
1/2-x,y,-z
1/2+x,1/2+y,1/2+z
1/2-x,-y,1/2+z
1/2+x,1/2-y,-z
-x,1/2+y,1/2-z
loop_
_atom_site_type_symbol
_atom_site_label
_atom_site_fract_x
_atom_site_fract_y
_atom_site_fract_z
Si Si1 0.865935 0.207717 0.879553
Si Si2 0.947252 0.975904 0.895253
Si Si3 0.899145 0.533408 0.652880
Si Si4 0.327468 0.142673 0.457118
Si Si5 0.928664 0.189278 0.438874
Si Si6 0.826980 0.171823 0.685887
Si Si7 0.750000 0.872627 0.500000
Si Si8 0.811395 0.042712 0.351165
O O1 0.906741 0.328406 0.863303
O O2 0.819832 0.178438 0.791637
O O3 0.922336 0.109250 0.908561
O O4 0.805934 0.214316 0.954879
O O5 0.893650 0.912452 0.828872
O O6 0.951340 0.904093 0.986757
O O7 0.024003 0.972942 0.850382
O O8 0.866493 0.500000 0.750000
O O9 0.851498 0.487845 0.569427
O O10 0.250000 0.140356 0.500000
O O11 0.379853 0.205918 0.525600
O O12 0.336025 0.203954 0.360639
O O13 0.883527 0.116561 0.366594
O O14 0.000000 0.250000 0.398113
O O15 0.756987 0.123422 0.639275
O O16 0.796468 0.947471 0.428464
O O17 0.817844 0.000000 0.250000
#
# Coordination Sequence:
#
# PCOD8166028 Si02
#       8
#     8   8   8   8   8   8   4   8
#     4  12  23  38  57  88 130 161 209 253 315 374
#     4  11  22  37  61  93 124 164 200 256 319 380
#     4  12  25  39  56  87 131 176 204 248 321 393
#     4  11  22  39  61  88 119 165 213 249 312 380
#     4  11  22  40  66  90 124 160 212 264 310 368
#     4  11  20  37  63  92 121 153 205 266 309 375
#     4  12  22  38  62  98 122 158 214 264 318 366
#     4  12  21  39  70  96 124 158 209 276 317 360
#
# _framework density 18.612345999999999
#
# number of rings (size 3 to 8) (size 9 to 14) (size 15 to 20)
#    0.000    0.533    8.000    2.400    0.933    0.000 
#    0.000    0.000    2.933    2.400    0.000    0.000 
#    0.000    0.000    0.000    0.000    0.000    0.000 
#
# Total GULP energy -371867.224160 kJ/mol
# GULP energy per Si atom -12395.574139 kJ/mol
# Density = 1.856998 g / cm^3
# Si number density = 18.612346 Si / 1000 Ang^3
#
#
#
# Elastic Constant Matrix: (Units=GPa)
#
#
# Indices 1 2 3 4 5 6 
#
# 1 117.2904 32.2887 36.0545 0.0000 0.0000 0.0000
# 2 32.2887 90.1110 24.1017 0.0000 0.0000 0.0000
# 3 36.0545 24.1017 83.0483 0.0000 0.0000 0.0000
# 4 0.0000 0.0000 0.0000 20.3414 0.0000 0.0000
# 5 0.0000 0.0000 0.0000 0.0000 42.6446 0.0000
# 6 0.0000 0.0000 0.0000 0.0000 0.0000 28.0878
#
#
#
# Elastic Compliance Matrix: (Units=1/GPa)
#
#
# Indices 1 2 3 4 5 6 
#
# 1 0.010427 -0.002738 -0.003732 0.000000 0.000000 0.000000
# 2 -0.002738 0.012750 -0.002512 0.000000 0.000000 0.000000
# 3 -0.003732 -0.002512 0.014390 0.000000 0.000000 0.000000
# 4 0.000000 0.000000 0.000000 0.049161 0.000000 0.000000
# 5 0.000000 0.000000 0.000000 0.000000 0.023450 0.000000
# 6 0.000000 0.000000 0.000000 0.000000 0.000000 0.035603
#
#
# Mechanical properties :
#
#
# Convention : Reuss Voigt Hill
#
# Bulk Modulus (GPa) = 51.00986 52.81551 51.91269
# Shear Modulus (GPa) = 29.36366 31.41509 30.38937
#
# Velocity S-wave (km/s) = 3.97627 4.11282 4.04512
# Velocity P-wave (km/s) = 6.96756 7.14086 7.05474
#
# Compressibility (1/GPa) = 0.01960405
#
# Stress axis : x y z
#
# Youngs Moduli (GPa) = 95.90671 78.42978 69.49106
#
# Poissons Ratio (x) = 0.21474 0.25935
# Poissons Ratio (y) = 0.26259 0.17454
# Poissons Ratio (z) = 0.35793 0.19699
#
# Static dielectric constant tensor:
#      x y z
#    x 3.506170 0.000000 0.000000 
#    y 0.000000 3.237090 0.000000 
#    z 0.000000 0.000000 3.309390 
# 
# 
# High freq. dielectric constant tensor:
#      x y z
#    x 1.723140 0.000000 0.000000 
#    y 0.000000 1.723680 0.000000 
#    z 0.000000 0.000000 1.711280 
# 
# From -- ./inp_files/27176.got.cif
#   From: 2010.03.12/outbox.cif.g09.slc.cpg/sg24_14_cif.got.tgz:27176.got - 2010.04.14 03:06:53.
