data_PCOD8166809
_publ_section_title
;
Structure prediction by ZEFSAII (Michael W. Deem and Ramdas Pophale) SiO2 
 PCOD8166809
Probable space group: P M M 2
;
_chemical_formula_sum "Si O2"
_cell_formula_units_Z 32
_cell_length_a 8.995842
_cell_length_b 14.024639
_cell_length_c 12.898162
_cell_angle_alpha 90.000000
_cell_angle_beta 90.000000
_cell_angle_gamma 90.000000
_cell_volume 1627.276443
_symmetry_space_group_name_H-M "P M M 2"
_symmetry_group_IT_number 25
_symmetry_cell_setting 'orthorhombic'
loop_
_space_group_symop_operation_xyz
x,y,z
-x,-y,z
-x,y,z
x,-y,z
loop_
_atom_site_type_symbol
_atom_site_label
_atom_site_fract_x
_atom_site_fract_y
_atom_site_fract_z
Si Si1 0.676107 0.394570 0.463450
Si Si2 0.164625 0.112985 0.584159
Si Si3 0.675471 0.721503 0.269324
Si Si4 0.824918 0.282863 0.875277
Si Si5 0.325989 0.611079 0.063388
Si Si6 0.175801 0.892631 0.354793
Si Si7 0.325329 0.109350 0.789382
Si Si8 0.330679 0.386638 0.692830
O O1 0.500000 0.402142 0.453021
O O2 0.745326 0.500000 0.451625
O O3 0.741068 0.330646 0.371165
O O4 0.716170 0.352552 0.577048
O O5 0.222696 0.144268 0.470285
O O6 0.277760 0.145052 0.674356
O O7 0.000000 0.155361 0.607707
O O8 0.151995 0.000000 0.581229
O O9 0.500000 0.732745 0.274267
O O10 0.723872 0.661995 0.169145
O O11 0.748057 0.826355 0.267949
O O12 0.754181 0.176611 0.873939
O O13 0.782526 0.338431 0.771172
O O14 0.000000 0.272957 0.884131
O O15 0.765457 0.341918 0.971757
O O16 0.500000 0.625085 0.041272
O O17 0.285259 0.500000 0.071871
O O18 0.000000 0.887909 0.343043
O O19 0.233093 0.000000 0.335452
O O20 0.500000 0.121315 0.799965
O O21 0.276031 0.000000 0.809168
O O22 0.500000 0.355122 0.718808
O O23 0.317942 0.500000 0.701029
#
# Coordination Sequence:
#
# PCOD8166809 Si02
#       8
#     4   4   4   4   4   4   4   4
#     4   8  15  30  53  82 114 144 176 221 280 342
#     4   8  15  30  51  76 111 154 193 229 274 329
#     4  10  20  34  58  89 113 141 190 243 288 336
#     4  12  25  38  57  84 115 151 193 239 289 347
#     4  10  22  42  65  86 112 148 192 243 295 346
#     4   9  19  35  53  77 116 161 196 228 276 339
#     4  10  21  37  58  84 114 149 192 240 288 342
#     4   9  18  34  56  82 115 152 187 228 283 345
#
# _framework density 19.664759
#
# number of rings (size 3 to 8) (size 9 to 14) (size 15 to 20)
#    0.000    2.500    0.000    3.750    1.750    5.500 
#    0.000    1.875    0.000    2.625    0.000    0.000 
#    0.000    0.000    0.000    0.000    0.000    0.000 
#
# Total GULP energy -396745.873611 kJ/mol
# GULP energy per Si atom -12398.308550 kJ/mol
# Density = 1.962000 g / cm^3
# Si number density = 19.664759 Si / 1000 Ang^3
#
#
#
# Elastic Constant Matrix: (Units=GPa)
#
#
# Indices 1 2 3 4 5 6 
#
# 1 66.8191 45.2792 49.5713 0.0000 0.0000 0.0000
# 2 45.2792 109.1095 73.4056 0.0000 0.0000 0.0000
# 3 49.5713 73.4056 119.5617 0.0000 0.0000 0.0000
# 4 0.0000 0.0000 0.0000 37.5692 0.0000 0.0000
# 5 0.0000 0.0000 0.0000 0.0000 13.3399 0.0000
# 6 0.0000 0.0000 0.0000 0.0000 0.0000 22.6535
#
#
#
# Elastic Compliance Matrix: (Units=1/GPa)
#
#
# Indices 1 2 3 4 5 6 
#
# 1 0.023351 -0.005413 -0.006358 0.000000 0.000000 0.000000
# 2 -0.005413 0.016869 -0.008113 0.000000 0.000000 0.000000
# 3 -0.006358 -0.008113 0.015981 0.000000 0.000000 0.000000
# 4 0.000000 0.000000 0.000000 0.026618 0.000000 0.000000
# 5 0.000000 0.000000 0.000000 0.000000 0.074963 0.000000
# 6 0.000000 0.000000 0.000000 0.000000 0.000000 0.044143
#
#
# Mechanical properties :
#
#
# Convention : Reuss Voigt Hill
#
# Bulk Modulus (GPa) = 60.85152 70.22251 65.53701
# Shear Modulus (GPa) = 20.22894 23.19480 21.71187
#
# Velocity S-wave (km/s) = 3.21080 3.43813 3.32641
# Velocity P-wave (km/s) = 6.69009 7.17971 6.93922
#
# Compressibility (1/GPa) = 0.01643344
#
# Stress axis : x y z
#
# Youngs Moduli (GPa) = 42.82553 59.27875 62.57396
#
# Poissons Ratio (x) = 0.32085 0.39786
# Poissons Ratio (y) = 0.23180 0.50766
# Poissons Ratio (z) = 0.27230 0.48093
#
# Static dielectric constant tensor:
#      x y z
#    x 3.293880 0.000000 0.000000 
#    y 0.000000 3.735930 0.000000 
#    z 0.000000 0.000000 3.692910 
# 
# 
# High freq. dielectric constant tensor:
#      x y z
#    x 1.742670 0.000000 0.000000 
#    y 0.000000 1.776580 0.000000 
#    z 0.000000 0.000000 1.754590 
# 
# From -- ./inp_files/4156.got.cif
#   From: 2010.03.12/outbox.cif.g09.slc.cpg/sg25_3_cif.got.tgz:4156.got - 2010.04.14 03:30:10.
