data_PCOD8166895
_publ_section_title
;
Structure prediction by ZEFSAII (Michael W. Deem and Ramdas Pophale) SiO2 
 PCOD8166895
Probable space group: P M M 2
;
_chemical_formula_sum "Si O2"
_cell_formula_units_Z 32
_cell_length_a 9.063271
_cell_length_b 9.792931
_cell_length_c 20.434634
_cell_angle_alpha 90.000000
_cell_angle_beta 90.000000
_cell_angle_gamma 90.000000
_cell_volume 1813.696121
_symmetry_space_group_name_H-M "P M M 2"
_symmetry_group_IT_number 25
_symmetry_cell_setting 'orthorhombic'
loop_
_space_group_symop_operation_xyz
x,y,z
-x,-y,z
-x,y,z
x,-y,z
loop_
_atom_site_type_symbol
_atom_site_label
_atom_site_fract_x
_atom_site_fract_y
_atom_site_fract_z
Si Si1 0.172411 0.656688 0.995310
Si Si2 0.675312 0.846843 0.604130
Si Si3 0.170466 0.843026 0.114622
Si Si4 0.324579 0.153307 0.748975
Si Si5 0.327718 0.841997 0.248366
Si Si6 0.671884 0.342590 0.488914
Si Si7 0.673964 0.343974 0.863328
Si Si8 0.826997 0.657929 0.355422
O O1 0.213058 0.500000 0.011267
O O2 0.254897 0.708457 0.930541
O O3 0.000000 0.675716 0.983001
O O4 0.226754 0.749144 0.055378
O O5 0.500000 0.841014 0.604091
O O6 0.732778 0.804120 0.676518
O O7 0.737210 0.743665 0.549595
O O8 0.729132 0.000000 0.587373
O O9 0.267891 0.804026 0.176953
O O10 0.000000 0.812926 0.131603
O O11 0.193638 0.000000 0.094123
O O12 0.500000 0.160039 0.749494
O O13 0.260148 0.255698 0.803396
O O14 0.271366 0.000000 0.765497
O O15 0.500000 0.808977 0.250811
O O16 0.244669 0.749381 0.300049
O O17 0.295059 0.000000 0.264608
O O18 0.500000 0.311850 0.476487
O O19 0.699292 0.500000 0.506056
O O20 0.759731 0.297444 0.424699
O O21 0.500000 0.325530 0.869758
O O22 0.718591 0.500000 0.849622
O O23 0.790322 0.500000 0.340628
O O24 0.000000 0.685438 0.357132
#
# Coordination Sequence:
#
# PCOD8166895 Si02
#       8
#     4   4   4   4   4   4   4   4
#     4   9  18  32  48  66  91 123 156 189 228 277
#     4   8  14  25  42  65  92 120 151 189 233 280
#     4   9  18  33  51  70  94 124 157 193 233 279
#     4   8  14  25  41  63  91 120 150 187 232 279
#     4  10  21  36  54  77 103 129 159 198 243 289
#     4   9  17  29  46  69  95 121 153 196 241 282
#     4   9  17  28  43  65  91 117 149 191 233 272
#     4  10  21  36  53  73  99 132 167 201 239 286
#
# _framework density 17.643528
#
# number of rings (size 3 to 8) (size 9 to 14) (size 15 to 20)
#    0.000    3.000    0.000    1.500    0.000    4.000 
#    0.000    5.000    0.000    0.750    0.000    5.250 
#    0.000    0.000    0.000    0.000    0.000    0.000 
#
# Total GULP energy -396766.459572 kJ/mol
# GULP energy per Si atom -12398.951862 kJ/mol
# Density = 1.760337 g / cm^3
# Si number density = 17.643528 Si / 1000 Ang^3
#
#
#
# Elastic Constant Matrix: (Units=GPa)
#
#
# Indices 1 2 3 4 5 6 
#
# 1 43.5034 35.2103 50.6163 0.0000 0.0000 0.0000
# 2 35.2103 94.1777 100.1928 0.0000 0.0000 0.0000
# 3 50.6163 100.1928 175.2576 0.0000 0.0000 0.0000
# 4 0.0000 0.0000 0.0000 43.4339 0.0000 0.0000
# 5 0.0000 0.0000 0.0000 0.0000 -17.1720 0.0000
# 6 0.0000 0.0000 0.0000 0.0000 0.0000 17.9629
#
#
#
# Elastic Compliance Matrix: (Units=1/GPa)
#
#
# Indices 1 2 3 4 5 6 
#
# 1 0.035948 -0.006112 -0.006888 0.000000 0.000000 0.000000
# 2 -0.006112 0.028140 -0.014322 0.000000 0.000000 0.000000
# 3 -0.006888 -0.014322 0.015883 0.000000 0.000000 0.000000
# 4 0.000000 0.000000 0.000000 0.023023 0.000000 0.000000
# 5 0.000000 0.000000 0.000000 0.000000 -0.058234 0.000000
# 6 0.000000 0.000000 0.000000 0.000000 0.000000 0.055670
#
#
# Mechanical properties :
#
#
# Convention : Reuss Voigt Hill
#
# Bulk Modulus (GPa) = 39.48394 76.10864 57.79629
# Shear Modulus (GPa) = 30.57782 17.30626 23.94204
#
# Velocity S-wave (km/s) = 4.16756 3.13531 3.68773
# Velocity P-wave (km/s) = 6.75169 7.50582 7.13872
#
# Compressibility (1/GPa) = 0.02532675
#
# Stress axis : x y z
#
# Youngs Moduli (GPa) = 27.81820 35.53608 62.95977
#
# Poissons Ratio (x) = 0.21719 0.43367
# Poissons Ratio (y) = 0.17002 0.90173
# Poissons Ratio (z) = 0.19161 0.50896
#
# Static dielectric constant tensor:
#      x y z
#    x 3.027730 0.000000 0.000000 
#    y 0.000000 3.391950 0.000000 
#    z 0.000000 0.000000 3.531360 
# 
# 
# High freq. dielectric constant tensor:
#      x y z
#    x 1.653470 0.000000 0.000000 
#    y 0.000000 1.681540 0.000000 
#    z 0.000000 0.000000 1.691690 
# 
# From -- ./inp_files/5561.got.cif
#   From: 2010.03.12/outbox.cif.g09.slc.cpg/sg25_3_cif.got.tgz:5561.got - 2010.04.14 03:30:10.
