data_PCOD8166513
_publ_section_title
;
Structure prediction by ZEFSAII (Michael W. Deem and Ramdas Pophale) SiO2 
 PCOD8166513
Probable space group: P M M 2
;
_chemical_formula_sum "Si O2"
_cell_formula_units_Z 32
_cell_length_a 8.783095
_cell_length_b 14.754753
_cell_length_c 12.416698
_cell_angle_alpha 90.000000
_cell_angle_beta 90.000000
_cell_angle_gamma 90.000000
_cell_volume 1609.109660
_symmetry_space_group_name_H-M "P M M 2"
_symmetry_group_IT_number 25
_symmetry_cell_setting 'orthorhombic'
loop_
_space_group_symop_operation_xyz
x,y,z
-x,-y,z
-x,y,z
x,-y,z
loop_
_atom_site_type_symbol
_atom_site_label
_atom_site_fract_x
_atom_site_fract_y
_atom_site_fract_z
Si Si1 0.322049 0.286820 0.775770
Si Si2 0.826932 0.399755 0.948459
Si Si3 0.319977 0.902129 0.857262
Si Si4 0.320319 0.707091 0.383103
Si Si5 0.675155 0.096690 0.323592
Si Si6 0.173060 0.330940 0.169246
Si Si7 0.820276 0.396386 0.582818
Si Si8 0.325200 0.842486 0.090518
O O1 0.500000 0.291444 0.747555
O O2 0.291978 0.332476 0.891592
O O3 0.262548 0.182304 0.784224
O O4 0.227962 0.340831 0.687393
O O5 0.802259 0.500000 0.900370
O O6 0.000000 0.366786 0.925604
O O7 0.799021 0.406450 0.077486
O O8 0.500000 0.901830 0.849724
O O9 0.256395 0.000000 0.815333
O O10 0.273292 0.893630 0.982507
O O11 0.500000 0.707703 0.399324
O O12 0.253581 0.810960 0.374743
O O13 0.281640 0.654649 0.272227
O O14 0.245025 0.654152 0.479826
O O15 0.500000 0.098230 0.357387
O O16 0.691086 0.093499 0.194410
O O17 0.746985 0.000000 0.365593
O O18 0.208956 0.239086 0.106013
O O19 0.000000 0.331267 0.211560
O O20 0.758706 0.500000 0.588107
O O21 0.000000 0.396730 0.574862
O O22 0.500000 0.807311 0.081197
#
# Coordination Sequence:
#
# PCOD8166513 Si02
#       8
#     4   4   4   4   4   4   4   4
#     4  11  22  37  60  88 115 143 186 242 289 330
#     4  10  21  36  54  78 112 155 193 225 277 348
#     4   9  17  30  52  83 117 152 190 232 281 336
#     4  10  21  37  60  88 115 144 188 242 287 328
#     4   8  14  26  49  82 116 150 186 223 269 326
#     4  10  19  32  52  79 117 158 191 227 279 340
#     4  11  25  45  66  83 105 145 191 234 291 358
#     4   9  15  27  49  77 111 152 197 237 271 315
#
# _framework density 19.886776000000001
#
# number of rings (size 3 to 8) (size 9 to 14) (size 15 to 20)
#    0.000    2.250    1.250    3.000    0.000    5.250 
#    0.000    1.875    0.000   19.500    0.000    0.000 
#    0.000    0.000    0.000    0.000    0.000    0.000 
#
# Total GULP energy -396499.357655 kJ/mol
# GULP energy per Si atom -12390.604927 kJ/mol
# Density = 1.984151 g / cm^3
# Si number density = 19.886776 Si / 1000 Ang^3
#
#
#
# Elastic Constant Matrix: (Units=GPa)
#
#
# Indices 1 2 3 4 5 6 
#
# 1 41.9460 32.7615 23.3375 0.0000 0.0000 0.0000
# 2 32.7615 144.1376 64.0145 0.0000 0.0000 0.0000
# 3 23.3375 64.0145 100.2986 0.0000 0.0000 0.0000
# 4 0.0000 0.0000 0.0000 22.4822 0.0000 0.0000
# 5 0.0000 0.0000 0.0000 0.0000 29.6069 0.0000
# 6 0.0000 0.0000 0.0000 0.0000 0.0000 14.4636
#
#
#
# Elastic Compliance Matrix: (Units=1/GPa)
#
#
# Indices 1 2 3 4 5 6 
#
# 1 0.029918 -0.005175 -0.003658 0.000000 0.000000 0.000000
# 2 -0.005175 0.010578 -0.005547 0.000000 0.000000 0.000000
# 3 -0.003658 -0.005547 0.014362 0.000000 0.000000 0.000000
# 4 0.000000 0.000000 0.000000 0.044480 0.000000 0.000000
# 5 0.000000 0.000000 0.000000 0.000000 0.033776 0.000000
# 6 0.000000 0.000000 0.000000 0.000000 0.000000 0.069139
#
#
# Mechanical properties :
#
#
# Convention : Reuss Voigt Hill
#
# Bulk Modulus (GPa) = 38.31979 58.51214 48.41596
# Shear Modulus (GPa) = 20.85844 24.39511 22.62678
#
# Velocity S-wave (km/s) = 3.24212 3.50623 3.37676
# Velocity P-wave (km/s) = 5.77286 6.77333 6.29301
#
# Compressibility (1/GPa) = 0.02609618
#
# Stress axis : x y z
#
# Youngs Moduli (GPa) = 33.42502 94.53925 69.63023
#
# Poissons Ratio (x) = 0.48928 0.25471
# Poissons Ratio (y) = 0.17299 0.38623
# Poissons Ratio (z) = 0.12227 0.52439
#
# Static dielectric constant tensor:
#      x y z
#    x 3.340830 0.000000 0.000000 
#    y 0.000000 4.239250 0.000000 
#    z 0.000000 0.000000 3.585240 
# 
# 
# High freq. dielectric constant tensor:
#      x y z
#    x 1.745610 0.000000 0.000000 
#    y 0.000000 1.785240 0.000000 
#    z 0.000000 0.000000 1.760580 
# 
# From -- ./inp_files/4280.got.cif
#   From: 2010.03.12/outbox.cif.g09.slc.cpg/sg25_3_cif.got.tgz:4280.got - 2010.04.14 03:30:10.
