data_PCOD8166864
_publ_section_title
;
Structure prediction by ZEFSAII (Michael W. Deem and Ramdas Pophale) SiO2 
 PCOD8166864
Probable space group: P M M 2
;
_chemical_formula_sum "Si O2"
_cell_formula_units_Z 28
_cell_length_a 9.281604
_cell_length_b 9.490267
_cell_length_c 18.307254
_cell_angle_alpha 90.000000
_cell_angle_beta 90.000000
_cell_angle_gamma 90.000000
_cell_volume 1612.592641
_symmetry_space_group_name_H-M "P M M 2"
_symmetry_group_IT_number 25
_symmetry_cell_setting 'orthorhombic'
loop_
_space_group_symop_operation_xyz
x,y,z
-x,-y,z
-x,y,z
x,-y,z
loop_
_atom_site_type_symbol
_atom_site_label
_atom_site_fract_x
_atom_site_fract_y
_atom_site_fract_z
Si Si1 0.162098 0.667955 0.079020
Si Si2 0.671012 0.336613 0.531087
Si Si3 0.667228 0.336743 0.937917
Si Si4 0.166795 0.165224 0.653679
Si Si5 0.666258 0.163370 0.797515
Si Si6 0.659227 0.666805 0.372970
Si Si7 0.664064 0.667501 0.215884
O O1 0.164686 0.500000 0.081680
O O2 0.239245 0.731800 0.151054
O O3 0.000000 0.726294 0.076788
O O4 0.244828 0.721164 0.007163
O O5 0.500000 0.309640 0.536600
O O6 0.705770 0.500000 0.546015
O O7 0.755199 0.243697 0.588395
O O8 0.731169 0.288458 0.450262
O O9 0.500000 0.310817 0.954831
O O10 0.699964 0.500000 0.922851
O O11 0.718662 0.251005 0.867321
O O12 0.238415 0.213529 0.729448
O O13 0.000000 0.207691 0.655572
O O14 0.189142 0.000000 0.641443
O O15 0.500000 0.195510 0.778853
O O16 0.690902 0.000000 0.815278
O O17 0.500000 0.732382 0.371222
O O18 0.646441 0.500000 0.374730
O O19 0.732353 0.713031 0.295574
O O20 0.500000 0.722496 0.207823
O O21 0.664203 0.500000 0.209649
#
# Coordination Sequence:
#
# PCOD8166864 Si02
#       7
#     4   4   4   4   4   4   4
#     4   9  16  24  35  56  87 118 146 177 213 254
#     4   9  17  30  49  72  96 121 152 192 235 276
#     4   9  17  29  45  65  88 113 142 177 219 266
#     4  10  21  35  49  67  93 124 156 188 225 274
#     4   9  18  33  51  68  86 111 146 187 227 266
#     4   7  11  21  38  61  87 114 145 181 220 261
#     4   8  12  20  36  56  81 115 149 178 213 258
#
# _framework density 17.363344000000001
#
# number of rings (size 3 to 8) (size 9 to 14) (size 15 to 20)
#    0.000    3.286    0.000    2.571    0.000    4.000 
#    0.000    2.143    0.000    2.571    0.000    1.000 
#    0.000    3.429    0.000    0.000    0.000    0.000 
#
# Total GULP energy -346920.835282 kJ/mol
# GULP energy per Si atom -12390.029831 kJ/mol
# Density = 1.732382 g / cm^3
# Si number density = 17.363344 Si / 1000 Ang^3
#
#
#
# Elastic Constant Matrix: (Units=GPa)
#
#
# Indices 1 2 3 4 5 6 
#
# 1 85.1738 25.2680 85.4234 0.0000 0.0000 0.0000
# 2 25.2680 25.0423 47.0482 0.0000 0.0000 0.0000
# 3 85.4234 47.0482 209.2666 0.0000 0.0000 0.0000
# 4 0.0000 0.0000 0.0000 -3.9447 0.0000 0.0000
# 5 0.0000 0.0000 0.0000 0.0000 3.9495 0.0000
# 6 0.0000 0.0000 0.0000 0.0000 0.0000 15.2899
#
#
#
# Elastic Compliance Matrix: (Units=1/GPa)
#
#
# Indices 1 2 3 4 5 6 
#
# 1 0.020937 -0.008775 -0.006574 0.000000 0.000000 0.000000
# 2 -0.008775 0.072812 -0.012788 0.000000 0.000000 0.000000
# 3 -0.006574 -0.012788 0.010337 0.000000 0.000000 0.000000
# 4 0.000000 0.000000 0.000000 -0.253504 0.000000 0.000000
# 5 0.000000 0.000000 0.000000 0.000000 0.253196 0.000000
# 6 0.000000 0.000000 0.000000 0.000000 0.000000 0.065403
#
#
# Mechanical properties :
#
#
# Convention : Reuss Voigt Hill
#
# Bulk Modulus (GPa) = 20.91515 70.55134 45.73324
# Shear Modulus (GPa) = 20.71323 13.84181 17.27752
#
# Velocity S-wave (km/s) = 3.45763 2.82651 3.15787
# Velocity P-wave (km/s) = 5.29263 7.16748 6.30019
#
# Compressibility (1/GPa) = 0.04781224
#
# Stress axis : x y z
#
# Youngs Moduli (GPa) = 47.76255 13.73402 96.74041
#
# Poissons Ratio (x) = 0.12052 0.63593
# Poissons Ratio (y) = 0.41914 1.23709
# Poissons Ratio (z) = 0.31397 0.17563
#
# Static dielectric constant tensor:
#      x y z
#    x 3.148480 0.000000 0.000000 
#    y 0.000000 2.750390 0.000000 
#    z 0.000000 0.000000 3.687070 
# 
# 
# High freq. dielectric constant tensor:
#      x y z
#    x 1.650760 0.000000 0.000000 
#    y 0.000000 1.614010 0.000000 
#    z 0.000000 0.000000 1.695720 
# 
# From -- ./inp_files/6213.got.cif
#   From: 2010.03.12/outbox.cif.g09.slc.cpg/sg25_4_cif.got.tgz:6213.got - 2010.04.14 03:30:10.
