data_PCOD8166356
_publ_section_title
;
Structure prediction by ZEFSAII (Michael W. Deem and Ramdas Pophale) SiO2 
 PCOD8166356
Probable space group: P M M 2
;
_chemical_formula_sum "Si O2"
_cell_formula_units_Z 28
_cell_length_a 9.588359
_cell_length_b 14.291195
_cell_length_c 12.845816
_cell_angle_alpha 90.000000
_cell_angle_beta 90.000000
_cell_angle_gamma 90.000000
_cell_volume 1760.250711
_symmetry_space_group_name_H-M "P M M 2"
_symmetry_group_IT_number 25
_symmetry_cell_setting 'orthorhombic'
loop_
_space_group_symop_operation_xyz
x,y,z
-x,-y,z
-x,y,z
x,-y,z
loop_
_atom_site_type_symbol
_atom_site_label
_atom_site_fract_x
_atom_site_fract_y
_atom_site_fract_z
Si Si1 0.840576 0.603965 0.747530
Si Si2 0.160714 0.206845 0.844890
Si Si3 0.338178 0.109049 0.018175
Si Si4 0.838750 0.890358 0.630523
Si Si5 0.663101 0.793600 0.451688
Si Si6 0.334628 0.896492 0.249545
Si Si7 0.339810 0.396360 0.547176
O O1 0.805727 0.500000 0.791478
O O2 0.812893 0.681361 0.835973
O O3 0.748898 0.628347 0.648001
O O4 0.000000 0.610125 0.709679
O O5 0.207892 0.157151 0.738320
O O6 0.000000 0.183553 0.868566
O O7 0.251717 0.171514 0.939620
O O8 0.500000 0.133794 0.004012
O O9 0.284843 0.134864 0.134646
O O10 0.311480 0.000000 0.995606
O O11 0.745423 0.850336 0.538491
O O12 0.000000 0.867779 0.606219
O O13 0.811331 0.000000 0.640863
O O14 0.500000 0.817420 0.465541
O O15 0.717778 0.824549 0.337735
O O16 0.691124 0.682120 0.460098
O O17 0.500000 0.901505 0.246798
O O18 0.275572 0.000000 0.275914
O O19 0.500000 0.392431 0.582278
O O20 0.302055 0.500000 0.503163
#
# Coordination Sequence:
#
# PCOD8166356 Si02
#       7
#     4   4   4   4   4   4   4
#     4   9  17  30  48  67  88 119 155 184 217 269
#     4  10  19  31  47  67  93 121 149 185 230 273
#     4   9  18  32  49  67  88 119 159 195 224 262
#     4  10  20  31  42  63  97 126 144 176 229 277
#     4  10  18  29  48  69  90 120 155 186 221 270
#     4   8  15  29  47  66  88 116 153 194 228 259
#     4   9  17  28  43  67  96 120 146 185 227 263
#
# _framework density 15.906825
#
# number of rings (size 3 to 8) (size 9 to 14) (size 15 to 20)
#    0.000    2.714    1.429    1.714    0.000    2.857 
#    0.000    0.714    0.000    1.714    0.000    2.000 
#    0.000    0.000    0.000    0.000    0.000    0.000 
#
# Total GULP energy -347087.087456 kJ/mol
# GULP energy per Si atom -12395.967409 kJ/mol
# Density = 1.587062 g / cm^3
# Si number density = 15.906825 Si / 1000 Ang^3
#
#
#
# Elastic Constant Matrix: (Units=GPa)
#
#
# Indices 1 2 3 4 5 6 
#
# 1 44.1661 42.1267 47.5882 0.0000 0.0000 0.0000
# 2 42.1267 114.1554 75.7992 0.0000 0.0000 0.0000
# 3 47.5882 75.7992 126.4154 0.0000 0.0000 0.0000
# 4 0.0000 0.0000 0.0000 20.8188 0.0000 0.0000
# 5 0.0000 0.0000 0.0000 0.0000 -15.6926 0.0000
# 6 0.0000 0.0000 0.0000 0.0000 0.0000 21.9547
#
#
#
# Elastic Compliance Matrix: (Units=1/GPa)
#
#
# Indices 1 2 3 4 5 6 
#
# 1 0.042440 -0.008396 -0.010942 0.000000 0.000000 0.000000
# 2 -0.008396 0.016216 -0.006562 0.000000 0.000000 0.000000
# 3 -0.010942 -0.006562 0.015964 0.000000 0.000000 0.000000
# 4 0.000000 0.000000 0.000000 0.048034 0.000000 0.000000
# 5 0.000000 0.000000 0.000000 0.000000 -0.063724 0.000000
# 6 0.000000 0.000000 0.000000 0.000000 0.000000 0.045548
#
#
# Mechanical properties :
#
#
# Convention : Reuss Voigt Hill
#
# Bulk Modulus (GPa) = 43.82276 68.41835 56.12055
# Shear Modulus (GPa) = 30.50917 13.36436 21.93676
#
# Velocity S-wave (km/s) = 4.38424 2.90170 3.71762
# Velocity P-wave (km/s) = 7.29645 7.37101 7.33383
#
# Compressibility (1/GPa) = 0.02281919
#
# Stress axis : x y z
#
# Youngs Moduli (GPa) = 23.56269 61.66794 62.64003
#
# Poissons Ratio (x) = 0.51778 0.68540
# Poissons Ratio (y) = 0.19784 0.41107
# Poissons Ratio (z) = 0.25782 0.40469
#
# Static dielectric constant tensor:
#      x y z
#    x 2.922040 0.000000 0.000000 
#    y 0.000000 3.325740 0.000000 
#    z 0.000000 0.000000 2.988280 
# 
# 
# High freq. dielectric constant tensor:
#      x y z
#    x 1.599620 0.000000 0.000000 
#    y 0.000000 1.619100 0.000000 
#    z 0.000000 0.000000 1.590660 
# 
# From -- ./inp_files/4067.got.cif
#   From: 2010.03.12/outbox.cif.g09.slc.cpg/sg25_3_cif.got.tgz:4067.got - 2010.04.14 03:30:10.
