data_PCOD8166006
_publ_section_title
;
Structure prediction by ZEFSAII (Michael W. Deem and Ramdas Pophale) SiO2 
 PCOD8166006
Probable space group: I 21 21 21
;
_chemical_formula_sum "Si O2"
_cell_formula_units_Z 48
_cell_length_a 14.168221
_cell_length_b 9.660179
_cell_length_c 19.636268
_cell_angle_alpha 90.000000
_cell_angle_beta 90.000000
_cell_angle_gamma 90.000000
_cell_volume 2687.567911
_symmetry_space_group_name_H-M "I 21 21 21"
_symmetry_group_IT_number 24
_symmetry_cell_setting 'orthorhombic'
loop_
_space_group_symop_operation_xyz
x,y,z
-x,1/2-y,z
x,-y,1/2-z
1/2-x,y,-z
1/2+x,1/2+y,1/2+z
1/2-x,-y,1/2+z
1/2+x,1/2-y,-z
-x,1/2+y,1/2-z
loop_
_atom_site_type_symbol
_atom_site_label
_atom_site_fract_x
_atom_site_fract_y
_atom_site_fract_z
Si Si1 0.406341 0.337463 0.264599
Si Si2 0.207448 0.742150 0.640944
Si Si3 0.103051 0.043865 0.947514
Si Si4 0.616659 0.040988 0.040200
Si Si5 0.106966 0.241599 0.071634
Si Si6 0.390533 0.258112 0.418189
O O1 0.500000 0.250000 0.246936
O O2 0.426383 0.500000 0.250000
O O3 0.319241 0.284099 0.218875
O O4 0.371309 0.303501 0.340497
O O5 0.149852 0.872251 0.613310
O O6 0.181590 0.607968 0.597400
O O7 0.320300 0.770117 0.634286
O O8 0.991360 0.049254 0.933736
O O9 0.149682 0.890890 0.941319
O O10 0.124328 0.111200 0.021204
O O11 0.649220 0.880737 0.033250
O O12 0.629829 0.117052 0.968675
O O13 0.000000 0.250000 0.099720
O O14 0.500000 0.250000 0.432026
#
# Coordination Sequence:
#
# PCOD8166006 Si02
#       6
#     8   8   8   8   8   8
#     4  11  22  33  51  79 112 140 164 198 249 319
#     4  11  19  30  49  72 102 136 172 207 247 303
#     4   9  17  29  49  75 106 132 158 205 256 312
#     4   9  15  29  48  73 103 134 160 203 254 309
#     4   9  19  34  51  71  96 131 180 216 253 291
#     4   9  18  29  46  76 109 134 160 190 256 316
#
# _framework density 17.860014
#
# number of rings (size 3 to 8) (size 9 to 14) (size 15 to 20)
#    0.000    2.333    1.667    4.500    4.667    0.000 
#    0.000    3.333    0.000    0.000    4.333    0.000 
#    0.000    0.000    0.000    0.000    0.000    0.000 
#
# Total GULP energy -297408.560725 kJ/mol
# GULP energy per Si atom -12392.023364 kJ/mol
# Density = 1.781936 g / cm^3
# Si number density = 17.860014 Si / 1000 Ang^3
#
#
#
# Elastic Constant Matrix: (Units=GPa)
#
#
# Indices 1 2 3 4 5 6 
#
# 1 72.7522 34.8962 36.5490 0.0000 0.0000 0.0000
# 2 34.8962 153.8791 37.2396 0.0000 0.0000 0.0000
# 3 36.5490 37.2396 42.4472 0.0000 0.0000 0.0000
# 4 0.0000 0.0000 0.0000 11.1664 0.0000 0.0000
# 5 0.0000 0.0000 0.0000 0.0000 19.5326 0.0000
# 6 0.0000 0.0000 0.0000 0.0000 0.0000 2.0385
#
#
#
# Elastic Compliance Matrix: (Units=1/GPa)
#
#
# Indices 1 2 3 4 5 6 
#
# 1 0.024263 -0.000567 -0.020394 0.000000 0.000000 0.000000
# 2 -0.000567 0.008264 -0.006762 0.000000 0.000000 0.000000
# 3 -0.020394 -0.006762 0.047051 0.000000 0.000000 0.000000
# 4 0.000000 0.000000 0.000000 0.089554 0.000000 0.000000
# 5 0.000000 0.000000 0.000000 0.000000 0.051197 0.000000
# 6 0.000000 0.000000 0.000000 0.000000 0.000000 0.490558
#
#
# Mechanical properties :
#
#
# Convention : Reuss Voigt Hill
#
# Bulk Modulus (GPa) = 41.43839 54.04977 47.74408
# Shear Modulus (GPa) = 6.45681 17.24041 11.84861
#
# Velocity S-wave (km/s) = 1.90344 3.11031 2.57848
# Velocity P-wave (km/s) = 5.29933 6.57476 5.97119
#
# Compressibility (1/GPa) = 0.02413221
#
# Stress axis : x y z
#
# Youngs Moduli (GPa) = 41.21555 121.01409 21.25343
#
# Poissons Ratio (x) = 0.06858 0.43345
# Poissons Ratio (y) = 0.02336 0.14371
# Poissons Ratio (z) = 0.84056 0.81827
#
# Static dielectric constant tensor:
#      x y z
#    x 3.192980 0.000000 0.000000 
#    y 0.000000 4.033840 0.000000 
#    z 0.000000 0.000000 2.976430 
# 
# 
# High freq. dielectric constant tensor:
#      x y z
#    x 1.670550 0.000000 0.000000 
#    y 0.000000 1.708820 0.000000 
#    z 0.000000 0.000000 1.649020 
# 
# From -- ./inp_files/13242.got.cif
#   From: 2010.03.12/outbox.cif.g09.slc.cpg/sg24_7_cif.got.tgz:13242.got - 2010.04.14 03:06:53.
