data_PCOD8166282
_publ_section_title
;
Structure prediction by ZEFSAII (Michael W. Deem and Ramdas Pophale) SiO2 
 PCOD8166282
Probable space group: I 21 21 21
;
_chemical_formula_sum "Si O2"
_cell_formula_units_Z 28
_cell_length_a 27.576078
_cell_length_b 5.040501
_cell_length_c 8.024377
_cell_angle_alpha 90.000000
_cell_angle_beta 90.000000
_cell_angle_gamma 90.000000
_cell_volume 1115.366326
_symmetry_space_group_name_H-M "I 21 21 21"
_symmetry_group_IT_number 24
_symmetry_cell_setting 'orthorhombic'
loop_
_space_group_symop_operation_xyz
x,y,z
-x,1/2-y,z
x,-y,1/2-z
1/2-x,y,-z
1/2+x,1/2+y,1/2+z
1/2-x,-y,1/2+z
1/2+x,1/2-y,-z
-x,1/2+y,1/2-z
loop_
_atom_site_type_symbol
_atom_site_label
_atom_site_fract_x
_atom_site_fract_y
_atom_site_fract_z
Si Si1 0.250000 0.301315 0.000000
Si Si2 0.685315 0.500000 0.750000
Si Si3 0.175922 0.500000 0.750000
Si Si4 0.122060 0.500000 0.250000
Si Si5 0.606956 0.500000 0.250000
Si Si6 0.053599 0.155459 0.073520
O O1 0.281067 0.098507 0.894814
O O2 0.212233 0.491747 0.906994
O O3 0.653020 0.748011 0.813985
O O4 0.142025 0.752104 0.757816
O O5 0.088542 0.411194 0.094281
O O6 0.573135 0.491742 0.415171
O O7 0.000000 0.250000 0.030237
O O8 0.054418 0.000000 0.250000
#
# Coordination Sequence:
#
# PCOD8166282 Si02
#       6
#     4   4   4   4   4   8
#     4  12  30  52  80 116 168 210 280 338 412 496
#     4  12  29  49  80 116 160 216 266 343 409 486
#     4  12  31  55  82 122 164 220 280 341 423 492
#     4  12  27  49  82 116 156 216 274 333 411 492
#     4  12  33  53  84 128 170 216 282 351 419 500
#     4  12  29  53  87 123 169 220 280 344 426 504
#
# _framework density 25.103859
#
# number of rings (size 3 to 8) (size 9 to 14) (size 15 to 20)
#    0.000    0.000    2.857    3.429    8.000   14.857 
#    0.000    0.000    0.000    0.000    0.000    0.000 
#    0.000    0.000    0.000    0.000    0.000    0.000 
#
# Total GULP energy -173590.954492 kJ/mol
# GULP energy per Si atom -12399.353892 kJ/mol
# Density = 2.504672 g / cm^3
# Si number density = 25.103859 Si / 1000 Ang^3
#
#
#
# Elastic Constant Matrix: (Units=GPa)
#
#
# Indices 1 2 3 4 5 6 
#
# 1 210.6245 82.8458 85.1882 0.0000 0.0000 0.0000
# 2 82.8458 162.0452 50.9147 0.0000 0.0000 0.0000
# 3 85.1882 50.9147 170.9289 0.0000 0.0000 0.0000
# 4 0.0000 0.0000 0.0000 45.1661 0.0000 0.0000
# 5 0.0000 0.0000 0.0000 0.0000 40.8279 0.0000
# 6 0.0000 0.0000 0.0000 0.0000 0.0000 34.5239
#
#
#
# Elastic Compliance Matrix: (Units=1/GPa)
#
#
# Indices 1 2 3 4 5 6 
#
# 1 0.006864 -0.002686 -0.002621 0.000000 0.000000 0.000000
# 2 -0.002686 0.007859 -0.001002 0.000000 0.000000 0.000000
# 3 -0.002621 -0.001002 0.007455 0.000000 0.000000 0.000000
# 4 0.000000 0.000000 0.000000 0.022140 0.000000 0.000000
# 5 0.000000 0.000000 0.000000 0.000000 0.024493 0.000000
# 6 0.000000 0.000000 0.000000 0.000000 0.000000 0.028965
#
#
# Mechanical properties :
#
#
# Convention : Reuss Voigt Hill
#
# Bulk Modulus (GPa) = 104.60089 109.05511 106.82800
# Shear Modulus (GPa) = 44.02061 45.74692 44.88377
#
# Velocity S-wave (km/s) = 4.19207 4.27348 4.23297
# Velocity P-wave (km/s) = 8.07397 8.23930 8.15705
#
# Compressibility (1/GPa) = 0.00956015
#
# Stress axis : x y z
#
# Youngs Moduli (GPa) = 145.68109 127.23885 134.13348
#
# Poissons Ratio (x) = 0.34175 0.35157
# Poissons Ratio (y) = 0.39128 0.13446
# Poissons Ratio (z) = 0.38183 0.12755
#
# Static dielectric constant tensor:
#      x y z
#    x 5.198130 0.000000 0.000000 
#    y 0.000000 4.748710 0.000000 
#    z 0.000000 0.000000 4.763940 
# 
# 
# High freq. dielectric constant tensor:
#      x y z
#    x 2.032570 0.000000 0.000000 
#    y 0.000000 2.012470 0.000000 
#    z 0.000000 0.000000 2.002730 
# 
# From -- ./inp_files/8157.got.cif
#   From: 2010.03.12/outbox.cif.g09.slc.cpg/sg24_5_cif.got.tgz:8157.got - 2010.04.14 03:06:53.
