data_PCOD8166304
_publ_section_title
;
Structure prediction by ZEFSAII (Michael W. Deem and Ramdas Pophale) SiO2 
 PCOD8166304
Probable space group: I 21 21 21
;
_chemical_formula_sum "Si O2"
_cell_formula_units_Z 30
_cell_length_a 12.000000
_cell_length_b 12.000000
_cell_length_c 21.000000
_cell_angle_alpha 90.000000
_cell_angle_beta 90.000000
_cell_angle_gamma 90.000000
_cell_volume 3024.000000
_symmetry_space_group_name_H-M "I 21 21 21"
_symmetry_group_IT_number 24
_symmetry_cell_setting 'orthorhombic'
loop_
_space_group_symop_operation_xyz
x,y,z
-x,1/2-y,z
x,-y,1/2-z
1/2-x,y,-z
1/2+x,1/2+y,1/2+z
1/2-x,-y,1/2+z
1/2+x,1/2-y,-z
-x,1/2+y,1/2-z
loop_
_atom_site_type_symbol
_atom_site_label
_atom_site_fract_x
_atom_site_fract_y
_atom_site_fract_z
Si Si1 0.517573 0.118422 0.439449
Si Si2 0.105162 0.172396 0.768680
Si Si3 0.101730 0.973395 0.326055
Si Si4 0.649247 0.470670 0.347438
Si Si5 0.770085 0.938838 0.854247
Si Si6 0.725540 0.154676 0.779733
Si Si7 0.046446 0.373625 0.414259
Si Si8 0.500000 0.750000 0.698284
O O1 0.500000 0.250000 0.432696
O O2 0.404182 0.058398 0.415650
O O3 0.616922 0.072721 0.394626
O O4 0.535351 0.083498 0.512883
O O5 0.141792 0.137084 0.697846
O O6 0.209591 0.234921 0.801443
O O7 0.000000 0.250000 0.763962
O O8 0.077553 0.068261 0.813920
O O9 0.064460 0.845861 0.341353
O O10 0.100657 0.000000 0.250000
O O11 0.223120 0.993336 0.355567
O O12 0.017912 0.051904 0.363497
O O13 0.785820 0.883434 0.785118
O O14 0.676358 0.877603 0.896164
O O15 0.735074 0.066620 0.837931
O O16 0.596105 0.183581 0.762467
O O17 0.000000 0.250000 0.408283
#
# Coordination Sequence:
#
# PCOD8166304 Si02
#       8
#     8   8   8   8   8   8   8   4
#     4  11  25  44  64  92 131 177 215 262 315 390
#     4  11  21  36  60  96 130 167 210 267 324 380
#     4  12  24  42  68  98 130 165 214 273 329 387
#     4  11  22  39  62  95 129 168 216 265 322 383
#     4  11  23  41  64  95 131 169 217 264 325 384
#     4  11  22  37  65  99 125 169 206 271 329 377
#     4  11  27  42  67  95 129 174 215 267 322 388
#     4  12  22  40  62  96 140 156 214 264 334 384
#
# _framework density 9.9206350000000008
#
# number of rings (size 3 to 8) (size 9 to 14) (size 15 to 20)
#    0.000    0.800    4.000    4.000    7.467    2.667 
#    0.000    0.000    4.400    0.000    0.000    0.000 
#    0.000    0.000    0.000    0.000    0.000    0.000 
#
# Total GULP energy -371923.663059 kJ/mol
# GULP energy per Si atom -12397.455435 kJ/mol
# Density = 0.989806 g / cm^3
# Si number density = 9.920635 Si / 1000 Ang^3
#
#
#
# Elastic Constant Matrix: (Units=GPa)
#
#
# Indices 1 2 3 4 5 6 
#
# 1 133.5031 43.6363 37.5516 0.0000 0.0000 0.0000
# 2 43.6363 95.5853 29.2914 0.0000 0.0000 0.0000
# 3 37.5516 29.2914 111.8190 0.0000 0.0000 0.0000
# 4 0.0000 0.0000 0.0000 22.4768 0.0000 0.0000
# 5 0.0000 0.0000 0.0000 0.0000 21.2803 0.0000
# 6 0.0000 0.0000 0.0000 0.0000 0.0000 43.3935
#
#
#
# Elastic Compliance Matrix: (Units=1/GPa)
#
#
# Indices 1 2 3 4 5 6 
#
# 1 0.009268 -0.003563 -0.002179 0.000000 0.000000 0.000000
# 2 -0.003563 0.012745 -0.002142 0.000000 0.000000 0.000000
# 3 -0.002179 -0.002142 0.010236 0.000000 0.000000 0.000000
# 4 0.000000 0.000000 0.000000 0.044490 0.000000 0.000000
# 5 0.000000 0.000000 0.000000 0.000000 0.046992 0.000000
# 6 0.000000 0.000000 0.000000 0.000000 0.000000 0.023045
#
#
# Mechanical properties :
#
#
# Convention : Reuss Voigt Hill
#
# Bulk Modulus (GPa) = 60.67823 62.42957 61.55390
# Shear Modulus (GPa) = 29.75518 32.79199 31.27358
#
# Velocity S-wave (km/s) = 3.87675 4.06977 3.97443
# Velocity P-wave (km/s) = 7.11949 7.32235 7.22163
#
# Compressibility (1/GPa) = 0.01648037
#
# Stress axis : x y z
#
# Youngs Moduli (GPa) = 107.89744 78.46255 97.69552
#
# Poissons Ratio (x) = 0.27958 0.21288
# Poissons Ratio (y) = 0.38447 0.20926
# Poissons Ratio (z) = 0.23511 0.16806
#
# Static dielectric constant tensor:
#      x y z
#    x 3.850720 0.000000 0.000000 
#    y 0.000000 3.920700 0.000000 
#    z 0.000000 0.000000 3.510840 
# 
# 
# High freq. dielectric constant tensor:
#      x y z
#    x 1.798310 0.000000 0.000000 
#    y 0.000000 1.788930 0.000000 
#    z 0.000000 0.000000 1.744950 
# 
# From -- ./inp_files/22242.got.cif
#   From: 2010.03.12/outbox.ucp.g09.slc.cvg/sg24_12_cif.got.tgz:22242.got - 2010.05.04 21:04:44.
