data_PCOD8166817
_publ_section_title
;
Structure prediction by ZEFSAII (Michael W. Deem and Ramdas Pophale) SiO2 
 PCOD8166817
Probable space group: P M M 2
;
_chemical_formula_sum "Si O2"
_cell_formula_units_Z 20
_cell_length_a 7.778750
_cell_length_b 9.211773
_cell_length_c 14.559984
_cell_angle_alpha 90.000000
_cell_angle_beta 90.000000
_cell_angle_gamma 90.000000
_cell_volume 1043.311367
_symmetry_space_group_name_H-M "P M M 2"
_symmetry_group_IT_number 25
_symmetry_cell_setting 'orthorhombic'
loop_
_space_group_symop_operation_xyz
x,y,z
-x,-y,z
-x,y,z
x,-y,z
loop_
_atom_site_type_symbol
_atom_site_label
_atom_site_fract_x
_atom_site_fract_y
_atom_site_fract_z
Si Si1 0.807486 0.831008 0.191350
Si Si2 0.689579 0.828706 0.385531
Si Si3 0.500000 0.672470 0.883211
Si Si4 0.500000 0.326815 0.091470
Si Si5 0.703406 0.166008 0.585495
Si Si6 0.808893 0.667839 0.760125
O O1 0.808532 0.786638 0.299325
O O2 0.672763 0.733366 0.137219
O O3 0.000000 0.802389 0.153535
O O4 0.755678 0.000000 0.180463
O O5 0.500000 0.763466 0.365984
O O6 0.760410 0.773539 0.484373
O O7 0.673449 0.000000 0.396105
O O8 0.500000 0.500000 0.884901
O O9 0.669698 0.733099 0.831405
O O10 0.500000 0.730034 0.986952
O O11 0.500000 0.500000 0.099258
O O12 0.500000 0.183830 0.596852
O O13 0.800712 0.257795 0.661508
O O14 0.760105 0.000000 0.598588
O O15 0.768054 0.500000 0.744035
O O16 0.000000 0.691232 0.801467
#
# Coordination Sequence:
#
# PCOD8166817 Si02
#       6
#     4   4   2   2   4   4
#     4  10  20  36  60  86 112 146 186 226 271 327
#     4   8  14  28  52  79 108 143 182 217 253 310
#     4   9  20  39  58  75 100 138 181 223 270 323
#     4  11  23  39  60  83 108 142 183 233 288 331
#     4   9  17  30  52  82 111 141 176 216 262 309
#     4  10  20  35  56  79 103 137 180 220 262 317
#
# _framework density 19.169733000000001
#
# number of rings (size 3 to 8) (size 9 to 14) (size 15 to 20)
#    0.000    2.600    2.000    1.500    0.000    2.400 
#    0.000    7.000    0.000    0.000    0.000    0.000 
#    0.000    0.000    0.000    0.000    0.000    0.000 
#
# Total GULP energy -247878.754265 kJ/mol
# GULP energy per Si atom -12393.937713 kJ/mol
# Density = 1.912610 g / cm^3
# Si number density = 19.169733 Si / 1000 Ang^3
#
#
#
# Elastic Constant Matrix: (Units=GPa)
#
#
# Indices 1 2 3 4 5 6 
#
# 1 118.5559 39.3852 65.0467 0.0000 0.0000 0.0000
# 2 39.3852 48.9107 40.1878 0.0000 0.0000 0.0000
# 3 65.0467 40.1878 142.3988 0.0000 0.0000 0.0000
# 4 0.0000 0.0000 0.0000 27.3441 0.0000 0.0000
# 5 0.0000 0.0000 0.0000 0.0000 10.4722 0.0000
# 6 0.0000 0.0000 0.0000 0.0000 0.0000 19.3214
#
#
#
# Elastic Compliance Matrix: (Units=1/GPa)
#
#
# Indices 1 2 3 4 5 6 
#
# 1 0.012975 -0.007262 -0.003877 0.000000 0.000000 0.000000
# 2 -0.007262 0.030682 -0.005342 0.000000 0.000000 0.000000
# 3 -0.003877 -0.005342 0.010301 0.000000 0.000000 0.000000
# 4 0.000000 0.000000 0.000000 0.036571 0.000000 0.000000
# 5 0.000000 0.000000 0.000000 0.000000 0.095491 0.000000
# 6 0.000000 0.000000 0.000000 0.000000 0.000000 0.051756
#
#
# Mechanical properties :
#
#
# Convention : Reuss Voigt Hill
#
# Bulk Modulus (GPa) = 47.62848 66.56721 57.09785
# Shear Modulus (GPa) = 18.00260 22.44390 20.22325
#
# Velocity S-wave (km/s) = 3.06782 3.42541 3.25153
# Velocity P-wave (km/s) = 6.11950 7.10247 6.62923
#
# Compressibility (1/GPa) = 0.02099584
#
# Stress axis : x y z
#
# Youngs Moduli (GPa) = 77.07355 32.59199 97.07588
#
# Poissons Ratio (x) = 0.23668 0.37638
# Poissons Ratio (y) = 0.55971 0.51857
# Poissons Ratio (z) = 0.29883 0.17410
#
# Static dielectric constant tensor:
#      x y z
#    x 3.526800 0.000000 0.000000 
#    y 0.000000 3.101180 0.000000 
#    z 0.000000 0.000000 3.726610 
# 
# 
# High freq. dielectric constant tensor:
#      x y z
#    x 1.749660 0.000000 0.000000 
#    y 0.000000 1.700630 0.000000 
#    z 0.000000 0.000000 1.748660 
# 
# From -- ./inp_files/5143.got.cif
#   From: 2010.03.12/outbox.cif.g09.slc.cpg/sg25_3_cif.got.tgz:5143.got - 2010.04.14 03:30:10.
