data_PCOD8166754
_publ_section_title
;
Structure prediction by ZEFSAII (Michael W. Deem and Ramdas Pophale) SiO2 
 PCOD8166754
Probable space group: P M M 2
;
_chemical_formula_sum "Si O2"
_cell_formula_units_Z 32
_cell_length_a 8.736043
_cell_length_b 14.197548
_cell_length_c 15.689504
_cell_angle_alpha 90.000000
_cell_angle_beta 90.000000
_cell_angle_gamma 90.000000
_cell_volume 1945.975297
_symmetry_space_group_name_H-M "P M M 2"
_symmetry_group_IT_number 25
_symmetry_cell_setting 'orthorhombic'
loop_
_space_group_symop_operation_xyz
x,y,z
-x,-y,z
-x,y,z
x,-y,z
loop_
_atom_site_type_symbol
_atom_site_label
_atom_site_fract_x
_atom_site_fract_y
_atom_site_fract_z
Si Si1 0.833054 0.611305 0.548990
Si Si2 0.817745 0.394192 0.366198
Si Si3 0.324976 0.895117 0.123905
Si Si4 0.178307 0.609241 0.049134
Si Si5 0.322871 0.706806 0.210351
Si Si6 0.818775 0.609186 0.733809
Si Si7 0.177894 0.893444 0.945662
Si Si8 0.321404 0.287184 0.889837
O O1 0.854761 0.500000 0.548627
O O2 0.749429 0.638426 0.459418
O O3 0.753981 0.638462 0.639238
O O4 0.000000 0.659502 0.549558
O O5 0.760687 0.500000 0.343186
O O6 0.765146 0.321380 0.295358
O O7 0.000000 0.393772 0.371952
O O8 0.500000 0.883835 0.091740
O O9 0.288948 0.817697 0.195849
O O10 0.297352 0.000000 0.161824
O O11 0.214172 0.875906 0.044823
O O12 0.216063 0.500000 0.036164
O O13 0.269893 0.646226 0.130105
O O14 0.000000 0.626621 0.065756
O O15 0.227088 0.662801 0.964256
O O16 0.500000 0.686527 0.224893
O O17 0.785867 0.500000 0.753057
O O18 0.723306 0.670588 0.799348
O O19 0.000000 0.629385 0.741344
O O20 0.277748 0.823214 0.888025
O O21 0.000000 0.873106 0.930655
O O22 0.221582 0.000000 0.919634
O O23 0.500000 0.300888 0.907101
#
# Coordination Sequence:
#
# PCOD8166754 Si02
#       8
#     4   4   4   4   4   4   4   4
#     4   7  12  26  48  70  90 118 159 201 239 277
#     4   9  17  30  48  69  95 128 162 195 233 281
#     4   9  18  33  50  67  90 121 156 196 244 289
#     4  11  23  36  48  63  90 130 169 200 230 271
#     4  11  21  31  46  70  96 125 157 195 241 287
#     4   9  17  31  51  72  95 125 162 203 241 281
#     4  10  20  34  53  73  91 117 158 204 242 279
#     4  12  23  33  47  70  99 130 158 191 238 290
#
# _framework density 16.444196999999999
#
# number of rings (size 3 to 8) (size 9 to 14) (size 15 to 20)
#    0.000    2.250    1.250    4.500    0.000    5.750 
#    0.000    0.625    0.000    2.250    0.000    0.875 
#    0.000    5.000    0.000    0.000    0.000    0.000 
#
# Total GULP energy -396606.560935 kJ/mol
# GULP energy per Si atom -12393.955029 kJ/mol
# Density = 1.640677 g / cm^3
# Si number density = 16.444197 Si / 1000 Ang^3
#
#
#
# Elastic Constant Matrix: (Units=GPa)
#
#
# Indices 1 2 3 4 5 6 
#
# 1 26.2181 23.3381 11.4921 0.0000 0.0000 0.0000
# 2 23.3381 87.8153 44.2056 0.0000 0.0000 0.0000
# 3 11.4921 44.2056 110.5969 0.0000 0.0000 0.0000
# 4 0.0000 0.0000 0.0000 6.5817 0.0000 0.0000
# 5 0.0000 0.0000 0.0000 0.0000 -7.5749 0.0000
# 6 0.0000 0.0000 0.0000 0.0000 0.0000 21.9743
#
#
#
# Elastic Compliance Matrix: (Units=1/GPa)
#
#
# Indices 1 2 3 4 5 6 
#
# 1 0.049963 -0.013351 0.000145 0.000000 0.000000 0.000000
# 2 -0.013351 0.017824 -0.005737 0.000000 0.000000 0.000000
# 3 0.000145 -0.005737 0.011320 0.000000 0.000000 0.000000
# 4 0.000000 0.000000 0.000000 0.151936 0.000000 0.000000
# 5 0.000000 0.000000 0.000000 0.000000 -0.132015 0.000000
# 6 0.000000 0.000000 0.000000 0.000000 0.000000 0.045508
#
#
# Mechanical properties :
#
#
# Convention : Reuss Voigt Hill
#
# Bulk Modulus (GPa) = 24.26012 42.52243 33.39128
# Shear Modulus (GPa) = 25.48928 13.90253 19.69591
#
# Velocity S-wave (km/s) = 3.94134 2.91079 3.46460
# Velocity P-wave (km/s) = 5.95795 6.10014 6.02947
#
# Compressibility (1/GPa) = 0.04121990
#
# Stress axis : x y z
#
# Youngs Moduli (GPa) = 20.01492 56.10530 88.34092
#
# Poissons Ratio (x) = 0.74907 -0.01279
# Poissons Ratio (y) = 0.26722 0.50679
# Poissons Ratio (z) = -0.00290 0.32186
#
# Static dielectric constant tensor:
#      x y z
#    x 3.027870 0.000000 0.000000 
#    y 0.000000 3.155660 0.000000 
#    z 0.000000 0.000000 3.284760 
# 
# 
# High freq. dielectric constant tensor:
#      x y z
#    x 1.625460 0.000000 0.000000 
#    y 0.000000 1.616560 0.000000 
#    z 0.000000 0.000000 1.624950 
# 
# From -- ./inp_files/5662.got.cif
#   From: 2010.03.12/outbox.cif.g09.slc.cpg/sg25_3_cif.got.tgz:5662.got - 2010.04.14 03:30:10.
