data_PCOD8166448
_publ_section_title
;
Structure prediction by ZEFSAII (Michael W. Deem and Ramdas Pophale) SiO2 
 PCOD8166448
Probable space group: P M M 2
;
_chemical_formula_sum "Si O2"
_cell_formula_units_Z 24
_cell_length_a 9.436533
_cell_length_b 16.680107
_cell_length_c 9.080376
_cell_angle_alpha 90.000000
_cell_angle_beta 90.000000
_cell_angle_gamma 90.000000
_cell_volume 1429.272795
_symmetry_space_group_name_H-M "P M M 2"
_symmetry_group_IT_number 25
_symmetry_cell_setting 'orthorhombic'
loop_
_space_group_symop_operation_xyz
x,y,z
-x,-y,z
-x,y,z
x,-y,z
loop_
_atom_site_type_symbol
_atom_site_label
_atom_site_fract_x
_atom_site_fract_y
_atom_site_fract_z
Si Si1 0.667705 0.238041 0.780960
Si Si2 0.836893 0.589323 0.271868
Si Si3 0.654875 0.336240 0.504121
Si Si4 0.657757 0.822773 0.313641
Si Si5 0.331557 0.911218 0.593115
Si Si6 0.167991 0.259867 0.079935
O O1 0.500000 0.235640 0.817552
O O2 0.703335 0.309799 0.667205
O O3 0.721356 0.153012 0.713754
O O4 0.760104 0.256540 0.922418
O O5 0.803592 0.500000 0.211452
O O6 0.760402 0.600967 0.429016
O O7 0.790428 0.653779 0.149178
O O8 0.000000 0.600946 0.308897
O O9 0.500000 0.376778 0.512264
O O10 0.645846 0.257804 0.405515
O O11 0.500000 0.845307 0.253156
O O12 0.718527 0.889851 0.426435
O O13 0.767149 0.811816 0.179184
O O14 0.500000 0.907746 0.591148
O O15 0.275030 0.000000 0.634714
O O16 0.000000 0.247831 0.066965
#
# Coordination Sequence:
#
# PCOD8166448 Si02
#       6
#     4   4   4   4   4   4
#     4   9  17  30  48  69  94 121 149 185 225 266
#     4   9  18  32  48  66  88 115 150 191 229 264
#     4   8  15  28  46  67  88 112 144 181 222 267
#     4   8  14  27  47  67  87 113 146 184 223 263
#     4   8  14  27  49  73  91 112 150 195 231 264
#     4  10  19  30  46  67  92 123 155 184 218 268
#
# _framework density 16.791754999999998
#
# number of rings (size 3 to 8) (size 9 to 14) (size 15 to 20)
#    0.000    3.333    0.000    2.500    0.000    1.667 
#    0.000    4.167    0.000   10.000    0.000    0.000 
#    0.000    0.000    0.000    0.000    0.000    0.000 
#
# Total GULP energy -297399.263431 kJ/mol
# GULP energy per Si atom -12391.635976 kJ/mol
# Density = 1.675354 g / cm^3
# Si number density = 16.791755 Si / 1000 Ang^3
#
#
#
# Elastic Constant Matrix: (Units=GPa)
#
#
# Indices 1 2 3 4 5 6 
#
# 1 67.3275 35.1188 61.9100 0.0000 0.0000 0.0000
# 2 35.1188 84.9789 47.7797 0.0000 0.0000 0.0000
# 3 61.9100 47.7797 131.6676 0.0000 0.0000 0.0000
# 4 0.0000 0.0000 0.0000 18.1685 0.0000 0.0000
# 5 0.0000 0.0000 0.0000 0.0000 22.5374 0.0000
# 6 0.0000 0.0000 0.0000 0.0000 0.0000 14.8770
#
#
#
# Elastic Compliance Matrix: (Units=1/GPa)
#
#
# Indices 1 2 3 4 5 6 
#
# 1 0.027894 -0.005218 -0.011222 0.000000 0.000000 0.000000
# 2 -0.005218 0.015760 -0.003266 0.000000 0.000000 0.000000
# 3 -0.011222 -0.003266 0.014057 0.000000 0.000000 0.000000
# 4 0.000000 0.000000 0.000000 0.055040 0.000000 0.000000
# 5 0.000000 0.000000 0.000000 0.000000 0.044371 0.000000
# 6 0.000000 0.000000 0.000000 0.000000 0.000000 0.067218
#
#
# Mechanical properties :
#
#
# Convention : Reuss Voigt Hill
#
# Bulk Modulus (GPa) = 54.64735 63.73234 59.18984
# Shear Modulus (GPa) = 18.52885 20.39429 19.46157
#
# Velocity S-wave (km/s) = 3.32542 3.48881 3.40810
# Velocity P-wave (km/s) = 6.88182 7.36655 7.12830
#
# Compressibility (1/GPa) = 0.01829915
#
# Stress axis : x y z
#
# Youngs Moduli (GPa) = 35.85060 63.45151 71.14129
#
# Poissons Ratio (x) = 0.33108 0.79835
# Poissons Ratio (y) = 0.18706 0.23232
# Poissons Ratio (z) = 0.40232 0.20721
#
# Static dielectric constant tensor:
#      x y z
#    x 3.215770 0.000000 0.000000 
#    y 0.000000 3.323470 0.000000 
#    z 0.000000 0.000000 3.170090 
# 
# 
# High freq. dielectric constant tensor:
#      x y z
#    x 1.629370 0.000000 0.000000 
#    y 0.000000 1.630220 0.000000 
#    z 0.000000 0.000000 1.638950 
# 
# From -- ./inp_files/2096.got.cif
#   From: 2010.03.12/outbox.cif.g09.slc.cpg/sg25_2_cif.got.tgz:2096.got - 2010.04.14 03:30:10.
