data_PCOD8166040
_publ_section_title
;
Structure prediction by ZEFSAII (Michael W. Deem and Ramdas Pophale) SiO2 
 PCOD8166040
Probable space group: I 21 21 21
;
_chemical_formula_sum "Si O2"
_cell_formula_units_Z 56
_cell_length_a 9.325088
_cell_length_b 14.128017
_cell_length_c 20.918105
_cell_angle_alpha 90.000000
_cell_angle_beta 90.000000
_cell_angle_gamma 90.000000
_cell_volume 2755.855781
_symmetry_space_group_name_H-M "I 21 21 21"
_symmetry_group_IT_number 24
_symmetry_cell_setting 'orthorhombic'
loop_
_space_group_symop_operation_xyz
x,y,z
-x,1/2-y,z
x,-y,1/2-z
1/2-x,y,-z
1/2+x,1/2+y,1/2+z
1/2-x,-y,1/2+z
1/2+x,1/2-y,-z
-x,1/2+y,1/2-z
loop_
_atom_site_type_symbol
_atom_site_label
_atom_site_fract_x
_atom_site_fract_y
_atom_site_fract_z
Si Si1 0.455929 0.524007 0.377227
Si Si2 0.244647 0.963342 0.179790
Si Si3 0.482078 0.553454 0.612919
Si Si4 0.166216 0.252122 0.318024
Si Si5 0.577441 0.156706 0.007562
Si Si6 0.232006 0.610178 0.074519
Si Si7 0.266829 0.598784 0.714636
O O1 0.602607 0.499567 0.342848
O O2 0.470057 0.573677 0.445263
O O3 0.377299 0.424486 0.390989
O O4 0.370513 0.597549 0.331772
O O5 0.237906 0.850226 0.180450
O O6 0.209118 0.000000 0.250000
O O7 0.132139 0.006589 0.130240
O O8 0.498836 0.634197 0.559828
O O9 0.381752 0.473287 0.582529
O O10 0.413096 0.605008 0.674205
O O11 0.181507 0.296042 0.388733
O O12 0.245868 0.315023 0.264202
O O13 0.000000 0.250000 0.299322
O O14 0.500000 0.250000 0.034033
O O15 0.750000 0.165880 0.000000
O O16 0.250000 0.635254 0.000000
O O17 0.271807 0.500000 0.750000
#
# Coordination Sequence:
#
# PCOD8166040 Si02
#       7
#     8   8   8   8   8   8   8
#     4  11  24  46  67  96 142 186 219 282 361 405
#     4  12  28  44  65 106 143 178 232 295 344 409
#     4  11  21  44  72  95 138 185 221 280 351 409
#     4  12  24  43  72 107 131 176 248 286 340 429
#     4  12  26  46  73 104 138 181 238 283 344 424
#     4  11  21  46  74  95 133 186 224 277 355 424
#     4  11  20  41  75  94 132 185 225 280 353 404
#
# _framework density 20.320367000000001
#
# number of rings (size 3 to 8) (size 9 to 14) (size 15 to 20)
#    0.000    0.571    8.571    1.714    2.000    3.429 
#    5.143    0.000    0.000    0.000    0.000    0.000 
#    0.000    0.000    0.000    0.000    0.000    0.000 
#
# Total GULP energy -347256.383538 kJ/mol
# GULP energy per Si atom -12402.013698 kJ/mol
# Density = 2.027412 g / cm^3
# Si number density = 20.320367 Si / 1000 Ang^3
#
#
#
# Elastic Constant Matrix: (Units=GPa)
#
#
# Indices 1 2 3 4 5 6 
#
# 1 86.4471 33.4285 37.9053 0.0000 0.0000 0.0000
# 2 33.4285 96.4925 29.8336 0.0000 0.0000 0.0000
# 3 37.9053 29.8336 125.6571 0.0000 0.0000 0.0000
# 4 0.0000 0.0000 0.0000 31.9837 0.0000 0.0000
# 5 0.0000 0.0000 0.0000 0.0000 25.3473 0.0000
# 6 0.0000 0.0000 0.0000 0.0000 0.0000 -34.5241
#
#
#
# Elastic Compliance Matrix: (Units=1/GPa)
#
#
# Indices 1 2 3 4 5 6 
#
# 1 0.014633 -0.003998 -0.003465 0.000000 0.000000 0.000000
# 2 -0.003998 0.012277 -0.001709 0.000000 0.000000 0.000000
# 3 -0.003465 -0.001709 0.009409 0.000000 0.000000 0.000000
# 4 0.000000 0.000000 0.000000 0.031266 0.000000 0.000000
# 5 0.000000 0.000000 0.000000 0.000000 0.039452 0.000000
# 6 0.000000 0.000000 0.000000 0.000000 0.000000 -0.028965
#
#
# Mechanical properties :
#
#
# Convention : Reuss Voigt Hill
#
# Bulk Modulus (GPa) = 55.63134 56.77017 56.20076
# Shear Modulus (GPa) = 48.82474 18.39001 33.60737
#
# Velocity S-wave (km/s) = 4.90710 3.01159 4.07120
# Velocity P-wave (km/s) = 7.71640 6.33176 7.05811
#
# Compressibility (1/GPa) = 0.01797548
#
# Stress axis : x y z
#
# Youngs Moduli (GPa) = 68.33811 81.45370 106.28040
#
# Poissons Ratio (x) = 0.32566 0.36825
# Poissons Ratio (y) = 0.27323 0.18160
# Poissons Ratio (z) = 0.23679 0.13918
#
# Static dielectric constant tensor:
#      x y z
#    x 3.759300 0.000000 0.000000 
#    y 0.000000 3.681200 0.000000 
#    z 0.000000 0.000000 5.579710 
# 
# 
# High freq. dielectric constant tensor:
#      x y z
#    x 1.788910 0.000000 0.000000 
#    y 0.000000 1.787770 0.000000 
#    z 0.000000 0.000000 1.813520 
# 
# From -- ./inp_files/32825.got.cif
#   From: 2010.03.12/outbox.cif.g09.slc.cpg/sg24_17_cif.got.tgz:32825.got - 2010.04.14 03:06:53.
