data_PCOD8166196
_publ_section_title
;
Structure prediction by ZEFSAII (Michael W. Deem and Ramdas Pophale) SiO2 
 PCOD8166196
Probable space group: I 21 21 21
;
_chemical_formula_sum "Si O2"
_cell_formula_units_Z 36
_cell_length_a 9.261908
_cell_length_b 19.655253
_cell_length_c 9.261908
_cell_angle_alpha 90.000000
_cell_angle_beta 90.000000
_cell_angle_gamma 90.000000
_cell_volume 1686.085385
_symmetry_space_group_name_H-M "I 21 21 21"
_symmetry_group_IT_number 24
_symmetry_cell_setting 'orthorhombic'
loop_
_space_group_symop_operation_xyz
x,y,z
-x,1/2-y,z
x,-y,1/2-z
1/2-x,y,-z
1/2+x,1/2+y,1/2+z
1/2-x,-y,1/2+z
1/2+x,1/2-y,-z
-x,1/2+y,1/2-z
loop_
_atom_site_type_symbol
_atom_site_label
_atom_site_fract_x
_atom_site_fract_y
_atom_site_fract_z
Si Si1 0.250000 0.625001 0.000000
Si Si2 0.408704 0.314727 0.034548
Si Si3 0.534024 0.921690 0.222876
Si Si4 0.284548 0.064727 0.658704
Si Si5 0.527124 0.828310 0.784023
O O1 0.114975 0.585525 0.930485
O O2 0.319516 0.664476 0.864976
O O3 0.500000 0.250000 0.090939
O O4 0.400070 0.374185 0.152574
O O5 0.250000 0.286359 0.000000
O O6 0.470291 0.346107 0.885802
O O7 0.364199 0.903894 0.220292
O O8 0.559795 0.000000 0.250000
O O9 0.250000 0.036360 0.500000
O O10 0.402573 0.124186 0.650070
O O11 0.340941 0.000000 0.750000
O O12 0.500000 0.750000 0.809787
#
# Coordination Sequence:
#
# PCOD8166196 Si02
#       5
#     4   8   8   8   8
#     4  12  24  44  68 104 140 176 228 302 344 400
#     4  11  26  47  70 104 140 188 230 282 347 419
#     4  11  27  44  72 101 140 186 232 286 348 407
#     4  11  26  47  70 104 140 188 230 282 347 419
#     4  11  27  44  72 101 140 186 232 286 348 407
#
# _framework density 21.351232
#
# number of rings (size 3 to 8) (size 9 to 14) (size 15 to 20)
#    0.000    0.889    4.444    0.000   15.556    1.778 
#    0.000    0.000    0.000    0.000    0.000    0.000 
#    0.000    0.000    0.000    0.000    0.000    0.000 
#
# Total GULP energy -223106.782701 kJ/mol
# GULP energy per Si atom -12394.821261 kJ/mol
# Density = 2.130264 g / cm^3
# Si number density = 21.351232 Si / 1000 Ang^3
#
#
#
# Elastic Constant Matrix: (Units=GPa)
#
#
# Indices 1 2 3 4 5 6 
#
# 1 104.4748 61.7779 12.6899 0.0000 0.0000 0.0000
# 2 61.7779 133.5195 61.7824 -0.0002 0.0001 0.0001
# 3 12.6899 61.7824 104.4654 -0.0017 0.0010 0.0001
# 4 0.0000 -0.0002 -0.0017 29.2123 0.0003 0.0001
# 5 0.0000 0.0001 0.0010 0.0003 36.7032 -0.0001
# 6 0.0000 0.0001 0.0001 0.0001 -0.0001 29.2126
#
#
#
# Elastic Compliance Matrix: (Units=1/GPa)
#
#
# Indices 1 2 3 4 5 6 
#
# 1 0.013782 -0.007713 0.002887 0.000000 0.000000 0.000000
# 2 -0.007713 0.014628 -0.007714 0.000000 0.000000 0.000000
# 3 0.002887 -0.007714 0.013784 0.000001 0.000000 0.000000
# 4 0.000000 0.000000 0.000001 0.034232 0.000000 0.000000
# 5 0.000000 0.000000 0.000000 0.000000 0.027246 0.000000
# 6 0.000000 0.000000 0.000000 0.000000 0.000000 0.034232
#
#
# Mechanical properties :
#
#
# Convention : Reuss Voigt Hill
#
# Bulk Modulus (GPa) = 58.43056 68.32888 63.37972
# Shear Modulus (GPa) = 29.64083 32.77291 31.20687
#
# Velocity S-wave (km/s) = 3.72996 3.92208 3.82723
# Velocity P-wave (km/s) = 6.78056 7.25135 7.01990
#
# Compressibility (1/GPa) = 0.01711433
#
# Stress axis : x y z
#
# Youngs Moduli (GPa) = 72.56072 68.36437 72.54770
#
# Poissons Ratio (x) = 0.52726 -0.20946
# Poissons Ratio (y) = 0.55963 0.55964
# Poissons Ratio (z) = -0.20950 0.52737
#
# Static dielectric constant tensor:
#      x y z
#    x 4.184860 0.000000 0.000000 
#    y 0.000000 3.546830 0.000000 
#    z 0.000000 0.000000 4.185020 
# 
# 
# High freq. dielectric constant tensor:
#      x y z
#    x 1.855770 0.000000 0.000000 
#    y 0.000000 1.820750 0.000000 
#    z 0.000000 0.000000 1.855770 
# 
# From -- ./inp_files/9038.got.cif
#   From: 2010.03.12/outbox.cif.g09.slc.cpg/sg24_5_cif.got.tgz:9038.got - 2010.04.14 03:06:53.
