data_PCOD8166012
_publ_section_title
;
Structure prediction by ZEFSAII (Michael W. Deem and Ramdas Pophale) SiO2 
 PCOD8166012
Probable space group: I 21 21 21
;
_chemical_formula_sum "Si O2"
_cell_formula_units_Z 64
_cell_length_a 9.902001
_cell_length_b 21.143785
_cell_length_c 14.935950
_cell_angle_alpha 90.000000
_cell_angle_beta 90.000000
_cell_angle_gamma 90.000000
_cell_volume 3127.076825
_symmetry_space_group_name_H-M "I 21 21 21"
_symmetry_group_IT_number 24
_symmetry_cell_setting 'orthorhombic'
loop_
_space_group_symop_operation_xyz
x,y,z
-x,1/2-y,z
x,-y,1/2-z
1/2-x,y,-z
1/2+x,1/2+y,1/2+z
1/2-x,-y,1/2+z
1/2+x,1/2-y,-z
-x,1/2+y,1/2-z
loop_
_atom_site_type_symbol
_atom_site_label
_atom_site_fract_x
_atom_site_fract_y
_atom_site_fract_z
Si Si1 0.136929 0.930654 0.219023
Si Si2 0.901050 0.550546 0.527298
Si Si3 0.563269 0.568372 0.269506
Si Si4 0.203032 0.724754 0.401930
Si Si5 0.404198 0.305946 0.251235
Si Si6 0.433511 0.847403 0.616764
Si Si7 0.602523 0.804066 0.044890
Si Si8 0.091114 0.086288 0.482043
O O1 0.299673 0.928398 0.211196
O O2 0.082171 0.879927 0.288130
O O3 0.070686 0.913387 0.124694
O O4 0.090018 0.000000 0.250000
O O5 0.750000 0.537684 0.500000
O O6 0.904565 0.577827 0.626440
O O7 0.963183 0.601843 0.460723
O O8 0.964600 0.480856 0.519750
O O9 0.494130 0.500000 0.250000
O O10 0.467844 0.624767 0.240884
O O11 0.250000 0.702419 0.500000
O O12 0.289360 0.693469 0.323144
O O13 0.197610 0.801982 0.399416
O O14 0.057741 0.698533 0.381373
O O15 0.500000 0.250000 0.216943
O O16 0.357246 0.291040 0.351798
O O17 0.500000 0.750000 0.009188
O O18 0.750000 0.804258 0.000000
O O19 0.515490 0.867062 0.028387
O O20 0.250000 0.102128 0.500000
#
# Coordination Sequence:
#
# PCOD8166012 Si02
#       8
#     8   8   8   8   8   8   8   8
#     4  11  20  38  64  98 127 166 215 273 324 388
#     4  11  19  36  63  95 131 172 220 270 321 393
#     4  11  21  37  65  96 131 169 222 269 329 392
#     4  11  26  41  63  94 129 174 218 264 329 397
#     4  11  25  44  64  94 131 169 217 273 333 396
#     4  11  23  40  63  94 132 168 216 267 329 387
#     4  11  26  47  69  94 129 172 224 277 340 398
#     4  11  22  40  68  97 132 169 226 278 331 392
#
# _framework density 20.466398000000002
#
# number of rings (size 3 to 8) (size 9 to 14) (size 15 to 20)
#    0.000    1.000    2.500    6.000    5.250    3.000 
#    0.000    3.750    0.000    0.000    0.000    0.000 
#    0.000    0.000    0.000    0.000    0.000    0.000 
#
# Total GULP energy -396667.478486 kJ/mol
# GULP energy per Si atom -12395.858703 kJ/mol
# Density = 2.041982 g / cm^3
# Si number density = 20.466398 Si / 1000 Ang^3
#
#
#
# Elastic Constant Matrix: (Units=GPa)
#
#
# Indices 1 2 3 4 5 6 
#
# 1 73.7728 40.5372 24.2482 0.0000 0.0000 0.0000
# 2 40.5372 124.5537 12.8842 -0.0001 0.0000 0.0000
# 3 24.2482 12.8842 93.0589 0.0000 0.0001 0.0001
# 4 0.0000 -0.0001 0.0000 46.3407 0.0001 0.0001
# 5 0.0000 0.0000 0.0001 0.0001 -4.9951 0.0000
# 6 0.0000 0.0000 0.0001 0.0001 0.0000 27.2914
#
#
#
# Elastic Compliance Matrix: (Units=1/GPa)
#
#
# Indices 1 2 3 4 5 6 
#
# 1 0.017795 -0.005389 -0.003891 0.000000 0.000000 0.000000
# 2 -0.005389 0.009777 0.000051 0.000000 0.000000 0.000000
# 3 -0.003891 0.000051 0.011753 0.000000 0.000000 0.000000
# 4 0.000000 0.000000 0.000000 0.021579 0.000000 0.000000
# 5 0.000000 0.000000 0.000000 0.000000 -0.200198 0.000000
# 6 0.000000 0.000000 0.000000 0.000000 0.000000 0.036642
#
#
# Mechanical properties :
#
#
# Convention : Reuss Voigt Hill
#
# Bulk Modulus (GPa) = 47.92346 49.63608 48.77977
# Shear Modulus (GPa) = -64.73589 27.97510 -18.38039
#
# Velocity S-wave (km/s) = -5.63019 3.70114 -3.00004
# Velocity P-wave (km/s) = 4.33576 6.52455 3.44753
#
# Compressibility (1/GPa) = 0.02086661
#
# Stress axis : x y z
#
# Youngs Moduli (GPa) = 56.19472 102.27665 85.08692
#
# Poissons Ratio (x) = 0.55119 0.33105
# Poissons Ratio (y) = 0.30284 -0.00430
# Poissons Ratio (z) = 0.21864 -0.00517
#
# Static dielectric constant tensor:
#      x y z
#    x 3.361810 0.000000 0.000000 
#    y 0.000000 4.293890 0.000000 
#    z 0.000000 0.000000 3.851150 
# 
# 
# High freq. dielectric constant tensor:
#      x y z
#    x 1.765220 0.000000 0.000000 
#    y 0.000000 1.821020 0.000000 
#    z 0.000000 0.000000 1.819250 
# 
# From -- ./inp_files/25205.got.cif
#   From: 2010.03.12/outbox.cif.g09.slc.cpg/sg24_13_cif.got.tgz:25205.got - 2010.04.14 03:06:53.
