data_PCOD8166838
_publ_section_title
;
Structure prediction by ZEFSAII (Michael W. Deem and Ramdas Pophale) SiO2 
 PCOD8166838
Probable space group: P M M 2
;
_chemical_formula_sum "Si O2"
_cell_formula_units_Z 32
_cell_length_a 8.801504
_cell_length_b 24.446623
_cell_length_c 7.519008
_cell_angle_alpha 90.000000
_cell_angle_beta 90.000000
_cell_angle_gamma 90.000000
_cell_volume 1617.842771
_symmetry_space_group_name_H-M "P M M 2"
_symmetry_group_IT_number 25
_symmetry_cell_setting 'orthorhombic'
loop_
_space_group_symop_operation_xyz
x,y,z
-x,-y,z
-x,y,z
x,-y,z
loop_
_atom_site_type_symbol
_atom_site_label
_atom_site_fract_x
_atom_site_fract_y
_atom_site_fract_z
Si Si1 0.823407 0.941007 0.566380
Si Si2 0.321455 0.631980 0.235368
Si Si3 0.179054 0.168597 0.942114
Si Si4 0.675363 0.437293 0.566810
Si Si5 0.821412 0.438706 0.934878
Si Si6 0.322750 0.757518 0.232522
Si Si7 0.321788 0.059493 0.948965
Si Si8 0.321530 0.834576 0.553685
O O1 0.727454 0.943300 0.745597
O O2 0.752974 0.889225 0.462095
O O3 0.000000 0.930352 0.609564
O O4 0.803413 0.000000 0.466634
O O5 0.500000 0.624798 0.217651
O O6 0.261941 0.600562 0.409153
O O7 0.272953 0.694846 0.249996
O O8 0.247962 0.606002 0.062923
O O9 0.233100 0.111089 0.033613
O O10 0.251393 0.177620 0.747242
O O11 0.000000 0.168282 0.921032
O O12 0.228616 0.217325 0.070458
O O13 0.500000 0.424873 0.610868
O O14 0.698536 0.500000 0.508367
O O15 0.774593 0.422087 0.736815
O O16 0.759977 0.500000 0.978639
O O17 0.000000 0.437049 0.952349
O O18 0.500000 0.764160 0.187835
O O19 0.282846 0.785175 0.421142
O O20 0.500000 0.071286 0.962878
O O21 0.282464 0.000000 0.038067
O O22 0.500000 0.843380 0.575268
#
# Coordination Sequence:
#
# PCOD8166838 Si02
#       8
#     4   4   4   4   4   4   4   4
#     4   9  16  27  47  76 107 137 173 220 275 334
#     4  10  21  38  60  83 109 145 190 237 277 316
#     4  11  22  36  57  82 111 146 181 225 280 335
#     4   9  18  34  58  87 115 145 185 229 273 324
#     4  10  21  36  56  86 122 154 182 218 271 331
#     4  10  23  41  58  79 108 145 191 236 275 321
#     4   9  16  28  50  78 106 138 178 223 272 329
#     4  10  20  36  58  80 107 144 184 228 277 330
#
# _framework density 19.779425
#
# number of rings (size 3 to 8) (size 9 to 14) (size 15 to 20)
#    0.000    2.250    0.000    4.500    0.000    5.750 
#    0.000    4.375    0.000    0.750    0.000    0.000 
#    0.000    0.000    0.000    0.000    0.000    0.000 
#
# Total GULP energy -396668.631630 kJ/mol
# GULP energy per Si atom -12395.894738 kJ/mol
# Density = 1.973441 g / cm^3
# Si number density = 19.779425 Si / 1000 Ang^3
#
#
#
# Elastic Constant Matrix: (Units=GPa)
#
#
# Indices 1 2 3 4 5 6 
#
# 1 65.2220 59.5346 38.7347 0.0000 0.0000 0.0000
# 2 59.5346 167.0937 81.7571 0.0000 0.0000 0.0000
# 3 38.7347 81.7571 92.0710 0.0000 0.0000 0.0000
# 4 0.0000 0.0000 0.0000 -0.8399 0.0000 0.0000
# 5 0.0000 0.0000 0.0000 0.0000 -16.0707 0.0000
# 6 0.0000 0.0000 0.0000 0.0000 0.0000 14.9959
#
#
#
# Elastic Compliance Matrix: (Units=1/GPa)
#
#
# Indices 1 2 3 4 5 6 
#
# 1 0.023675 -0.006298 -0.004367 0.000000 0.000000 0.000000
# 2 -0.006298 0.012258 -0.008235 0.000000 0.000000 0.000000
# 3 -0.004367 -0.008235 0.020011 0.000000 0.000000 0.000000
# 4 0.000000 0.000000 0.000000 -1.190632 0.000000 0.000000
# 5 0.000000 0.000000 0.000000 0.000000 -0.062225 0.000000
# 6 0.000000 0.000000 0.000000 0.000000 0.000000 0.066685
#
#
# Mechanical properties :
#
#
# Convention : Reuss Voigt Hill
#
# Bulk Modulus (GPa) = 55.11903 76.04883 65.58393
# Shear Modulus (GPa) = -4.60245 9.24108 2.31931
#
# Velocity S-wave (km/s) = -1.52707 2.16384 1.08404
# Velocity P-wave (km/s) = 4.98178 6.69140 5.89885
#
# Compressibility (1/GPa) = 0.01814255
#
# Stress axis : x y z
#
# Youngs Moduli (GPa) = 42.23821 81.57835 49.97189
#
# Poissons Ratio (x) = 0.51382 0.21825
# Poissons Ratio (y) = 0.26603 0.41153
# Poissons Ratio (z) = 0.18447 0.67181
#
# Static dielectric constant tensor:
#      x y z
#    x 3.576200 0.000000 0.000000 
#    y 0.000000 4.076470 0.000000 
#    z 0.000000 0.000000 3.345380 
# 
# 
# High freq. dielectric constant tensor:
#      x y z
#    x 1.771770 0.000000 0.000000 
#    y 0.000000 1.780970 0.000000 
#    z 0.000000 0.000000 1.751710 
# 
# From -- ./inp_files/2403.got.cif
#   From: 2010.03.12/outbox.cif.g09.slc.cpg/sg25_2_cif.got.tgz:2403.got - 2010.04.14 03:30:10.
