data_PCOD8166217
_publ_section_title
;
Structure prediction by ZEFSAII (Michael W. Deem and Ramdas Pophale) SiO2 
 PCOD8166217
Probable space group: I 21 21 21
;
_chemical_formula_sum "Si O2"
_cell_formula_units_Z 48
_cell_length_a 16.342648
_cell_length_b 8.110382
_cell_length_c 14.459701
_cell_angle_alpha 90.000000
_cell_angle_beta 90.000000
_cell_angle_gamma 90.000000
_cell_volume 1916.562778
_symmetry_space_group_name_H-M "I 21 21 21"
_symmetry_group_IT_number 24
_symmetry_cell_setting 'orthorhombic'
loop_
_space_group_symop_operation_xyz
x,y,z
-x,1/2-y,z
x,-y,1/2-z
1/2-x,y,-z
1/2+x,1/2+y,1/2+z
1/2-x,-y,1/2+z
1/2+x,1/2-y,-z
-x,1/2+y,1/2-z
loop_
_atom_site_type_symbol
_atom_site_label
_atom_site_fract_x
_atom_site_fract_y
_atom_site_fract_z
Si Si1 0.403854 0.048071 0.015877
Si Si2 0.208953 0.310402 0.242922
Si Si3 0.186713 0.639848 0.573515
Si Si4 0.654431 0.364317 0.331208
Si Si5 0.454564 0.567178 0.151083
Si Si6 0.561616 0.385815 0.674906
O O1 0.378835 0.239819 0.022658
O O2 0.331721 0.951964 0.070204
O O3 0.488132 0.003903 0.069125
O O4 0.406004 0.993707 0.909853
O O5 0.181739 0.500000 0.250000
O O6 0.253937 0.266010 0.146617
O O7 0.274762 0.268969 0.321889
O O8 0.132557 0.193505 0.262437
O O9 0.250000 0.559983 0.500000
O O10 0.136044 0.501682 0.627460
O O11 0.651081 0.500000 0.250000
O O12 0.565111 0.267835 0.339121
O O13 0.484363 0.500000 0.250000
O O14 0.500000 0.250000 0.634270
O O15 0.514465 0.500000 0.750000
#
# Coordination Sequence:
#
# PCOD8166217 Si02
#       6
#     8   8   8   8   8   8
#     4  12  28  45  75 114 153 202 258 326 398 468
#     4  12  25  50  76 111 153 202 260 318 398 468
#     4  12  26  47  75 114 155 208 260 320 389 476
#     4  12  22  43  76 113 155 193 248 320 400 472
#     4  12  24  48  73 116 155 201 252 321 404 470
#     4  12  29  53  77 108 154 214 268 326 389 469
#
# _framework density 25.044836
#
# number of rings (size 3 to 8) (size 9 to 14) (size 15 to 20)
#    0.000    0.000    5.000    4.500    2.333    6.667 
#    0.000    0.000    0.000    0.000    0.000    0.000 
#    0.000    0.000    0.000    0.000    0.000    0.000 
#
# Total GULP energy -297458.125799 kJ/mol
# GULP energy per Si atom -12394.088575 kJ/mol
# Density = 2.498783 g / cm^3
# Si number density = 25.044836 Si / 1000 Ang^3
#
#
#
# Elastic Constant Matrix: (Units=GPa)
#
#
# Indices 1 2 3 4 5 6 
#
# 1 81.8128 11.6832 19.5619 0.0000 0.0000 0.0000
# 2 11.6832 106.8147 37.5966 0.0000 0.0000 0.0000
# 3 19.5619 37.5966 149.1092 0.0000 0.0000 0.0000
# 4 0.0000 0.0000 0.0000 33.4068 0.0000 0.0000
# 5 0.0000 0.0000 0.0000 0.0000 41.8148 0.0000
# 6 0.0000 0.0000 0.0000 0.0000 0.0000 30.4583
#
#
#
# Elastic Compliance Matrix: (Units=1/GPa)
#
#
# Indices 1 2 3 4 5 6 
#
# 1 0.012694 -0.000880 -0.001443 0.000000 0.000000 0.000000
# 2 -0.000880 0.010335 -0.002490 0.000000 0.000000 0.000000
# 3 -0.001443 -0.002490 0.007524 0.000000 0.000000 0.000000
# 4 0.000000 0.000000 0.000000 0.029934 0.000000 0.000000
# 5 0.000000 0.000000 0.000000 0.000000 0.023915 0.000000
# 6 0.000000 0.000000 0.000000 0.000000 0.000000 0.032832
#
#
# Mechanical properties :
#
#
# Convention : Reuss Voigt Hill
#
# Bulk Modulus (GPa) = 47.79134 52.82447 50.30790
# Shear Modulus (GPa) = 37.35912 39.06233 38.21073
#
# Velocity S-wave (km/s) = 3.86643 3.95358 3.91025
# Velocity P-wave (km/s) = 6.24949 6.47911 6.36533
#
# Compressibility (1/GPa) = 0.02092429
#
# Stress axis : x y z
#
# Youngs Moduli (GPa) = 78.77826 96.75997 132.91218
#
# Poissons Ratio (x) = 0.08519 0.19184
# Poissons Ratio (y) = 0.06936 0.33100
# Poissons Ratio (z) = 0.11370 0.24097
#
# Static dielectric constant tensor:
#      x y z
#    x 4.592920 0.000000 0.000000 
#    y 0.000000 4.658850 0.000000 
#    z 0.000000 0.000000 4.368000 
# 
# 
# High freq. dielectric constant tensor:
#      x y z
#    x 2.010980 0.000000 0.000000 
#    y 0.000000 2.014380 0.000000 
#    z 0.000000 0.000000 1.991190 
# 
# From -- ./inp_files/27020.got.cif
#   From: 2010.03.12/outbox.cif.g09.slc.cpg/sg24_14_cif.got.tgz:27020.got - 2010.04.14 03:06:53.
