data_PCOD8166601
_publ_section_title
;
Structure prediction by ZEFSAII (Michael W. Deem and Ramdas Pophale) SiO2 
 PCOD8166601
Probable space group: P M M 2
;
_chemical_formula_sum "Si O2"
_cell_formula_units_Z 32
_cell_length_a 9.436012
_cell_length_b 9.195452
_cell_length_c 20.728590
_cell_angle_alpha 90.000000
_cell_angle_beta 90.000000
_cell_angle_gamma 90.000000
_cell_volume 1798.586494
_symmetry_space_group_name_H-M "P M M 2"
_symmetry_group_IT_number 25
_symmetry_cell_setting 'orthorhombic'
loop_
_space_group_symop_operation_xyz
x,y,z
-x,-y,z
-x,y,z
x,-y,z
loop_
_atom_site_type_symbol
_atom_site_label
_atom_site_fract_x
_atom_site_fract_y
_atom_site_fract_z
Si Si1 0.334063 0.330919 0.029730
Si Si2 0.668692 0.164363 0.405449
Si Si3 0.168299 0.839321 0.777455
Si Si4 0.331369 0.164556 0.156455
Si Si5 0.834657 0.830382 0.921106
Si Si6 0.669111 0.335172 0.281024
Si Si7 0.334917 0.330884 0.531731
Si Si8 0.162495 0.329524 0.654786
O O1 0.500000 0.303845 0.019621
O O2 0.299509 0.500000 0.039161
O O3 0.277375 0.246050 0.092547
O O4 0.254315 0.270741 0.967852
O O5 0.500000 0.164779 0.403672
O O6 0.727995 0.253181 0.344248
O O7 0.722432 0.241862 0.470434
O O8 0.727491 0.000000 0.403062
O O9 0.214201 0.786015 0.848650
O O10 0.226661 0.736356 0.720786
O O11 0.000000 0.843076 0.776063
O O12 0.229415 0.000000 0.764680
O O13 0.500000 0.163593 0.158496
O O14 0.272132 0.250464 0.218514
O O15 0.272017 0.000000 0.156929
O O16 0.000000 0.798408 0.931694
O O17 0.801873 0.000000 0.933858
O O18 0.500000 0.335858 0.281021
O O19 0.727131 0.500000 0.280425
O O20 0.500000 0.302643 0.543880
O O21 0.303637 0.500000 0.518649
O O22 0.251778 0.272067 0.594094
O O23 0.178601 0.500000 0.661786
O O24 0.000000 0.282123 0.644255
#
# Coordination Sequence:
#
# PCOD8166601 Si02
#       8
#     4   4   4   4   4   4   4   4
#     4  10  20  32  46  68  98 128 157 191 233 280
#     4   9  16  25  38  58  84 113 146 183 220 260
#     4   8  15  29  48  68  89 113 144 184 226 266
#     4   9  16  26  41  61  87 120 155 190 228 269
#     4   9  18  33  52  72  93 120 156 195 234 278
#     4   9  15  23  37  58  85 116 149 185 224 266
#     4   9  17  29  43  60  86 118 146 175 217 264
#     4   9  17  29  46  67  88 112 145 182 218 260
#
# _framework density 17.791748999999999
#
# number of rings (size 3 to 8) (size 9 to 14) (size 15 to 20)
#    0.000    3.000    0.000    2.250    0.000    6.500 
#    0.000    1.875    0.000    2.250    0.000    0.875 
#    0.000    5.000    0.000    0.000    0.000    0.000 
#
# Total GULP energy -396724.512407 kJ/mol
# GULP energy per Si atom -12397.641013 kJ/mol
# Density = 1.775125 g / cm^3
# Si number density = 17.791749 Si / 1000 Ang^3
#
#
#
# Elastic Constant Matrix: (Units=GPa)
#
#
# Indices 1 2 3 4 5 6 
#
# 1 22.4173 27.8931 36.1136 0.0000 0.0000 0.0000
# 2 27.8931 124.0645 93.7459 0.0000 0.0000 0.0000
# 3 36.1136 93.7459 189.1771 0.0000 0.0000 0.0000
# 4 0.0000 0.0000 0.0000 41.7742 0.0000 0.0000
# 5 0.0000 0.0000 0.0000 0.0000 -3.4890 0.0000
# 6 0.0000 0.0000 0.0000 0.0000 0.0000 15.2600
#
#
#
# Elastic Compliance Matrix: (Units=1/GPa)
#
#
# Indices 1 2 3 4 5 6 
#
# 1 0.070247 -0.009049 -0.008926 0.000000 0.000000 0.000000
# 2 -0.009049 0.014051 -0.005235 0.000000 0.000000 0.000000
# 3 -0.008926 -0.005235 0.009584 0.000000 0.000000 0.000000
# 4 0.000000 0.000000 0.000000 0.023938 0.000000 0.000000
# 5 0.000000 0.000000 0.000000 0.000000 -0.286618 0.000000
# 6 0.000000 0.000000 0.000000 0.000000 0.000000 0.065531
#
#
# Mechanical properties :
#
#
# Convention : Reuss Voigt Hill
#
# Bulk Modulus (GPa) = 21.06960 72.35156 46.71058
# Shear Modulus (GPa) = -121.87283 22.56946 -49.65168
#
# Velocity S-wave (km/s) = -8.28543 3.56551 -5.28845
# Velocity P-wave (km/s) = 8.92542 7.59635 3.31349
#
# Compressibility (1/GPa) = 0.04746175
#
# Stress axis : x y z
#
# Youngs Moduli (GPa) = 14.23551 71.17080 104.33681
#
# Poissons Ratio (x) = 0.64401 0.93130
# Poissons Ratio (y) = 0.12881 0.54624
# Poissons Ratio (z) = 0.12706 0.37260
#
# Static dielectric constant tensor:
#      x y z
#    x 2.750520 0.000000 0.000000 
#    y 0.000000 3.438180 0.000000 
#    z 0.000000 0.000000 3.589220 
# 
# 
# High freq. dielectric constant tensor:
#      x y z
#    x 1.622340 0.000000 0.000000 
#    y 0.000000 1.694720 0.000000 
#    z 0.000000 0.000000 1.706730 
# 
# From -- ./inp_files/6262.got.cif
#   From: 2010.03.12/outbox.cif.g09.slc.cpg/sg25_4_cif.got.tgz:6262.got - 2010.04.14 03:30:10.
