data_PCOD8166055
_publ_section_title
;
Structure prediction by ZEFSAII (Michael W. Deem and Ramdas Pophale) SiO2 
 PCOD8166055
Probable space group: I 21 21 21
;
_chemical_formula_sum "Si O2"
_cell_formula_units_Z 64
_cell_length_a 19.801948
_cell_length_b 11.561290
_cell_length_c 13.833568
_cell_angle_alpha 90.000000
_cell_angle_beta 90.000000
_cell_angle_gamma 90.000000
_cell_volume 3167.002601
_symmetry_space_group_name_H-M "I 21 21 21"
_symmetry_group_IT_number 24
_symmetry_cell_setting 'orthorhombic'
loop_
_space_group_symop_operation_xyz
x,y,z
-x,1/2-y,z
x,-y,1/2-z
1/2-x,y,-z
1/2+x,1/2+y,1/2+z
1/2-x,-y,1/2+z
1/2+x,1/2-y,-z
-x,1/2+y,1/2-z
loop_
_atom_site_type_symbol
_atom_site_label
_atom_site_fract_x
_atom_site_fract_y
_atom_site_fract_z
Si Si1 0.186929 0.679897 0.061709
Si Si2 0.924810 0.758532 0.561920
Si Si3 0.319389 0.587137 0.547919
Si Si4 0.769302 0.802699 0.278235
Si Si5 0.643283 0.513949 0.454293
Si Si6 0.279911 0.950436 0.647047
Si Si7 0.922707 0.722797 0.939093
Si Si8 0.116280 0.365185 0.749129
O O1 0.172903 0.548496 0.031589
O O2 0.200398 0.708908 0.172446
O O3 0.250000 0.728313 0.000000
O O4 0.119818 0.748639 0.034701
O O5 0.882918 0.846877 0.496105
O O6 0.891870 0.633867 0.568295
O O7 0.930447 0.806471 0.670567
O O8 0.000000 0.750000 0.518029
O O9 0.250000 0.633645 0.500000
O O10 0.315278 0.606469 0.663141
O O11 0.772722 0.686618 0.341539
O O12 0.694132 0.851497 0.276453
O O13 0.664133 0.514711 0.567538
O O14 0.708398 0.496967 0.386054
O O15 0.590533 0.413720 0.423132
O O16 0.302585 0.000000 0.750000
O O17 0.897294 0.803011 0.851990
O O18 0.000000 0.750000 0.960441
O O19 0.097661 0.500000 0.750000
#
# Coordination Sequence:
#
# PCOD8166055 Si02
#       8
#     8   8   8   8   8   8   8   8
#     4  11  24  40  68  97 131 175 222 281 330 384
#     4  12  26  43  68  97 138 179 219 270 332 407
#     4  11  21  41  69  99 130 171 222 279 333 389
#     4  12  21  40  68 106 130 164 227 282 340 383
#     4  11  25  43  68  98 126 179 222 263 339 395
#     4  11  22  41  69  98 135 167 218 282 325 399
#     4  12  28  46  64  95 138 178 220 270 330 407
#     4  12  24  42  69 102 135 173 218 274 338 399
#
# _framework density 20.208383999999999
#
# number of rings (size 3 to 8) (size 9 to 14) (size 15 to 20)
#    0.000    0.500    5.000    3.750    5.250    0.000 
#    0.000    0.625    0.000    0.000    0.000    0.000 
#    0.000    0.000    0.000    0.000    0.000    0.000 
#
# Total GULP energy -396905.800323 kJ/mol
# GULP energy per Si atom -12403.306260 kJ/mol
# Density = 2.016239 g / cm^3
# Si number density = 20.208384 Si / 1000 Ang^3
#
#
#
# Elastic Constant Matrix: (Units=GPa)
#
#
# Indices 1 2 3 4 5 6 
#
# 1 103.5460 36.0272 26.9704 0.0000 0.0000 0.0000
# 2 36.0272 109.9805 22.4650 0.0000 0.0000 0.0000
# 3 26.9704 22.4650 114.7240 0.0000 0.0000 0.0000
# 4 0.0000 0.0000 0.0000 36.5336 0.0000 0.0000
# 5 0.0000 0.0000 0.0000 0.0000 23.6538 0.0000
# 6 0.0000 0.0000 0.0000 0.0000 0.0000 17.6836
#
#
#
# Elastic Compliance Matrix: (Units=1/GPa)
#
#
# Indices 1 2 3 4 5 6 
#
# 1 0.011331 -0.003300 -0.002018 0.000000 0.000000 0.000000
# 2 -0.003300 0.010432 -0.001267 0.000000 0.000000 0.000000
# 3 -0.002018 -0.001267 0.009439 0.000000 0.000000 0.000000
# 4 0.000000 0.000000 0.000000 0.027372 0.000000 0.000000
# 5 0.000000 0.000000 0.000000 0.000000 0.042277 0.000000
# 6 0.000000 0.000000 0.000000 0.000000 0.000000 0.056550
#
#
# Mechanical properties :
#
#
# Convention : Reuss Voigt Hill
#
# Bulk Modulus (GPa) = 55.45244 55.46395 55.45819
# Shear Modulus (GPa) = 28.31565 31.76006 30.03785
#
# Velocity S-wave (km/s) = 3.74730 3.96868 3.85958
# Velocity P-wave (km/s) = 6.79874 6.96463 6.88219
#
# Compressibility (1/GPa) = 0.01803347
#
# Stress axis : x y z
#
# Youngs Moduli (GPa) = 88.25222 95.85665 105.94307
#
# Poissons Ratio (x) = 0.31630 0.21376
# Poissons Ratio (y) = 0.29121 0.13424
# Poissons Ratio (z) = 0.17807 0.12146
#
# Static dielectric constant tensor:
#      x y z
#    x 3.587090 0.000000 0.000000 
#    y 0.000000 3.864960 0.000000 
#    z 0.000000 0.000000 4.053560 
# 
# 
# High freq. dielectric constant tensor:
#      x y z
#    x 1.766880 0.000000 0.000000 
#    y 0.000000 1.811600 0.000000 
#    z 0.000000 0.000000 1.796820 
# 
# From -- ./inp_files/27217.got.cif
#   From: 2010.03.12/outbox.cif.g09.slc.cpg/sg24_14_cif.got.tgz:27217.got - 2010.04.14 03:06:53.
