data_PCOD8166267
_publ_section_title
;
Structure prediction by ZEFSAII (Michael W. Deem and Ramdas Pophale) SiO2 
 PCOD8166267
Probable space group: I 21 21 21
;
_chemical_formula_sum "Si O2"
_cell_formula_units_Z 36
_cell_length_a 18.422714
_cell_length_b 15.304906
_cell_length_c 5.160469
_cell_angle_alpha 90.000000
_cell_angle_beta 90.000000
_cell_angle_gamma 90.000000
_cell_volume 1455.035033
_symmetry_space_group_name_H-M "I 21 21 21"
_symmetry_group_IT_number 24
_symmetry_cell_setting 'orthorhombic'
loop_
_space_group_symop_operation_xyz
x,y,z
-x,1/2-y,z
x,-y,1/2-z
1/2-x,y,-z
1/2+x,1/2+y,1/2+z
1/2-x,-y,1/2+z
1/2+x,1/2-y,-z
-x,1/2+y,1/2-z
loop_
_atom_site_type_symbol
_atom_site_label
_atom_site_fract_x
_atom_site_fract_y
_atom_site_fract_z
Si Si1 0.535247 0.074452 0.081503
Si Si2 0.408352 0.848084 0.699365
Si Si3 0.112143 0.263616 0.692060
Si Si4 0.250000 0.355828 0.500000
Si Si5 0.298631 0.000000 0.750000
Si Si6 0.157387 0.500000 0.250000
O O1 0.555415 0.158928 0.251076
O O2 0.493238 0.000000 0.250000
O O3 0.484992 0.102099 0.840091
O O4 0.608618 0.026730 0.992444
O O5 0.387178 0.805115 0.425409
O O6 0.347107 0.914623 0.790352
O O7 0.416682 0.776851 0.923734
O O8 0.194772 0.295771 0.660964
O O9 0.206292 0.415902 0.301216
O O10 0.250000 0.987258 0.500000
#
# Coordination Sequence:
#
# PCOD8166267 Si02
#       6
#     8   8   8   4   4   4
#     4  12  28  52  81 118 164 213 272 334 415 483
#     4  12  31  53  82 115 158 214 274 338 397 485
#     4  12  29  51  80 119 164 212 263 339 397 491
#     4  12  26  48  78 118 162 212 262 324 418 480
#     4  12  29  56  82 115 154 210 272 338 408 473
#     4  12  25  50  80 117 164 216 266 334 408 513
#
# _framework density 24.741672000000001
#
# number of rings (size 3 to 8) (size 9 to 14) (size 15 to 20)
#    0.000    0.000    2.222    5.333   12.444    5.333 
#    0.000    0.000    0.000    0.000    0.000    0.000 
#    0.000    0.000    0.000    0.000    0.000    0.000 
#
# Total GULP energy -223348.028817 kJ/mol
# GULP energy per Si atom -12408.223823 kJ/mol
# Density = 2.468536 g / cm^3
# Si number density = 24.741672 Si / 1000 Ang^3
#
#
#
# Elastic Constant Matrix: (Units=GPa)
#
#
# Indices 1 2 3 4 5 6 
#
# 1 107.2685 39.5674 30.4703 0.0000 0.0000 0.0000
# 2 39.5674 112.9374 30.9746 0.0000 0.0000 0.0000
# 3 30.4703 30.9746 126.1754 0.0000 0.0000 0.0000
# 4 0.0000 0.0000 0.0000 46.2275 0.0000 0.0000
# 5 0.0000 0.0000 0.0000 0.0000 22.2717 0.0000
# 6 0.0000 0.0000 0.0000 0.0000 0.0000 49.3539
#
#
#
# Elastic Compliance Matrix: (Units=1/GPa)
#
#
# Indices 1 2 3 4 5 6 
#
# 1 0.011094 -0.003380 -0.001850 0.000000 0.000000 0.000000
# 2 -0.003380 0.010523 -0.001767 0.000000 0.000000 0.000000
# 3 -0.001850 -0.001767 0.008806 0.000000 0.000000 0.000000
# 4 0.000000 0.000000 0.000000 0.021632 0.000000 0.000000
# 5 0.000000 0.000000 0.000000 0.000000 0.044900 0.000000
# 6 0.000000 0.000000 0.000000 0.000000 0.000000 0.020262
#
#
# Mechanical properties :
#
#
# Convention : Reuss Voigt Hill
#
# Bulk Modulus (GPa) = 60.86120 60.93400 60.89760
# Shear Modulus (GPa) = 36.57986 39.92854 38.25420
#
# Velocity S-wave (km/s) = 3.84926 4.02159 3.93637
# Velocity P-wave (km/s) = 6.66392 6.80043 6.73252
#
# Compressibility (1/GPa) = 0.01643083
#
# Stress axis : x y z
#
# Youngs Moduli (GPa) = 90.13557 95.02834 113.55967
#
# Poissons Ratio (x) = 0.32116 0.21003
# Poissons Ratio (y) = 0.30463 0.20068
# Poissons Ratio (z) = 0.16671 0.16793
#
# Static dielectric constant tensor:
#      x y z
#    x 4.620350 0.000000 0.000000 
#    y 0.000000 4.833790 0.000000 
#    z 0.000000 0.000000 4.385820 
# 
# 
# High freq. dielectric constant tensor:
#      x y z
#    x 1.993260 0.000000 0.000000 
#    y 0.000000 2.006360 0.000000 
#    z 0.000000 0.000000 1.994170 
# 
# From -- ./inp_files/5394.got.cif
#   From: 2010.03.12/outbox.cif.g09.slc.cpg/sg24_3_cif.got.tgz:5394.got - 2010.04.14 03:06:53.
