data_PCOD8166188
_publ_section_title
;
Structure prediction by ZEFSAII (Michael W. Deem and Ramdas Pophale) SiO2 
 PCOD8166188
Probable space group: I 21 21 21
;
_chemical_formula_sum "Si O2"
_cell_formula_units_Z 28
_cell_length_a 5.030474
_cell_length_b 27.721111
_cell_length_c 8.626744
_cell_angle_alpha 90.000000
_cell_angle_beta 90.000000
_cell_angle_gamma 90.000000
_cell_volume 1203.002282
_symmetry_space_group_name_H-M "I 21 21 21"
_symmetry_group_IT_number 24
_symmetry_cell_setting 'orthorhombic'
loop_
_space_group_symop_operation_xyz
x,y,z
-x,1/2-y,z
x,-y,1/2-z
1/2-x,y,-z
1/2+x,1/2+y,1/2+z
1/2-x,-y,1/2+z
1/2+x,1/2-y,-z
-x,1/2+y,1/2-z
loop_
_atom_site_type_symbol
_atom_site_label
_atom_site_fract_x
_atom_site_fract_y
_atom_site_fract_z
Si Si1 0.329590 0.050498 0.680451
Si Si2 0.175318 0.295294 0.826383
Si Si3 0.174404 0.403785 0.823863
Si Si4 0.500000 0.750000 0.901303
O O1 0.250000 0.048904 0.500000
O O2 0.570877 0.088022 0.711613
O O3 0.067467 0.062644 0.777125
O O4 0.433440 0.000000 0.750000
O O5 0.058924 0.349006 0.812914
O O6 0.428296 0.295129 0.710904
O O7 0.000000 0.250000 0.766091
O O8 0.250000 0.282664 0.000000
O O9 0.250000 0.416169 0.000000
O O10 0.250000 0.767899 0.000000
#
# Coordination Sequence:
#
# PCOD8166188 Si02
#       4
#     8   8   8   4
#     4  12  26  48  74 105 143 181 229 290 358 421
#     4  11  25  45  73  99 142 193 243 281 344 417
#     4  11  26  45  73 105 139 185 238 288 345 419
#     4  12  26  42  64  98 136 182 230 294 346 392
#
# _framework density 23.275099999999998
#
# number of rings (size 3 to 8) (size 9 to 14) (size 15 to 20)
#    0.000    0.571    2.857    4.286    4.000    3.429 
#    0.000    0.000    0.000    0.000    0.000    0.000 
#    0.000    0.000    0.000    0.000    0.000    0.000 
#
# Total GULP energy -173519.239567 kJ/mol
# GULP energy per Si atom -12394.231398 kJ/mol
# Density = 2.322212 g / cm^3
# Si number density = 23.275100 Si / 1000 Ang^3
#
#
#
# Elastic Constant Matrix: (Units=GPa)
#
#
# Indices 1 2 3 4 5 6 
#
# 1 121.4573 39.8458 39.7683 0.0004 0.0000 0.0000
# 2 39.8458 115.3443 49.2895 -0.0001 0.0000 -0.0001
# 3 39.7683 49.2895 137.4363 -0.0002 0.0000 -0.0001
# 4 0.0004 -0.0001 -0.0002 287.8329 0.0001 0.0000
# 5 0.0000 0.0000 0.0000 0.0001 36.8963 0.0000
# 6 0.0000 -0.0001 -0.0001 0.0000 0.0000 37.6495
#
#
#
# Elastic Compliance Matrix: (Units=1/GPa)
#
#
# Indices 1 2 3 4 5 6 
#
# 1 0.009685 -0.002537 -0.001893 0.000000 0.000000 0.000000
# 2 -0.002537 0.010903 -0.003176 0.000000 0.000000 0.000000
# 3 -0.001893 -0.003176 0.008963 0.000000 0.000000 0.000000
# 4 0.000000 0.000000 0.000000 0.003474 0.000000 0.000000
# 5 0.000000 0.000000 0.000000 0.000000 0.027103 0.000000
# 6 0.000000 0.000000 0.000000 0.000000 0.000000 0.026561
#
#
# Mechanical properties :
#
#
# Convention : Reuss Voigt Hill
#
# Bulk Modulus (GPa) = 69.73615 70.22721 69.98168
# Shear Modulus (GPa) = 46.86853 88.83138 67.84995
#
# Velocity S-wave (km/s) = 4.49227 6.18455 5.40505
# Velocity P-wave (km/s) = 7.54547 9.01313 8.31175
#
# Compressibility (1/GPa) = 0.01433977
#
# Stress axis : x y z
#
# Youngs Moduli (GPa) = 103.24861 91.71453 111.57144
#
# Poissons Ratio (x) = 0.23268 0.21117
# Poissons Ratio (y) = 0.26194 0.35438
# Poissons Ratio (z) = 0.19542 0.29131
#
# Static dielectric constant tensor:
#      x y z
#    x 4.185700 0.000000 0.000000 
#    y 0.000000 4.126620 0.000000 
#    z 0.000000 0.000000 4.587530 
# 
# 
# High freq. dielectric constant tensor:
#      x y z
#    x 1.921800 0.000000 0.000000 
#    y 0.000000 1.912820 0.000000 
#    z 0.000000 0.000000 1.947440 
# 
# From -- ./inp_files/8180.got.cif
#   From: 2010.03.12/outbox.cif.g09.slc.cpg/sg24_5_cif.got.tgz:8180.got - 2010.04.14 03:06:53.
