data_PCOD8166719
_publ_section_title
;
Structure prediction by ZEFSAII (Michael W. Deem and Ramdas Pophale) SiO2 
 PCOD8166719
Probable space group: P M M 2
;
_chemical_formula_sum "Si O2"
_cell_formula_units_Z 32
_cell_length_a 8.986055
_cell_length_b 14.783595
_cell_length_c 12.473655
_cell_angle_alpha 90.000000
_cell_angle_beta 90.000000
_cell_angle_gamma 90.000000
_cell_volume 1657.077639
_symmetry_space_group_name_H-M "P M M 2"
_symmetry_group_IT_number 25
_symmetry_cell_setting 'orthorhombic'
loop_
_space_group_symop_operation_xyz
x,y,z
-x,-y,z
-x,y,z
x,-y,z
loop_
_atom_site_type_symbol
_atom_site_label
_atom_site_fract_x
_atom_site_fract_y
_atom_site_fract_z
Si Si1 0.331794 0.399675 0.450420
Si Si2 0.326449 0.720541 0.006000
Si Si3 0.174945 0.286547 0.617071
Si Si4 0.825120 0.900684 0.068239
Si Si5 0.174225 0.141315 0.301474
Si Si6 0.323056 0.396244 0.807251
Si Si7 0.176297 0.098126 0.533322
Si Si8 0.332554 0.687360 0.241564
O O1 0.500000 0.373160 0.485735
O O2 0.293928 0.500000 0.490410
O O3 0.214018 0.332094 0.503563
O O4 0.321391 0.399161 0.319867
O O5 0.500000 0.736366 0.988804
O O6 0.263739 0.654894 0.913583
O O7 0.252663 0.820268 0.001818
O O8 0.290212 0.668397 0.117774
O O9 0.262890 0.339612 0.707824
O O10 0.229947 0.181347 0.608657
O O11 0.000000 0.293401 0.639584
O O12 0.765964 0.904439 0.191605
O O13 0.000000 0.880257 0.065640
O O14 0.790183 0.000000 0.017465
O O15 0.243367 0.101932 0.411904
O O16 0.215902 0.245605 0.295236
O O17 0.000000 0.127407 0.306357
O O18 0.500000 0.396811 0.802683
O O19 0.263626 0.500000 0.805976
O O20 0.000000 0.107079 0.524272
O O21 0.222324 0.000000 0.582950
O O22 0.500000 0.728316 0.243846
#
# Coordination Sequence:
#
# PCOD8166719 Si02
#       8
#     4   4   4   4   4   4   4   4
#     4  10  20  33  51  76 108 144 174 207 263 329
#     4   9  19  35  55  79 105 136 178 226 270 313
#     4  11  22  36  56  81 107 136 176 225 268 310
#     4   9  17  29  49  79 112 146 181 214 254 310
#     4   9  15  27  48  73 104 142 180 212 248 302
#     4  10  22  41  62  79  99 135 181 226 273 323
#     4   9  17  30  50  76 105 138 175 212 255 308
#     4   9  17  30  49  75 108 139 169 212 263 311
#
# _framework density 19.311105999999999
#
# number of rings (size 3 to 8) (size 9 to 14) (size 15 to 20)
#    0.000    2.500    1.250    1.125    0.000    4.750 
#    0.000    3.125    0.000    6.375    0.000    5.250 
#    0.000    0.000    0.000    0.000    0.000    0.000 
#
# Total GULP energy -396426.339377 kJ/mol
# GULP energy per Si atom -12388.323106 kJ/mol
# Density = 1.926715 g / cm^3
# Si number density = 19.311106 Si / 1000 Ang^3
#
#
#
# Elastic Constant Matrix: (Units=GPa)
#
#
# Indices 1 2 3 4 5 6 
#
# 1 12.7741 22.3285 14.9397 0.0000 0.0000 0.0000
# 2 22.3285 149.4066 66.2748 0.0000 0.0000 0.0000
# 3 14.9397 66.2748 104.0093 0.0000 0.0000 0.0000
# 4 0.0000 0.0000 0.0000 23.8346 0.0000 0.0000
# 5 0.0000 0.0000 0.0000 0.0000 20.2995 0.0000
# 6 0.0000 0.0000 0.0000 0.0000 0.0000 23.6522
#
#
#
# Elastic Compliance Matrix: (Units=1/GPa)
#
#
# Indices 1 2 3 4 5 6 
#
# 1 0.109921 -0.013137 -0.007418 0.000000 0.000000 0.000000
# 2 -0.013137 0.010900 -0.005059 0.000000 0.000000 0.000000
# 3 -0.007418 -0.005059 0.013904 0.000000 0.000000 0.000000
# 4 0.000000 0.000000 0.000000 0.041956 0.000000 0.000000
# 5 0.000000 0.000000 0.000000 0.000000 0.049262 0.000000
# 6 0.000000 0.000000 0.000000 0.000000 0.000000 0.042279
#
#
# Mechanical properties :
#
#
# Convention : Reuss Voigt Hill
#
# Bulk Modulus (GPa) = 11.97636 52.58622 32.28129
# Shear Modulus (GPa) = 14.39748 24.40040 19.39894
#
# Velocity S-wave (km/s) = 2.73345 3.55849 3.17290
# Velocity P-wave (km/s) = 4.02213 6.64635 5.49325
#
# Compressibility (1/GPa) = 0.08349782
#
# Stress axis : x y z
#
# Youngs Moduli (GPa) = 9.09741 91.73920 71.92428
#
# Poissons Ratio (x) = 1.20518 0.53353
# Poissons Ratio (y) = 0.11951 0.36385
# Poissons Ratio (z) = 0.06748 0.46409
#
# Static dielectric constant tensor:
#      x y z
#    x 3.277490 0.000000 0.000000 
#    y 0.000000 3.699630 0.000000 
#    z 0.000000 0.000000 3.578710 
# 
# 
# High freq. dielectric constant tensor:
#      x y z
#    x 1.721790 0.000000 0.000000 
#    y 0.000000 1.753070 0.000000 
#    z 0.000000 0.000000 1.740870 
# 
# From -- ./inp_files/4177.got.cif
#   From: 2010.03.12/outbox.cif.g09.slc.cpg/sg25_3_cif.got.tgz:4177.got - 2010.04.14 03:30:10.
