data_PCOD8166632
_publ_section_title
;
Structure prediction by ZEFSAII (Michael W. Deem and Ramdas Pophale) SiO2 
 PCOD8166632
Probable space group: P M M 2
;
_chemical_formula_sum "Si O2"
_cell_formula_units_Z 24
_cell_length_a 11.522480
_cell_length_b 7.742781
_cell_length_c 14.290760
_cell_angle_alpha 90.000000
_cell_angle_beta 90.000000
_cell_angle_gamma 90.000000
_cell_volume 1274.965005
_symmetry_space_group_name_H-M "P M M 2"
_symmetry_group_IT_number 25
_symmetry_cell_setting 'orthorhombic'
loop_
_space_group_symop_operation_xyz
x,y,z
-x,-y,z
-x,y,z
x,-y,z
loop_
_atom_site_type_symbol
_atom_site_label
_atom_site_fract_x
_atom_site_fract_y
_atom_site_fract_z
Si Si1 0.133336 0.307674 0.216150
Si Si2 0.500000 0.801574 0.477647
Si Si3 0.735357 0.805049 0.392825
Si Si4 0.862979 0.000000 0.086425
Si Si5 0.138969 0.000000 0.874727
Si Si6 0.869015 0.699362 0.564830
Si Si7 0.500000 0.300740 0.689442
Si Si8 0.747436 0.298964 0.757438
O O1 0.141631 0.500000 0.172822
O O2 0.212986 0.304885 0.308037
O O3 0.180795 0.171749 0.139928
O O4 0.000000 0.263825 0.244044
O O5 0.615236 0.718682 0.430575
O O6 0.500000 0.793012 0.589809
O O7 0.500000 0.000000 0.450176
O O8 0.825397 0.811130 0.478266
O O9 0.717335 0.000000 0.357160
O O10 0.815397 0.000000 0.981231
O O11 0.000000 0.000000 0.082045
O O12 0.189050 0.175255 0.830499
O O13 0.000000 0.000000 0.865697
O O14 0.857257 0.500000 0.536767
O O15 0.794247 0.744077 0.655096
O O16 0.000000 0.751423 0.588424
O O17 0.500000 0.500000 0.661804
O O18 0.610805 0.254114 0.753367
O O19 0.770411 0.500000 0.784718
#
# Coordination Sequence:
#
# PCOD8166632 Si02
#       8
#     4   2   4   2   2   4   2   4
#     4  10  20  36  60  87 114 146 184 230 286 343
#     4  10  22  34  50  78 113 156 198 237 276 320
#     4  11  21  33  51  78 114 152 193 233 271 330
#     4   9  20  40  60  85 114 140 184 237 288 353
#     4  11  24  39  62  89 114 151 191 235 304 363
#     4  10  20  32  47  74 113 151 183 222 276 332
#     4  10  20  36  58  80 113 160 204 242 283 331
#     4  10  22  38  57  85 118 152 196 244 283 341
#
# _framework density 18.824045999999999
#
# number of rings (size 3 to 8) (size 9 to 14) (size 15 to 20)
#    0.000    1.833    2.500    1.500    2.333    4.667 
#    0.000    1.667    0.000    2.000    0.000    0.000 
#    0.000    0.000    0.000    0.000    0.000    0.000 
#
# Total GULP energy -297586.606770 kJ/mol
# GULP energy per Si atom -12399.441949 kJ/mol
# Density = 1.878120 g / cm^3
# Si number density = 18.824046 Si / 1000 Ang^3
#
#
#
# Elastic Constant Matrix: (Units=GPa)
#
#
# Indices 1 2 3 4 5 6 
#
# 1 107.3420 33.6539 42.4249 0.0000 0.0000 0.0000
# 2 33.6539 97.5838 55.5547 0.0000 0.0000 0.0000
# 3 42.4249 55.5547 119.3306 0.0000 0.0000 0.0000
# 4 0.0000 0.0000 0.0000 18.7471 0.0000 0.0000
# 5 0.0000 0.0000 0.0000 0.0000 8.3708 0.0000
# 6 0.0000 0.0000 0.0000 0.0000 0.0000 21.3656
#
#
#
# Elastic Compliance Matrix: (Units=1/GPa)
#
#
# Indices 1 2 3 4 5 6 
#
# 1 0.011165 -0.002164 -0.002962 0.000000 0.000000 0.000000
# 2 -0.002164 0.014363 -0.005917 0.000000 0.000000 0.000000
# 3 -0.002962 -0.005917 0.012188 0.000000 0.000000 0.000000
# 4 0.000000 0.000000 0.000000 0.053341 0.000000 0.000000
# 5 0.000000 0.000000 0.000000 0.000000 0.119464 0.000000
# 6 0.000000 0.000000 0.000000 0.000000 0.000000 0.046804
#
#
# Mechanical properties :
#
#
# Convention : Reuss Voigt Hill
#
# Bulk Modulus (GPa) = 63.98356 65.28040 64.63198
# Shear Modulus (GPa) = 17.56721 22.53823 20.05272
#
# Velocity S-wave (km/s) = 3.05820 3.46397 3.26739
# Velocity P-wave (km/s) = 6.82160 7.12414 6.97451
#
# Compressibility (1/GPa) = 0.01562901
#
# Stress axis : x y z
#
# Youngs Moduli (GPa) = 89.56381 69.62509 82.04913
#
# Poissons Ratio (x) = 0.15069 0.24302
# Poissons Ratio (y) = 0.19385 0.48549
# Poissons Ratio (z) = 0.26528 0.41198
#
# Static dielectric constant tensor:
#      x y z
#    x 3.669830 0.000000 0.000000 
#    y 0.000000 3.484590 0.000000 
#    z 0.000000 0.000000 3.287230 
# 
# 
# High freq. dielectric constant tensor:
#      x y z
#    x 1.728460 0.000000 0.000000 
#    y 0.000000 1.737700 0.000000 
#    z 0.000000 0.000000 1.704450 
# 
# From -- ./inp_files/4577.got.cif
#   From: 2010.03.12/outbox.cif.g09.slc.cpg/sg25_3_cif.got.tgz:4577.got - 2010.04.14 03:30:10.
