data_PCOD8166436
_publ_section_title
;
Structure prediction by ZEFSAII (Michael W. Deem and Ramdas Pophale) SiO2 
 PCOD8166436
Probable space group: P M M 2
;
_chemical_formula_sum "Si O2"
_cell_formula_units_Z 28
_cell_length_a 19.606504
_cell_length_b 9.147396
_cell_length_c 9.437668
_cell_angle_alpha 90.000000
_cell_angle_beta 90.000000
_cell_angle_gamma 90.000000
_cell_volume 1692.631187
_symmetry_space_group_name_H-M "P M M 2"
_symmetry_group_IT_number 25
_symmetry_cell_setting 'orthorhombic'
loop_
_space_group_symop_operation_xyz
x,y,z
-x,-y,z
-x,y,z
x,-y,z
loop_
_atom_site_type_symbol
_atom_site_label
_atom_site_fract_x
_atom_site_fract_y
_atom_site_fract_z
Si Si1 0.575088 0.335858 0.082970
Si Si2 0.185399 0.334334 0.570582
Si Si3 0.294616 0.834155 0.746286
Si Si4 0.814601 0.665666 0.258626
Si Si5 0.294616 0.834155 0.082922
Si Si6 0.424912 0.664142 0.746238
Si Si7 0.920954 0.172483 0.414604
O O1 0.500000 0.284497 0.136581
O O2 0.590211 0.500000 0.137539
O O3 0.633539 0.228636 0.141424
O O4 0.575773 0.334363 0.914604
O O5 0.169905 0.500000 0.619909
O O6 0.232714 0.258986 0.685774
O O7 0.221365 0.333825 0.414604
O O8 0.114118 0.244138 0.555028
O O9 0.366461 0.771364 0.687783
O O10 0.288450 0.000000 0.693058
O O11 0.290953 0.823272 0.914604
O O12 0.830095 0.500000 0.209298
O O13 0.767286 0.741014 0.143434
O O14 0.885882 0.755862 0.274179
O O15 0.288451 0.000000 0.136149
O O16 0.500000 0.715503 0.692627
O O17 0.409788 0.500000 0.691669
O O18 0.000000 0.213073 0.414603
O O19 0.908321 0.000000 0.414604
#
# Coordination Sequence:
#
# PCOD8166436 Si02
#       7
#     4   4   4   4   4   4   4
#     4   8  14  25  41  61  87 121 159 197 236 278
#     4   9  19  32  49  72  95 125 159 192 229 274
#     4  10  19  29  45  70  98 127 158 196 241 282
#     4   9  19  32  49  72  95 125 159 192 229 274
#     4  10  19  29  45  70  98 127 158 196 241 282
#     4   8  14  25  41  61  87 121 159 197 236 278
#     4   9  17  31  53  77  98 121 150 187 229 273
#
# _framework density 16.542292
#
# number of rings (size 3 to 8) (size 9 to 14) (size 15 to 20)
#    0.857    2.143    0.000    2.571    0.000    3.429 
#    0.000    2.857    0.000    1.714    0.000   12.000 
#    0.000    0.000    0.000    0.000    0.000    0.000 
#
# Total GULP energy -346916.298213 kJ/mol
# GULP energy per Si atom -12389.867793 kJ/mol
# Density = 1.650464 g / cm^3
# Si number density = 16.542292 Si / 1000 Ang^3
#
#
#
# Elastic Constant Matrix: (Units=GPa)
#
#
# Indices 1 2 3 4 5 6 
#
# 1 139.6480 82.3979 23.3537 0.0000 0.0000 0.0000
# 2 82.3979 143.1755 22.7189 0.0000 0.0000 0.0000
# 3 23.3537 22.7189 16.4547 0.0000 0.0000 0.0000
# 4 0.0000 0.0000 0.0000 22.3230 0.0000 0.0000
# 5 0.0000 0.0000 0.0000 0.0000 12.6849 0.0000
# 6 0.0000 0.0000 0.0000 0.0000 0.0000 33.9649
#
#
#
# Elastic Compliance Matrix: (Units=1/GPa)
#
#
# Indices 1 2 3 4 5 6 
#
# 1 0.011904 -0.005340 -0.009522 0.000000 0.000000 0.000000
# 2 -0.005340 0.011339 -0.008077 0.000000 0.000000 0.000000
# 3 -0.009522 -0.008077 0.085440 0.000000 0.000000 0.000000
# 4 0.000000 0.000000 0.000000 0.044797 0.000000 0.000000
# 5 0.000000 0.000000 0.000000 0.000000 0.078834 0.000000
# 6 0.000000 0.000000 0.000000 0.000000 0.000000 0.029442
#
#
# Mechanical properties :
#
#
# Convention : Reuss Voigt Hill
#
# Bulk Modulus (GPa) = 15.92247 61.80213 38.86230
# Shear Modulus (GPa) = 15.21742 25.18172 20.19957
#
# Velocity S-wave (km/s) = 3.03629 3.90585 3.49820
# Velocity P-wave (km/s) = 4.68383 7.60145 6.31349
#
# Compressibility (1/GPa) = 0.06280434
#
# Stress axis : x y z
#
# Youngs Moduli (GPa) = 84.00533 88.18962 11.70407
#
# Poissons Ratio (x) = 0.47091 0.11145
# Poissons Ratio (y) = 0.44857 0.09454
# Poissons Ratio (z) = 0.79993 0.71234
#
# Static dielectric constant tensor:
#      x y z
#    x 3.143020 0.000000 0.000000 
#    y 0.000000 3.312170 0.000000 
#    z 0.000000 0.000000 2.631860 
# 
# 
# High freq. dielectric constant tensor:
#      x y z
#    x 1.632990 0.000000 0.000000 
#    y 0.000000 1.652590 0.000000 
#    z 0.000000 0.000000 1.584020 
# 
# From -- ./inp_files/4997.got.cif
#   From: 2010.03.12/outbox.cif.g09.slc.cpg/sg25_3_cif.got.tgz:4997.got - 2010.04.14 03:30:10.
