data_PCOD8166798
_publ_section_title
;
Structure prediction by ZEFSAII (Michael W. Deem and Ramdas Pophale) SiO2 
 PCOD8166798
Probable space group: P M M 2
;
_chemical_formula_sum "Si O2"
_cell_formula_units_Z 24
_cell_length_a 8.934056
_cell_length_b 13.886023
_cell_length_c 10.194778
_cell_angle_alpha 90.000000
_cell_angle_beta 90.000000
_cell_angle_gamma 90.000000
_cell_volume 1264.748939
_symmetry_space_group_name_H-M "P M M 2"
_symmetry_group_IT_number 25
_symmetry_cell_setting 'orthorhombic'
loop_
_space_group_symop_operation_xyz
x,y,z
-x,-y,z
-x,y,z
x,-y,z
loop_
_atom_site_type_symbol
_atom_site_label
_atom_site_fract_x
_atom_site_fract_y
_atom_site_fract_z
Si Si1 0.823958 0.108935 0.347660
Si Si2 0.171891 0.611890 0.203192
Si Si3 0.327009 0.890364 0.072515
Si Si4 0.174372 0.388787 0.682440
Si Si5 0.173338 0.276134 0.940676
Si Si6 0.324094 0.288182 0.441582
O O1 0.767238 0.133443 0.202180
O O2 0.747986 0.181356 0.451112
O O3 0.000000 0.125112 0.349428
O O4 0.780278 0.000000 0.387292
O O5 0.210086 0.500000 0.203976
O O6 0.280034 0.664495 0.304092
O O7 0.000000 0.631054 0.244248
O O8 0.205325 0.650523 0.058498
O O9 0.500000 0.870467 0.103956
O O10 0.301116 0.000000 0.026571
O O11 0.269461 0.821242 0.956803
O O12 0.210349 0.500000 0.710467
O O13 0.225945 0.327772 0.808030
O O14 0.267583 0.354839 0.558173
O O15 0.000000 0.373747 0.652057
O O16 0.000000 0.247313 0.933740
O O17 0.500000 0.277529 0.450900
#
# Coordination Sequence:
#
# PCOD8166798 Si02
#       6
#     4   4   4   4   4   4
#     4  10  20  36  60  87 114 148 192 240 289 342
#     4  10  20  35  57  84 113 146 189 242 291 339
#     4  10  20  34  55  86 122 155 186 228 288 350
#     4  10  22  41  62  83 113 156 201 244 290 341
#     4  10  20  36  60  87 113 148 196 243 288 339
#     4  12  24  37  56  85 119 154 192 236 291 351
#
# _framework density 18.976099000000001
#
# number of rings (size 3 to 8) (size 9 to 14) (size 15 to 20)
#    0.000    1.667    1.667    3.500    0.000    7.333 
#    0.000    0.833    0.000    4.000    0.000    0.000 
#    0.000    0.000    0.000    0.000    0.000    0.000 
#
# Total GULP energy -297710.872220 kJ/mol
# GULP energy per Si atom -12404.619676 kJ/mol
# Density = 1.893291 g / cm^3
# Si number density = 18.976099 Si / 1000 Ang^3
#
#
#
# Elastic Constant Matrix: (Units=GPa)
#
#
# Indices 1 2 3 4 5 6 
#
# 1 86.9662 46.4369 32.4738 0.0000 0.0000 0.0000
# 2 46.4369 115.3623 26.2661 0.0000 0.0000 0.0000
# 3 32.4738 26.2661 62.7068 0.0000 0.0000 0.0000
# 4 0.0000 0.0000 0.0000 35.4143 0.0000 0.0000
# 5 0.0000 0.0000 0.0000 0.0000 3.1832 0.0000
# 6 0.0000 0.0000 0.0000 0.0000 0.0000 24.6599
#
#
#
# Elastic Compliance Matrix: (Units=1/GPa)
#
#
# Indices 1 2 3 4 5 6 
#
# 1 0.016717 -0.005260 -0.006454 0.000000 0.000000 0.000000
# 2 -0.005260 0.011237 -0.001983 0.000000 0.000000 0.000000
# 3 -0.006454 -0.001983 0.020120 0.000000 0.000000 0.000000
# 4 0.000000 0.000000 0.000000 0.028237 0.000000 0.000000
# 5 0.000000 0.000000 0.000000 0.000000 0.314145 0.000000
# 6 0.000000 0.000000 0.000000 0.000000 0.000000 0.040552
#
#
# Mechanical properties :
#
#
# Convention : Reuss Voigt Hill
#
# Bulk Modulus (GPa) = 48.35422 52.82098 50.58760
# Shear Modulus (GPa) = 10.74585 23.30873 17.02729
#
# Velocity S-wave (km/s) = 2.38225 3.50854 2.99875
# Velocity P-wave (km/s) = 5.75359 6.65651 6.22145
#
# Compressibility (1/GPa) = 0.02068072
#
# Stress axis : x y z
#
# Youngs Moduli (GPa) = 59.81844 88.99138 49.70108
#
# Poissons Ratio (x) = 0.46807 0.32078
# Poissons Ratio (y) = 0.31463 0.09856
# Poissons Ratio (z) = 0.38608 0.17647
#
# Static dielectric constant tensor:
#      x y z
#    x 3.454720 0.000000 0.000000 
#    y 0.000000 3.762520 0.000000 
#    z 0.000000 0.000000 3.307450 
# 
# 
# High freq. dielectric constant tensor:
#      x y z
#    x 1.735230 0.000000 0.000000 
#    y 0.000000 1.757100 0.000000 
#    z 0.000000 0.000000 1.717420 
# 
# From -- ./inp_files/1991.got.cif
#   From: 2010.03.12/outbox.cif.g09.slc.cpg/sg25_1_cif.got.tgz:1991.got - 2010.04.14 03:30:10.
