data_PCOD8166100
_publ_section_title
;
Structure prediction by ZEFSAII (Michael W. Deem and Ramdas Pophale) SiO2 
 PCOD8166100
Probable space group: I 21 21 21
;
_chemical_formula_sum "Si O2"
_cell_formula_units_Z 64
_cell_length_a 23.031584
_cell_length_b 9.237421
_cell_length_c 13.577329
_cell_angle_alpha 90.000000
_cell_angle_beta 90.000000
_cell_angle_gamma 90.000000
_cell_volume 2888.609842
_symmetry_space_group_name_H-M "I 21 21 21"
_symmetry_group_IT_number 24
_symmetry_cell_setting 'orthorhombic'
loop_
_space_group_symop_operation_xyz
x,y,z
-x,1/2-y,z
x,-y,1/2-z
1/2-x,y,-z
1/2+x,1/2+y,1/2+z
1/2-x,-y,1/2+z
1/2+x,1/2-y,-z
-x,1/2+y,1/2-z
loop_
_atom_site_type_symbol
_atom_site_label
_atom_site_fract_x
_atom_site_fract_y
_atom_site_fract_z
Si Si1 0.355424 0.219337 0.873773
Si Si2 0.552496 0.652674 0.012559
Si Si3 0.314563 0.543587 0.489126
Si Si4 0.328586 0.759751 0.101634
Si Si5 0.742825 0.544949 0.390906
Si Si6 0.556039 0.664286 0.782256
Si Si7 0.055001 0.842114 0.542226
Si Si8 0.852855 0.244545 0.820886
O O1 0.303654 0.103933 0.845413
O O2 0.389058 0.237321 0.771378
O O3 0.341963 0.383747 0.912150
O O4 0.394729 0.150454 0.959479
O O5 0.500000 0.750000 0.052323
O O6 0.564777 0.680148 0.898110
O O7 0.613740 0.661062 0.067140
O O8 0.527056 0.499139 0.043259
O O9 0.250000 0.596869 0.500000
O O10 0.317659 0.369415 0.477640
O O11 0.340169 0.607793 0.389144
O O12 0.344613 0.694675 0.208676
O O13 0.273029 0.871612 0.107942
O O14 0.750000 0.605243 0.500000
O O15 0.690024 0.620429 0.335976
O O16 0.500000 0.750000 0.745472
O O17 0.548666 0.500000 0.750000
O O18 0.082168 0.796562 0.648345
O O19 0.000000 0.750000 0.510120
#
# Coordination Sequence:
#
# PCOD8166100 Si02
#       8
#     8   8   8   8   8   8   8   8
#     4  11  22  43  75  99 139 190 245 291 369 441
#     4  11  26  45  65 104 145 181 238 307 360 417
#     4  11  23  47  68  98 142 184 228 286 361 434
#     4  12  27  44  70 105 144 185 234 304 358 425
#     4  12  21  45  71 100 141 185 235 297 354 432
#     4  11  25  44  71 103 142 186 246 303 361 441
#     4  11  23  42  73  99 133 193 240 286 362 433
#     4  11  23  46  71 100 143 184 234 292 356 434
#
# _framework density 22.155988000000001
#
# number of rings (size 3 to 8) (size 9 to 14) (size 15 to 20)
#    0.000    0.750    6.250    1.500    3.500    2.500 
#    2.250    0.000    0.000    0.000    0.000    0.000 
#    0.000    0.000    0.000    0.000    0.000    0.000 
#
# Total GULP energy -396445.141218 kJ/mol
# GULP energy per Si atom -12388.910663 kJ/mol
# Density = 2.210556 g / cm^3
# Si number density = 22.155988 Si / 1000 Ang^3
#
#
#
# Elastic Constant Matrix: (Units=GPa)
#
#
# Indices 1 2 3 4 5 6 
#
# 1 125.5849 50.7370 31.2039 0.0000 0.0000 0.0000
# 2 50.7370 141.1138 14.5761 0.0000 0.0000 0.0000
# 3 31.2039 14.5761 71.4681 0.0000 0.0000 0.0000
# 4 0.0000 0.0000 0.0000 16.7987 0.0000 0.0000
# 5 0.0000 0.0000 0.0000 0.0000 17.9991 0.0000
# 6 0.0000 0.0000 0.0000 0.0000 0.0000 31.4208
#
#
#
# Elastic Compliance Matrix: (Units=1/GPa)
#
#
# Indices 1 2 3 4 5 6 
#
# 1 0.010235 -0.003288 -0.003798 0.000000 0.000000 0.000000
# 2 -0.003288 0.008295 -0.000256 0.000000 0.000000 0.000000
# 3 -0.003798 -0.000256 0.015703 0.000000 0.000000 0.000000
# 4 0.000000 0.000000 0.000000 0.059528 0.000000 0.000000
# 5 0.000000 0.000000 0.000000 0.000000 0.055558 0.000000
# 6 0.000000 0.000000 0.000000 0.000000 0.000000 0.031826
#
#
# Mechanical properties :
#
#
# Convention : Reuss Voigt Hill
#
# Bulk Modulus (GPa) = 51.15495 59.02231 55.08863
# Shear Modulus (GPa) = 24.71021 29.35370 27.03195
#
# Velocity S-wave (km/s) = 3.34321 3.64382 3.49675
# Velocity P-wave (km/s) = 6.16777 6.66337 6.42035
#
# Compressibility (1/GPa) = 0.01954845
#
# Stress axis : x y z
#
# Youngs Moduli (GPa) = 97.70763 120.55485 63.68280
#
# Poissons Ratio (x) = 0.39633 0.24187
# Poissons Ratio (y) = 0.32121 0.01633
# Poissons Ratio (z) = 0.37110 0.03091
#
# Static dielectric constant tensor:
#      x y z
#    x 4.145050 0.000000 0.000000 
#    y 0.000000 3.998600 0.000000 
#    z 0.000000 0.000000 4.136300 
# 
# 
# High freq. dielectric constant tensor:
#      x y z
#    x 1.874820 0.000000 0.000000 
#    y 0.000000 1.876040 0.000000 
#    z 0.000000 0.000000 1.864340 
# 
# From -- ./inp_files/27889.got.cif
#   From: 2010.03.12/outbox.cif.g09.slc.cpg/sg24_14_cif.got.tgz:27889.got - 2010.04.14 03:06:53.
