data_PCOD8166152
_publ_section_title
;
Structure prediction by ZEFSAII (Michael W. Deem and Ramdas Pophale) SiO2 
 PCOD8166152
Probable space group: I 21 21 21
;
_chemical_formula_sum "Si O2"
_cell_formula_units_Z 36
_cell_length_a 13.637155
_cell_length_b 5.072882
_cell_length_c 22.434022
_cell_angle_alpha 90.000000
_cell_angle_beta 90.000000
_cell_angle_gamma 90.000000
_cell_volume 1551.978421
_symmetry_space_group_name_H-M "I 21 21 21"
_symmetry_group_IT_number 24
_symmetry_cell_setting 'orthorhombic'
loop_
_space_group_symop_operation_xyz
x,y,z
-x,1/2-y,z
x,-y,1/2-z
1/2-x,y,-z
1/2+x,1/2+y,1/2+z
1/2-x,-y,1/2+z
1/2+x,1/2-y,-z
-x,1/2+y,1/2-z
loop_
_atom_site_type_symbol
_atom_site_label
_atom_site_fract_x
_atom_site_fract_y
_atom_site_fract_z
Si Si1 0.169007 0.979684 0.948626
Si Si2 0.090116 0.556130 0.378315
Si Si3 0.429243 0.500000 0.250000
Si Si4 0.307557 0.541489 0.372135
Si Si5 0.500000 0.750000 0.981036
Si Si6 0.000000 0.250000 0.286195
O O1 0.197945 0.743377 0.903686
O O2 0.139490 0.244446 0.913182
O O3 0.250000 0.024380 0.000000
O O4 0.065392 0.933520 0.978706
O O5 0.198213 0.675204 0.371071
O O6 0.090999 0.327613 0.328259
O O7 0.000000 0.750000 0.362727
O O8 0.073174 0.432649 0.442965
O O9 0.500000 0.250000 0.256442
O O10 0.359141 0.522278 0.307834
O O11 0.961317 0.500000 0.250000
#
# Coordination Sequence:
#
# PCOD8166152 Si02
#       6
#     8   8   4   8   4   4
#     4  12  26  48  75 115 154 198 255 310 395 467
#     4  11  25  47  73 114 155 191 247 318 395 470
#     4  12  30  58  78 110 154 210 276 326 364 448
#     4  12  29  49  78 111 153 204 262 319 385 455
#     4  11  26  44  74 108 158 196 241 320 384 474
#     4  11  24  42  68 104 148 190 251 294 386 458
#
# _framework density 23.196197999999999
#
# number of rings (size 3 to 8) (size 9 to 14) (size 15 to 20)
#    0.000    0.444    3.333    3.333   12.444    0.000 
#    2.000    0.000    0.000    0.000    0.000    0.000 
#    0.000    0.000    0.000    0.000    0.000    0.000 
#
# Total GULP energy -223091.601117 kJ/mol
# GULP energy per Si atom -12393.977840 kJ/mol
# Density = 2.314340 g / cm^3
# Si number density = 23.196198 Si / 1000 Ang^3
#
#
#
# Elastic Constant Matrix: (Units=GPa)
#
#
# Indices 1 2 3 4 5 6 
#
# 1 145.2445 28.1977 66.4103 0.0000 0.0000 0.0000
# 2 28.1977 118.6674 56.9174 0.0000 0.0000 0.0000
# 3 66.4103 56.9174 176.0530 0.0000 0.0000 0.0000
# 4 0.0000 0.0000 0.0000 66.3577 0.0000 0.0000
# 5 0.0000 0.0000 0.0000 0.0000 33.7968 0.0000
# 6 0.0000 0.0000 0.0000 0.0000 0.0000 33.7181
#
#
#
# Elastic Compliance Matrix: (Units=1/GPa)
#
#
# Indices 1 2 3 4 5 6 
#
# 1 0.008351 -0.000560 -0.002969 0.000000 0.000000 0.000000
# 2 -0.000560 0.010011 -0.003025 0.000000 0.000000 0.000000
# 3 -0.002969 -0.003025 0.007778 0.000000 0.000000 0.000000
# 4 0.000000 0.000000 0.000000 0.015070 0.000000 0.000000
# 5 0.000000 0.000000 0.000000 0.000000 0.029589 0.000000
# 6 0.000000 0.000000 0.000000 0.000000 0.000000 0.029658
#
#
# Mechanical properties :
#
#
# Convention : Reuss Voigt Hill
#
# Bulk Modulus (GPa) = 76.73857 82.55731 79.64794
# Shear Modulus (GPa) = 42.40538 46.00381 44.20459
#
# Velocity S-wave (km/s) = 4.28029 4.45820 4.37015
# Velocity P-wave (km/s) = 7.58828 7.88472 7.73792
#
# Compressibility (1/GPa) = 0.01303126
#
# Stress axis : x y z
#
# Youngs Moduli (GPa) = 119.74197 99.88959 128.56553
#
# Poissons Ratio (x) = 0.05597 0.38172
# Poissons Ratio (y) = 0.06710 0.38893
# Poissons Ratio (z) = 0.35553 0.30218
#
# Static dielectric constant tensor:
#      x y z
#    x 4.059370 0.000000 0.000000 
#    y 0.000000 4.497250 0.000000 
#    z 0.000000 0.000000 4.517100 
# 
# 
# High freq. dielectric constant tensor:
#      x y z
#    x 1.914550 0.000000 0.000000 
#    y 0.000000 1.929420 0.000000 
#    z 0.000000 0.000000 1.937510 
# 
# From -- ./inp_files/5397.got.cif
#   From: 2010.03.12/outbox.cif.g09.slc.cpg/sg24_3_cif.got.tgz:5397.got - 2010.04.14 03:06:53.
