data_PCOD8166118
_publ_section_title
;
Structure prediction by ZEFSAII (Michael W. Deem and Ramdas Pophale) SiO2 
 PCOD8166118
Probable space group: I 21 21 21
;
_chemical_formula_sum "Si O2"
_cell_formula_units_Z 32
_cell_length_a 16.244936
_cell_length_b 18.842986
_cell_length_c 4.900292
_cell_angle_alpha 90.000000
_cell_angle_beta 90.000000
_cell_angle_gamma 90.000000
_cell_volume 1499.994580
_symmetry_space_group_name_H-M "I 21 21 21"
_symmetry_group_IT_number 24
_symmetry_cell_setting 'orthorhombic'
loop_
_space_group_symop_operation_xyz
x,y,z
-x,1/2-y,z
x,-y,1/2-z
1/2-x,y,-z
1/2+x,1/2+y,1/2+z
1/2-x,-y,1/2+z
1/2+x,1/2-y,-z
-x,1/2+y,1/2-z
loop_
_atom_site_type_symbol
_atom_site_label
_atom_site_fract_x
_atom_site_fract_y
_atom_site_fract_z
Si Si1 0.440483 0.814037 0.583785
Si Si2 0.457703 0.546212 0.484560
Si Si3 0.839626 0.278532 0.595275
Si Si4 0.304062 0.376759 0.257669
O O1 0.500000 0.750000 0.494109
O O2 0.486975 0.888240 0.571853
O O3 0.361371 0.813714 0.385221
O O4 0.409900 0.803897 0.889704
O O5 0.503925 0.500000 0.250000
O O6 0.372680 0.569493 0.343617
O O7 0.437511 0.500000 0.750000
O O8 0.750000 0.305033 0.500000
O O9 0.844185 0.193339 0.610666
O O10 0.250000 0.413366 0.500000
O O11 0.250000 0.352198 0.000000
#
# Coordination Sequence:
#
# PCOD8166118 Si02
#       4
#     8   8   8   8
#     4  12  24  42  71  98 130 177 227 277 327 387
#     4  12  27  44  66  98 141 183 223 269 334 400
#     4  11  23  40  70 102 132 164 223 285 336 381
#     4  11  23  41  67  99 138 178 220 265 330 411
#
# _framework density 21.333411999999999
#
# number of rings (size 3 to 8) (size 9 to 14) (size 15 to 20)
#    0.000    0.500    2.500    7.500    3.500    2.000 
#    0.000    0.000    0.000   15.000    0.000    0.000 
#    0.000    0.000    0.000    0.000    0.000    0.000 
#
# Total GULP energy -198480.553607 kJ/mol
# GULP energy per Si atom -12405.034600 kJ/mol
# Density = 2.128486 g / cm^3
# Si number density = 21.333412 Si / 1000 Ang^3
#
#
#
# Elastic Constant Matrix: (Units=GPa)
#
#
# Indices 1 2 3 4 5 6 
#
# 1 85.2392 52.0383 28.0940 0.0000 0.0000 0.0000
# 2 52.0383 124.7303 43.2295 0.0000 0.0000 0.0000
# 3 28.0940 43.2295 122.9441 0.0000 0.0000 0.0000
# 4 0.0000 0.0000 0.0000 44.7139 0.0000 0.0000
# 5 0.0000 0.0000 0.0000 0.0000 43.8028 0.0000
# 6 0.0000 0.0000 0.0000 0.0000 0.0000 10.9556
#
#
#
# Elastic Compliance Matrix: (Units=1/GPa)
#
#
# Indices 1 2 3 4 5 6 
#
# 1 0.015977 -0.006150 -0.001488 0.000000 0.000000 0.000000
# 2 -0.006150 0.011497 -0.002637 0.000000 0.000000 0.000000
# 3 -0.001488 -0.002637 0.009401 0.000000 0.000000 0.000000
# 4 0.000000 0.000000 0.000000 0.022364 0.000000 0.000000
# 5 0.000000 0.000000 0.000000 0.000000 0.022830 0.000000
# 6 0.000000 0.000000 0.000000 0.000000 0.000000 0.091277
#
#
# Mechanical properties :
#
#
# Convention : Reuss Voigt Hill
#
# Bulk Modulus (GPa) = 61.25961 64.40414 62.83187
# Shear Modulus (GPa) = 25.08295 33.86459 29.47377
#
# Velocity S-wave (km/s) = 3.43265 3.98854 3.72099
# Velocity P-wave (km/s) = 6.66997 7.17399 6.92656
#
# Compressibility (1/GPa) = 0.01632397
#
# Stress axis : x y z
#
# Youngs Moduli (GPa) = 62.59139 86.97888 106.36894
#
# Poissons Ratio (x) = 0.53489 0.15833
# Poissons Ratio (y) = 0.38492 0.28053
# Poissons Ratio (z) = 0.09317 0.22939
#
# Static dielectric constant tensor:
#      x y z
#    x 3.853770 0.000000 0.000000 
#    y 0.000000 3.722900 0.000000 
#    z 0.000000 0.000000 4.249610 
# 
# 
# High freq. dielectric constant tensor:
#      x y z
#    x 1.828540 0.000000 0.000000 
#    y 0.000000 1.821690 0.000000 
#    z 0.000000 0.000000 1.868250 
# 
# From -- ./inp_files/3048.got.cif
#   From: 2010.03.12/outbox.cif.g09.slc.cpg/sg24_2_cif.got.tgz:3048.got - 2010.04.14 03:06:53.
