data_PCOD8166421
_publ_section_title
;
Structure prediction by ZEFSAII (Michael W. Deem and Ramdas Pophale) SiO2 
 PCOD8166421
Probable space group: P M M 2
;
_chemical_formula_sum "Si O2"
_cell_formula_units_Z 32
_cell_length_a 9.160015
_cell_length_b 15.408734
_cell_length_c 15.205526
_cell_angle_alpha 90.000000
_cell_angle_beta 90.000000
_cell_angle_gamma 90.000000
_cell_volume 2146.172329
_symmetry_space_group_name_H-M "P M M 2"
_symmetry_group_IT_number 25
_symmetry_cell_setting 'orthorhombic'
loop_
_space_group_symop_operation_xyz
x,y,z
-x,-y,z
-x,y,z
x,-y,z
loop_
_atom_site_type_symbol
_atom_site_label
_atom_site_fract_x
_atom_site_fract_y
_atom_site_fract_z
Si Si1 0.330971 0.400715 0.539530
Si Si2 0.836489 0.095449 0.677676
Si Si3 0.835667 0.396740 0.367133
Si Si4 0.169688 0.399899 0.026801
Si Si5 0.174376 0.275272 0.872141
Si Si6 0.335268 0.603429 0.198573
Si Si7 0.836984 0.909052 0.886545
Si Si8 0.671279 0.735483 0.689316
O O1 0.500000 0.393895 0.513829
O O2 0.288607 0.500000 0.562741
O O3 0.240869 0.365240 0.456393
O O4 0.291953 0.341622 0.622407
O O5 0.841054 0.094527 0.782016
O O6 0.730437 0.173780 0.648208
O O7 0.000000 0.112824 0.641309
O O8 0.781582 0.000000 0.644069
O O9 0.834202 0.500000 0.362935
O O10 0.749468 0.358743 0.283094
O O11 0.000000 0.360397 0.364871
O O12 0.205897 0.500000 0.009598
O O13 0.257828 0.362948 0.109988
O O14 0.000000 0.384998 0.046993
O O15 0.220012 0.350263 0.939208
O O16 0.232098 0.183336 0.915221
O O17 0.251346 0.292564 0.779570
O O18 0.000000 0.271376 0.856594
O O19 0.500000 0.638803 0.200462
O O20 0.331629 0.500000 0.200561
O O21 0.000000 0.914339 0.924668
O O22 0.755686 0.000000 0.915988
O O23 0.500000 0.745741 0.706191
#
# Coordination Sequence:
#
# PCOD8166421 Si02
#       8
#     4   4   4   4   4   4   4   4
#     4   9  18  31  42  54  79 114 145 170 200 240
#     4   8  14  26  43  59  76 101 131 164 206 252
#     4   9  16  26  42  62  79  97 127 168 208 242
#     4   9  17  28  40  55  77 105 137 171 201 231
#     4   9  17  28  40  54  76 107 139 169 201 237
#     4   9  16  26  41  59  78 101 127 158 201 249
#     4   7  10  19  36  54  69  89 121 158 194 232
#     4  10  19  28  40  59  82 109 141 176 207 236
#
# _framework density 14.910266
#
# number of rings (size 3 to 8) (size 9 to 14) (size 15 to 20)
#    0.000    3.250    0.000    2.625    0.000    5.250 
#    0.000    0.000    0.000    0.000    0.000    0.000 
#    0.000    1.000    0.000    5.250    0.000    3.125 
#
# Total GULP energy -396453.256005 kJ/mol
# GULP energy per Si atom -12389.164250 kJ/mol
# Density = 1.487633 g / cm^3
# Si number density = 14.910266 Si / 1000 Ang^3
#
#
#
# Elastic Constant Matrix: (Units=GPa)
#
#
# Indices 1 2 3 4 5 6 
#
# 1 76.3434 38.5040 54.1933 0.0000 0.0000 0.0000
# 2 38.5040 79.3460 51.3195 0.0000 0.0000 0.0000
# 3 54.1933 51.3195 94.4917 0.0000 0.0000 0.0000
# 4 0.0000 0.0000 0.0000 0.8952 0.0000 0.0000
# 5 0.0000 0.0000 0.0000 0.0000 24.6244 0.0000
# 6 0.0000 0.0000 0.0000 0.0000 0.0000 16.1167
#
#
#
# Elastic Compliance Matrix: (Units=1/GPa)
#
#
# Indices 1 2 3 4 5 6 
#
# 1 0.022902 -0.004036 -0.010943 0.000000 0.000000 0.000000
# 2 -0.004036 0.020139 -0.008623 0.000000 0.000000 0.000000
# 3 -0.010943 -0.008623 0.021542 0.000000 0.000000 0.000000
# 4 0.000000 0.000000 0.000000 1.117068 0.000000 0.000000
# 5 0.000000 0.000000 0.000000 0.000000 0.040610 0.000000
# 6 0.000000 0.000000 0.000000 0.000000 0.000000 0.062047
#
#
# Mechanical properties :
#
#
# Convention : Reuss Voigt Hill
#
# Bulk Modulus (GPa) = 57.53908 59.80164 58.67036
# Shear Modulus (GPa) = 3.73886 15.40489 9.57188
#
# Velocity S-wave (km/s) = 1.58525 3.21779 2.53645
# Velocity P-wave (km/s) = 6.48265 7.34849 6.92911
#
# Compressibility (1/GPa) = 0.01737949
#
# Stress axis : x y z
#
# Youngs Moduli (GPa) = 43.66370 49.65586 46.42053
#
# Poissons Ratio (x) = 0.20041 0.50798
# Poissons Ratio (y) = 0.17622 0.40027
# Poissons Ratio (z) = 0.47781 0.42817
#
# Static dielectric constant tensor:
#      x y z
#    x 2.888620 0.000000 0.000000 
#    y 0.000000 3.185170 0.000000 
#    z 0.000000 0.000000 2.691520 
# 
# 
# High freq. dielectric constant tensor:
#      x y z
#    x 1.565210 0.000000 0.000000 
#    y 0.000000 1.550250 0.000000 
#    z 0.000000 0.000000 1.541480 
# 
# From -- ./inp_files/5750.got.cif
#   From: 2010.03.12/outbox.cif.g09.slc.cpg/sg25_3_cif.got.tgz:5750.got - 2010.04.14 03:30:10.
