data_PCOD8166516
_publ_section_title
;
Structure prediction by ZEFSAII (Michael W. Deem and Ramdas Pophale) SiO2 
 PCOD8166516
Probable space group: P M M 2
;
_chemical_formula_sum "Si O2"
_cell_formula_units_Z 32
_cell_length_a 8.945273
_cell_length_b 14.463074
_cell_length_c 12.492651
_cell_angle_alpha 90.000000
_cell_angle_beta 90.000000
_cell_angle_gamma 90.000000
_cell_volume 1616.251032
_symmetry_space_group_name_H-M "P M M 2"
_symmetry_group_IT_number 25
_symmetry_cell_setting 'orthorhombic'
loop_
_space_group_symop_operation_xyz
x,y,z
-x,-y,z
-x,y,z
x,-y,z
loop_
_atom_site_type_symbol
_atom_site_label
_atom_site_fract_x
_atom_site_fract_y
_atom_site_fract_z
Si Si1 0.322261 0.104882 0.702640
Si Si2 0.172554 0.396647 0.418925
Si Si3 0.676691 0.222607 0.500915
Si Si4 0.677239 0.219845 0.906580
Si Si5 0.172235 0.602304 0.978665
Si Si6 0.665981 0.156985 0.136029
Si Si7 0.331987 0.635571 0.197445
Si Si8 0.831826 0.897286 0.329401
O O1 0.500000 0.100605 0.701407
O O2 0.263156 0.163826 0.601846
O O3 0.265447 0.157224 0.808784
O O4 0.257745 0.000000 0.699269
O O5 0.190102 0.500000 0.467232
O O6 0.250906 0.324532 0.500039
O O7 0.246047 0.396005 0.302544
O O8 0.000000 0.368838 0.407097
O O9 0.500000 0.234479 0.504465
O O10 0.721349 0.168470 0.394095
O O11 0.500000 0.234985 0.904924
O O12 0.750730 0.321627 0.901950
O O13 0.726209 0.166957 0.014877
O O14 0.188104 0.500000 0.925978
O O15 0.000000 0.629987 0.993428
O O16 0.247718 0.596963 0.094451
O O17 0.500000 0.112505 0.134744
O O18 0.661618 0.254839 0.194436
O O19 0.778205 0.095139 0.205835
O O20 0.500000 0.595007 0.199769
O O21 0.000000 0.857456 0.333940
O O22 0.826242 0.000000 0.378761
#
# Coordination Sequence:
#
# PCOD8166516 Si02
#       8
#     4   4   4   4   4   4   4   4
#     4   9  19  38  64  90 112 140 186 244 298 346
#     4  11  23  37  55  81 115 155 193 232 285 345
#     4  11  22  38  61  86 113 147 191 242 292 344
#     4   9  19  36  59  85 112 144 188 240 291 340
#     4  10  20  33  51  79 117 159 196 230 277 336
#     4   9  18  32  52  81 114 148 184 227 283 340
#     4  10  19  32  53  82 114 151 194 238 280 330
#     4  11  23  36  53  80 115 154 190 229 284 346
#
# _framework density 19.798905000000001
#
# number of rings (size 3 to 8) (size 9 to 14) (size 15 to 20)
#    0.000    2.000    1.250    3.375    0.000    7.500 
#    0.000    3.125    0.000    5.625    0.000    0.000 
#    0.000    0.000    0.000    0.000    0.000    0.000 
#
# Total GULP energy -396748.895387 kJ/mol
# GULP energy per Si atom -12398.402981 kJ/mol
# Density = 1.975384 g / cm^3
# Si number density = 19.798905 Si / 1000 Ang^3
#
#
#
# Elastic Constant Matrix: (Units=GPa)
#
#
# Indices 1 2 3 4 5 6 
#
# 1 92.6284 45.1766 35.8012 0.0000 0.0000 0.0000
# 2 45.1766 134.9569 63.8329 0.0000 0.0000 0.0000
# 3 35.8012 63.8329 112.5816 0.0000 0.0000 0.0000
# 4 0.0000 0.0000 0.0000 17.0439 0.0000 0.0000
# 5 0.0000 0.0000 0.0000 0.0000 10.2019 0.0000
# 6 0.0000 0.0000 0.0000 0.0000 0.0000 24.2216
#
#
#
# Elastic Compliance Matrix: (Units=1/GPa)
#
#
# Indices 1 2 3 4 5 6 
#
# 1 0.013337 -0.003360 -0.002336 0.000000 0.000000 0.000000
# 2 -0.003360 0.010971 -0.005152 0.000000 0.000000 0.000000
# 3 -0.002336 -0.005152 0.012547 0.000000 0.000000 0.000000
# 4 0.000000 0.000000 0.000000 0.058672 0.000000 0.000000
# 5 0.000000 0.000000 0.000000 0.000000 0.098021 0.000000
# 6 0.000000 0.000000 0.000000 0.000000 0.000000 0.041285
#
#
# Mechanical properties :
#
#
# Convention : Reuss Voigt Hill
#
# Bulk Modulus (GPa) = 65.96819 69.97647 67.97233
# Shear Modulus (GPa) = 19.11433 23.31722 21.21577
#
# Velocity S-wave (km/s) = 3.11050 3.43549 3.27703
# Velocity P-wave (km/s) = 6.80380 7.15242 6.98029
#
# Compressibility (1/GPa) = 0.01515882
#
# Stress axis : x y z
#
# Youngs Moduli (GPa) = 74.97712 91.14635 79.70173
#
# Poissons Ratio (x) = 0.30621 0.18622
# Poissons Ratio (y) = 0.25189 0.41065
# Poissons Ratio (z) = 0.17518 0.46962
#
# Static dielectric constant tensor:
#      x y z
#    x 3.530260 0.000000 0.000000 
#    y 0.000000 3.784080 0.000000 
#    z 0.000000 0.000000 3.490060 
# 
# 
# High freq. dielectric constant tensor:
#      x y z
#    x 1.763140 0.000000 0.000000 
#    y 0.000000 1.782560 0.000000 
#    z 0.000000 0.000000 1.748300 
# 
# From -- ./inp_files/4291.got.cif
#   From: 2010.03.12/outbox.cif.g09.slc.cpg/sg25_3_cif.got.tgz:4291.got - 2010.04.14 03:30:10.
