data_PCOD8166297
_publ_section_title
;
Structure prediction by ZEFSAII (Michael W. Deem and Ramdas Pophale) SiO2 
 PCOD8166297
Probable space group: I 21 21 21
;
_chemical_formula_sum "Si O2"
_cell_formula_units_Z 48
_cell_length_a 8.846098
_cell_length_b 15.467534
_cell_length_c 18.706006
_cell_angle_alpha 90.000000
_cell_angle_beta 90.000000
_cell_angle_gamma 90.000000
_cell_volume 2559.492698
_symmetry_space_group_name_H-M "I 21 21 21"
_symmetry_group_IT_number 24
_symmetry_cell_setting 'orthorhombic'
loop_
_space_group_symop_operation_xyz
x,y,z
-x,1/2-y,z
x,-y,1/2-z
1/2-x,y,-z
1/2+x,1/2+y,1/2+z
1/2-x,-y,1/2+z
1/2+x,1/2-y,-z
-x,1/2+y,1/2-z
loop_
_atom_site_type_symbol
_atom_site_label
_atom_site_fract_x
_atom_site_fract_y
_atom_site_fract_z
Si Si1 0.941390 0.342384 0.690103
Si Si2 0.435492 0.839421 0.351466
Si Si3 0.575484 0.510060 0.922794
Si Si4 0.076580 0.837236 0.354964
Si Si5 0.120967 0.090444 0.286032
Si Si6 0.563654 0.515510 0.080495
O O1 0.999284 0.356076 0.771271
O O2 0.759672 0.348537 0.690323
O O3 0.006278 0.415445 0.636013
O O4 0.000000 0.250000 0.661232
O O5 0.500000 0.750000 0.383182
O O6 0.256128 0.830037 0.352139
O O7 0.492772 0.919320 0.399501
O O8 0.525161 0.411012 0.910386
O O9 0.518065 0.569990 0.856468
O O10 0.756009 0.516687 0.917674
O O11 0.510460 0.539285 0.999564
O O12 0.021041 0.860716 0.274008
O O13 0.000000 0.750000 0.381953
O O14 0.182704 0.000000 0.250000
#
# Coordination Sequence:
#
# PCOD8166297 Si02
#       6
#     8   8   8   8   8   8
#     4   9  15  24  41  63  86 109 141 181 217 251
#     4   9  17  28  44  67  90 114 144 176 217 264
#     4   8  15  26  43  63  83 110 147 182 215 254
#     4   9  16  27  45  67  87 109 143 184 217 253
#     4   8  14  27  44  61  83 112 144 179 216 259
#     4   9  15  26  43  64  87 112 144 183 216 253
#
# _framework density 18.753717000000002
#
# number of rings (size 3 to 8) (size 9 to 14) (size 15 to 20)
#    0.000    3.333    0.000    3.500    0.000    0.667 
#    0.000    0.833    0.000   18.000    0.000    0.000 
#    0.000    0.000    0.000    0.000    0.000    0.000 
#
# Total GULP energy -297328.194349 kJ/mol
# GULP energy per Si atom -12388.674765 kJ/mol
# Density = 1.871103 g / cm^3
# Si number density = 18.753717 Si / 1000 Ang^3
#
#
#
# Elastic Constant Matrix: (Units=GPa)
#
#
# Indices 1 2 3 4 5 6 
#
# 1 10.5577 16.5047 9.0689 0.0000 0.0000 0.0000
# 2 16.5047 91.0773 26.2356 0.0000 0.0000 0.0000
# 3 9.0689 26.2356 97.1056 0.0000 0.0000 0.0000
# 4 0.0000 0.0000 0.0000 22.7825 0.0000 0.0000
# 5 0.0000 0.0000 0.0000 0.0000 9.5282 0.0000
# 6 0.0000 0.0000 0.0000 0.0000 0.0000 26.7357
#
#
#
# Elastic Compliance Matrix: (Units=1/GPa)
#
#
# Indices 1 2 3 4 5 6 
#
# 1 0.135889 -0.022739 -0.006547 0.000000 0.000000 0.000000
# 2 -0.022739 0.015711 -0.002121 0.000000 0.000000 0.000000
# 3 -0.006547 -0.002121 0.011483 0.000000 0.000000 0.000000
# 4 0.000000 0.000000 0.000000 0.043893 0.000000 0.000000
# 5 0.000000 0.000000 0.000000 0.000000 0.104952 0.000000
# 6 0.000000 0.000000 0.000000 0.000000 0.000000 0.037403
#
#
# Mechanical properties :
#
#
# Convention : Reuss Voigt Hill
#
# Bulk Modulus (GPa) = 9.97332 33.59546 21.78439
# Shear Modulus (GPa) = 11.22157 21.60469 16.41313
#
# Velocity S-wave (km/s) = 2.44880 3.39783 2.96158
# Velocity P-wave (km/s) = 3.65036 5.77465 4.83072
#
# Compressibility (1/GPa) = 0.10026752
#
# Stress axis : x y z
#
# Youngs Moduli (GPa) = 7.35894 63.64780 87.08803
#
# Poissons Ratio (x) = 1.44731 0.57019
# Poissons Ratio (y) = 0.16734 0.18473
# Poissons Ratio (z) = 0.04818 0.13501
#
# Static dielectric constant tensor:
#      x y z
#    x 2.717610 0.000000 0.000000 
#    y 0.000000 3.536280 0.000000 
#    z 0.000000 0.000000 3.890330 
# 
# 
# High freq. dielectric constant tensor:
#      x y z
#    x 1.648770 0.000000 0.000000 
#    y 0.000000 1.725950 0.000000 
#    z 0.000000 0.000000 1.738370 
# 
# From -- ./inp_files/21597.got.cif
#   From: 2010.03.12/outbox.cif.g09.slc.cpg/sg24_11_cif.got.tgz:21597.got - 2010.04.14 03:06:53.
