data_PCOD8166743
_publ_section_title
;
Structure prediction by ZEFSAII (Michael W. Deem and Ramdas Pophale) SiO2 
 PCOD8166743
Probable space group: P M M 2
;
_chemical_formula_sum "Si O2"
_cell_formula_units_Z 24
_cell_length_a 7.588020
_cell_length_b 13.425846
_cell_length_c 12.634152
_cell_angle_alpha 90.000000
_cell_angle_beta 90.000000
_cell_angle_gamma 90.000000
_cell_volume 1287.111663
_symmetry_space_group_name_H-M "P M M 2"
_symmetry_group_IT_number 25
_symmetry_cell_setting 'orthorhombic'
loop_
_space_group_symop_operation_xyz
x,y,z
-x,-y,z
-x,y,z
x,-y,z
loop_
_atom_site_type_symbol
_atom_site_label
_atom_site_fract_x
_atom_site_fract_y
_atom_site_fract_z
Si Si1 0.000000 0.616371 0.392421
Si Si2 0.000000 0.383377 0.641739
Si Si3 0.707730 0.109385 0.519594
Si Si4 0.707889 0.888595 0.913773
Si Si5 0.799242 0.112339 0.147133
Si Si6 0.301032 0.245798 0.331423
Si Si7 0.708068 0.242098 0.716400
O O1 0.000000 0.641180 0.517056
O O2 0.173985 0.658881 0.334350
O O3 0.000000 0.500000 0.371332
O O4 0.823299 0.340650 0.696885
O O5 0.000000 0.500000 0.663262
O O6 0.500000 0.099090 0.512502
O O7 0.776540 0.169707 0.418384
O O8 0.762410 0.163822 0.626655
O O9 0.795332 0.000000 0.518687
O O10 0.500000 0.891175 0.922024
O O11 0.766426 0.808694 0.826257
O O12 0.777291 0.000000 0.885028
O O13 0.786475 0.853264 0.025470
O O14 0.693336 0.190472 0.218516
O O15 0.000000 0.114510 0.184602
O O16 0.721259 0.000000 0.159492
O O17 0.500000 0.280987 0.358581
O O18 0.500000 0.269297 0.713234
#
# Coordination Sequence:
#
# PCOD8166743 Si02
#       7
#     2   2   4   4   4   4   4
#     4  11  24  42  59  82 113 141 186 244 292 344
#     4  11  24  40  59  82 109 143 186 238 292 340
#     4   9  17  30  51  81 114 146 177 215 267 326
#     4   9  18  33  54  82 117 156 192 224 264 322
#     4  10  20  33  53  85 122 157 192 226 266 327
#     4  11  21  37  59  82 112 149 187 230 281 335
#     4  10  20  36  57  82 113 147 185 229 276 332
#
# _framework density 18.646401999999998
#
# number of rings (size 3 to 8) (size 9 to 14) (size 15 to 20)
#    0.000    2.000    2.500    1.500    1.167    4.333 
#    0.000    3.750    0.000    2.000    0.000    2.333 
#    0.000    0.000    0.000    0.000    0.000    0.000 
#
# Total GULP energy -297594.907713 kJ/mol
# GULP energy per Si atom -12399.787821 kJ/mol
# Density = 1.860396 g / cm^3
# Si number density = 18.646402 Si / 1000 Ang^3
#
#
#
# Elastic Constant Matrix: (Units=GPa)
#
#
# Indices 1 2 3 4 5 6 
#
# 1 77.6475 51.5284 38.2716 0.0000 0.0000 0.0000
# 2 51.5284 120.0344 57.0590 0.0000 0.0000 0.0000
# 3 38.2716 57.0590 103.9840 0.0000 0.0000 0.0000
# 4 0.0000 0.0000 0.0000 22.0639 0.0000 0.0000
# 5 0.0000 0.0000 0.0000 0.0000 24.1946 0.0000
# 6 0.0000 0.0000 0.0000 0.0000 0.0000 14.8383
#
#
#
# Elastic Compliance Matrix: (Units=1/GPa)
#
#
# Indices 1 2 3 4 5 6 
#
# 1 0.018847 -0.006485 -0.003378 0.000000 0.000000 0.000000
# 2 -0.006485 0.013502 -0.005022 0.000000 0.000000 0.000000
# 3 -0.003378 -0.005022 0.013616 0.000000 0.000000 0.000000
# 4 0.000000 0.000000 0.000000 0.045323 0.000000 0.000000
# 5 0.000000 0.000000 0.000000 0.000000 0.041332 0.000000
# 6 0.000000 0.000000 0.000000 0.000000 0.000000 0.067393
#
#
# Mechanical properties :
#
#
# Convention : Reuss Voigt Hill
#
# Bulk Modulus (GPa) = 61.74880 66.15376 63.95128
# Shear Modulus (GPa) = 21.26009 22.53981 21.89995
#
# Velocity S-wave (km/s) = 3.38031 3.48056 3.43080
# Velocity P-wave (km/s) = 6.95865 7.19079 7.07567
#
# Compressibility (1/GPa) = 0.01619465
#
# Stress axis : x y z
#
# Youngs Moduli (GPa) = 53.05774 74.06250 73.44230
#
# Poissons Ratio (x) = 0.48029 0.24812
# Poissons Ratio (y) = 0.34407 0.36884
# Poissons Ratio (z) = 0.17925 0.37196
#
# Static dielectric constant tensor:
#      x y z
#    x 3.352700 0.000000 0.000000 
#    y 0.000000 3.258730 0.000000 
#    z 0.000000 0.000000 3.485110 
# 
# 
# High freq. dielectric constant tensor:
#      x y z
#    x 1.727590 0.000000 0.000000 
#    y 0.000000 1.693440 0.000000 
#    z 0.000000 0.000000 1.724530 
# 
# From -- ./inp_files/4000.got.cif
#   From: 2010.03.12/outbox.cif.g09.slc.cpg/sg25_2_cif.got.tgz:4000.got - 2010.04.14 03:30:10.
