data_PCOD8166405
_publ_section_title
;
Structure prediction by ZEFSAII (Michael W. Deem and Ramdas Pophale) SiO2 
 PCOD8166405
Probable space group: P M M 2
;
_chemical_formula_sum "Si O2"
_cell_formula_units_Z 32
_cell_length_a 8.604020
_cell_length_b 14.688131
_cell_length_c 12.385744
_cell_angle_alpha 90.000000
_cell_angle_beta 90.000000
_cell_angle_gamma 90.000000
_cell_volume 1565.272834
_symmetry_space_group_name_H-M "P M M 2"
_symmetry_group_IT_number 25
_symmetry_cell_setting 'orthorhombic'
loop_
_space_group_symop_operation_xyz
x,y,z
-x,-y,z
-x,y,z
x,-y,z
loop_
_atom_site_type_symbol
_atom_site_label
_atom_site_fract_x
_atom_site_fract_y
_atom_site_fract_z
Si Si1 0.176061 0.099089 0.279430
Si Si2 0.321217 0.601052 0.180142
Si Si3 0.182866 0.794143 0.696958
Si Si4 0.181922 0.402675 0.636785
Si Si5 0.682716 0.895258 0.897674
Si Si6 0.678653 0.168656 0.474781
Si Si7 0.181072 0.348293 0.400659
Si Si8 0.816140 0.224705 0.088113
O O1 0.277438 0.090917 0.388876
O O2 0.242948 0.171516 0.194140
O O3 0.000000 0.125480 0.310468
O O4 0.182796 0.000000 0.223244
O O5 0.500000 0.624432 0.202896
O O6 0.302991 0.500000 0.129084
O O7 0.229058 0.598610 0.293279
O O8 0.253413 0.673541 0.094127
O O9 0.248696 0.688880 0.694000
O O10 0.276348 0.854195 0.781519
O O11 0.213893 0.838419 0.580337
O O12 0.000000 0.797253 0.722569
O O13 0.248540 0.500000 0.682839
O O14 0.216275 0.405354 0.508717
O O15 0.000000 0.399336 0.657250
O O16 0.500000 0.892768 0.915155
O O17 0.743102 0.000000 0.906009
O O18 0.762024 0.829774 0.983796
O O19 0.500000 0.162788 0.510348
O O20 0.715542 0.258399 0.405870
O O21 0.000000 0.322250 0.393966
O O22 0.000000 0.231657 0.083688
#
# Coordination Sequence:
#
# PCOD8166405 Si02
#       8
#     4   4   4   4   4   4   4   4
#     4  10  21  37  58  86 119 155 196 244 301 368
#     4  11  23  37  56  87 126 165 204 249 303 358
#     4  10  21  38  62  89 119 156 202 254 304 357
#     4   8  15  29  52  84 119 154 195 241 288 342
#     4  11  25  45  68  91 117 153 200 255 315 374
#     4  11  21  34  55  84 123 164 199 244 305 364
#     4  10  18  31  53  82 118 163 209 248 292 351
#     4  11  23  41  66  91 119 156 202 254 306 363
#
# _framework density 20.443721
#
# number of rings (size 3 to 8) (size 9 to 14) (size 15 to 20)
#    0.000    1.750    1.250    4.500    0.000    4.250 
#    0.000    0.625    0.000    9.750    0.000    0.000 
#    0.000    0.000    0.000    0.000    0.000    0.000 
#
# Total GULP energy -396627.911478 kJ/mol
# GULP energy per Si atom -12394.622234 kJ/mol
# Density = 2.039719 g / cm^3
# Si number density = 20.443721 Si / 1000 Ang^3
#
#
#
# Elastic Constant Matrix: (Units=GPa)
#
#
# Indices 1 2 3 4 5 6 
#
# 1 58.6027 27.0450 10.1801 0.0000 0.0000 0.0000
# 2 27.0450 135.0329 48.8561 0.0000 0.0000 0.0000
# 3 10.1801 48.8561 81.5402 0.0000 0.0000 0.0000
# 4 0.0000 0.0000 0.0000 22.5725 0.0000 0.0000
# 5 0.0000 0.0000 0.0000 0.0000 30.3491 0.0000
# 6 0.0000 0.0000 0.0000 0.0000 0.0000 22.9598
#
#
#
# Elastic Compliance Matrix: (Units=1/GPa)
#
#
# Indices 1 2 3 4 5 6 
#
# 1 0.018803 -0.003724 -0.000116 0.000000 0.000000 0.000000
# 2 -0.003724 0.010193 -0.005642 0.000000 0.000000 0.000000
# 3 -0.000116 -0.005642 0.015659 0.000000 0.000000 0.000000
# 4 0.000000 0.000000 0.000000 0.044302 0.000000 0.000000
# 5 0.000000 0.000000 0.000000 0.000000 0.032950 0.000000
# 6 0.000000 0.000000 0.000000 0.000000 0.000000 0.043554
#
#
# Mechanical properties :
#
#
# Convention : Reuss Voigt Hill
#
# Bulk Modulus (GPa) = 38.92583 49.70426 44.31504
# Shear Modulus (GPa) = 25.90823 27.78259 26.84541
#
# Velocity S-wave (km/s) = 3.56377 3.69043 3.62765
# Velocity P-wave (km/s) = 6.00131 6.52109 6.26659
#
# Compressibility (1/GPa) = 0.02568989
#
# Stress axis : x y z
#
# Youngs Moduli (GPa) = 53.18358 98.10783 63.86068
#
# Poissons Ratio (x) = 0.36534 0.00743
# Poissons Ratio (y) = 0.19805 0.36032
# Poissons Ratio (z) = 0.00618 0.55355
#
# Static dielectric constant tensor:
#      x y z
#    x 3.563900 0.000000 0.000000 
#    y 0.000000 4.649320 0.000000 
#    z 0.000000 0.000000 3.550110 
# 
# 
# High freq. dielectric constant tensor:
#      x y z
#    x 1.787460 0.000000 0.000000 
#    y 0.000000 1.812570 0.000000 
#    z 0.000000 0.000000 1.776550 
# 
# From -- ./inp_files/4289.got.cif
#   From: 2010.03.12/outbox.cif.g09.slc.cpg/sg25_3_cif.got.tgz:4289.got - 2010.04.14 03:30:10.
