data_PCOD8166119
_publ_section_title
;
Structure prediction by ZEFSAII (Michael W. Deem and Ramdas Pophale) SiO2 
 PCOD8166119
Probable space group: I 21 21 21
;
_chemical_formula_sum "Si O2"
_cell_formula_units_Z 60
_cell_length_a 26.384783
_cell_length_b 8.957695
_cell_length_c 12.451355
_cell_angle_alpha 90.000000
_cell_angle_beta 90.000000
_cell_angle_gamma 90.000000
_cell_volume 2942.838392
_symmetry_space_group_name_H-M "I 21 21 21"
_symmetry_group_IT_number 24
_symmetry_cell_setting 'orthorhombic'
loop_
_space_group_symop_operation_xyz
x,y,z
-x,1/2-y,z
x,-y,1/2-z
1/2-x,y,-z
1/2+x,1/2+y,1/2+z
1/2-x,-y,1/2+z
1/2+x,1/2-y,-z
-x,1/2+y,1/2-z
loop_
_atom_site_type_symbol
_atom_site_label
_atom_site_fract_x
_atom_site_fract_y
_atom_site_fract_z
Si Si1 0.923188 0.000000 0.750000
Si Si2 0.174645 0.122580 0.337615
Si Si3 0.646805 0.232955 0.144763
Si Si4 0.785827 0.263983 0.665890
Si Si5 0.306592 0.502723 0.493168
Si Si6 0.054632 0.689233 0.948841
Si Si7 0.365025 0.049534 0.435988
Si Si8 0.616429 0.898273 0.847381
O O1 0.891842 0.854184 0.719708
O O2 0.953441 0.934365 0.853578
O O3 0.226563 0.214650 0.358628
O O4 0.153819 0.038953 0.442118
O O5 0.129731 0.234447 0.299961
O O6 0.186573 0.000000 0.250000
O O7 0.700781 0.239937 0.208737
O O8 0.657416 0.138810 0.038742
O O9 0.619765 0.386831 0.108846
O O10 0.815940 0.411705 0.633869
O O11 0.808994 0.130850 0.593211
O O12 0.250000 0.563556 0.500000
O O13 0.329027 0.452854 0.607511
O O14 0.090373 0.829817 0.917580
O O15 0.000000 0.750000 0.980653
O O16 0.076410 0.606623 0.054938
O O17 0.595739 0.000000 0.750000
#
# Coordination Sequence:
#
# PCOD8166119 Si02
#       8
#     4   8   8   8   8   8   8   8
#     4  12  22  42  72  98 128 162 212 272 346 420
#     4  11  24  37  58  92 130 175 227 269 313 386
#     4  12  23  36  64  93 131 171 212 262 327 396
#     4  12  20  39  59  89 132 177 209 265 332 388
#     4  12  22  38  61  93 137 173 223 267 316 383
#     4  11  25  48  72 100 130 166 213 283 349 406
#     4  11  23  41  60  88 133 171 208 267 333 386
#     4  11  24  43  69  90 131 182 225 275 327 392
#
# _framework density 20.388480999999999
#
# number of rings (size 3 to 8) (size 9 to 14) (size 15 to 20)
#    0.000    0.533    8.000    1.600    3.733    2.133 
#    0.000    2.667    0.000    0.000    0.000    0.000 
#    0.000    0.000    0.000    0.000    0.000    0.000 
#
# Total GULP energy -371829.824694 kJ/mol
# GULP energy per Si atom -12394.327490 kJ/mol
# Density = 2.034208 g / cm^3
# Si number density = 20.388481 Si / 1000 Ang^3
#
#
#
# Elastic Constant Matrix: (Units=GPa)
#
#
# Indices 1 2 3 4 5 6 
#
# 1 78.8158 22.5396 33.5694 0.0000 0.0000 0.0000
# 2 22.5396 117.5528 55.1676 0.0000 0.0000 0.0000
# 3 33.5694 55.1676 102.0944 0.0000 0.0000 0.0000
# 4 0.0000 0.0000 0.0000 38.2937 0.0000 0.0000
# 5 0.0000 0.0000 0.0000 0.0000 11.6861 0.0000
# 6 0.0000 0.0000 0.0000 0.0000 0.0000 17.9372
#
#
#
# Elastic Compliance Matrix: (Units=1/GPa)
#
#
# Indices 1 2 3 4 5 6 
#
# 1 0.014802 -0.000742 -0.004466 0.000000 0.000000 0.000000
# 2 -0.000742 0.011434 -0.005934 0.000000 0.000000 0.000000
# 3 -0.004466 -0.005934 0.014470 0.000000 0.000000 0.000000
# 4 0.000000 0.000000 0.000000 0.026114 0.000000 0.000000
# 5 0.000000 0.000000 0.000000 0.000000 0.085572 0.000000
# 6 0.000000 0.000000 0.000000 0.000000 0.000000 0.055750
#
#
# Mechanical properties :
#
#
# Convention : Reuss Voigt Hill
#
# Bulk Modulus (GPa) = 54.28599 57.89070 56.08835
# Shear Modulus (GPa) = 21.13553 26.06248 23.59901
#
# Velocity S-wave (km/s) = 3.22318 3.57920 3.40585
# Velocity P-wave (km/s) = 6.36675 6.74807 6.56018
#
# Compressibility (1/GPa) = 0.01842096
#
# Stress axis : x y z
#
# Youngs Moduli (GPa) = 67.55720 87.45690 69.10815
#
# Poissons Ratio (x) = 0.06492 0.30864
# Poissons Ratio (y) = 0.05015 0.41012
# Poissons Ratio (z) = 0.30171 0.51901
#
# Static dielectric constant tensor:
#      x y z
#    x 3.431460 0.000000 0.000000 
#    y 0.000000 3.734880 0.000000 
#    z 0.000000 0.000000 3.777200 
# 
# 
# High freq. dielectric constant tensor:
#      x y z
#    x 1.759700 0.000000 0.000000 
#    y 0.000000 1.804090 0.000000 
#    z 0.000000 0.000000 1.801090 
# 
# From -- ./inp_files/22959.got.cif
#   From: 2010.03.12/outbox.cif.g09.slc.cpg/sg24_12_cif.got.tgz:22959.got - 2010.04.14 03:06:53.
