data_PCOD8166968
_publ_section_title
;
Structure prediction by ZEFSAII (Michael W. Deem and Ramdas Pophale) SiO2 
 PCOD8166968
Probable space group: P M M 2
;
_chemical_formula_sum "Si O2"
_cell_formula_units_Z 32
_cell_length_a 8.650010
_cell_length_b 15.435552
_cell_length_c 11.942456
_cell_angle_alpha 90.000000
_cell_angle_beta 90.000000
_cell_angle_gamma 90.000000
_cell_volume 1594.529009
_symmetry_space_group_name_H-M "P M M 2"
_symmetry_group_IT_number 25
_symmetry_cell_setting 'orthorhombic'
loop_
_space_group_symop_operation_xyz
x,y,z
-x,-y,z
-x,y,z
x,-y,z
loop_
_atom_site_type_symbol
_atom_site_label
_atom_site_fract_x
_atom_site_fract_y
_atom_site_fract_z
Si Si1 0.319149 0.665780 0.459940
Si Si2 0.179912 0.147819 0.466618
Si Si3 0.821526 0.403006 0.675335
Si Si4 0.317373 0.247759 0.075009
Si Si5 0.322020 0.097566 0.236465
Si Si6 0.322842 0.902530 0.690762
Si Si7 0.316593 0.595393 0.221039
Si Si8 0.819893 0.247504 0.831720
O O1 0.500000 0.689208 0.457114
O O2 0.219208 0.751537 0.472991
O O3 0.281521 0.603921 0.564007
O O4 0.266020 0.618407 0.346881
O O5 0.221787 0.107855 0.347376
O O6 0.275214 0.097441 0.561085
O O7 0.000000 0.134177 0.490028
O O8 0.799676 0.500000 0.724294
O O9 0.763151 0.333587 0.766744
O O10 0.000000 0.384784 0.644720
O O11 0.500000 0.250818 0.079099
O O12 0.258609 0.162889 0.141750
O O13 0.248105 0.333808 0.134668
O O14 0.266780 0.242432 0.948209
O O15 0.500000 0.119174 0.266016
O O16 0.304261 0.000000 0.190038
O O17 0.500000 0.872269 0.702348
O O18 0.215957 0.837739 0.760291
O O19 0.301830 0.000000 0.737596
O O20 0.500000 0.594618 0.213536
O O21 0.250583 0.500000 0.190590
O O22 0.000000 0.252074 0.856271
#
# Coordination Sequence:
#
# PCOD8166968 Si02
#       8
#     4   4   4   4   4   4   4   4
#     4  11  20  35  61  90 121 157 199 244 294 354
#     4  12  23  36  59  91 126 159 191 236 300 362
#     4  10  22  40  60  86 123 162 198 243 302 361
#     4  10  21  39  60  84 116 156 202 250 295 345
#     4  10  21  39  62  87 116 154 199 244 293 350
#     4  11  24  42  65  91 119 155 199 246 297 356
#     4   9  18  34  58  88 119 150 191 245 296 342
#     4  11  24  41  61  87 120 160 202 249 300 353
#
# _framework density 20.068624
#
# number of rings (size 3 to 8) (size 9 to 14) (size 15 to 20)
#    0.000    1.500    2.500    3.000    0.000    5.500 
#    0.000    1.250    0.000    1.500    0.000    0.000 
#    0.000    0.000    0.000    0.000    0.000    0.000 
#
# Total GULP energy -396899.874303 kJ/mol
# GULP energy per Si atom -12403.121072 kJ/mol
# Density = 2.002295 g / cm^3
# Si number density = 20.068624 Si / 1000 Ang^3
#
#
#
# Elastic Constant Matrix: (Units=GPa)
#
#
# Indices 1 2 3 4 5 6 
#
# 1 26.0579 18.0488 3.3841 0.0000 0.0000 0.0000
# 2 18.0488 145.4716 52.5737 0.0000 0.0000 0.0000
# 3 3.3841 52.5737 122.3643 0.0000 0.0000 0.0000
# 4 0.0000 0.0000 0.0000 16.8686 0.0000 0.0000
# 5 0.0000 0.0000 0.0000 0.0000 16.0732 0.0000
# 6 0.0000 0.0000 0.0000 0.0000 0.0000 23.9995
#
#
#
# Elastic Compliance Matrix: (Units=1/GPa)
#
#
# Indices 1 2 3 4 5 6 
#
# 1 0.042153 -0.005693 0.001280 0.000000 0.000000 0.000000
# 2 -0.005693 0.008907 -0.003669 0.000000 0.000000 0.000000
# 3 0.001280 -0.003669 0.009713 0.000000 0.000000 0.000000
# 4 0.000000 0.000000 0.000000 0.059282 0.000000 0.000000
# 5 0.000000 0.000000 0.000000 0.000000 0.062215 0.000000
# 6 0.000000 0.000000 0.000000 0.000000 0.000000 0.041668
#
#
# Mechanical properties :
#
#
# Convention : Reuss Voigt Hill
#
# Bulk Modulus (GPa) = 22.41692 49.10078 35.75885
# Shear Modulus (GPa) = 19.61010 26.04740 22.82875
#
# Velocity S-wave (km/s) = 3.12933 3.60657 3.37639
# Velocity P-wave (km/s) = 4.92457 6.47014 5.74952
#
# Compressibility (1/GPa) = 0.04460915
#
# Stress axis : x y z
#
# Youngs Moduli (GPa) = 23.72326 112.27696 102.95041
#
# Poissons Ratio (x) = 0.63914 -0.13178
# Poissons Ratio (y) = 0.13505 0.37775
# Poissons Ratio (z) = -0.03037 0.41197
#
# Static dielectric constant tensor:
#      x y z
#    x 3.441350 0.000000 0.000000 
#    y 0.000000 3.932480 0.000000 
#    z 0.000000 0.000000 3.609670 
# 
# 
# High freq. dielectric constant tensor:
#      x y z
#    x 1.766040 0.000000 0.000000 
#    y 0.000000 1.800940 0.000000 
#    z 0.000000 0.000000 1.776880 
# 
# From -- ./inp_files/4187.got.cif
#   From: 2010.03.12/outbox.cif.g09.slc.cpg/sg25_3_cif.got.tgz:4187.got - 2010.04.14 03:30:10.
