data_PCOD8166673
_publ_section_title
;
Structure prediction by ZEFSAII (Michael W. Deem and Ramdas Pophale) SiO2 
 PCOD8166673
Probable space group: P M M 2
;
_chemical_formula_sum "Si O2"
_cell_formula_units_Z 32
_cell_length_a 9.083831
_cell_length_b 9.496836
_cell_length_c 20.823743
_cell_angle_alpha 90.000000
_cell_angle_beta 90.000000
_cell_angle_gamma 90.000000
_cell_volume 1796.415441
_symmetry_space_group_name_H-M "P M M 2"
_symmetry_group_IT_number 25
_symmetry_cell_setting 'orthorhombic'
loop_
_space_group_symop_operation_xyz
x,y,z
-x,-y,z
-x,y,z
x,-y,z
loop_
_atom_site_type_symbol
_atom_site_label
_atom_site_fract_x
_atom_site_fract_y
_atom_site_fract_z
Si Si1 0.665481 0.832767 0.844600
Si Si2 0.675417 0.843133 0.457198
Si Si3 0.671748 0.336128 0.338287
Si Si4 0.171993 0.164939 0.972741
Si Si5 0.834017 0.332710 0.212079
Si Si6 0.671996 0.334823 0.084380
Si Si7 0.834655 0.831886 0.720411
Si Si8 0.664097 0.832232 0.597531
O O1 0.500000 0.772168 0.850119
O O2 0.760271 0.783176 0.905479
O O3 0.740475 0.772667 0.780110
O O4 0.661734 0.000000 0.841356
O O5 0.500000 0.846293 0.457862
O O6 0.734413 0.741460 0.401354
O O7 0.727401 0.786962 0.527426
O O8 0.737143 0.000000 0.444218
O O9 0.500000 0.305540 0.327390
O O10 0.702795 0.500000 0.348347
O O11 0.757457 0.275229 0.276631
O O12 0.000000 0.200316 0.972530
O O13 0.201156 0.000000 0.983840
O O14 0.251178 0.250799 0.027967
O O15 0.833433 0.500000 0.213882
O O16 0.741825 0.280169 0.150910
O O17 0.000000 0.273563 0.207612
O O18 0.500000 0.299842 0.085504
O O19 0.701380 0.500000 0.074251
O O20 0.767516 0.772732 0.653933
O O21 0.000000 0.774494 0.726929
O O22 0.832635 0.000000 0.720549
O O23 0.500000 0.771321 0.608347
O O24 0.657641 0.000000 0.599725
#
# Coordination Sequence:
#
# PCOD8166673 Si02
#       8
#     4   4   4   4   4   4   4   4
#     4   9  16  26  41  61  87 120 155 189 226 269
#     4   8  14  25  41  61  86 115 144 175 216 266
#     4   9  16  27  45  67  87 109 143 185 222 259
#     4  10  20  33  49  71 100 130 157 189 233 282
#     4   9  17  30  48  68  90 117 149 186 228 271
#     4  10  20  34  53  75  96 121 157 197 233 274
#     4   9  15  22  34  55  83 112 143 182 226 267
#     4   8  13  22  36  53  75 106 142 176 212 259
#
# _framework density 17.813251999999999
#
# number of rings (size 3 to 8) (size 9 to 14) (size 15 to 20)
#    0.000    3.000    0.000    2.625    0.000    6.000 
#    0.000    1.250    0.000    3.375    0.000    0.875 
#    0.000    5.000    0.000    0.000    0.000    0.000 
#
# Total GULP energy -396694.504645 kJ/mol
# GULP energy per Si atom -12396.703270 kJ/mol
# Density = 1.777271 g / cm^3
# Si number density = 17.813252 Si / 1000 Ang^3
#
#
#
# Elastic Constant Matrix: (Units=GPa)
#
#
# Indices 1 2 3 4 5 6 
#
# 1 125.7710 29.2218 89.9004 0.0000 0.0000 0.0000
# 2 29.2218 25.5690 42.2372 0.0000 0.0000 0.0000
# 3 89.9004 42.2372 202.6408 0.0000 0.0000 0.0000
# 4 0.0000 0.0000 0.0000 -8.1725 0.0000 0.0000
# 5 0.0000 0.0000 0.0000 0.0000 17.7307 0.0000
# 6 0.0000 0.0000 0.0000 0.0000 0.0000 14.0506
#
#
#
# Elastic Compliance Matrix: (Units=1/GPa)
#
#
# Indices 1 2 3 4 5 6 
#
# 1 0.012605 -0.007882 -0.003949 0.000000 0.000000 0.000000
# 2 -0.007882 0.064576 -0.009963 0.000000 0.000000 0.000000
# 3 -0.003949 -0.009963 0.008764 0.000000 0.000000 0.000000
# 4 0.000000 0.000000 0.000000 -0.122361 0.000000 0.000000
# 5 0.000000 0.000000 0.000000 0.000000 0.056399 0.000000
# 6 0.000000 0.000000 0.000000 0.000000 0.000000 0.071171
#
#
# Mechanical properties :
#
#
# Convention : Reuss Voigt Hill
#
# Bulk Modulus (GPa) = 23.60955 75.18885 49.39920
# Shear Modulus (GPa) = 33.58816 17.56317 25.57566
#
# Velocity S-wave (km/s) = 4.34703 3.14341 3.79326
# Velocity P-wave (km/s) = 6.20308 7.44821 6.85398
#
# Compressibility (1/GPa) = 0.04235575
#
# Stress axis : x y z
#
# Youngs Moduli (GPa) = 79.33172 15.48567 114.10907
#
# Poissons Ratio (x) = 0.12206 0.45066
# Poissons Ratio (y) = 0.62531 1.13686
# Poissons Ratio (z) = 0.31331 0.15428
#
# Static dielectric constant tensor:
#      x y z
#    x 3.385810 0.000000 0.000000 
#    y 0.000000 2.813450 0.000000 
#    z 0.000000 0.000000 3.686260 
# 
# 
# High freq. dielectric constant tensor:
#      x y z
#    x 1.686380 0.000000 0.000000 
#    y 0.000000 1.622620 0.000000 
#    z 0.000000 0.000000 1.710500 
# 
# From -- ./inp_files/6280.got.cif
#   From: 2010.03.12/outbox.cif.g09.slc.cpg/sg25_4_cif.got.tgz:6280.got - 2010.04.14 03:30:10.
