data_PCOD8166249
_publ_section_title
;
Structure prediction by ZEFSAII (Michael W. Deem and Ramdas Pophale) SiO2 
 PCOD8166249
Probable space group: I 21 21 21
;
_chemical_formula_sum "Si O2"
_cell_formula_units_Z 36
_cell_length_a 5.380829
_cell_length_b 20.210922
_cell_length_c 13.063802
_cell_angle_alpha 90.000000
_cell_angle_beta 90.000000
_cell_angle_gamma 90.000000
_cell_volume 1420.708262
_symmetry_space_group_name_H-M "I 21 21 21"
_symmetry_group_IT_number 24
_symmetry_cell_setting 'orthorhombic'
loop_
_space_group_symop_operation_xyz
x,y,z
-x,1/2-y,z
x,-y,1/2-z
1/2-x,y,-z
1/2+x,1/2+y,1/2+z
1/2-x,-y,1/2+z
1/2+x,1/2-y,-z
-x,1/2+y,1/2-z
loop_
_atom_site_type_symbol
_atom_site_label
_atom_site_fract_x
_atom_site_fract_y
_atom_site_fract_z
Si Si1 0.750000 0.400501 0.500000
Si Si2 0.000000 0.250000 0.672848
Si Si3 0.250000 0.786186 0.500000
Si Si4 0.384617 0.011153 0.856281
Si Si5 0.250000 0.314784 0.500000
Si Si6 0.750000 0.086068 0.000000
Si Si7 0.907474 0.363654 0.833914
O O1 0.747288 0.444723 0.603063
O O2 0.498979 0.357974 0.500435
O O3 0.236262 0.266685 0.599762
O O4 0.046275 0.182688 0.736329
O O5 0.500000 0.750000 0.467765
O O6 0.183251 0.830630 0.400402
O O7 0.542360 0.000000 0.750000
O O8 0.542273 0.038225 0.951353
O O9 0.173371 0.061395 0.812376
O O10 0.854287 0.133453 0.910347
#
# Coordination Sequence:
#
# PCOD8166249 Si02
#       7
#     4   4   4   8   4   4   8
#     4  12  26  56  83 117 169 215 286 352 416 508
#     4  12  30  54  84 118 172 224 298 340 448 506
#     4  12  24  46  75 115 162 199 261 330 404 500
#     4  12  27  47  81 119 165 220 278 355 435 512
#     4  12  30  58  79 117 163 229 286 360 398 516
#     4  12  24  50  75 125 168 207 289 344 434 520
#     4  12  26  48  79 121 163 224 266 357 424 516
#
# _framework density 25.339473999999999
#
# number of rings (size 3 to 8) (size 9 to 14) (size 15 to 20)
#    0.000    0.000    5.556    3.333    3.111    0.889 
#   10.000    0.000    0.000    0.000    0.000    0.000 
#    0.000    0.000    0.000    0.000    0.000    0.000 
#
# Total GULP energy -222999.640901 kJ/mol
# GULP energy per Si atom -12388.868939 kJ/mol
# Density = 2.528180 g / cm^3
# Si number density = 25.339474 Si / 1000 Ang^3
#
#
#
# Elastic Constant Matrix: (Units=GPa)
#
#
# Indices 1 2 3 4 5 6 
#
# 1 134.3331 75.2252 48.9760 0.0000 0.0000 0.0000
# 2 75.2252 137.3447 63.5613 0.0000 0.0000 0.0000
# 3 48.9760 63.5613 186.0663 0.0005 0.0000 -0.0002
# 4 0.0000 0.0000 0.0005 51.6202 0.0000 -0.0001
# 5 0.0000 0.0000 0.0000 0.0000 41.8855 0.0000
# 6 0.0000 0.0000 -0.0002 -0.0001 0.0000 18.4128
#
#
#
# Elastic Compliance Matrix: (Units=1/GPa)
#
#
# Indices 1 2 3 4 5 6 
#
# 1 0.010887 -0.005508 -0.000984 0.000000 0.000000 0.000000
# 2 -0.005508 0.011434 -0.002456 0.000000 0.000000 0.000000
# 3 -0.000984 -0.002456 0.006473 0.000000 0.000000 0.000000
# 4 0.000000 0.000000 0.000000 0.019372 0.000000 0.000000
# 5 0.000000 0.000000 0.000000 0.000000 0.023875 0.000000
# 6 0.000000 0.000000 0.000000 0.000000 0.000000 0.054310
#
#
# Mechanical properties :
#
#
# Convention : Reuss Voigt Hill
#
# Bulk Modulus (GPa) = 91.76207 92.58548 92.17378
# Shear Modulus (GPa) = 33.81125 40.38247 37.09686
#
# Velocity S-wave (km/s) = 3.65681 3.99640 3.83037
# Velocity P-wave (km/s) = 7.35673 7.61001 7.48444
#
# Compressibility (1/GPa) = 0.01089775
#
# Stress axis : x y z
#
# Youngs Moduli (GPa) = 91.85095 87.45666 154.49720
#
# Poissons Ratio (x) = 0.48167 0.15207
# Poissons Ratio (y) = 0.50587 0.37949
# Poissons Ratio (z) = 0.09041 0.21482
#
# Static dielectric constant tensor:
#      x y z
#    x 4.501180 0.000000 0.000000 
#    y 0.000000 5.141780 0.000000 
#    z 0.000000 0.000000 4.872230 
# 
# 
# High freq. dielectric constant tensor:
#      x y z
#    x 1.987110 0.000000 0.000000 
#    y 0.000000 2.042480 0.000000 
#    z 0.000000 0.000000 2.028750 
# 
# From -- ./inp_files/23665.got.cif
#   From: 2010.03.12/outbox.cif.g09.slc.cpg/sg24_12_cif.got.tgz:23665.got - 2010.04.14 03:06:53.
