data_PCOD8166665
_publ_section_title
;
Structure prediction by ZEFSAII (Michael W. Deem and Ramdas Pophale) SiO2 
 PCOD8166665
Probable space group: P M M 2
;
_chemical_formula_sum "Si O2"
_cell_formula_units_Z 28
_cell_length_a 9.271865
_cell_length_b 9.290455
_cell_length_c 18.344818
_cell_angle_alpha 90.000000
_cell_angle_beta 90.000000
_cell_angle_gamma 90.000000
_cell_volume 1580.219771
_symmetry_space_group_name_H-M "P M M 2"
_symmetry_group_IT_number 25
_symmetry_cell_setting 'orthorhombic'
loop_
_space_group_symop_operation_xyz
x,y,z
-x,-y,z
-x,y,z
x,-y,z
loop_
_atom_site_type_symbol
_atom_site_label
_atom_site_fract_x
_atom_site_fract_y
_atom_site_fract_z
Si Si1 0.172243 0.664540 0.789790
Si Si2 0.827421 0.338323 0.476110
Si Si3 0.328549 0.662700 0.055213
Si Si4 0.833695 0.831891 0.337801
Si Si5 0.668526 0.832011 0.913603
Si Si6 0.330940 0.166440 0.195341
Si Si7 0.842459 0.670308 0.631544
O O1 0.215580 0.500000 0.809123
O O2 0.244777 0.774550 0.844728
O O3 0.234188 0.707107 0.708767
O O4 0.000000 0.680893 0.791964
O O5 0.774446 0.500000 0.460313
O O6 0.768597 0.240757 0.410420
O O7 0.764983 0.282091 0.555238
O O8 0.000000 0.331459 0.480460
O O9 0.500000 0.663747 0.056193
O O10 0.268118 0.500000 0.052687
O O11 0.270705 0.741690 0.127540
O O12 0.272988 0.749118 0.984799
O O13 0.747552 0.775663 0.267574
O O14 0.000000 0.789742 0.326604
O O15 0.811404 0.000000 0.348048
O O16 0.500000 0.802064 0.901073
O O17 0.700064 0.000000 0.924372
O O18 0.500000 0.189356 0.206559
O O19 0.293660 0.000000 0.180141
O O20 0.861766 0.500000 0.626943
O O21 0.000000 0.743402 0.634006
#
# Coordination Sequence:
#
# PCOD8166665 Si02
#       7
#     4   4   4   4   4   4   4
#     4   9  17  30  49  72  96 121 152 192 235 276
#     4   8  13  23  41  63  86 114 147 180 215 257
#     4   9  17  30  49  70  88 110 147 191 226 259
#     4   9  17  28  42  63  90 115 141 177 218 257
#     4  10  20  33  49  69  94 124 156 188 225 273
#     4   9  17  30  47  64  84 113 146 177 215 266
#     4   7  11  22  41  64  88 114 145 181 220 261
#
# _framework density 17.719055999999998
#
# number of rings (size 3 to 8) (size 9 to 14) (size 15 to 20)
#    0.000    3.286    0.000    2.571    0.000    3.429 
#    0.000    1.429    0.000    6.000    0.000    4.000 
#    0.000    0.000    0.000    0.000    0.000    0.000 
#
# Total GULP energy -346933.144339 kJ/mol
# GULP energy per Si atom -12390.469441 kJ/mol
# Density = 1.767873 g / cm^3
# Si number density = 17.719056 Si / 1000 Ang^3
#
#
#
# Elastic Constant Matrix: (Units=GPa)
#
#
# Indices 1 2 3 4 5 6 
#
# 1 21.0812 22.7706 35.1784 0.0000 0.0000 0.0000
# 2 22.7706 81.9675 76.8992 0.0000 0.0000 0.0000
# 3 35.1784 76.8992 200.5340 0.0000 0.0000 0.0000
# 4 0.0000 0.0000 0.0000 28.1186 0.0000 0.0000
# 5 0.0000 0.0000 0.0000 0.0000 -26.2343 0.0000
# 6 0.0000 0.0000 0.0000 0.0000 0.0000 16.8652
#
#
#
# Elastic Compliance Matrix: (Units=1/GPa)
#
#
# Indices 1 2 3 4 5 6 
#
# 1 0.075364 -0.013328 -0.008110 0.000000 0.000000 0.000000
# 2 -0.013328 0.021412 -0.005873 0.000000 0.000000 0.000000
# 3 -0.008110 -0.005873 0.008661 0.000000 0.000000 0.000000
# 4 0.000000 0.000000 0.000000 0.035564 0.000000 0.000000
# 5 0.000000 0.000000 0.000000 0.000000 -0.038118 0.000000
# 6 0.000000 0.000000 0.000000 0.000000 0.000000 0.059294
#
#
# Mechanical properties :
#
#
# Convention : Reuss Voigt Hill
#
# Bulk Modulus (GPa) = 19.67855 63.69767 41.68811
# Shear Modulus (GPa) = 21.39150 14.99888 18.19519
#
# Velocity S-wave (km/s) = 3.47833 2.91259 3.20796
# Velocity P-wave (km/s) = 5.22128 6.88024 6.10735
#
# Compressibility (1/GPa) = 0.05081674
#
# Stress axis : x y z
#
# Youngs Moduli (GPa) = 13.26886 46.70209 115.45397
#
# Poissons Ratio (x) = 0.62244 0.93631
# Poissons Ratio (y) = 0.17685 0.67806
# Poissons Ratio (z) = 0.10761 0.27428
#
# Static dielectric constant tensor:
#      x y z
#    x 2.821550 0.000000 0.000000 
#    y 0.000000 3.182450 0.000000 
#    z 0.000000 0.000000 3.783930 
# 
# 
# High freq. dielectric constant tensor:
#      x y z
#    x 1.626460 0.000000 0.000000 
#    y 0.000000 1.669030 0.000000 
#    z 0.000000 0.000000 1.711040 
# 
# From -- ./inp_files/6227.got.cif
#   From: 2010.03.12/outbox.cif.g09.slc.cpg/sg25_4_cif.got.tgz:6227.got - 2010.04.14 03:30:10.
