data_PCOD8166962
_publ_section_title
;
Structure prediction by ZEFSAII (Michael W. Deem and Ramdas Pophale) SiO2 
 PCOD8166962
Probable space group: P M M 2
;
_chemical_formula_sum "Si O2"
_cell_formula_units_Z 32
_cell_length_a 14.752967
_cell_length_b 8.928120
_cell_length_c 12.100588
_cell_angle_alpha 90.000000
_cell_angle_beta 90.000000
_cell_angle_gamma 90.000000
_cell_volume 1593.844192
_symmetry_space_group_name_H-M "P M M 2"
_symmetry_group_IT_number 25
_symmetry_cell_setting 'orthorhombic'
loop_
_space_group_symop_operation_xyz
x,y,z
-x,-y,z
-x,y,z
x,-y,z
loop_
_atom_site_type_symbol
_atom_site_label
_atom_site_fract_x
_atom_site_fract_y
_atom_site_fract_z
Si Si1 0.751161 0.823011 0.979620
Si Si2 0.894567 0.324449 0.132286
Si Si3 0.605690 0.825474 0.590289
Si Si4 0.254495 0.325391 0.745353
Si Si5 0.607151 0.165044 0.344637
Si Si6 0.896946 0.673413 0.571885
Si Si7 0.606146 0.326949 0.127783
Si Si8 0.107496 0.831769 0.353301
O O1 0.748164 0.775056 0.853268
O O2 0.757463 0.000000 0.988782
O O3 0.840222 0.751563 0.033553
O O4 0.659158 0.768223 0.037337
O O5 0.876596 0.500000 0.129940
O O6 0.856945 0.261911 0.248652
O O7 0.000000 0.285299 0.115552
O O8 0.500000 0.790584 0.605909
O O9 0.658393 0.719774 0.674347
O O10 0.639101 0.782648 0.466194
O O11 0.625805 0.000000 0.613838
O O12 0.261435 0.500000 0.776590
O O13 0.162796 0.289721 0.678519
O O14 0.500000 0.153889 0.347591
O O15 0.639311 0.280249 0.250569
O O16 0.647028 0.000000 0.317362
O O17 0.892730 0.500000 0.539979
O O18 0.855923 0.762326 0.467264
O O19 0.000000 0.722887 0.598742
O O20 0.500000 0.294008 0.111471
O O21 0.629745 0.500000 0.111345
O O22 0.000000 0.825755 0.355333
O O23 0.144606 0.000000 0.342538
#
# Coordination Sequence:
#
# PCOD8166962 Si02
#       8
#     4   4   4   4   4   4   4   4
#     4  12  26  42  60  82 112 151 196 243 286 338
#     4  10  21  39  63  88 117 152 188 232 286 341
#     4   9  19  37  60  85 115 151 187 226 278 339
#     4  11  24  40  58  82 111 146 193 243 286 333
#     4   8  15  31  56  85 116 149 186 228 279 341
#     4   9  19  37  59  82 112 151 190 229 279 337
#     4  10  21  38  61  88 118 151 189 236 287 340
#     4   9  17  31  55  88 121 150 185 229 277 333
#
# _framework density 20.077244
#
# number of rings (size 3 to 8) (size 9 to 14) (size 15 to 20)
#    0.000    2.250    0.000    3.375    0.000    6.750 
#    0.000    5.000    0.000    0.000    0.000    0.000 
#    0.000    0.000    0.000    0.000    0.000    0.000 
#
# Total GULP energy -396835.925355 kJ/mol
# GULP energy per Si atom -12401.122667 kJ/mol
# Density = 2.003155 g / cm^3
# Si number density = 20.077244 Si / 1000 Ang^3
#
#
#
# Elastic Constant Matrix: (Units=GPa)
#
#
# Indices 1 2 3 4 5 6 
#
# 1 81.5994 42.3477 46.0325 0.0000 0.0000 0.0000
# 2 42.3477 113.7091 61.3687 0.0000 0.0000 0.0000
# 3 46.0325 61.3687 136.6961 0.0000 0.0000 0.0000
# 4 0.0000 0.0000 0.0000 41.0516 0.0000 0.0000
# 5 0.0000 0.0000 0.0000 0.0000 35.9990 0.0000
# 6 0.0000 0.0000 0.0000 0.0000 0.0000 25.8734
#
#
#
# Elastic Compliance Matrix: (Units=1/GPa)
#
#
# Indices 1 2 3 4 5 6 
#
# 1 0.016490 -0.004150 -0.003690 0.000000 0.000000 0.000000
# 2 -0.004150 0.012651 -0.004282 0.000000 0.000000 0.000000
# 3 -0.003690 -0.004282 0.010481 0.000000 0.000000 0.000000
# 4 0.000000 0.000000 0.000000 0.024360 0.000000 0.000000
# 5 0.000000 0.000000 0.000000 0.000000 0.027779 0.000000
# 6 0.000000 0.000000 0.000000 0.000000 0.000000 0.038650
#
#
# Mechanical properties :
#
#
# Convention : Reuss Voigt Hill
#
# Bulk Modulus (GPa) = 65.02885 70.16693 67.59789
# Shear Modulus (GPa) = 31.29314 32.73518 32.01416
#
# Velocity S-wave (km/s) = 3.95224 4.04228 3.99751
# Velocity P-wave (km/s) = 7.29977 7.53731 7.41949
#
# Compressibility (1/GPa) = 0.01537779
#
# Stress axis : x y z
#
# Youngs Moduli (GPa) = 60.64177 79.04588 95.41486
#
# Poissons Ratio (x) = 0.32802 0.35209
# Poissons Ratio (y) = 0.25165 0.40857
# Poissons Ratio (z) = 0.22377 0.33848
#
# Static dielectric constant tensor:
#      x y z
#    x 3.563550 0.000000 0.000000 
#    y 0.000000 3.781650 0.000000 
#    z 0.000000 0.000000 3.711770 
# 
# 
# High freq. dielectric constant tensor:
#      x y z
#    x 1.783270 0.000000 0.000000 
#    y 0.000000 1.786710 0.000000 
#    z 0.000000 0.000000 1.783970 
# 
# From -- ./inp_files/4937.got.cif
#   From: 2010.03.12/outbox.cif.g09.slc.cpg/sg25_3_cif.got.tgz:4937.got - 2010.04.14 03:30:10.
