data_PCOD8166598
_publ_section_title
;
Structure prediction by ZEFSAII (Michael W. Deem and Ramdas Pophale) SiO2 
 PCOD8166598
Probable space group: P M M 2
;
_chemical_formula_sum "Si O2"
_cell_formula_units_Z 24
_cell_length_a 12.629629
_cell_length_b 9.132891
_cell_length_c 12.324890
_cell_angle_alpha 90.000000
_cell_angle_beta 90.000000
_cell_angle_gamma 90.000000
_cell_volume 1421.614746
_symmetry_space_group_name_H-M "P M M 2"
_symmetry_group_IT_number 25
_symmetry_cell_setting 'orthorhombic'
loop_
_space_group_symop_operation_xyz
x,y,z
-x,-y,z
-x,y,z
x,-y,z
loop_
_atom_site_type_symbol
_atom_site_label
_atom_site_fract_x
_atom_site_fract_y
_atom_site_fract_z
Si Si1 0.625873 0.165300 0.377590
Si Si2 0.000000 0.172842 0.759360
Si Si3 0.228881 0.832094 0.006731
Si Si4 0.228880 0.832093 0.748450
Si Si5 0.000000 0.827162 0.995818
Si Si6 0.376890 0.670696 0.164395
Si Si7 0.623111 0.329304 0.590785
O O1 0.500000 0.168856 0.377590
O O2 0.667919 0.247492 0.270730
O O3 0.667919 0.247492 0.484450
O O4 0.669749 0.000000 0.377590
O O5 0.111606 0.215012 0.701877
O O6 0.000000 0.000000 0.775947
O O7 0.000000 0.248140 0.877590
O O8 0.111606 0.784997 0.053304
O O9 0.315619 0.727313 0.059122
O O10 0.254352 0.000000 0.037783
O O11 0.232310 0.811525 0.877590
O O12 0.315621 0.727317 0.696058
O O13 0.254346 0.000000 0.717397
O O14 0.000000 0.000000 0.979218
O O15 0.500000 0.705298 0.145725
O O16 0.356482 0.500000 0.180706
O O17 0.500000 0.294704 0.609454
O O18 0.643522 0.500000 0.574475
#
# Coordination Sequence:
#
# PCOD8166598 Si02
#       7
#     4   2   4   4   2   4   4
#     4   9  17  31  51  70  87 114 157 199 229 267
#     4   7  12  26  47  68  89 116 153 195 233 267
#     4   9  17  30  49  71  94 122 157 194 230 271
#     4   9  17  30  49  71  94 122 157 194 230 271
#     4   7  12  26  47  68  89 116 153 195 233 267
#     4  10  20  32  46  67  97 128 154 185 230 279
#     4  10  20  32  46  67  97 128 154 185 230 279
#
# _framework density 16.882211000000002
#
# number of rings (size 3 to 8) (size 9 to 14) (size 15 to 20)
#    0.000    3.000    0.000    3.500    0.000    5.333 
#    0.000    4.167    0.000    4.000    0.000    7.000 
#    0.000    0.000    0.000    0.000    0.000    0.000 
#
# Total GULP energy -297391.974371 kJ/mol
# GULP energy per Si atom -12391.332265 kJ/mol
# Density = 1.684379 g / cm^3
# Si number density = 16.882211 Si / 1000 Ang^3
#
#
#
# Elastic Constant Matrix: (Units=GPa)
#
#
# Indices 1 2 3 4 5 6 
#
# 1 83.8562 52.5744 44.2147 0.0000 0.0000 0.0000
# 2 52.5744 89.3227 41.7966 0.0000 0.0000 0.0000
# 3 44.2147 41.7966 65.5932 0.0000 0.0000 0.0000
# 4 0.0000 0.0000 0.0000 24.9127 0.0000 0.0000
# 5 0.0000 0.0000 0.0000 0.0000 3.9486 0.0000
# 6 0.0000 0.0000 0.0000 0.0000 0.0000 17.0530
#
#
#
# Elastic Compliance Matrix: (Units=1/GPa)
#
#
# Indices 1 2 3 4 5 6 
#
# 1 0.022444 -0.008736 -0.009562 0.000000 0.000000 0.000000
# 2 -0.008736 0.019352 -0.006443 0.000000 0.000000 0.000000
# 3 -0.009562 -0.006443 0.025797 0.000000 0.000000 0.000000
# 4 0.000000 0.000000 0.000000 0.040140 0.000000 0.000000
# 5 0.000000 0.000000 0.000000 0.000000 0.253254 0.000000
# 6 0.000000 0.000000 0.000000 0.000000 0.000000 0.058641
#
#
# Mechanical properties :
#
#
# Convention : Reuss Voigt Hill
#
# Bulk Modulus (GPa) = 55.21569 57.32708 56.27138
# Shear Modulus (GPa) = 10.52308 15.86196 13.19252
#
# Velocity S-wave (km/s) = 2.49935 3.06856 2.79847
# Velocity P-wave (km/s) = 6.41143 6.82536 6.62163
#
# Compressibility (1/GPa) = 0.01811079
#
# Stress axis : x y z
#
# Youngs Moduli (GPa) = 44.55495 51.67466 38.76486
#
# Poissons Ratio (x) = 0.45142 0.37069
# Poissons Ratio (y) = 0.38923 0.24974
# Poissons Ratio (z) = 0.42606 0.33292
#
# Static dielectric constant tensor:
#      x y z
#    x 3.278280 0.000000 0.000000 
#    y 0.000000 3.054490 0.000000 
#    z 0.000000 0.000000 2.974890 
# 
# 
# High freq. dielectric constant tensor:
#      x y z
#    x 1.640330 0.000000 0.000000 
#    y 0.000000 1.641670 0.000000 
#    z 0.000000 0.000000 1.629910 
# 
# From -- ./inp_files/4554.got.cif
#   From: 2010.03.12/outbox.cif.g09.slc.cpg/sg25_3_cif.got.tgz:4554.got - 2010.04.14 03:30:10.
