data_PCOD8166943
_publ_section_title
;
Structure prediction by ZEFSAII (Michael W. Deem and Ramdas Pophale) SiO2 
 PCOD8166943
Probable space group: P M M 2
;
_chemical_formula_sum "Si O2"
_cell_formula_units_Z 32
_cell_length_a 13.713808
_cell_length_b 9.049751
_cell_length_c 12.910584
_cell_angle_alpha 90.000000
_cell_angle_beta 90.000000
_cell_angle_gamma 90.000000
_cell_volume 1602.288009
_symmetry_space_group_name_H-M "P M M 2"
_symmetry_group_IT_number 25
_symmetry_cell_setting 'orthorhombic'
loop_
_space_group_symop_operation_xyz
x,y,z
-x,-y,z
-x,y,z
x,-y,z
loop_
_atom_site_type_symbol
_atom_site_label
_atom_site_fract_x
_atom_site_fract_y
_atom_site_fract_z
Si Si1 0.208615 0.175357 0.049540
Si Si2 0.388978 0.674409 0.973336
Si Si3 0.392859 0.170840 0.544326
Si Si4 0.797394 0.828016 0.437616
Si Si5 0.115951 0.667195 0.856630
Si Si6 0.885768 0.671305 0.243482
Si Si7 0.383845 0.336746 0.743239
Si Si8 0.884398 0.167011 0.655397
O O1 0.319040 0.238541 0.052131
O O2 0.153037 0.230643 0.150365
O O3 0.211633 0.000000 0.050180
O O4 0.150950 0.231403 0.949898
O O5 0.500000 0.729019 0.989864
O O6 0.382423 0.500000 0.993195
O O7 0.348770 0.713518 0.857615
O O8 0.500000 0.240257 0.518925
O O9 0.319089 0.199571 0.449594
O O10 0.346265 0.232801 0.650938
O O11 0.404559 0.000000 0.565485
O O12 0.834349 0.722409 0.348237
O O13 0.848090 0.777315 0.544045
O O14 0.820328 0.000000 0.412672
O O15 0.154645 0.500000 0.871847
O O16 0.157700 0.729537 0.747478
O O17 0.000000 0.670951 0.855552
O O18 0.861795 0.500000 0.222607
O O19 0.000000 0.698504 0.255524
O O20 0.500000 0.335978 0.747574
O O21 0.344697 0.500000 0.718902
O O22 0.000000 0.174779 0.655571
O O23 0.847619 0.000000 0.674829
#
# Coordination Sequence:
#
# PCOD8166943 Si02
#       8
#     4   4   4   4   4   4   4   4
#     4  12  25  39  61  89 118 154 198 244 298 359
#     4   9  19  37  59  85 121 161 200 244 293 345
#     4   9  18  32  51  80 120 160 197 238 282 333
#     4  10  21  37  59  86 117 154 197 241 296 356
#     4  10  21  37  57  83 117 155 195 242 298 359
#     4  11  25  45  67  89 113 145 193 251 307 365
#     4   8  15  29  50  77 111 153 196 236 280 330
#     4   9  18  33  53  80 115 151 189 238 297 360
#
# _framework density 19.971440999999999
#
# number of rings (size 3 to 8) (size 9 to 14) (size 15 to 20)
#    0.000    2.250    0.000    3.375    1.750    5.500 
#    0.000    3.125    0.000    2.250    0.000    0.000 
#    0.000    0.000    0.000    0.000    0.000    0.000 
#
# Total GULP energy -396782.501863 kJ/mol
# GULP energy per Si atom -12399.453183 kJ/mol
# Density = 1.992598 g / cm^3
# Si number density = 19.971441 Si / 1000 Ang^3
#
#
#
# Elastic Constant Matrix: (Units=GPa)
#
#
# Indices 1 2 3 4 5 6 
#
# 1 50.7635 39.7070 41.1418 0.0000 0.0000 0.0000
# 2 39.7070 90.8101 45.6426 0.0000 0.0000 0.0000
# 3 41.1418 45.6426 105.4253 0.0000 0.0000 0.0000
# 4 0.0000 0.0000 0.0000 37.0822 0.0000 0.0000
# 5 0.0000 0.0000 0.0000 0.0000 30.8715 0.0000
# 6 0.0000 0.0000 0.0000 0.0000 0.0000 25.9918
#
#
#
# Elastic Compliance Matrix: (Units=1/GPa)
#
#
# Indices 1 2 3 4 5 6 
#
# 1 0.035764 -0.011021 -0.009185 0.000000 0.000000 0.000000
# 2 -0.011021 0.017471 -0.003263 0.000000 0.000000 0.000000
# 3 -0.009185 -0.003263 0.014483 0.000000 0.000000 0.000000
# 4 0.000000 0.000000 0.000000 0.026967 0.000000 0.000000
# 5 0.000000 0.000000 0.000000 0.000000 0.032392 0.000000
# 6 0.000000 0.000000 0.000000 0.000000 0.000000 0.038474
#
#
# Mechanical properties :
#
#
# Convention : Reuss Voigt Hill
#
# Bulk Modulus (GPa) = 48.12578 55.55352 51.83965
# Shear Modulus (GPa) = 22.78770 26.82293 24.80532
#
# Velocity S-wave (km/s) = 3.38156 3.66876 3.52808
# Velocity P-wave (km/s) = 6.27664 6.76929 6.52761
#
# Compressibility (1/GPa) = 0.02077888
#
# Stress axis : x y z
#
# Youngs Moduli (GPa) = 27.96078 57.23744 69.04869
#
# Poissons Ratio (x) = 0.63084 0.63424
# Poissons Ratio (y) = 0.30817 0.22529
# Poissons Ratio (z) = 0.25683 0.18676
#
# Static dielectric constant tensor:
#      x y z
#    x 3.920660 0.000000 0.000000 
#    y 0.000000 3.677020 0.000000 
#    z 0.000000 0.000000 3.663800 
# 
# 
# High freq. dielectric constant tensor:
#      x y z
#    x 1.797850 0.000000 0.000000 
#    y 0.000000 1.772190 0.000000 
#    z 0.000000 0.000000 1.763150 
# 
# From -- ./inp_files/4276.got.cif
#   From: 2010.03.12/outbox.cif.g09.slc.cpg/sg25_3_cif.got.tgz:4276.got - 2010.04.14 03:30:10.
