data_PCOD8166170
_publ_section_title
;
Structure prediction by ZEFSAII (Michael W. Deem and Ramdas Pophale) SiO2 
 PCOD8166170
Probable space group: I 21 21 21
;
_chemical_formula_sum "Si O2"
_cell_formula_units_Z 48
_cell_length_a 17.131317
_cell_length_b 15.655876
_cell_length_c 7.832538
_cell_angle_alpha 90.000000
_cell_angle_beta 90.000000
_cell_angle_gamma 90.000000
_cell_volume 2100.731922
_symmetry_space_group_name_H-M "I 21 21 21"
_symmetry_group_IT_number 24
_symmetry_cell_setting 'orthorhombic'
loop_
_space_group_symop_operation_xyz
x,y,z
-x,1/2-y,z
x,-y,1/2-z
1/2-x,y,-z
1/2+x,1/2+y,1/2+z
1/2-x,-y,1/2+z
1/2+x,1/2-y,-z
-x,1/2+y,1/2-z
loop_
_atom_site_type_symbol
_atom_site_label
_atom_site_fract_x
_atom_site_fract_y
_atom_site_fract_z
Si Si1 0.029522 0.413633 0.035737
Si Si2 0.978721 0.404353 0.399846
Si Si3 0.725578 0.261610 0.191559
Si Si4 0.553178 0.325663 0.245309
Si Si5 0.197763 0.916205 0.159143
Si Si6 0.311799 0.582179 0.361485
O O1 0.008890 0.365708 0.217184
O O2 0.033953 0.515180 0.063326
O O3 0.112353 0.382249 0.962488
O O4 0.962760 0.400686 0.891020
O O5 0.979356 0.341286 0.561968
O O6 0.891009 0.437890 0.380187
O O7 0.645147 0.308834 0.239439
O O8 0.795791 0.323392 0.250586
O O9 0.719276 0.162386 0.256734
O O10 0.750000 0.246040 0.000000
O O11 0.500000 0.250000 0.171142
O O12 0.233594 0.000000 0.250000
O O13 0.250000 0.900433 0.000000
O O14 0.334012 0.500000 0.250000
O O15 0.250000 0.550181 0.500000
#
# Coordination Sequence:
#
# PCOD8166170 Si02
#       6
#     8   8   8   8   8   8
#     4  11  24  46  72 103 143 183 241 307 364 444
#     4  11  25  44  73 109 139 185 244 298 378 445
#     4  11  25  45  69 101 145 192 245 297 370 442
#     4  12  24  44  69 104 143 194 236 298 369 440
#     4  12  24  42  68 106 146 188 231 294 372 456
#     4  11  26  49  73 103 138 198 251 313 377 432
#
# _framework density 22.849181000000002
#
# number of rings (size 3 to 8) (size 9 to 14) (size 15 to 20)
#    0.000    0.667    5.000    3.000    4.667    1.333 
#    6.000    0.000    0.000    0.000    0.000    0.000 
#    0.000    0.000    0.000    0.000    0.000    0.000 
#
# Total GULP energy -297331.299779 kJ/mol
# GULP energy per Si atom -12388.804157 kJ/mol
# Density = 2.279718 g / cm^3
# Si number density = 22.849181 Si / 1000 Ang^3
#
#
#
# Elastic Constant Matrix: (Units=GPa)
#
#
# Indices 1 2 3 4 5 6 
#
# 1 63.9791 6.8357 13.1440 0.0000 0.0000 0.0000
# 2 6.8357 110.8916 36.6416 0.0000 0.0000 0.0000
# 3 13.1440 36.6416 115.1956 0.0000 0.0000 0.0000
# 4 0.0000 0.0000 0.0000 22.7722 0.0000 0.0000
# 5 0.0000 0.0000 0.0000 0.0000 42.3109 0.0000
# 6 0.0000 0.0000 0.0000 0.0000 0.0000 8.6805
#
#
#
# Elastic Compliance Matrix: (Units=1/GPa)
#
#
# Indices 1 2 3 4 5 6 
#
# 1 0.016024 -0.000429 -0.001692 0.000000 0.000000 0.000000
# 2 -0.000429 0.010088 -0.003160 0.000000 0.000000 0.000000
# 3 -0.001692 -0.003160 0.009879 0.000000 0.000000 0.000000
# 4 0.000000 0.000000 0.000000 0.043913 0.000000 0.000000
# 5 0.000000 0.000000 0.000000 0.000000 0.023635 0.000000
# 6 0.000000 0.000000 0.000000 0.000000 0.000000 0.115201
#
#
# Mechanical properties :
#
#
# Convention : Reuss Voigt Hill
#
# Bulk Modulus (GPa) = 39.32412 44.81212 42.06812
# Shear Modulus (GPa) = 21.02805 30.31572 25.67189
#
# Velocity S-wave (km/s) = 3.03693 3.64644 3.35556
# Velocity P-wave (km/s) = 5.43553 6.11420 5.78482
#
# Compressibility (1/GPa) = 0.02542969
#
# Stress axis : x y z
#
# Youngs Moduli (GPa) = 62.40831 99.12380 101.22391
#
# Poissons Ratio (x) = 0.04249 0.17127
# Poissons Ratio (y) = 0.02675 0.31987
# Poissons Ratio (z) = 0.10559 0.31323
#
# Static dielectric constant tensor:
#      x y z
#    x 4.178220 0.000000 0.000000 
#    y 0.000000 3.191060 0.000000 
#    z 0.000000 0.000000 4.315410 
# 
# 
# High freq. dielectric constant tensor:
#      x y z
#    x 1.900270 0.000000 0.000000 
#    y 0.000000 1.903250 0.000000 
#    z 0.000000 0.000000 1.902660 
# 
# From -- ./inp_files/14187.got.cif
#   From: 2010.03.12/outbox.cif.g09.slc.cpg/sg24_8_cif.got.tgz:14187.got - 2010.04.14 03:06:53.
