data_PCOD8166518
_publ_section_title
;
Structure prediction by ZEFSAII (Michael W. Deem and Ramdas Pophale) SiO2 
 PCOD8166518
Probable space group: P M M 2
;
_chemical_formula_sum "Si O2"
_cell_formula_units_Z 17
_cell_length_a 8.049701
_cell_length_b 7.697343
_cell_length_c 13.436177
_cell_angle_alpha 90.000000
_cell_angle_beta 90.000000
_cell_angle_gamma 90.000000
_cell_volume 832.523124
_symmetry_space_group_name_H-M "P M M 2"
_symmetry_group_IT_number 25
_symmetry_cell_setting 'orthorhombic'
loop_
_space_group_symop_operation_xyz
x,y,z
-x,-y,z
-x,y,z
x,-y,z
loop_
_atom_site_type_symbol
_atom_site_label
_atom_site_fract_x
_atom_site_fract_y
_atom_site_fract_z
Si Si1 0.500000 0.806445 0.579540
Si Si2 0.500000 0.000000 0.389565
Si Si3 0.178671 0.802293 0.677662
Si Si4 0.310482 0.700783 0.878969
Si Si5 0.806267 0.303972 0.090261
Si Si6 0.804343 0.000000 0.240895
O O1 0.500000 0.826340 0.459384
O O2 0.332415 0.708953 0.619041
O O3 0.500000 0.000000 0.629230
O O4 0.673502 0.000000 0.330622
O O5 0.201372 0.797740 0.796785
O O6 0.000000 0.713667 0.651362
O O7 0.169501 0.000000 0.641539
O O8 0.500000 0.733500 0.850085
O O9 0.260671 0.500000 0.876587
O O10 0.278011 0.770713 0.990222
O O11 0.742588 0.500000 0.116444
O O12 0.000000 0.306639 0.069628
O O13 0.762664 0.173672 0.179268
O O14 0.000000 0.000000 0.275159
#
# Coordination Sequence:
#
# PCOD8166518 Si02
#       6
#     2   1   4   4   4   2
#     4   8  18  36  52  77 109 128 178 230 275 325
#     4  10  22  38  60  84 106 138 182 240 300 334
#     4  10  19  32  54  80 106 144 181 215 266 323
#     4  10  20  32  50  79 116 153 186 219 264 327
#     4   9  19  36  55  80 118 155 187 229 276 328
#     4  10  22  38  59  87 110 143 195 238 281 344
#
# _framework density 20.419854999999998
#
# number of rings (size 3 to 8) (size 9 to 14) (size 15 to 20)
#    0.353    2.118    1.176    0.706    3.294    2.353 
#    0.000    0.000    0.000    2.824    0.000    3.294 
#    0.000    0.000    0.000    0.000    0.000    0.000 
#
# Total GULP energy -210633.953757 kJ/mol
# GULP energy per Si atom -12390.232574 kJ/mol
# Density = 2.037338 g / cm^3
# Si number density = 20.419855 Si / 1000 Ang^3
#
#
#
# Elastic Constant Matrix: (Units=GPa)
#
#
# Indices 1 2 3 4 5 6 
#
# 1 159.5208 21.5364 77.2486 0.0000 0.0000 0.0000
# 2 21.5364 48.8325 24.5914 0.0000 0.0000 0.0000
# 3 77.2486 24.5914 123.0166 0.0000 0.0000 0.0000
# 4 0.0000 0.0000 0.0000 -0.3707 0.0000 0.0000
# 5 0.0000 0.0000 0.0000 0.0000 30.9943 0.0000
# 6 0.0000 0.0000 0.0000 0.0000 0.0000 11.8748
#
#
#
# Elastic Compliance Matrix: (Units=1/GPa)
#
#
# Indices 1 2 3 4 5 6 
#
# 1 0.009077 -0.001260 -0.005448 0.000000 0.000000 0.000000
# 2 -0.001260 0.022945 -0.003796 0.000000 0.000000 0.000000
# 3 -0.005448 -0.003796 0.012309 0.000000 0.000000 0.000000
# 4 0.000000 0.000000 0.000000 -2.697509 0.000000 0.000000
# 5 0.000000 0.000000 0.000000 0.000000 0.032264 0.000000
# 6 0.000000 0.000000 0.000000 0.000000 0.000000 0.084212
#
#
# Mechanical properties :
#
#
# Convention : Reuss Voigt Hill
#
# Bulk Modulus (GPa) = 42.87422 64.23585 53.55504
# Shear Modulus (GPa) = -1.99368 22.36590 10.18611
#
# Velocity S-wave (km/s) = -0.98917 3.31312 2.23588
# Velocity P-wave (km/s) = 4.44267 6.79423 5.74016
#
# Compressibility (1/GPa) = 0.02332404
#
# Stress axis : x y z
#
# Youngs Moduli (GPa) = 110.16666 43.58200 81.24127
#
# Poissons Ratio (x) = 0.05490 0.44262
# Poissons Ratio (y) = 0.13877 0.30838
# Poissons Ratio (z) = 0.60021 0.16543
#
# Static dielectric constant tensor:
#      x y z
#    x 4.159550 0.000000 0.000000 
#    y 0.000000 3.608660 0.000000 
#    z 0.000000 0.000000 3.414070 
# 
# 
# High freq. dielectric constant tensor:
#      x y z
#    x 1.816400 0.000000 0.000000 
#    y 0.000000 1.765780 0.000000 
#    z 0.000000 0.000000 1.770700 
# 
# From -- ./inp_files/3721.got.cif
#   From: 2010.03.12/outbox.cif.g09.slc.cpg/sg25_2_cif.got.tgz:3721.got - 2010.04.14 03:30:10.
