data_PCOD8166854
_publ_section_title
;
Structure prediction by ZEFSAII (Michael W. Deem and Ramdas Pophale) SiO2 
 PCOD8166854
Probable space group: P M M 2
;
_chemical_formula_sum "Si O2"
_cell_formula_units_Z 18
_cell_length_a 13.742879
_cell_length_b 7.458990
_cell_length_c 9.340104
_cell_angle_alpha 90.000000
_cell_angle_beta 90.000000
_cell_angle_gamma 90.000000
_cell_volume 957.435353
_symmetry_space_group_name_H-M "P M M 2"
_symmetry_group_IT_number 25
_symmetry_cell_setting 'orthorhombic'
loop_
_space_group_symop_operation_xyz
x,y,z
-x,-y,z
-x,y,z
x,-y,z
loop_
_atom_site_type_symbol
_atom_site_label
_atom_site_fract_x
_atom_site_fract_y
_atom_site_fract_z
Si Si1 0.000000 0.298057 0.657560
Si Si2 0.000000 0.000000 0.895711
Si Si3 0.710933 0.708264 0.240599
Si Si4 0.500000 0.000000 0.582671
Si Si5 0.300055 0.000000 0.729374
Si Si6 0.794164 0.705141 0.544534
Si Si7 0.210908 0.000000 0.031998
Si Si8 0.500000 0.293105 0.341120
O O1 0.090621 0.263788 0.553183
O O2 0.000000 0.500000 0.718417
O O3 0.000000 0.174429 0.796533
O O4 0.096532 0.000000 0.993322
O O5 0.731703 0.500000 0.209316
O O6 0.756784 0.770184 0.390991
O O7 0.595184 0.749115 0.245625
O O8 0.763892 0.821144 0.119152
O O9 0.412413 0.000000 0.693057
O O10 0.500000 0.823531 0.484653
O O11 0.253333 0.820160 0.668560
O O12 0.282147 0.000000 0.897323
O O13 0.763921 0.500000 0.571294
O O14 0.500000 0.500000 0.391451
#
# Coordination Sequence:
#
# PCOD8166854 Si02
#       8
#     2   1   4   1   2   4   2   2
#     4  10  20  37  65  91 117 157 204 256 304 352
#     4  12  24  40  58  88 124 166 202 238 302 374
#     4  10  22  40  64  91 121 159 201 251 304 358
#     4  12  22  34  64  96 120 154 202 256 296 350
#     4  12  23  37  59  90 126 157 197 246 299 356
#     4  10  20  38  64  90 115 153 207 257 297 345
#     4  12  26  40  58  88 130 167 195 239 304 372
#     4  10  20  39  67  91 115 155 206 254 304 356
#
# _framework density 18.800225000000001
#
# number of rings (size 3 to 8) (size 9 to 14) (size 15 to 20)
#    0.000    1.333    4.444    1.333    0.000    3.556 
#    0.000    1.111    0.000    0.000    0.000    0.000 
#    0.000    0.000    0.000    0.000    0.000    0.000 
#
# Total GULP energy -223243.273505 kJ/mol
# GULP energy per Si atom -12402.404084 kJ/mol
# Density = 1.875743 g / cm^3
# Si number density = 18.800225 Si / 1000 Ang^3
#
#
#
# Elastic Constant Matrix: (Units=GPa)
#
#
# Indices 1 2 3 4 5 6 
#
# 1 142.0619 43.3246 42.4351 0.0000 0.0000 0.0000
# 2 43.3246 97.6440 54.6100 0.0000 0.0000 0.0000
# 3 42.4351 54.6100 107.6084 0.0000 0.0000 0.0000
# 4 0.0000 0.0000 0.0000 -34.4743 0.0000 0.0000
# 5 0.0000 0.0000 0.0000 0.0000 34.0079 0.0000
# 6 0.0000 0.0000 0.0000 0.0000 0.0000 21.8573
#
#
#
# Elastic Compliance Matrix: (Units=1/GPa)
#
#
# Indices 1 2 3 4 5 6 
#
# 1 0.008436 -0.002629 -0.001993 0.000000 0.000000 0.000000
# 2 -0.002629 0.015119 -0.006636 0.000000 0.000000 0.000000
# 3 -0.001993 -0.006636 0.013447 0.000000 0.000000 0.000000
# 4 0.000000 0.000000 0.000000 -0.029007 0.000000 0.000000
# 5 0.000000 0.000000 0.000000 0.000000 0.029405 0.000000
# 6 0.000000 0.000000 0.000000 0.000000 0.000000 0.045751
#
#
# Mechanical properties :
#
#
# Convention : Reuss Voigt Hill
#
# Bulk Modulus (GPa) = 69.02898 69.78374 69.40636
# Shear Modulus (GPa) = 45.25105 18.07448 31.66277
#
# Velocity S-wave (km/s) = 4.91138 3.10400 4.10832
# Velocity P-wave (km/s) = 8.30416 7.07429 7.71377
#
# Compressibility (1/GPa) = 0.01448667
#
# Stress axis : x y z
#
# Youngs Moduli (GPa) = 118.53840 66.14183 74.36834
#
# Poissons Ratio (x) = 0.17386 0.14820
# Poissons Ratio (y) = 0.31159 0.49352
# Poissons Ratio (z) = 0.23622 0.43893
#
# Static dielectric constant tensor:
#      x y z
#    x 3.851010 0.000000 0.000000 
#    y 0.000000 3.801250 0.000000 
#    z 0.000000 0.000000 3.272980 
# 
# 
# High freq. dielectric constant tensor:
#      x y z
#    x 1.747760 0.000000 0.000000 
#    y 0.000000 1.748880 0.000000 
#    z 0.000000 0.000000 1.709940 
# 
# From -- ./inp_files/2574.got.cif
#   From: 2010.03.12/outbox.cif.g09.slc.cpg/sg25_2_cif.got.tgz:2574.got - 2010.04.14 03:30:10.
