data_PCOD8166984
_publ_section_title
;
Structure prediction by ZEFSAII (Michael W. Deem and Ramdas Pophale) SiO2 
 PCOD8166984
Probable space group: P M M 2
;
_chemical_formula_sum "Si O2"
_cell_formula_units_Z 32
_cell_length_a 14.251799
_cell_length_b 8.883791
_cell_length_c 15.810560
_cell_angle_alpha 90.000000
_cell_angle_beta 90.000000
_cell_angle_gamma 90.000000
_cell_volume 2001.775060
_symmetry_space_group_name_H-M "P M M 2"
_symmetry_group_IT_number 25
_symmetry_cell_setting 'orthorhombic'
loop_
_space_group_symop_operation_xyz
x,y,z
-x,-y,z
-x,y,z
x,-y,z
loop_
_atom_site_type_symbol
_atom_site_label
_atom_site_fract_x
_atom_site_fract_y
_atom_site_fract_z
Si Si1 0.394007 0.325987 0.359290
Si Si2 0.894872 0.820244 0.776811
Si Si3 0.891107 0.677073 0.457833
Si Si4 0.105128 0.179756 0.138855
Si Si5 0.888570 0.835075 0.957833
Si Si6 0.785475 0.177585 0.301896
Si Si7 0.605993 0.325987 0.556376
Si Si8 0.785475 0.177585 0.613770
O O1 0.500000 0.279376 0.335379
O O2 0.376527 0.500000 0.337815
O O3 0.323515 0.223844 0.305345
O O4 0.375232 0.296261 0.457833
O O5 0.860396 0.753727 0.868783
O O6 0.825273 0.764790 0.703563
O O7 0.000000 0.762675 0.755444
O O8 0.895554 0.000000 0.783154
O O9 0.874249 0.500000 0.457833
O O10 0.844108 0.743961 0.374953
O O11 0.844108 0.743962 0.540713
O O12 0.000000 0.720747 0.457833
O O13 0.174727 0.235210 0.212103
O O14 0.000000 0.237325 0.160222
O O15 0.104446 0.000000 0.132512
O O16 0.139604 0.246273 0.046884
O O17 0.000000 0.852203 0.957833
O O18 0.841414 0.000000 0.957833
O O19 0.796038 0.000000 0.312326
O O20 0.500000 0.279376 0.580287
O O21 0.623473 0.500000 0.577851
O O22 0.676485 0.223844 0.610321
O O23 0.796038 0.000000 0.603340
#
# Coordination Sequence:
#
# PCOD8166984 Si02
#       8
#     4   4   4   4   4   4   4   4
#     4   9  18  33  50  64  83 115 152 187 222 265
#     4   8  14  24  39  62  92 121 147 176 214 260
#     4  11  23  35  44  57  86 129 165 182 202 253
#     4   8  14  24  39  62  92 121 147 176 214 260
#     4   7  10  20  38  58  84 119 150 174 207 257
#     4  11  20  29  45  70  94 115 143 187 232 264
#     4   9  18  33  50  64  83 115 152 187 222 265
#     4  11  20  29  45  70  94 115 143 187 232 264
#
# _framework density 15.985810000000001
#
# number of rings (size 3 to 8) (size 9 to 14) (size 15 to 20)
#    0.000    2.750    1.250    4.125    0.000    2.500 
#    0.000    1.250    0.000    0.000    0.000    4.375 
#    0.000   21.000    0.000    0.000    0.000    0.000 
#
# Total GULP energy -396535.301874 kJ/mol
# GULP energy per Si atom -12391.728184 kJ/mol
# Density = 1.594943 g / cm^3
# Si number density = 15.985810 Si / 1000 Ang^3
#
#
#
# Elastic Constant Matrix: (Units=GPa)
#
#
# Indices 1 2 3 4 5 6 
#
# 1 105.9324 31.8796 68.6914 0.0000 0.0000 0.0000
# 2 31.8796 32.2521 27.8775 0.0000 0.0000 0.0000
# 3 68.6914 27.8775 144.3784 0.0000 0.0000 0.0000
# 4 0.0000 0.0000 0.0000 -1.7691 0.0000 0.0000
# 5 0.0000 0.0000 0.0000 0.0000 11.5975 0.0000
# 6 0.0000 0.0000 0.0000 0.0000 0.0000 23.9128
#
#
#
# Elastic Compliance Matrix: (Units=1/GPa)
#
#
# Indices 1 2 3 4 5 6 
#
# 1 0.016569 -0.011480 -0.005667 0.000000 0.000000 0.000000
# 2 -0.011480 0.045171 -0.003260 0.000000 0.000000 0.000000
# 3 -0.005667 -0.003260 0.010252 0.000000 0.000000 0.000000
# 4 0.000000 0.000000 0.000000 -0.565271 0.000000 0.000000
# 5 0.000000 0.000000 0.000000 0.000000 0.086225 0.000000
# 6 0.000000 0.000000 0.000000 0.000000 0.000000 0.041819
#
#
# Mechanical properties :
#
#
# Convention : Reuss Voigt Hill
#
# Bulk Modulus (GPa) = 32.07308 59.94000 46.00654
# Shear Modulus (GPa) = -15.92206 17.02255 0.55025
#
# Velocity S-wave (km/s) = -3.15939 3.26675 0.58733
# Velocity P-wave (km/s) = 2.60730 7.19764 5.41314
#
# Compressibility (1/GPa) = 0.03117879
#
# Stress axis : x y z
#
# Youngs Moduli (GPa) = 60.35278 22.13813 97.54456
#
# Poissons Ratio (x) = 0.25414 0.55274
# Poissons Ratio (y) = 0.69284 0.31800
# Poissons Ratio (z) = 0.34199 0.07217
#
# Static dielectric constant tensor:
#      x y z
#    x 3.029980 0.000000 0.000000 
#    y 0.000000 2.749660 0.000000 
#    z 0.000000 0.000000 3.432650 
# 
# 
# High freq. dielectric constant tensor:
#      x y z
#    x 1.598250 0.000000 0.000000 
#    y 0.000000 1.585470 0.000000 
#    z 0.000000 0.000000 1.612570 
# 
# From -- ./inp_files/5926.got.cif
#   From: 2010.03.12/outbox.cif.g09.slc.cpg/sg25_3_cif.got.tgz:5926.got - 2010.04.14 03:30:10.
