data_PCOD8166558
_publ_section_title
;
Structure prediction by ZEFSAII (Michael W. Deem and Ramdas Pophale) SiO2 
 PCOD8166558
Probable space group: P M M 2
;
_chemical_formula_sum "Si O2"
_cell_formula_units_Z 32
_cell_length_a 15.381735
_cell_length_b 8.953346
_cell_length_c 11.956074
_cell_angle_alpha 90.000000
_cell_angle_beta 90.000000
_cell_angle_gamma 90.000000
_cell_volume 1646.566546
_symmetry_space_group_name_H-M "P M M 2"
_symmetry_group_IT_number 25
_symmetry_cell_setting 'orthorhombic'
loop_
_space_group_symop_operation_xyz
x,y,z
-x,-y,z
-x,y,z
x,-y,z
loop_
_atom_site_type_symbol
_atom_site_label
_atom_site_fract_x
_atom_site_fract_y
_atom_site_fract_z
Si Si1 0.830929 0.829634 0.826500
Si Si2 0.748098 0.676349 0.190409
Si Si3 0.245691 0.322952 0.444798
Si Si4 0.098823 0.173867 0.586489
Si Si5 0.596050 0.677453 0.591340
Si Si6 0.597710 0.828844 0.053575
Si Si7 0.651628 0.676051 0.834840
Si Si8 0.097765 0.829476 0.064314
O O1 0.881757 0.783654 0.714748
O O2 0.752298 0.716668 0.845567
O O3 0.796276 0.000000 0.818637
O O4 0.895438 0.810669 0.930755
O O5 0.738798 0.500000 0.182973
O O6 0.752716 0.733201 0.317663
O O7 0.662699 0.745690 0.136000
O O8 0.835525 0.723273 0.127686
O O9 0.244738 0.500000 0.451811
O O10 0.159109 0.265110 0.503146
O O11 0.331379 0.257649 0.507045
O O12 0.000000 0.218786 0.559826
O O13 0.115025 0.000000 0.565381
O O14 0.500000 0.733883 0.554910
O O15 0.599627 0.500000 0.589664
O O16 0.615708 0.734256 0.716329
O O17 0.500000 0.815800 0.102003
O O18 0.627875 0.000000 0.043713
O O19 0.597668 0.756908 0.931049
O O20 0.639789 0.500000 0.848882
O O21 0.000000 0.784657 0.099639
O O22 0.117929 0.000000 0.098624
#
# Coordination Sequence:
#
# PCOD8166558 Si02
#       8
#     4   4   4   4   4   4   4   4
#     4  10  19  34  58  86 118 152 188 235 291 348
#     4  11  24  40  60  85 115 153 198 249 295 340
#     4  10  22  40  59  82 113 151 196 243 290 336
#     4  10  21  37  59  87 118 153 193 236 285 345
#     4   9  18  34  57  84 114 147 183 227 281 340
#     4  11  24  41  61  86 119 156 192 235 290 352
#     4  11  20  33  59  90 120 151 186 232 288 349
#     4  10  21  38  61  86 115 154 194 235 290 352
#
# _framework density 19.434380000000001
#
# number of rings (size 3 to 8) (size 9 to 14) (size 15 to 20)
#    0.000    1.750    2.500    1.875    0.000    5.500 
#    0.000    3.750    0.000    3.375    0.000    0.000 
#    0.000    0.000    0.000    0.000    0.000    0.000 
#
# Total GULP energy -396872.992419 kJ/mol
# GULP energy per Si atom -12402.281013 kJ/mol
# Density = 1.939015 g / cm^3
# Si number density = 19.434380 Si / 1000 Ang^3
#
#
#
# Elastic Constant Matrix: (Units=GPa)
#
#
# Indices 1 2 3 4 5 6 
#
# 1 134.9085 31.9888 62.0874 0.0000 0.0000 0.0000
# 2 31.9888 56.6927 42.9000 0.0000 0.0000 0.0000
# 3 62.0874 42.9000 148.7024 0.0000 0.0000 0.0000
# 4 0.0000 0.0000 0.0000 24.4929 0.0000 0.0000
# 5 0.0000 0.0000 0.0000 0.0000 9.3714 0.0000
# 6 0.0000 0.0000 0.0000 0.0000 0.0000 22.0960
#
#
#
# Elastic Compliance Matrix: (Units=1/GPa)
#
#
# Indices 1 2 3 4 5 6 
#
# 1 0.009568 -0.003039 -0.003118 0.000000 0.000000 0.000000
# 2 -0.003039 0.023531 -0.005519 0.000000 0.000000 0.000000
# 3 -0.003118 -0.005519 0.009619 0.000000 0.000000 0.000000
# 4 0.000000 0.000000 0.000000 0.040828 0.000000 0.000000
# 5 0.000000 0.000000 0.000000 0.000000 0.106708 0.000000
# 6 0.000000 0.000000 0.000000 0.000000 0.000000 0.045257
#
#
# Mechanical properties :
#
#
# Convention : Reuss Voigt Hill
#
# Bulk Modulus (GPa) = 51.64232 68.25069 59.94650
# Shear Modulus (GPa) = 18.84526 24.74723 21.79624
#
# Velocity S-wave (km/s) = 3.11736 3.57231 3.35256
# Velocity P-wave (km/s) = 6.29187 7.22565 6.77486
#
# Compressibility (1/GPa) = 0.01936396
#
# Stress axis : x y z
#
# Youngs Moduli (GPa) = 104.51384 42.49796 103.95985
#
# Poissons Ratio (x) = 0.12916 0.32416
# Poissons Ratio (y) = 0.31765 0.57380
# Poissons Ratio (z) = 0.32589 0.23457
#
# Static dielectric constant tensor:
#      x y z
#    x 3.710350 0.000000 0.000000 
#    y 0.000000 3.402540 0.000000 
#    z 0.000000 0.000000 3.680850 
# 
# 
# High freq. dielectric constant tensor:
#      x y z
#    x 1.768610 0.000000 0.000000 
#    y 0.000000 1.741080 0.000000 
#    z 0.000000 0.000000 1.758020 
# 
# From -- ./inp_files/4164.got.cif
#   From: 2010.03.12/outbox.cif.g09.slc.cpg/sg25_3_cif.got.tgz:4164.got - 2010.04.14 03:30:10.
