data_PCOD8166132
_publ_section_title
;
Structure prediction by ZEFSAII (Michael W. Deem and Ramdas Pophale) SiO2 
 PCOD8166132
Probable space group: I 21 21 21
;
_chemical_formula_sum "Si O2"
_cell_formula_units_Z 44
_cell_length_a 13.171769
_cell_length_b 16.800679
_cell_length_c 9.062629
_cell_angle_alpha 90.000000
_cell_angle_beta 90.000000
_cell_angle_gamma 90.000000
_cell_volume 2005.511429
_symmetry_space_group_name_H-M "I 21 21 21"
_symmetry_group_IT_number 24
_symmetry_cell_setting 'orthorhombic'
loop_
_space_group_symop_operation_xyz
x,y,z
-x,1/2-y,z
x,-y,1/2-z
1/2-x,y,-z
1/2+x,1/2+y,1/2+z
1/2-x,-y,1/2+z
1/2+x,1/2-y,-z
-x,1/2+y,1/2-z
loop_
_atom_site_type_symbol
_atom_site_label
_atom_site_fract_x
_atom_site_fract_y
_atom_site_fract_z
Si Si1 0.146786 0.149394 0.694610
Si Si2 0.651961 0.788442 0.421445
Si Si3 0.378173 0.864466 0.858522
Si Si4 0.000000 0.250000 0.154180
Si Si5 0.359585 0.460898 0.018664
Si Si6 0.483818 0.500000 0.750000
Si Si7 0.512602 0.500000 0.250000
O O1 0.124572 0.231479 0.783839
O O2 0.263535 0.121552 0.697109
O O3 0.115475 0.166049 0.526347
O O4 0.081724 0.078718 0.768884
O O5 0.750000 0.749927 0.500000
O O6 0.564969 0.802623 0.542411
O O7 0.668167 0.881505 0.382811
O O8 0.423898 0.798261 0.754390
O O9 0.442695 0.944497 0.846390
O O10 0.439893 0.513243 0.109642
O O11 0.250000 0.504994 0.000000
O O12 0.411590 0.448652 0.858135
#
# Coordination Sequence:
#
# PCOD8166132 Si02
#       7
#     8   8   8   4   8   4   4
#     4  11  25  45  68 107 144 181 240 295 366 431
#     4  11  23  43  71 103 138 188 238 295 348 435
#     4  11  25  43  71 103 143 189 234 299 362 435
#     4  12  22  42  68 102 136 182 236 286 366 412
#     4  11  25  44  72 101 139 191 243 292 359 427
#     4  12  22  48  68 102 144 188 238 296 360 436
#     4  12  24  44  68 104 142 186 232 300 366 422
#
# _framework density 21.939540999999998
#
# number of rings (size 3 to 8) (size 9 to 14) (size 15 to 20)
#    0.000    0.727    5.455    2.182    0.000    2.182 
#    3.273    0.000    0.000    0.000    0.000    0.000 
#    0.000    0.000    0.000    0.000    0.000    0.000 
#
# Total GULP energy -272653.816498 kJ/mol
# GULP energy per Si atom -12393.355295 kJ/mol
# Density = 2.188961 g / cm^3
# Si number density = 21.939541 Si / 1000 Ang^3
#
#
#
# Elastic Constant Matrix: (Units=GPa)
#
#
# Indices 1 2 3 4 5 6 
#
# 1 144.7741 26.9724 64.7976 0.0000 0.0000 0.0000
# 2 26.9724 80.3873 39.4727 0.0000 0.0000 0.0000
# 3 64.7976 39.4727 127.5313 0.0000 0.0000 0.0000
# 4 0.0000 0.0000 0.0000 -11.2899 0.0000 0.0000
# 5 0.0000 0.0000 0.0000 0.0000 42.2795 0.0000
# 6 0.0000 0.0000 0.0000 0.0000 0.0000 30.1184
#
#
#
# Elastic Compliance Matrix: (Units=1/GPa)
#
#
# Indices 1 2 3 4 5 6 
#
# 1 0.008997 -0.000913 -0.004289 0.000000 0.000000 0.000000
# 2 -0.000913 0.014762 -0.004105 0.000000 0.000000 0.000000
# 3 -0.004289 -0.004105 0.011291 0.000000 0.000000 0.000000
# 4 0.000000 0.000000 0.000000 -0.088575 0.000000 0.000000
# 5 0.000000 0.000000 0.000000 0.000000 0.023652 0.000000
# 6 0.000000 0.000000 0.000000 0.000000 0.000000 0.033202
#
#
# Mechanical properties :
#
#
# Convention : Reuss Voigt Hill
#
# Bulk Modulus (GPa) = 60.84150 68.35311 64.59731
# Shear Modulus (GPa) = 182.33910 26.98494 104.66202
#
# Velocity S-wave (km/s) = 9.12635 3.51089 6.91436
# Velocity P-wave (km/s) = 11.78326 6.90348 9.65669
#
# Compressibility (1/GPa) = 0.01643615
#
# Stress axis : x y z
#
# Youngs Moduli (GPa) = 111.14925 67.74221 88.56707
#
# Poissons Ratio (x) = 0.06184 0.37984
# Poissons Ratio (y) = 0.10146 0.36358
# Poissons Ratio (z) = 0.47669 0.27809
#
# Static dielectric constant tensor:
#      x y z
#    x 4.322170 0.000000 0.000000 
#    y 0.000000 3.657420 0.000000 
#    z 0.000000 0.000000 3.912020 
# 
# 
# High freq. dielectric constant tensor:
#      x y z
#    x 1.889510 0.000000 0.000000 
#    y 0.000000 1.840480 0.000000 
#    z 0.000000 0.000000 1.864110 
# 
# From -- ./inp_files/12712.got.cif
#   From: 2010.03.12/outbox.cif.g09.slc.cpg/sg24_7_cif.got.tgz:12712.got - 2010.04.14 03:06:53.
