data_PCOD8166295
_publ_section_title
;
Structure prediction by ZEFSAII (Michael W. Deem and Ramdas Pophale) SiO2 
 PCOD8166295
Probable space group: I 21 21 21
;
_chemical_formula_sum "Si O2"
_cell_formula_units_Z 16
_cell_length_a 7.332149
_cell_length_b 14.468151
_cell_length_c 5.338792
_cell_angle_alpha 90.000000
_cell_angle_beta 90.000000
_cell_angle_gamma 90.000000
_cell_volume 566.353144
_symmetry_space_group_name_H-M "I 21 21 21"
_symmetry_group_IT_number 24
_symmetry_cell_setting 'orthorhombic'
loop_
_space_group_symop_operation_xyz
x,y,z
-x,1/2-y,z
x,-y,1/2-z
1/2-x,y,-z
1/2+x,1/2+y,1/2+z
1/2-x,-y,1/2+z
1/2+x,1/2-y,-z
-x,1/2+y,1/2-z
loop_
_atom_site_type_symbol
_atom_site_label
_atom_site_fract_x
_atom_site_fract_y
_atom_site_fract_z
Si Si1 0.500000 0.750000 0.892854
Si Si2 0.387564 0.397849 0.203415
Si Si3 0.750000 0.344966 0.000000
O O1 0.672406 0.717342 0.727468
O O2 0.414258 0.665588 0.052015
O O3 0.308219 0.500000 0.250000
O O4 0.587245 0.410494 0.086363
O O5 0.250000 0.350832 0.000000
#
# Coordination Sequence:
#
# PCOD8166295 Si02
#       3
#     4   8   4
#     4  12  32  62  90 130 182 232 308 354 460 520
#     4  12  34  56  92 131 183 234 295 372 443 535
#     4  12  32  52  96 128 174 244 286 386 422 544
#
# _framework density 28.250924999999999
#
# number of rings (size 3 to 8) (size 9 to 14) (size 15 to 20)
#    0.000    0.000    0.000    3.000   35.000    0.000 
#    0.000    0.000    0.000    0.000    0.000    0.000 
#    0.000    0.000    0.000    0.000    0.000    0.000 
#
# Total GULP energy -99160.709644 kJ/mol
# GULP energy per Si atom -12395.088706 kJ/mol
# Density = 2.818662 g / cm^3
# Si number density = 28.250925 Si / 1000 Ang^3
#
#
#
# Elastic Constant Matrix: (Units=GPa)
#
#
# Indices 1 2 3 4 5 6 
#
# 1 195.4954 8.5266 63.0018 0.0003 -0.0001 0.0001
# 2 8.5266 170.0708 75.4799 0.0021 -0.0004 0.0001
# 3 63.0018 75.4799 215.1215 0.0077 -0.0001 0.0018
# 4 0.0003 0.0021 0.0077 29.6564 -0.0002 0.0001
# 5 -0.0001 -0.0004 -0.0001 -0.0002 72.1545 0.0000
# 6 0.0001 0.0001 0.0018 0.0001 0.0000 24.0224
#
#
#
# Elastic Compliance Matrix: (Units=1/GPa)
#
#
# Indices 1 2 3 4 5 6 
#
# 1 0.005690 0.000538 -0.001855 0.000000 0.000000 0.000000
# 2 0.000538 0.007015 -0.002619 0.000000 0.000000 0.000000
# 3 -0.001855 -0.002619 0.006111 -0.000001 0.000000 0.000000
# 4 0.000000 0.000000 -0.000001 0.033719 0.000000 0.000000
# 5 0.000000 0.000000 0.000000 0.000000 0.013859 0.000000
# 6 0.000000 0.000000 0.000000 0.000000 0.000000 0.041628
#
#
# Mechanical properties :
#
#
# Convention : Reuss Voigt Hill
#
# Bulk Modulus (GPa) = 91.37825 97.18937 94.28381
# Shear Modulus (GPa) = 41.82629 54.07863 47.95246
#
# Velocity S-wave (km/s) = 3.85194 4.37993 4.12439
# Velocity P-wave (km/s) = 7.22486 7.74953 7.49179
#
# Compressibility (1/GPa) = 0.01094352
#
# Stress axis : x y z
#
# Youngs Moduli (GPa) = 175.76022 142.54559 163.64549
#
# Poissons Ratio (x) = -0.07670 0.30357
# Poissons Ratio (y) = -0.09457 0.42859
# Poissons Ratio (z) = 0.32605 0.37333
#
# Static dielectric constant tensor:
#      x y z
#    x 5.916610 0.000000 0.000000 
#    y 0.000000 4.582620 0.000000 
#    z 0.000000 0.000000 5.721570 
# 
# 
# High freq. dielectric constant tensor:
#      x y z
#    x 2.181190 0.000000 0.000000 
#    y 0.000000 2.136660 0.000000 
#    z 0.000000 0.000000 2.169110 
# 
# From -- ./inp_files/575.got.cif
#   From: 2010.03.12/outbox.cif.g09.slc.cpg/sg24_1_cif.got.tgz:575.got - 2010.04.14 03:06:53.
