data_PCOD8166651
_publ_section_title
;
Structure prediction by ZEFSAII (Michael W. Deem and Ramdas Pophale) SiO2 
 PCOD8166651
Probable space group: P M M 2
;
_chemical_formula_sum "Si O2"
_cell_formula_units_Z 28
_cell_length_a 9.143173
_cell_length_b 9.313492
_cell_length_c 17.975339
_cell_angle_alpha 90.000000
_cell_angle_beta 90.000000
_cell_angle_gamma 90.000000
_cell_volume 1530.687630
_symmetry_space_group_name_H-M "P M M 2"
_symmetry_group_IT_number 25
_symmetry_cell_setting 'orthorhombic'
loop_
_space_group_symop_operation_xyz
x,y,z
-x,-y,z
-x,y,z
x,-y,z
loop_
_atom_site_type_symbol
_atom_site_label
_atom_site_fract_x
_atom_site_fract_y
_atom_site_fract_z
Si Si1 0.173487 0.341481 0.056280
Si Si2 0.169886 0.668407 0.481950
Si Si3 0.169686 0.331943 0.222994
Si Si4 0.826420 0.837176 0.918067
Si Si5 0.338612 0.329864 0.625368
Si Si6 0.328505 0.664911 0.790572
Si Si7 0.671956 0.167077 0.350927
O O1 0.237866 0.500000 0.040004
O O2 0.218351 0.291387 0.139040
O O3 0.000000 0.348775 0.052832
O O4 0.235259 0.233942 0.993957
O O5 0.201428 0.500000 0.470107
O O6 0.224012 0.721111 0.563081
O O7 0.255657 0.756590 0.420811
O O8 0.000000 0.703779 0.475069
O O9 0.196838 0.500000 0.238710
O O10 0.268978 0.236137 0.275566
O O11 0.000000 0.294744 0.237099
O O12 0.762663 0.759942 0.846662
O O13 0.000000 0.825432 0.914644
O O14 0.771984 0.000000 0.918110
O O15 0.500000 0.268011 0.605987
O O16 0.348504 0.500000 0.628004
O O17 0.289328 0.278500 0.707448
O O18 0.500000 0.682900 0.805853
O O19 0.280599 0.500000 0.800832
O O20 0.500000 0.192347 0.355142
O O21 0.713176 0.000000 0.352034
#
# Coordination Sequence:
#
# PCOD8166651 Si02
#       7
#     4   4   4   4   4   4   4
#     4   8  15  30  52  76 101 130 166 209 255 301
#     4  10  20  34  55  82 106 129 164 209 255 304
#     4   9  18  34  57  82 103 126 164 212 258 305
#     4  10  20  32  48  74 106 138 173 210 250 300
#     4   8  15  30  52  76 101 130 166 209 255 301
#     4   9  18  33  53  76 101 132 172 213 253 301
#     4  11  24  38  51  72 104 140 175 207 244 296
#
# _framework density 18.292432999999999
#
# number of rings (size 3 to 8) (size 9 to 14) (size 15 to 20)
#    0.000    2.714    0.000    3.429    0.000    6.286 
#    0.000    4.286    0.000    1.714    0.000    0.000 
#    0.000    0.000    0.000    0.000    0.000    0.000 
#
# Total GULP energy -347138.136537 kJ/mol
# GULP energy per Si atom -12397.790591 kJ/mol
# Density = 1.825080 g / cm^3
# Si number density = 18.292433 Si / 1000 Ang^3
#
#
#
# Elastic Constant Matrix: (Units=GPa)
#
#
# Indices 1 2 3 4 5 6 
#
# 1 64.8171 49.4151 57.0327 0.0000 0.0000 0.0000
# 2 49.4151 95.9863 76.4826 0.0000 0.0000 0.0000
# 3 57.0327 76.4826 160.7188 0.0000 0.0000 0.0000
# 4 0.0000 0.0000 0.0000 -6.7476 0.0000 0.0000
# 5 0.0000 0.0000 0.0000 0.0000 -127.4202 0.0000
# 6 0.0000 0.0000 0.0000 0.0000 0.0000 24.9865
#
#
#
# Elastic Compliance Matrix: (Units=1/GPa)
#
#
# Indices 1 2 3 4 5 6 
#
# 1 0.027584 -0.010311 -0.004882 0.000000 0.000000 0.000000
# 2 -0.010311 0.020636 -0.006161 0.000000 0.000000 0.000000
# 3 -0.004882 -0.006161 0.010886 0.000000 0.000000 0.000000
# 4 0.000000 0.000000 0.000000 -0.148202 0.000000 0.000000
# 5 0.000000 0.000000 0.000000 0.000000 -0.007848 0.000000
# 6 0.000000 0.000000 0.000000 0.000000 0.000000 0.040022
#
#
# Mechanical properties :
#
#
# Convention : Reuss Voigt Hill
#
# Bulk Modulus (GPa) = 60.98091 76.37591 68.67841
# Shear Modulus (GPa) = -571.56564 -12.59679 -292.08122
#
# Velocity S-wave (km/s) = -17.69572 -2.62703 -12.64990
# Velocity P-wave (km/s) = 19.59870 5.71329 13.25646
#
# Compressibility (1/GPa) = 0.01639857
#
# Stress axis : x y z
#
# Youngs Moduli (GPa) = 36.25241 48.46007 91.85813
#
# Poissons Ratio (x) = 0.49967 0.44844
# Poissons Ratio (y) = 0.37380 0.56595
# Poissons Ratio (z) = 0.17698 0.29857
#
# Static dielectric constant tensor:
#      x y z
#    x 3.859850 0.000000 0.000000 
#    y 0.000000 3.323360 0.000000 
#    z 0.000000 0.000000 3.691720 
# 
# 
# High freq. dielectric constant tensor:
#      x y z
#    x 1.691310 0.000000 0.000000 
#    y 0.000000 1.690260 0.000000 
#    z 0.000000 0.000000 1.727720 
# 
# From -- ./inp_files/6141.got.cif
#   From: 2010.03.12/outbox.cif.g09.slc.cpg/sg25_4_cif.got.tgz:6141.got - 2010.04.14 03:30:10.
