data_PCOD8166631
_publ_section_title
;
Structure prediction by ZEFSAII (Michael W. Deem and Ramdas Pophale) SiO2 
 PCOD8166631
Probable space group: P M M 2
;
_chemical_formula_sum "Si O2"
_cell_formula_units_Z 28
_cell_length_a 9.319689
_cell_length_b 9.101442
_cell_length_c 18.049643
_cell_angle_alpha 90.000000
_cell_angle_beta 90.000000
_cell_angle_gamma 90.000000
_cell_volume 1531.017809
_symmetry_space_group_name_H-M "P M M 2"
_symmetry_group_IT_number 25
_symmetry_cell_setting 'orthorhombic'
loop_
_space_group_symop_operation_xyz
x,y,z
-x,-y,z
-x,y,z
x,-y,z
loop_
_atom_site_type_symbol
_atom_site_label
_atom_site_fract_x
_atom_site_fract_y
_atom_site_fract_z
Si Si1 0.329000 0.665975 0.207980
Si Si2 0.829859 0.662339 0.769782
Si Si3 0.332689 0.829483 0.062047
Si Si4 0.832860 0.329614 0.934948
Si Si5 0.169988 0.167739 0.627595
Si Si6 0.329271 0.165708 0.351375
Si Si7 0.666686 0.328038 0.498644
O O1 0.500000 0.668349 0.210014
O O2 0.270217 0.500000 0.209350
O O3 0.272445 0.744662 0.133886
O O4 0.267121 0.751491 0.279335
O O5 0.768854 0.500000 0.750331
O O6 0.779021 0.709946 0.851822
O O7 0.776678 0.778133 0.708426
O O8 0.000000 0.653803 0.770863
O O9 0.500000 0.797973 0.051371
O O10 0.300576 0.000000 0.074079
O O11 0.253767 0.773779 0.989450
O O12 0.801269 0.500000 0.952359
O O13 0.000000 0.294600 0.944327
O O14 0.243549 0.268725 0.567007
O O15 0.000000 0.184806 0.619675
O O16 0.219200 0.000000 0.617432
O O17 0.500000 0.165463 0.348244
O O18 0.276067 0.249423 0.424580
O O19 0.268935 0.000000 0.352701
O O20 0.500000 0.292605 0.512398
O O21 0.694051 0.500000 0.489391
#
# Coordination Sequence:
#
# PCOD8166631 Si02
#       7
#     4   4   4   4   4   4   4
#     4   9  16  27  45  68  94 126 164 202 238 280
#     4   8  15  30  51  72  94 123 161 202 240 283
#     4  10  20  32  47  71 102 132 163 200 242 287
#     4   9  18  33  53  75  97 124 161 202 243 290
#     4  10  20  33  51  75 100 127 161 200 243 291
#     4   9  16  27  45  69  97 127 159 198 242 285
#     4  10  20  33  50  73 100 130 165 202 240 285
#
# _framework density 18.288488000000001
#
# number of rings (size 3 to 8) (size 9 to 14) (size 15 to 20)
#    0.000    2.714    0.000    3.000    0.000    6.857 
#    0.000    2.143    0.000    1.714    0.000    0.000 
#    0.000    0.000    0.000    0.000    0.000    0.000 
#
# Total GULP energy -347177.039119 kJ/mol
# GULP energy per Si atom -12399.179969 kJ/mol
# Density = 1.824686 g / cm^3
# Si number density = 18.288488 Si / 1000 Ang^3
#
#
#
# Elastic Constant Matrix: (Units=GPa)
#
#
# Indices 1 2 3 4 5 6 
#
# 1 21.9209 30.4237 30.8766 0.0000 0.0000 0.0000
# 2 30.4237 129.6975 76.9506 0.0000 0.0000 0.0000
# 3 30.8766 76.9506 154.3912 0.0000 0.0000 0.0000
# 4 0.0000 0.0000 0.0000 37.1623 0.0000 0.0000
# 5 0.0000 0.0000 0.0000 0.0000 55.5551 0.0000
# 6 0.0000 0.0000 0.0000 0.0000 0.0000 21.8235
#
#
#
# Elastic Compliance Matrix: (Units=1/GPa)
#
#
# Indices 1 2 3 4 5 6 
#
# 1 0.075350 -0.012402 -0.008888 0.000000 0.000000 0.000000
# 2 -0.012402 0.012989 -0.003994 0.000000 0.000000 0.000000
# 3 -0.008888 -0.003994 0.010245 0.000000 0.000000 0.000000
# 4 0.000000 0.000000 0.000000 0.026909 0.000000 0.000000
# 5 0.000000 0.000000 0.000000 0.000000 0.018000 0.000000
# 6 0.000000 0.000000 0.000000 0.000000 0.000000 0.045822
#
#
# Mechanical properties :
#
#
# Convention : Reuss Voigt Hill
#
# Bulk Modulus (GPa) = 20.82599 64.72348 42.77474
# Shear Modulus (GPa) = 19.53987 34.09208 26.81597
#
# Velocity S-wave (km/s) = 3.27222 4.32224 3.83335
# Velocity P-wave (km/s) = 5.06841 7.77021 6.55991
#
# Compressibility (1/GPa) = 0.04801693
#
# Stress axis : x y z
#
# Youngs Moduli (GPa) = 13.27146 76.98931 97.60879
#
# Poissons Ratio (x) = 0.95481 0.86753
# Poissons Ratio (y) = 0.16459 0.38981
# Poissons Ratio (z) = 0.11796 0.30746
#
# Static dielectric constant tensor:
#      x y z
#    x 2.847930 0.000000 0.000000 
#    y 0.000000 3.584860 0.000000 
#    z 0.000000 0.000000 3.625650 
# 
# 
# High freq. dielectric constant tensor:
#      x y z
#    x 1.651340 0.000000 0.000000 
#    y 0.000000 1.721230 0.000000 
#    z 0.000000 0.000000 1.726720 
# 
# From -- ./inp_files/6112.got.cif
#   From: 2010.03.12/outbox.cif.g09.slc.cpg/sg25_4_cif.got.tgz:6112.got - 2010.04.14 03:30:10.
