data_PCOD8166604
_publ_section_title
;
Structure prediction by ZEFSAII (Michael W. Deem and Ramdas Pophale) SiO2 
 PCOD8166604
Probable space group: P M M 2
;
_chemical_formula_sum "Si O2"
_cell_formula_units_Z 28
_cell_length_a 19.313321
_cell_length_b 9.483743
_cell_length_c 9.494334
_cell_angle_alpha 90.000000
_cell_angle_beta 90.000000
_cell_angle_gamma 90.000000
_cell_volume 1739.006643
_symmetry_space_group_name_H-M "P M M 2"
_symmetry_group_IT_number 25
_symmetry_cell_setting 'orthorhombic'
loop_
_space_group_symop_operation_xyz
x,y,z
-x,-y,z
-x,y,z
x,-y,z
loop_
_atom_site_type_symbol
_atom_site_label
_atom_site_fract_x
_atom_site_fract_y
_atom_site_fract_z
Si Si1 0.806826 0.336421 0.149660
Si Si2 0.420500 0.663710 0.149212
Si Si3 0.578424 0.162976 0.874758
Si Si4 0.308244 0.662243 0.372538
Si Si5 0.077690 0.160011 0.050601
Si Si6 0.694647 0.836388 0.655104
Si Si7 0.792682 0.159501 0.896666
O O1 0.817918 0.500000 0.114363
O O2 0.764074 0.314942 0.291889
O O3 0.882200 0.259404 0.164154
O O4 0.764451 0.263373 0.020057
O O5 0.500000 0.692642 0.191878
O O6 0.406651 0.500000 0.116742
O O7 0.372436 0.714955 0.277603
O O8 0.399423 0.748352 0.010356
O O9 0.500000 0.198071 0.829059
O O10 0.627052 0.204751 0.744836
O O11 0.587507 0.000000 0.915059
O O12 0.318760 0.500000 0.413189
O O13 0.305480 0.750172 0.513386
O O14 0.000000 0.216070 0.023243
O O15 0.076091 0.000000 0.108894
O O16 0.122623 0.165516 0.904100
O O17 0.763300 0.794523 0.745088
O O18 0.694838 0.000000 0.614780
O O19 0.766146 0.000000 0.928431
#
# Coordination Sequence:
#
# PCOD8166604 Si02
#       7
#     4   4   4   4   4   4   4
#     4   9  17  29  47  71  96 123 153 190 234 279
#     4   9  18  33  51  69  91 123 163 202 239 282
#     4   9  18  32  49  70  94 119 154 202 247 283
#     4  10  21  33  45  67  99 129 159 197 238 277
#     4   8  15  29  50  74  97 120 150 192 234 273
#     4  10  20  32  47  67  94 128 162 194 234 283
#     4   8  16  30  47  69  93 119 153 193 231 274
#
# _framework density 16.101146
#
# number of rings (size 3 to 8) (size 9 to 14) (size 15 to 20)
#    0.857    2.143    0.000    0.857    0.000    3.714 
#    0.000    0.000    0.000    0.857    0.000    2.000 
#    0.000    0.000    0.000    0.000    0.000    0.000 
#
# Total GULP energy -346928.072180 kJ/mol
# GULP energy per Si atom -12390.288292 kJ/mol
# Density = 1.606450 g / cm^3
# Si number density = 16.101146 Si / 1000 Ang^3
#
#
#
# Elastic Constant Matrix: (Units=GPa)
#
#
# Indices 1 2 3 4 5 6 
#
# 1 114.0624 47.3377 61.5690 0.0000 0.0000 0.0000
# 2 47.3377 77.1959 66.7963 0.0000 0.0000 0.0000
# 3 61.5690 66.7963 121.9973 0.0000 0.0000 0.0000
# 4 0.0000 0.0000 0.0000 32.2566 0.0000 0.0000
# 5 0.0000 0.0000 0.0000 0.0000 10.3023 0.0000
# 6 0.0000 0.0000 0.0000 0.0000 0.0000 21.8817
#
#
#
# Elastic Compliance Matrix: (Units=1/GPa)
#
#
# Indices 1 2 3 4 5 6 
#
# 1 0.012752 -0.004278 -0.004093 0.000000 0.000000 0.000000
# 2 -0.004278 0.026051 -0.012105 0.000000 0.000000 0.000000
# 3 -0.004093 -0.012105 0.016890 0.000000 0.000000 0.000000
# 4 0.000000 0.000000 0.000000 0.031001 0.000000 0.000000
# 5 0.000000 0.000000 0.000000 0.000000 0.097065 0.000000
# 6 0.000000 0.000000 0.000000 0.000000 0.000000 0.045700
#
#
# Mechanical properties :
#
#
# Convention : Reuss Voigt Hill
#
# Bulk Modulus (GPa) = 67.83458 73.85128 70.84293
# Shear Modulus (GPa) = 18.16022 22.05829 20.10925
#
# Velocity S-wave (km/s) = 3.36204 3.70534 3.53786
# Velocity P-wave (km/s) = 7.56920 8.01703 7.79633
#
# Compressibility (1/GPa) = 0.01474174
#
# Stress axis : x y z
#
# Youngs Moduli (GPa) = 78.41866 38.38574 59.20502
#
# Poissons Ratio (x) = 0.16420 0.24236
# Poissons Ratio (y) = 0.33545 0.71667
# Poissons Ratio (z) = 0.32101 0.46465
#
# Static dielectric constant tensor:
#      x y z
#    x 3.164670 0.000000 0.000000 
#    y 0.000000 3.128400 0.000000 
#    z 0.000000 0.000000 2.760600 
# 
# 
# High freq. dielectric constant tensor:
#      x y z
#    x 1.620780 0.000000 0.000000 
#    y 0.000000 1.622120 0.000000 
#    z 0.000000 0.000000 1.588500 
# 
# From -- ./inp_files/3547.got.cif
#   From: 2010.03.12/outbox.cif.g09.slc.cpg/sg25_2_cif.got.tgz:3547.got - 2010.04.14 03:30:10.
