data_PCOD8166650
_publ_section_title
;
Structure prediction by ZEFSAII (Michael W. Deem and Ramdas Pophale) SiO2 
 PCOD8166650
Probable space group: P M M 2
;
_chemical_formula_sum "Si O2"
_cell_formula_units_Z 24
_cell_length_a 9.053583
_cell_length_b 9.363307
_cell_length_c 15.748937
_cell_angle_alpha 90.000000
_cell_angle_beta 90.000000
_cell_angle_gamma 90.000000
_cell_volume 1335.060652
_symmetry_space_group_name_H-M "P M M 2"
_symmetry_group_IT_number 25
_symmetry_cell_setting 'orthorhombic'
loop_
_space_group_symop_operation_xyz
x,y,z
-x,-y,z
-x,y,z
x,-y,z
loop_
_atom_site_type_symbol
_atom_site_label
_atom_site_fract_x
_atom_site_fract_y
_atom_site_fract_z
Si Si1 0.831603 0.668258 0.185670
Si Si2 0.173051 0.331951 0.002052
Si Si3 0.173334 0.835213 0.681908
Si Si4 0.669215 0.330751 0.533764
Si Si5 0.832433 0.670181 0.367674
Si Si6 0.671747 0.165414 0.853866
O O1 0.818103 0.500000 0.181528
O O2 0.763516 0.723083 0.275966
O O3 0.000000 0.715832 0.189767
O O4 0.767642 0.723822 0.095251
O O5 0.199213 0.500000 0.991539
O O6 0.269053 0.252245 0.933134
O O7 0.000000 0.295601 0.991272
O O8 0.235582 0.740179 0.606776
O O9 0.245748 0.782199 0.769336
O O10 0.000000 0.810318 0.688933
O O11 0.213268 0.000000 0.664256
O O12 0.500000 0.283212 0.542503
O O13 0.687541 0.500000 0.541084
O O14 0.729329 0.273204 0.443334
O O15 0.835353 0.500000 0.367610
O O16 0.000000 0.727075 0.380898
O O17 0.500000 0.197034 0.841424
O O18 0.704400 0.000000 0.871018
#
# Coordination Sequence:
#
# PCOD8166650 Si02
#       6
#     4   4   4   4   4   4
#     4   7  11  22  42  68  96 125 158 196 236 276
#     4   9  17  30  50  76 102 127 159 200 242 282
#     4  10  21  37  56  74  91 119 162 205 243 287
#     4  10  20  32  48  74 105 132 158 192 237 287
#     4   8  13  24  44  68  95 128 163 198 235 275
#     4  10  21  36  52  70  95 128 162 196 239 291
#
# _framework density 17.976711000000002
#
# number of rings (size 3 to 8) (size 9 to 14) (size 15 to 20)
#    0.000    3.000    0.000    3.500    0.000    4.000 
#    0.000    0.833    0.000    4.000    0.000    2.333 
#    0.000    0.000    0.000    0.000    0.000    0.000 
#
# Total GULP energy -297342.274723 kJ/mol
# GULP energy per Si atom -12389.261447 kJ/mol
# Density = 1.793579 g / cm^3
# Si number density = 17.976711 Si / 1000 Ang^3
#
#
#
# Elastic Constant Matrix: (Units=GPa)
#
#
# Indices 1 2 3 4 5 6 
#
# 1 78.0591 26.2718 62.4492 0.0000 0.0000 0.0000
# 2 26.2718 26.5286 40.5367 0.0000 0.0000 0.0000
# 3 62.4492 40.5367 185.1947 0.0000 0.0000 0.0000
# 4 0.0000 0.0000 0.0000 -27.6418 0.0000 0.0000
# 5 0.0000 0.0000 0.0000 0.0000 -1.3725 0.0000
# 6 0.0000 0.0000 0.0000 0.0000 0.0000 22.0855
#
#
#
# Elastic Compliance Matrix: (Units=1/GPa)
#
#
# Indices 1 2 3 4 5 6 
#
# 1 0.020831 -0.014869 -0.003770 0.000000 0.000000 0.000000
# 2 -0.014869 0.067253 -0.009707 0.000000 0.000000 0.000000
# 3 -0.003770 -0.009707 0.008796 0.000000 0.000000 0.000000
# 4 0.000000 0.000000 0.000000 -0.036177 0.000000 0.000000
# 5 0.000000 0.000000 0.000000 0.000000 -0.728597 0.000000
# 6 0.000000 0.000000 0.000000 0.000000 0.000000 0.045279
#
#
# Mechanical properties :
#
#
# Convention : Reuss Voigt Hill
#
# Bulk Modulus (GPa) = 24.88296 60.92199 42.90248
# Shear Modulus (GPa) = -9.04929 9.31589 0.13330
#
# Velocity S-wave (km/s) = -2.24607 2.27891 0.27260
# Velocity P-wave (km/s) = 2.67309 6.39434 4.90066
#
# Compressibility (1/GPa) = 0.04018814
#
# Stress axis : x y z
#
# Youngs Moduli (GPa) = 48.00520 14.86930 113.69310
#
# Poissons Ratio (x) = 0.22109 0.42860
# Poissons Ratio (y) = 0.71379 1.10359
# Poissons Ratio (z) = 0.18097 0.14433
#
# Static dielectric constant tensor:
#      x y z
#    x 3.288170 0.000000 0.000000 
#    y 0.000000 2.923990 0.000000 
#    z 0.000000 0.000000 3.875350 
# 
# 
# High freq. dielectric constant tensor:
#      x y z
#    x 1.680010 0.000000 0.000000 
#    y 0.000000 1.648670 0.000000 
#    z 0.000000 0.000000 1.725420 
# 
# From -- ./inp_files/5257.got.cif
#   From: 2010.03.12/outbox.cif.g09.slc.cpg/sg25_3_cif.got.tgz:5257.got - 2010.04.14 03:30:10.
