data_PCOD8166986
_publ_section_title
;
Structure prediction by ZEFSAII (Michael W. Deem and Ramdas Pophale) SiO2 
 PCOD8166986
Probable space group: P M M 2
;
_chemical_formula_sum "Si O2"
_cell_formula_units_Z 32
_cell_length_a 14.209974
_cell_length_b 8.975362
_cell_length_c 15.694011
_cell_angle_alpha 90.000000
_cell_angle_beta 90.000000
_cell_angle_gamma 90.000000
_cell_volume 2001.608837
_symmetry_space_group_name_H-M "P M M 2"
_symmetry_group_IT_number 25
_symmetry_cell_setting 'orthorhombic'
loop_
_space_group_symop_operation_xyz
x,y,z
-x,-y,z
-x,y,z
x,-y,z
loop_
_atom_site_type_symbol
_atom_site_label
_atom_site_fract_x
_atom_site_fract_y
_atom_site_fract_z
Si Si1 0.893302 0.327638 0.306260
Si Si2 0.392632 0.677852 0.523796
Si Si3 0.605888 0.822876 0.207963
Si Si4 0.392631 0.322148 0.892128
Si Si5 0.388993 0.662020 0.707962
Si Si6 0.893302 0.327638 0.109665
Si Si7 0.282310 0.823828 0.372859
Si Si8 0.717690 0.176172 0.043067
O O1 0.866896 0.500000 0.318802
O O2 0.881644 0.281328 0.207962
O O3 0.825615 0.226454 0.363583
O O4 0.000000 0.297627 0.336208
O O5 0.500000 0.723942 0.502430
O O6 0.382183 0.500000 0.521479
O O7 0.362510 0.741417 0.618145
O O8 0.323470 0.752925 0.457572
O O9 0.500000 0.758711 0.207963
O O10 0.658937 0.763381 0.291776
O O11 0.658937 0.763379 0.124149
O O12 0.604956 0.000000 0.207962
O O13 0.500000 0.276058 0.913493
O O14 0.382181 0.500000 0.894448
O O15 0.362508 0.258586 0.797780
O O16 0.323472 0.247071 0.958352
O O17 0.500000 0.638481 0.707965
O O18 0.340021 0.500000 0.707961
O O19 0.866897 0.500000 0.097123
O O20 0.825614 0.226455 0.052341
O O21 0.000000 0.297626 0.079717
O O22 0.287829 0.000000 0.380214
O O23 0.712172 0.000000 0.035713
#
# Coordination Sequence:
#
# PCOD8166986 Si02
#       8
#     4   4   4   4   4   4   4   4
#     4   9  18  33  51  68  88 116 152 197 240 274
#     4   9  17  30  48  69  93 123 159 196 231 271
#     4   9  18  30  40  55  88 130 161 181 210 257
#     4   9  17  30  48  69  93 123 159 196 231 271
#     4   7  12  26  47  67  88 117 154 195 235 270
#     4   9  18  33  51  68  88 116 152 197 240 274
#     4  11  20  30  45  67  95 127 157 189 229 274
#     4  11  20  30  45  67  95 127 157 189 229 274
#
# _framework density 15.987140999999999
#
# number of rings (size 3 to 8) (size 9 to 14) (size 15 to 20)
#    0.000    2.750    1.250    3.750    0.000    2.000 
#    0.000    1.875    0.000    5.250    0.000    0.875 
#    0.000    7.000    0.000    0.000    0.000    0.000 
#
# Total GULP energy -396593.382207 kJ/mol
# GULP energy per Si atom -12393.543194 kJ/mol
# Density = 1.595075 g / cm^3
# Si number density = 15.987141 Si / 1000 Ang^3
#
#
#
# Elastic Constant Matrix: (Units=GPa)
#
#
# Indices 1 2 3 4 5 6 
#
# 1 93.6571 28.6344 57.1073 0.0000 0.0000 0.0000
# 2 28.6344 34.7749 33.8649 0.0000 0.0000 0.0000
# 3 57.1073 33.8649 132.4926 0.0000 0.0000 0.0000
# 4 0.0000 0.0000 0.0000 13.2386 0.0000 0.0000
# 5 0.0000 0.0000 0.0000 0.0000 14.0960 0.0000
# 6 0.0000 0.0000 0.0000 0.0000 0.0000 19.9924
#
#
#
# Elastic Compliance Matrix: (Units=1/GPa)
#
#
# Indices 1 2 3 4 5 6 
#
# 1 0.016261 -0.008739 -0.004775 0.000000 0.000000 0.000000
# 2 -0.008739 0.042983 -0.007220 0.000000 0.000000 0.000000
# 3 -0.004775 -0.007220 0.011451 0.000000 0.000000 0.000000
# 4 0.000000 0.000000 0.000000 0.075537 0.000000 0.000000
# 5 0.000000 0.000000 0.000000 0.000000 0.070942 0.000000
# 6 0.000000 0.000000 0.000000 0.000000 0.000000 0.050019
#
#
# Mechanical properties :
#
#
# Convention : Reuss Voigt Hill
#
# Bulk Modulus (GPa) = 34.21479 55.57086 44.89283
# Shear Modulus (GPa) = 15.70336 18.88660 17.29498
#
# Velocity S-wave (km/s) = 3.13749 3.44082 3.29265
# Velocity P-wave (km/s) = 5.87988 7.11483 6.52663
#
# Compressibility (1/GPa) = 0.02922712
#
# Stress axis : x y z
#
# Youngs Moduli (GPa) = 61.49775 23.26483 87.32851
#
# Poissons Ratio (x) = 0.20332 0.41699
# Poissons Ratio (y) = 0.53746 0.63047
# Poissons Ratio (z) = 0.29365 0.16796
#
# Static dielectric constant tensor:
#      x y z
#    x 2.919060 0.000000 0.000000 
#    y 0.000000 2.758970 0.000000 
#    z 0.000000 0.000000 3.253000 
# 
# 
# High freq. dielectric constant tensor:
#      x y z
#    x 1.596530 0.000000 0.000000 
#    y 0.000000 1.592900 0.000000 
#    z 0.000000 0.000000 1.610520 
# 
# From -- ./inp_files/5696.got.cif
#   From: 2010.03.12/outbox.cif.g09.slc.cpg/sg25_3_cif.got.tgz:5696.got - 2010.04.14 03:30:10.
