data_PCOD8166390
_publ_section_title
;
Structure prediction by ZEFSAII (Michael W. Deem and Ramdas Pophale) SiO2 
 PCOD8166390
Probable space group: P M M 2
;
_chemical_formula_sum "Si O2"
_cell_formula_units_Z 32
_cell_length_a 8.853449
_cell_length_b 24.580756
_cell_length_c 7.526380
_cell_angle_alpha 90.000000
_cell_angle_beta 90.000000
_cell_angle_gamma 90.000000
_cell_volume 1637.924456
_symmetry_space_group_name_H-M "P M M 2"
_symmetry_group_IT_number 25
_symmetry_cell_setting 'orthorhombic'
loop_
_space_group_symop_operation_xyz
x,y,z
-x,-y,z
-x,y,z
x,-y,z
loop_
_atom_site_type_symbol
_atom_site_label
_atom_site_fract_x
_atom_site_fract_y
_atom_site_fract_z
Si Si1 0.324644 0.436859 0.847100
Si Si2 0.822828 0.636959 0.562009
Si Si3 0.675943 0.252709 0.551484
Si Si4 0.174413 0.863498 0.150208
Si Si5 0.827637 0.627466 0.149654
Si Si6 0.820900 0.142608 0.549089
Si Si7 0.828505 0.745773 0.186322
Si Si8 0.180135 0.060962 0.846138
O O1 0.500000 0.426261 0.813661
O O2 0.284894 0.500000 0.857241
O O3 0.232930 0.412493 0.682500
O O4 0.279513 0.410891 0.035658
O O5 0.747202 0.692525 0.634356
O O6 0.780018 0.624696 0.356787
O O7 0.000000 0.643645 0.584205
O O8 0.500000 0.252192 0.593813
O O9 0.750236 0.197825 0.630769
O O10 0.706623 0.253888 0.341887
O O11 0.241553 0.868205 0.349340
O O12 0.195919 0.801451 0.074479
O O13 0.000000 0.878854 0.160545
O O14 0.250222 0.906299 0.014775
O O15 0.808241 0.689859 0.076530
O O16 0.000000 0.608056 0.124834
O O17 0.768613 0.091553 0.667244
O O18 0.000000 0.150074 0.550316
O O19 0.000000 0.746297 0.268266
O O20 0.000000 0.059714 0.856169
O O21 0.246815 0.000000 0.845078
#
# Coordination Sequence:
#
# PCOD8166390 Si02
#       8
#     4   4   4   4   4   4   4   4
#     4  11  25  41  56  80 115 152 189 228 271 321
#     4  10  21  39  62  85 111 145 185 229 275 325
#     4  10  18  30  52  81 109 135 168 213 267 326
#     4   8  14  26  44  66  95 127 159 202 254 304
#     4   9  19  36  59  84 108 139 182 230 277 326
#     4   9  17  30  48  70  99 134 167 205 257 313
#     4   8  15  30  51  77 106 136 172 212 262 323
#     4   9  17  27  42  69  99 128 170 218 259 301
#
# _framework density 19.536921
#
# number of rings (size 3 to 8) (size 9 to 14) (size 15 to 20)
#    0.000    2.750    0.000    3.375    0.000    5.500 
#    0.000    7.500    0.000    3.375    0.000    0.000 
#    0.000    0.000    0.000    0.000    0.000    0.000 
#
# Total GULP energy -396575.014247 kJ/mol
# GULP energy per Si atom -12392.969195 kJ/mol
# Density = 1.949245 g / cm^3
# Si number density = 19.536921 Si / 1000 Ang^3
#
#
#
# Elastic Constant Matrix: (Units=GPa)
#
#
# Indices 1 2 3 4 5 6 
#
# 1 59.0520 43.8260 28.2954 0.0000 0.0000 0.0000
# 2 43.8260 168.1364 71.8829 0.0000 0.0000 0.0000
# 3 28.2954 71.8829 95.4494 0.0000 0.0000 0.0000
# 4 0.0000 0.0000 0.0000 36.3633 0.0000 0.0000
# 5 0.0000 0.0000 0.0000 0.0000 16.7708 0.0000
# 6 0.0000 0.0000 0.0000 0.0000 0.0000 14.9793
#
#
#
# Elastic Compliance Matrix: (Units=1/GPa)
#
#
# Indices 1 2 3 4 5 6 
#
# 1 0.021637 -0.004274 -0.003196 0.000000 0.000000 0.000000
# 2 -0.004274 0.009616 -0.005975 0.000000 0.000000 0.000000
# 3 -0.003196 -0.005975 0.015924 0.000000 0.000000 0.000000
# 4 0.000000 0.000000 0.000000 0.027500 0.000000 0.000000
# 5 0.000000 0.000000 0.000000 0.000000 0.059627 0.000000
# 6 0.000000 0.000000 0.000000 0.000000 0.000000 0.066759
#
#
# Mechanical properties :
#
#
# Convention : Reuss Voigt Hill
#
# Bulk Modulus (GPa) = 49.28914 67.84961 58.56937
# Shear Modulus (GPa) = 21.30247 25.53160 23.41704
#
# Velocity S-wave (km/s) = 3.30566 3.61894 3.46584
# Velocity P-wave (km/s) = 6.31295 7.22957 6.78675
#
# Compressibility (1/GPa) = 0.02028845
#
# Stress axis : x y z
#
# Youngs Moduli (GPa) = 46.21663 103.99426 62.79921
#
# Poissons Ratio (x) = 0.44443 0.20069
# Poissons Ratio (y) = 0.19751 0.37522
# Poissons Ratio (z) = 0.14770 0.62135
#
# Static dielectric constant tensor:
#      x y z
#    x 3.160520 0.000000 0.000000 
#    y 0.000000 3.887390 0.000000 
#    z 0.000000 0.000000 3.460340 
# 
# 
# High freq. dielectric constant tensor:
#      x y z
#    x 1.723350 0.000000 0.000000 
#    y 0.000000 1.770720 0.000000 
#    z 0.000000 0.000000 1.744940 
# 
# From -- ./inp_files/2413.got.cif
#   From: 2010.03.12/outbox.cif.g09.slc.cpg/sg25_2_cif.got.tgz:2413.got - 2010.04.14 03:30:10.
