data_PCOD8166043
_publ_section_title
;
Structure prediction by ZEFSAII (Michael W. Deem and Ramdas Pophale) SiO2 
 PCOD8166043
Probable space group: I 21 21 21
;
_chemical_formula_sum "Si O2"
_cell_formula_units_Z 48
_cell_length_a 18.552118
_cell_length_b 16.671873
_cell_length_c 8.688881
_cell_angle_alpha 90.000000
_cell_angle_beta 90.000000
_cell_angle_gamma 90.000000
_cell_volume 2687.458339
_symmetry_space_group_name_H-M "I 21 21 21"
_symmetry_group_IT_number 24
_symmetry_cell_setting 'orthorhombic'
loop_
_space_group_symop_operation_xyz
x,y,z
-x,1/2-y,z
x,-y,1/2-z
1/2-x,y,-z
1/2+x,1/2+y,1/2+z
1/2-x,-y,1/2+z
1/2+x,1/2-y,-z
-x,1/2+y,1/2-z
loop_
_atom_site_type_symbol
_atom_site_label
_atom_site_fract_x
_atom_site_fract_y
_atom_site_fract_z
Si Si1 0.920828 0.077117 0.857105
Si Si2 0.084773 0.840242 0.939421
Si Si3 0.584773 0.840242 0.060579
Si Si4 0.327362 0.517788 0.927756
Si Si5 0.920828 0.577117 0.642895
Si Si6 0.327362 0.017788 0.572244
O O1 0.894848 0.147896 0.741983
O O2 1.000000 0.096343 0.927788
O O3 0.925819 0.000000 0.750000
O O4 0.864752 0.060270 0.994196
O O5 0.106105 0.750000 0.986963
O O6 0.105152 0.852104 0.758017
O O7 1.000000 0.856339 0.961145
O O8 0.126090 0.901743 0.050049
O O9 0.626090 0.901743 0.949951
O O10 0.318222 0.500000 0.750000
O O11 0.250000 0.533043 0.000000
O O12 0.925819 0.500000 0.750000
O O13 0.864752 0.560270 0.505804
O O14 0.250000 0.033043 0.500000
O O15 0.318222 0.000000 0.750000
#
# Coordination Sequence:
#
# PCOD8166043 Si02
#       6
#     8   8   8   8   8   8
#     4   8  15  30  51  72  95 126 163 201 244 295
#     4   9  18  34  55  77 102 132 165 204 252 302
#     4   9  18  34  55  77 102 132 165 204 252 302
#     4  11  21  33  51  74 102 136 172 209 248 295
#     4   8  15  30  51  72  95 126 163 201 244 295
#     4  11  21  33  51  74 102 136 172 209 248 295
#
# _framework density 17.860741999999998
#
# number of rings (size 3 to 8) (size 9 to 14) (size 15 to 20)
#    0.000    2.667    0.000    6.000    0.000    3.333 
#    0.000    1.667    0.000    8.000    0.000    0.000 
#    0.000    0.000    0.000    0.000    0.000    0.000 
#
# Total GULP energy -297457.777549 kJ/mol
# GULP energy per Si atom -12394.074065 kJ/mol
# Density = 1.782009 g / cm^3
# Si number density = 17.860742 Si / 1000 Ang^3
#
#
#
# Elastic Constant Matrix: (Units=GPa)
#
#
# Indices 1 2 3 4 5 6 
#
# 1 87.3245 44.0367 52.8855 0.0000 0.0000 0.0000
# 2 44.0367 89.9988 45.6910 0.0000 0.0000 0.0000
# 3 52.8855 45.6910 121.1334 0.0000 0.0000 0.0000
# 4 0.0000 0.0000 0.0000 20.5677 0.0000 0.0000
# 5 0.0000 0.0000 0.0000 0.0000 31.9793 0.0000
# 6 0.0000 0.0000 0.0000 0.0000 0.0000 10.3087
#
#
#
# Elastic Compliance Matrix: (Units=1/GPa)
#
#
# Indices 1 2 3 4 5 6 
#
# 1 0.017774 -0.005884 -0.005541 0.000000 0.000000 0.000000
# 2 -0.005884 0.015691 -0.003350 0.000000 0.000000 0.000000
# 3 -0.005541 -0.003350 0.011938 0.000000 0.000000 0.000000
# 4 0.000000 0.000000 0.000000 0.048620 0.000000 0.000000
# 5 0.000000 0.000000 0.000000 0.000000 0.031270 0.000000
# 6 0.000000 0.000000 0.000000 0.000000 0.000000 0.097006
#
#
# Mechanical properties :
#
#
# Convention : Reuss Voigt Hill
#
# Bulk Modulus (GPa) = 63.07422 64.85370 63.96396
# Shear Modulus (GPa) = 19.44522 22.96070 21.20296
#
# Velocity S-wave (km/s) = 3.30314 3.58933 3.44921
# Velocity P-wave (km/s) = 7.06674 7.31897 7.19396
#
# Compressibility (1/GPa) = 0.01585434
#
# Stress axis : x y z
#
# Youngs Moduli (GPa) = 56.26083 63.73103 83.76772
#
# Poissons Ratio (x) = 0.37501 0.46412
# Poissons Ratio (y) = 0.33105 0.28059
# Poissons Ratio (z) = 0.31172 0.21347
#
# Static dielectric constant tensor:
#      x y z
#    x 3.390590 0.000000 0.000000 
#    y 0.000000 3.732790 0.000000 
#    z 0.000000 0.000000 3.263810 
# 
# 
# High freq. dielectric constant tensor:
#      x y z
#    x 1.694290 0.000000 0.000000 
#    y 0.000000 1.671480 0.000000 
#    z 0.000000 0.000000 1.671650 
# 
# From -- ./inp_files/14336.got.cif
#   From: 2010.03.12/outbox.cif.g09.slc.cpg/sg24_8_cif.got.tgz:14336.got - 2010.04.14 03:06:53.
