data_PCOD8166761
_publ_section_title
;
Structure prediction by ZEFSAII (Michael W. Deem and Ramdas Pophale) SiO2 
 PCOD8166761
Probable space group: P M M 2
;
_chemical_formula_sum "Si O2"
_cell_formula_units_Z 24
_cell_length_a 9.212484
_cell_length_b 14.006745
_cell_length_c 10.198281
_cell_angle_alpha 90.000000
_cell_angle_beta 90.000000
_cell_angle_gamma 90.000000
_cell_volume 1315.954710
_symmetry_space_group_name_H-M "P M M 2"
_symmetry_group_IT_number 25
_symmetry_cell_setting 'orthorhombic'
loop_
_space_group_symop_operation_xyz
x,y,z
-x,-y,z
-x,y,z
x,-y,z
loop_
_atom_site_type_symbol
_atom_site_label
_atom_site_fract_x
_atom_site_fract_y
_atom_site_fract_z
Si Si1 0.672059 0.103844 0.372660
Si Si2 0.165839 0.610658 0.258256
Si Si3 0.330892 0.892253 0.076855
Si Si4 0.169754 0.389492 0.733976
Si Si5 0.169608 0.283193 0.996994
Si Si6 0.327341 0.298307 0.493973
O O1 0.500000 0.101750 0.365606
O O2 0.729487 0.120850 0.224988
O O3 0.724753 0.189232 0.466548
O O4 0.728310 0.000000 0.424408
O O5 0.177999 0.500000 0.224263
O O6 0.268457 0.633488 0.380203
O O7 0.000000 0.638082 0.293619
O O8 0.221737 0.666702 0.130686
O O9 0.500000 0.868509 0.070069
O O10 0.300381 0.000000 0.027887
O O11 0.248444 0.818747 0.981943
O O12 0.214058 0.500000 0.724654
O O13 0.212127 0.351648 0.877206
O O14 0.261764 0.328816 0.631608
O O15 0.000000 0.375836 0.703907
O O16 0.000000 0.263727 0.998651
O O17 0.500000 0.307201 0.498444
#
# Coordination Sequence:
#
# PCOD8166761 Si02
#       6
#     4   4   4   4   4   4
#     4   8  15  30  52  77 106 139 171 208 260 319
#     4  10  20  34  53  77 105 137 176 222 271 324
#     4   9  17  32  55  81 110 143 175 211 266 328
#     4  10  22  40  57  73 104 150 187 217 264 323
#     4  10  20  35  56  80 105 138 183 227 265 310
#     4  11  21  34  55  82 108 137 178 225 268 314
#
# _framework density 18.237708999999999
#
# number of rings (size 3 to 8) (size 9 to 14) (size 15 to 20)
#    0.000    2.333    1.667    2.500    0.000    5.667 
#    0.000    0.833    0.000    8.000    0.000    0.000 
#    0.000    0.000    0.000    0.000    0.000    0.000 
#
# Total GULP energy -297583.278600 kJ/mol
# GULP energy per Si atom -12399.303275 kJ/mol
# Density = 1.819620 g / cm^3
# Si number density = 18.237709 Si / 1000 Ang^3
#
#
#
# Elastic Constant Matrix: (Units=GPa)
#
#
# Indices 1 2 3 4 5 6 
#
# 1 43.4707 36.2137 32.5335 0.0000 0.0000 0.0000
# 2 36.2137 123.3949 34.2133 0.0000 0.0000 0.0000
# 3 32.5335 34.2133 71.6939 0.0000 0.0000 0.0000
# 4 0.0000 0.0000 0.0000 33.9559 0.0000 0.0000
# 5 0.0000 0.0000 0.0000 0.0000 24.3964 0.0000
# 6 0.0000 0.0000 0.0000 0.0000 0.0000 30.0929
#
#
#
# Elastic Compliance Matrix: (Units=1/GPa)
#
#
# Indices 1 2 3 4 5 6 
#
# 1 0.040469 -0.007820 -0.014633 0.000000 0.000000 0.000000
# 2 -0.007820 0.010851 -0.001630 0.000000 0.000000 0.000000
# 3 -0.014633 -0.001630 0.021366 0.000000 0.000000 0.000000
# 4 0.000000 0.000000 0.000000 0.029450 0.000000 0.000000
# 5 0.000000 0.000000 0.000000 0.000000 0.040990 0.000000
# 6 0.000000 0.000000 0.000000 0.000000 0.000000 0.033230
#
#
# Mechanical properties :
#
#
# Convention : Reuss Voigt Hill
#
# Bulk Modulus (GPa) = 40.77966 49.38671 45.08318
# Shear Modulus (GPa) = 21.48741 26.72896 24.10819
#
# Velocity S-wave (km/s) = 3.43620 3.83245 3.63972
# Velocity P-wave (km/s) = 6.17672 6.83534 6.51436
#
# Compressibility (1/GPa) = 0.02452203
#
# Stress axis : x y z
#
# Youngs Moduli (GPa) = 24.71006 92.15874 46.80347
#
# Poissons Ratio (x) = 0.72065 0.68486
# Poissons Ratio (y) = 0.19323 0.07628
# Poissons Ratio (z) = 0.36157 0.15019
#
# Static dielectric constant tensor:
#      x y z
#    x 3.177840 0.000000 0.000000 
#    y 0.000000 3.673310 0.000000 
#    z 0.000000 0.000000 3.248300 
# 
# 
# High freq. dielectric constant tensor:
#      x y z
#    x 1.686790 0.000000 0.000000 
#    y 0.000000 1.723740 0.000000 
#    z 0.000000 0.000000 1.690350 
# 
# From -- ./inp_files/1992.got.cif
#   From: 2010.03.12/outbox.cif.g09.slc.cpg/sg25_1_cif.got.tgz:1992.got - 2010.04.14 03:30:10.
