data_PCOD8166192
_publ_section_title
;
Structure prediction by ZEFSAII (Michael W. Deem and Ramdas Pophale) SiO2 
 PCOD8166192
Probable space group: I 21 21 21
;
_chemical_formula_sum "Si O2"
_cell_formula_units_Z 40
_cell_length_a 9.126054
_cell_length_b 7.684966
_cell_length_c 23.201676
_cell_angle_alpha 90.000000
_cell_angle_beta 90.000000
_cell_angle_gamma 90.000000
_cell_volume 1627.212765
_symmetry_space_group_name_H-M "I 21 21 21"
_symmetry_group_IT_number 24
_symmetry_cell_setting 'orthorhombic'
loop_
_space_group_symop_operation_xyz
x,y,z
-x,1/2-y,z
x,-y,1/2-z
1/2-x,y,-z
1/2+x,1/2+y,1/2+z
1/2-x,-y,1/2+z
1/2+x,1/2-y,-z
-x,1/2+y,1/2-z
loop_
_atom_site_type_symbol
_atom_site_label
_atom_site_fract_x
_atom_site_fract_y
_atom_site_fract_z
Si Si1 0.292293 0.074159 0.140900
Si Si2 0.840690 0.265144 0.555447
Si Si3 0.980710 0.957550 0.150612
Si Si4 0.000000 0.750000 0.722077
Si Si5 0.254506 0.500000 0.250000
Si Si6 0.274096 0.597270 0.567483
O O1 0.424726 0.093410 0.185960
O O2 0.297358 0.244604 0.101258
O O3 0.324858 0.905769 0.104328
O O4 0.133301 0.045506 0.171154
O O5 0.750000 0.318243 0.500000
O O6 0.000000 0.250000 0.529308
O O7 0.806058 0.080928 0.584845
O O8 0.850645 0.009300 0.194514
O O9 0.000000 0.750000 0.143349
O O10 0.940720 0.053051 0.089243
O O11 0.138198 0.667666 0.756281
O O12 0.250000 0.633962 0.500000
#
# Coordination Sequence:
#
# PCOD8166192 Si02
#       6
#     8   8   8   4   4   8
#     4  12  26  51  78 113 158 208 260 334 396 476
#     4  11  26  44  73 111 161 209 261 318 394 475
#     4  12  28  52  82 116 158 212 265 334 398 487
#     4  12  30  52  80 114 156 204 268 342 404 472
#     4  12  32  52  80 118 156 210 272 330 410 472
#     4  11  25  47  75 116 159 200 262 315 389 469
#
# _framework density 24.581909
#
# number of rings (size 3 to 8) (size 9 to 14) (size 15 to 20)
#    0.000    0.400    4.000    2.400   11.200    0.000 
#   10.800    0.000    0.000    0.000    0.000    0.000 
#    0.000    0.000    0.000    0.000    0.000    0.000 
#
# Total GULP energy -247878.856363 kJ/mol
# GULP energy per Si atom -12393.942818 kJ/mol
# Density = 2.452596 g / cm^3
# Si number density = 24.581909 Si / 1000 Ang^3
#
#
#
# Elastic Constant Matrix: (Units=GPa)
#
#
# Indices 1 2 3 4 5 6 
#
# 1 173.7693 13.6446 53.9236 0.0000 0.0000 0.0000
# 2 13.6446 105.2815 21.2054 0.0000 0.0000 0.0000
# 3 53.9236 21.2054 87.5987 0.0000 0.0000 0.0000
# 4 0.0000 0.0000 0.0000 32.5780 0.0000 0.0000
# 5 0.0000 0.0000 0.0000 0.0000 37.0227 0.0000
# 6 0.0000 0.0000 0.0000 0.0000 0.0000 -23.1713
#
#
#
# Elastic Compliance Matrix: (Units=1/GPa)
#
#
# Indices 1 2 3 4 5 6 
#
# 1 0.007114 -0.000042 -0.004369 0.000000 0.000000 0.000000
# 2 -0.000042 0.009985 -0.002391 0.000000 0.000000 0.000000
# 3 -0.004369 -0.002391 0.014684 0.000000 0.000000 0.000000
# 4 0.000000 0.000000 0.000000 0.030696 0.000000 0.000000
# 5 0.000000 0.000000 0.000000 0.000000 0.027010 0.000000
# 6 0.000000 0.000000 0.000000 0.000000 0.000000 -0.043157
#
#
# Mechanical properties :
#
#
# Convention : Reuss Voigt Hill
#
# Bulk Modulus (GPa) = 55.00952 60.46631 57.73791
# Shear Modulus (GPa) = 75.76154 27.81094 51.78624
#
# Velocity S-wave (km/s) = 5.55760 3.36722 4.59484
# Velocity P-wave (km/s) = 7.97554 6.30625 7.18951
#
# Compressibility (1/GPa) = 0.01817867
#
# Stress axis : x y z
#
# Youngs Moduli (GPa) = 140.57177 100.14571 68.10143
#
# Poissons Ratio (x) = 0.00420 0.29753
# Poissons Ratio (y) = 0.00590 0.16286
# Poissons Ratio (z) = 0.61415 0.23949
#
# Static dielectric constant tensor:
#      x y z
#    x 4.956800 0.000000 0.000000 
#    y 0.000000 4.619140 0.000000 
#    z 0.000000 0.000000 4.421840 
# 
# 
# High freq. dielectric constant tensor:
#      x y z
#    x 1.996450 0.000000 0.000000 
#    y 0.000000 1.998800 0.000000 
#    z 0.000000 0.000000 1.962800 
# 
# From -- ./inp_files/35042.got.cif
#   From: 2010.03.12/outbox.cif.g09.slc.cpg/sg24_18_cif.got.tgz:35042.got - 2010.04.14 03:06:53.
