data_PCOD8166786
_publ_section_title
;
Structure prediction by ZEFSAII (Michael W. Deem and Ramdas Pophale) SiO2 
 PCOD8166786
Probable space group: P M M 2
;
_chemical_formula_sum "Si O2"
_cell_formula_units_Z 28
_cell_length_a 8.545381
_cell_length_b 9.115848
_cell_length_c 17.935463
_cell_angle_alpha 90.000000
_cell_angle_beta 90.000000
_cell_angle_gamma 90.000000
_cell_volume 1397.143769
_symmetry_space_group_name_H-M "P M M 2"
_symmetry_group_IT_number 25
_symmetry_cell_setting 'orthorhombic'
loop_
_space_group_symop_operation_xyz
x,y,z
-x,-y,z
-x,y,z
x,-y,z
loop_
_atom_site_type_symbol
_atom_site_label
_atom_site_fract_x
_atom_site_fract_y
_atom_site_fract_z
Si Si1 0.681698 0.168280 0.139730
Si Si2 0.815535 0.663595 0.277838
Si Si3 0.814200 0.337624 0.561521
Si Si4 0.818576 0.669880 0.001566
Si Si5 0.318761 0.169735 0.864187
Si Si6 0.813078 0.835724 0.420518
Si Si7 0.818471 0.671846 0.728044
O O1 0.500000 0.180596 0.158677
O O2 0.777599 0.244672 0.204795
O O3 0.735914 0.000000 0.133314
O O4 0.714510 0.247131 0.061946
O O5 0.743471 0.500000 0.271657
O O6 0.746150 0.742368 0.351185
O O7 0.000000 0.653040 0.285483
O O8 0.745935 0.500000 0.546652
O O9 0.747317 0.230015 0.498050
O O10 0.766642 0.283793 0.644125
O O11 0.000000 0.344947 0.556917
O O12 0.769863 0.500000 0.000029
O O13 0.786942 0.739093 0.921166
O O14 0.000000 0.688352 0.022151
O O15 0.500000 0.190192 0.884749
O O16 0.287878 0.231389 0.781939
O O17 0.269813 0.000000 0.867669
O O18 0.000000 0.834470 0.420298
O O19 0.748106 0.000000 0.412606
O O20 0.787980 0.500000 0.741940
O O21 0.000000 0.709215 0.741812
#
# Coordination Sequence:
#
# PCOD8166786 Si02
#       7
#     4   4   4   4   4   4   4
#     4  11  24  40  58  82 112 144 178 217 264 318
#     4  10  20  34  54  80 109 143 184 226 268 317
#     4   8  14  26  45  71 104 138 173 219 272 322
#     4  11  24  41  62  87 111 137 175 220 264 314
#     4  11  24  39  55  79 111 145 181 220 265 318
#     4   9  16  26  44  73 107 141 178 222 272 321
#     4   9  18  33  54  80 108 140 181 226 271 321
#
# _framework density 20.040887000000001
#
# number of rings (size 3 to 8) (size 9 to 14) (size 15 to 20)
#    0.000    2.143    0.000    4.286    0.000   12.000 
#    0.000    1.429    0.000    0.857    0.000    4.000 
#    0.000    0.000    0.000    0.000    0.000    0.000 
#
# Total GULP energy -347251.133298 kJ/mol
# GULP energy per Si atom -12401.826189 kJ/mol
# Density = 1.999527 g / cm^3
# Si number density = 20.040887 Si / 1000 Ang^3
#
#
#
# Elastic Constant Matrix: (Units=GPa)
#
#
# Indices 1 2 3 4 5 6 
#
# 1 22.7111 23.9488 7.7029 0.0000 0.0000 0.0000
# 2 23.9488 156.0278 72.9421 0.0000 0.0000 0.0000
# 3 7.7029 72.9421 138.8527 0.0000 0.0000 0.0000
# 4 0.0000 0.0000 0.0000 28.8633 0.0000 0.0000
# 5 0.0000 0.0000 0.0000 0.0000 6.1209 0.0000
# 6 0.0000 0.0000 0.0000 0.0000 0.0000 19.8506
#
#
#
# Elastic Compliance Matrix: (Units=1/GPa)
#
#
# Indices 1 2 3 4 5 6 
#
# 1 0.052858 -0.008937 0.001763 0.000000 0.000000 0.000000
# 2 -0.008937 0.010007 -0.004761 0.000000 0.000000 0.000000
# 3 0.001763 -0.004761 0.009605 0.000000 0.000000 0.000000
# 4 0.000000 0.000000 0.000000 0.034646 0.000000 0.000000
# 5 0.000000 0.000000 0.000000 0.000000 0.163375 0.000000
# 6 0.000000 0.000000 0.000000 0.000000 0.000000 0.050376
#
#
# Mechanical properties :
#
#
# Convention : Reuss Voigt Hill
#
# Bulk Modulus (GPa) = 20.57681 58.53104 39.55393
# Shear Modulus (GPa) = 13.85282 25.16680 19.50981
#
# Velocity S-wave (km/s) = 2.63197 3.54753 3.12348
# Velocity P-wave (km/s) = 4.41883 6.78596 5.72605
#
# Compressibility (1/GPa) = 0.04859839
#
# Stress axis : x y z
#
# Youngs Moduli (GPa) = 18.91874 99.93446 104.11164
#
# Poissons Ratio (x) = 0.89313 -0.18350
# Poissons Ratio (y) = 0.16908 0.49566
# Poissons Ratio (z) = -0.03335 0.47577
#
# Static dielectric constant tensor:
#      x y z
#    x 3.196410 0.000000 0.000000 
#    y 0.000000 3.863350 0.000000 
#    z 0.000000 0.000000 3.786210 
# 
# 
# High freq. dielectric constant tensor:
#      x y z
#    x 1.743200 0.000000 0.000000 
#    y 0.000000 1.792060 0.000000 
#    z 0.000000 0.000000 1.798360 
# 
# From -- ./inp_files/6088.got.cif
#   From: 2010.03.12/outbox.cif.g09.slc.cpg/sg25_4_cif.got.tgz:6088.got - 2010.04.14 03:30:10.
