data_PCOD8166641
_publ_section_title
;
Structure prediction by ZEFSAII (Michael W. Deem and Ramdas Pophale) SiO2 
 PCOD8166641
Probable space group: P M M 2
;
_chemical_formula_sum "Si O2"
_cell_formula_units_Z 28
_cell_length_a 9.341748
_cell_length_b 9.509140
_cell_length_c 18.180177
_cell_angle_alpha 90.000000
_cell_angle_beta 90.000000
_cell_angle_gamma 90.000000
_cell_volume 1614.981294
_symmetry_space_group_name_H-M "P M M 2"
_symmetry_group_IT_number 25
_symmetry_cell_setting 'orthorhombic'
loop_
_space_group_symop_operation_xyz
x,y,z
-x,-y,z
-x,y,z
x,-y,z
loop_
_atom_site_type_symbol
_atom_site_label
_atom_site_fract_x
_atom_site_fract_y
_atom_site_fract_z
Si Si1 0.834324 0.333430 0.084390
Si Si2 0.158796 0.667809 0.519566
Si Si3 0.332341 0.163877 0.961427
Si Si4 0.660631 0.667106 0.385700
Si Si5 0.829372 0.343408 0.679660
Si Si6 0.339493 0.333162 0.223935
Si Si7 0.164236 0.163375 0.815808
O O1 0.815443 0.500000 0.074460
O O2 0.771688 0.280323 0.162512
O O3 0.000000 0.289075 0.080000
O O4 0.744990 0.256656 0.022037
O O5 0.155124 0.500000 0.515439
O O6 0.247705 0.733883 0.451927
O O7 0.225428 0.710245 0.599363
O O8 0.000000 0.729930 0.511371
O O9 0.500000 0.199955 0.959824
O O10 0.263597 0.206419 0.883720
O O11 0.305342 0.000000 0.978545
O O12 0.500000 0.720350 0.397059
O O13 0.668566 0.500000 0.389971
O O14 0.714351 0.717494 0.304770
O O15 0.771099 0.500000 0.696098
O O16 0.774432 0.242432 0.744227
O O17 0.000000 0.345259 0.676339
O O18 0.500000 0.274788 0.207643
O O19 0.346392 0.500000 0.223435
O O20 0.000000 0.206810 0.833396
O O21 0.175326 0.000000 0.798128
#
# Coordination Sequence:
#
# PCOD8166641 Si02
#       7
#     4   4   4   4   4   4   4
#     4  10  20  32  48  72  98 122 151 189 232 275
#     4   8  13  21  34  53  78 109 143 177 213 255
#     4  10  21  36  52  69  91 121 155 189 228 276
#     4   8  13  21  34  54  82 115 146 176 215 260
#     4   8  14  25  41  62  88 115 142 176 221 268
#     4   8  14  25  40  59  87 121 151 181 221 267
#     4   9  17  30  48  67  86 111 146 186 224 265
#
# _framework density 17.337661000000001
#
# number of rings (size 3 to 8) (size 9 to 14) (size 15 to 20)
#    0.000    3.286    0.000    2.571    0.000    2.857 
#    0.000    5.000    0.000    0.857    0.000    1.000 
#    0.000    3.429    0.000    0.000    0.000    0.000 
#
# Total GULP energy -346984.534242 kJ/mol
# GULP energy per Si atom -12392.304794 kJ/mol
# Density = 1.729820 g / cm^3
# Si number density = 17.337661 Si / 1000 Ang^3
#
#
#
# Elastic Constant Matrix: (Units=GPa)
#
#
# Indices 1 2 3 4 5 6 
#
# 1 96.2600 27.8123 85.8334 0.0000 0.0000 0.0000
# 2 27.8123 27.2948 46.9202 0.0000 0.0000 0.0000
# 3 85.8334 46.9202 189.7440 0.0000 0.0000 0.0000
# 4 0.0000 0.0000 0.0000 -1.5407 0.0000 0.0000
# 5 0.0000 0.0000 0.0000 0.0000 17.4709 0.0000
# 6 0.0000 0.0000 0.0000 0.0000 0.0000 14.8231
#
#
#
# Elastic Compliance Matrix: (Units=1/GPa)
#
#
# Indices 1 2 3 4 5 6 
#
# 1 0.018293 -0.007679 -0.006376 0.000000 0.000000 0.000000
# 2 -0.007679 0.066949 -0.013082 0.000000 0.000000 0.000000
# 3 -0.006376 -0.013082 0.011389 0.000000 0.000000 0.000000
# 4 0.000000 0.000000 0.000000 -0.649035 0.000000 0.000000
# 5 0.000000 0.000000 0.000000 0.000000 0.057238 0.000000
# 6 0.000000 0.000000 0.000000 0.000000 0.000000 0.067462
#
#
# Mechanical properties :
#
#
# Convention : Reuss Voigt Hill
#
# Bulk Modulus (GPa) = 23.60831 70.49228 47.05030
# Shear Modulus (GPa) = -13.91550 16.33285 1.20868
#
# Velocity S-wave (km/s) = -2.83612 3.07260 0.83585
# Velocity P-wave (km/s) = 1.70925 7.30305 5.30359
#
# Compressibility (1/GPa) = 0.04235796
#
# Stress axis : x y z
#
# Youngs Moduli (GPa) = 54.66688 14.93672 87.80083
#
# Poissons Ratio (x) = 0.11470 0.55982
# Poissons Ratio (y) = 0.41978 1.14858
# Poissons Ratio (z) = 0.34856 0.19540
#
# Static dielectric constant tensor:
#      x y z
#    x 3.316160 0.000000 0.000000 
#    y 0.000000 2.796550 0.000000 
#    z 0.000000 0.000000 3.724070 
# 
# 
# High freq. dielectric constant tensor:
#      x y z
#    x 1.654800 0.000000 0.000000 
#    y 0.000000 1.613730 0.000000 
#    z 0.000000 0.000000 1.689900 
# 
# From -- ./inp_files/6221.got.cif
#   From: 2010.03.12/outbox.cif.g09.slc.cpg/sg25_4_cif.got.tgz:6221.got - 2010.04.14 03:30:10.
