data_PCOD8166189
_publ_section_title
;
Structure prediction by ZEFSAII (Michael W. Deem and Ramdas Pophale) SiO2 
 PCOD8166189
Probable space group: I 21 21 21
;
_chemical_formula_sum "Si O2"
_cell_formula_units_Z 48
_cell_length_a 8.124421
_cell_length_b 17.727253
_cell_length_c 13.777422
_cell_angle_alpha 90.000000
_cell_angle_beta 90.000000
_cell_angle_gamma 90.000000
_cell_volume 1984.274832
_symmetry_space_group_name_H-M "I 21 21 21"
_symmetry_group_IT_number 24
_symmetry_cell_setting 'orthorhombic'
loop_
_space_group_symop_operation_xyz
x,y,z
-x,1/2-y,z
x,-y,1/2-z
1/2-x,y,-z
1/2+x,1/2+y,1/2+z
1/2-x,-y,1/2+z
1/2+x,1/2-y,-z
-x,1/2+y,1/2-z
loop_
_atom_site_type_symbol
_atom_site_label
_atom_site_fract_x
_atom_site_fract_y
_atom_site_fract_z
Si Si1 0.391247 0.427645 0.566278
Si Si2 0.395432 0.179389 0.432327
Si Si3 0.396668 0.321810 0.929178
Si Si4 0.139112 0.910631 0.744681
Si Si5 0.767943 0.909686 0.743719
Si Si6 0.127827 0.058087 0.078167
O O1 0.250000 0.468290 0.500000
O O2 0.486848 0.372295 0.496067
O O3 0.300885 0.380958 0.652326
O O4 0.512013 0.489953 0.614944
O O5 0.500000 0.250000 0.391103
O O6 0.250000 0.210699 0.500000
O O7 0.312394 0.130809 0.344929
O O8 0.500000 0.250000 0.894730
O O9 0.342124 0.370118 0.836505
O O10 0.521275 0.379946 0.981902
O O11 0.250000 0.297243 0.000000
O O12 0.276736 0.895058 0.662821
O O13 0.953984 0.882587 0.721737
O O14 0.136866 0.000000 0.750000
O O15 0.754719 0.000000 0.750000
O O16 0.250000 0.020885 0.000000
#
# Coordination Sequence:
#
# PCOD8166189 Si02
#       6
#     8   8   8   8   8   8
#     4  12  24  47  76 115 154 205 253 318 387 462
#     4  12  28  47  75 110 161 204 254 311 389 466
#     4  12  28  50  78 110 153 205 257 320 387 456
#     4  11  25  46  73 112 152 200 253 312 380 457
#     4  11  25  45  77 113 150 196 254 320 388 458
#     4  12  26  44  78 110 150 198 259 321 377 458
#
# _framework density 24.190199
#
# number of rings (size 3 to 8) (size 9 to 14) (size 15 to 20)
#    0.000    0.333    3.333    5.000    7.000    2.000 
#    0.000    0.833    0.000    0.000    0.000    0.000 
#    0.000    0.000    0.000    0.000    0.000    0.000 
#
# Total GULP energy -297479.569530 kJ/mol
# GULP energy per Si atom -12394.982064 kJ/mol
# Density = 2.413514 g / cm^3
# Si number density = 24.190199 Si / 1000 Ang^3
#
#
#
# Elastic Constant Matrix: (Units=GPa)
#
#
# Indices 1 2 3 4 5 6 
#
# 1 144.2654 42.5597 60.8392 0.0000 0.0000 0.0000
# 2 42.5597 100.3825 35.7100 0.0000 0.0000 0.0000
# 3 60.8392 35.7100 139.4387 0.0001 0.0000 0.0000
# 4 0.0000 0.0000 0.0001 33.1011 0.0000 0.0000
# 5 0.0000 0.0000 0.0000 0.0000 38.7826 0.0000
# 6 0.0000 0.0000 0.0000 0.0000 0.0000 31.2138
#
#
#
# Elastic Compliance Matrix: (Units=1/GPa)
#
#
# Indices 1 2 3 4 5 6 
#
# 1 0.009112 -0.002694 -0.003286 0.000000 0.000000 0.000000
# 2 -0.002694 0.011757 -0.001835 0.000000 0.000000 0.000000
# 3 -0.003286 -0.001835 0.009075 0.000000 0.000000 0.000000
# 4 0.000000 0.000000 0.000000 0.030211 0.000000 0.000000
# 5 0.000000 0.000000 0.000000 0.000000 0.025785 0.000000
# 6 0.000000 0.000000 0.000000 0.000000 0.000000 0.032037
#
#
# Mechanical properties :
#
#
# Convention : Reuss Voigt Hill
#
# Bulk Modulus (GPa) = 69.86408 73.58939 71.72673
# Shear Modulus (GPa) = 36.13255 36.95134 36.54195
#
# Velocity S-wave (km/s) = 3.86902 3.91261 3.89087
# Velocity P-wave (km/s) = 6.99306 7.13432 7.06404
#
# Compressibility (1/GPa) = 0.01431351
#
# Stress axis : x y z
#
# Youngs Moduli (GPa) = 109.74268 85.05432 110.18969
#
# Poissons Ratio (x) = 0.22918 0.36206
# Poissons Ratio (y) = 0.29570 0.20224
# Poissons Ratio (z) = 0.36059 0.15610
#
# Static dielectric constant tensor:
#      x y z
#    x 5.066420 0.000000 0.000000 
#    y 0.000000 4.161660 0.000000 
#    z 0.000000 0.000000 4.317590 
# 
# 
# High freq. dielectric constant tensor:
#      x y z
#    x 1.992030 0.000000 0.000000 
#    y 0.000000 1.938840 0.000000 
#    z 0.000000 0.000000 1.952950 
# 
# From -- ./inp_files/24800.got.cif
#   From: 2010.03.12/outbox.cif.g09.slc.cpg/sg24_13_cif.got.tgz:24800.got - 2010.04.14 03:06:53.
