data_PCOD8166521
_publ_section_title
;
Structure prediction by ZEFSAII (Michael W. Deem and Ramdas Pophale) SiO2 
 PCOD8166521
Probable space group: P M M 2
;
_chemical_formula_sum "Si O2"
_cell_formula_units_Z 32
_cell_length_a 9.062546
_cell_length_b 14.180358
_cell_length_c 12.923553
_cell_angle_alpha 90.000000
_cell_angle_beta 90.000000
_cell_angle_gamma 90.000000
_cell_volume 1660.807692
_symmetry_space_group_name_H-M "P M M 2"
_symmetry_group_IT_number 25
_symmetry_cell_setting 'orthorhombic'
loop_
_space_group_symop_operation_xyz
x,y,z
-x,-y,z
-x,y,z
x,-y,z
loop_
_atom_site_type_symbol
_atom_site_label
_atom_site_fract_x
_atom_site_fract_y
_atom_site_fract_z
Si Si1 0.170741 0.889891 0.419170
Si Si2 0.674472 0.792640 0.836825
Si Si3 0.325416 0.220109 0.240195
Si Si4 0.324217 0.106643 0.040600
Si Si5 0.834597 0.111549 0.652373
Si Si6 0.324550 0.396357 0.747644
Si Si7 0.336964 0.388649 0.520661
Si Si8 0.826739 0.608318 0.317681
O O1 0.276100 0.832963 0.343353
O O2 0.209707 0.857416 0.536037
O O3 0.000000 0.867875 0.394104
O O4 0.203594 0.000000 0.404643
O O5 0.500000 0.798407 0.841830
O O6 0.722006 0.846279 0.734028
O O7 0.726382 0.682679 0.830425
O O8 0.741569 0.840645 0.939474
O O9 0.500000 0.230884 0.238737
O O10 0.267638 0.161685 0.141453
O O11 0.253844 0.324616 0.234500
O O12 0.500000 0.105300 0.037494
O O13 0.262266 0.000000 0.043106
O O14 0.000000 0.146511 0.677929
O O15 0.827181 0.000000 0.659682
O O16 0.500000 0.404116 0.743302
O O17 0.258679 0.500000 0.776714
O O18 0.271973 0.361058 0.633596
O O19 0.500000 0.343995 0.500507
O O20 0.353343 0.500000 0.519375
O O21 0.224355 0.356656 0.431447
O O22 0.781070 0.500000 0.295880
O O23 0.000000 0.622439 0.309621
#
# Coordination Sequence:
#
# PCOD8166521 Si02
#       8
#     4   4   4   4   4   4   4   4
#     4   9  19  36  55  77 109 144 176 219 279 339
#     4  10  19  32  55  82 106 138 183 223 264 317
#     4  11  22  35  55  79 105 141 188 232 274 325
#     4   9  19  36  55  78 109 140 174 226 281 321
#     4   9  19  35  52  74 108 142 169 210 273 334
#     4   8  15  28  47  75 110 141 172 213 258 305
#     4   8  14  27  47  71 103 141 176 213 256 305
#     4  10  21  36  53  76 108 144 181 222 272 329
#
# _framework density 19.267734000000001
#
# number of rings (size 3 to 8) (size 9 to 14) (size 15 to 20)
#    0.000    2.750    0.000    3.000    1.750    2.750 
#    0.000    3.125    0.000    5.625    0.000    0.000 
#    0.000    0.000    0.000    0.000    0.000    0.000 
#
# Total GULP energy -396661.072376 kJ/mol
# GULP energy per Si atom -12395.658512 kJ/mol
# Density = 1.922388 g / cm^3
# Si number density = 19.267734 Si / 1000 Ang^3
#
#
#
# Elastic Constant Matrix: (Units=GPa)
#
#
# Indices 1 2 3 4 5 6 
#
# 1 43.8950 31.1396 30.2690 0.0000 0.0000 0.0000
# 2 31.1396 118.6943 84.5803 0.0000 0.0000 0.0000
# 3 30.2690 84.5803 123.4452 0.0000 0.0000 0.0000
# 4 0.0000 0.0000 0.0000 36.0339 0.0000 0.0000
# 5 0.0000 0.0000 0.0000 0.0000 8.2513 0.0000
# 6 0.0000 0.0000 0.0000 0.0000 0.0000 24.2316
#
#
#
# Elastic Compliance Matrix: (Units=1/GPa)
#
#
# Indices 1 2 3 4 5 6 
#
# 1 0.028825 -0.004935 -0.003686 0.000000 0.000000 0.000000
# 2 -0.004935 0.017308 -0.010649 0.000000 0.000000 0.000000
# 3 -0.003686 -0.010649 0.016301 0.000000 0.000000 0.000000
# 4 0.000000 0.000000 0.000000 0.027752 0.000000 0.000000
# 5 0.000000 0.000000 0.000000 0.000000 0.121193 0.000000
# 6 0.000000 0.000000 0.000000 0.000000 0.000000 0.041268
#
#
# Mechanical properties :
#
#
# Convention : Reuss Voigt Hill
#
# Bulk Modulus (GPa) = 41.85364 64.22361 53.03863
# Shear Modulus (GPa) = 16.71394 23.03973 19.87683
#
# Velocity S-wave (km/s) = 2.94846 3.46174 3.21536
# Velocity P-wave (km/s) = 5.77586 7.02729 6.43208
#
# Compressibility (1/GPa) = 0.02389278
#
# Stress axis : x y z
#
# Youngs Moduli (GPa) = 34.69227 57.77715 61.34699
#
# Poissons Ratio (x) = 0.28515 0.22615
# Poissons Ratio (y) = 0.17122 0.65326
# Poissons Ratio (z) = 0.12789 0.61525
#
# Static dielectric constant tensor:
#      x y z
#    x 3.224370 0.000000 0.000000 
#    y 0.000000 3.784830 0.000000 
#    z 0.000000 0.000000 3.626430 
# 
# 
# High freq. dielectric constant tensor:
#      x y z
#    x 1.717150 0.000000 0.000000 
#    y 0.000000 1.762180 0.000000 
#    z 0.000000 0.000000 1.735160 
# 
# From -- ./inp_files/4272.got.cif
#   From: 2010.03.12/outbox.cif.g09.slc.cpg/sg25_3_cif.got.tgz:4272.got - 2010.04.14 03:30:10.
