data_PCOD8166515
_publ_section_title
;
Structure prediction by ZEFSAII (Michael W. Deem and Ramdas Pophale) SiO2 
 PCOD8166515
Probable space group: P M M 2
;
_chemical_formula_sum "Si O2"
_cell_formula_units_Z 32
_cell_length_a 16.682040
_cell_length_b 8.775731
_cell_length_c 11.406421
_cell_angle_alpha 90.000000
_cell_angle_beta 90.000000
_cell_angle_gamma 90.000000
_cell_volume 1669.866905
_symmetry_space_group_name_H-M "P M M 2"
_symmetry_group_IT_number 25
_symmetry_cell_setting 'orthorhombic'
loop_
_space_group_symop_operation_xyz
x,y,z
-x,-y,z
-x,y,z
x,-y,z
loop_
_atom_site_type_symbol
_atom_site_label
_atom_site_fract_x
_atom_site_fract_y
_atom_site_fract_z
Si Si1 0.366336 0.324801 0.267370
Si Si2 0.587401 0.668167 0.520539
Si Si3 0.723646 0.825215 0.637759
Si Si4 0.909892 0.677502 0.985450
Si Si5 0.223318 0.825439 0.389935
Si Si6 0.257722 0.679352 0.882387
Si Si7 0.408266 0.179637 0.024389
Si Si8 0.910615 0.831416 0.221519
O O1 0.367689 0.500000 0.226227
O O2 0.420722 0.295469 0.381942
O O3 0.277483 0.278981 0.306882
O O4 0.397436 0.224707 0.159746
O O5 0.500000 0.667500 0.576728
O O6 0.627603 0.500000 0.536145
O O7 0.634030 0.798223 0.590375
O O8 0.779598 0.778876 0.527145
O O9 0.740175 0.714599 0.745181
O O10 0.734159 0.000000 0.677298
O O11 0.913659 0.500000 0.960536
O O12 0.830171 0.745347 0.921897
O O13 0.000000 0.745707 0.950593
O O14 0.893546 0.707862 0.121877
O O15 0.135519 0.797790 0.340970
O O16 0.253289 0.000000 0.380172
O O17 0.261462 0.500000 0.905275
O O18 0.336256 0.748723 0.946603
O O19 0.500000 0.228006 0.985388
O O20 0.399025 0.000000 0.012084
O O21 0.000000 0.823194 0.266074
O O22 0.889074 0.000000 0.170993
#
# Coordination Sequence:
#
# PCOD8166515 Si02
#       8
#     4   4   4   4   4   4   4   4
#     4  10  19  32  53  80 108 137 172 216 265 316
#     4   9  18  33  53  76 102 134 173 217 263 312
#     4  10  21  36  53  74 102 137 177 219 262 311
#     4   9  19  36  57  82 110 138 172 216 267 322
#     4   9  18  33  52  75 105 140 175 213 261 315
#     4  11  23  39  59  79 103 141 184 227 272 316
#     4  11  24  39  55  78 110 146 181 220 268 321
#     4   9  17  30  51  79 108 136 167 206 254 310
#
# _framework density 19.163202999999999
#
# number of rings (size 3 to 8) (size 9 to 14) (size 15 to 20)
#    0.000    2.250    0.000    2.625    0.000    6.750 
#    0.000    0.625    0.000    0.750    0.000    0.000 
#    0.000    0.000    0.000    0.000    0.000    0.000 
#
# Total GULP energy -396419.311077 kJ/mol
# GULP energy per Si atom -12388.103471 kJ/mol
# Density = 1.911959 g / cm^3
# Si number density = 19.163203 Si / 1000 Ang^3
#
#
#
# Elastic Constant Matrix: (Units=GPa)
#
#
# Indices 1 2 3 4 5 6 
#
# 1 131.4515 34.2990 66.7602 0.0000 0.0000 0.0000
# 2 34.2990 41.3331 22.5621 0.0000 0.0000 0.0000
# 3 66.7602 22.5621 97.5928 0.0000 0.0000 0.0000
# 4 0.0000 0.0000 0.0000 30.1105 0.0000 0.0000
# 5 0.0000 0.0000 0.0000 0.0000 -21.9999 0.0000
# 6 0.0000 0.0000 0.0000 0.0000 0.0000 23.2762
#
#
#
# Elastic Compliance Matrix: (Units=1/GPa)
#
#
# Indices 1 2 3 4 5 6 
#
# 1 0.013170 -0.006879 -0.007419 0.000000 0.000000 0.000000
# 2 -0.006879 0.031281 -0.002526 0.000000 0.000000 0.000000
# 3 -0.007419 -0.002526 0.015906 0.000000 0.000000 0.000000
# 4 0.000000 0.000000 0.000000 0.033211 0.000000 0.000000
# 5 0.000000 0.000000 0.000000 0.000000 -0.045455 0.000000
# 6 0.000000 0.000000 0.000000 0.000000 0.000000 0.042962
#
#
# Mechanical properties :
#
#
# Convention : Reuss Voigt Hill
#
# Bulk Modulus (GPa) = 37.44090 57.51333 47.47711
# Shear Modulus (GPa) = 37.41779 16.06109 26.73944
#
# Velocity S-wave (km/s) = 4.42360 2.89817 3.73950
# Velocity P-wave (km/s) = 6.75806 6.42470 6.59348
#
# Compressibility (1/GPa) = 0.02670876
#
# Stress axis : x y z
#
# Youngs Moduli (GPa) = 75.92927 31.96840 62.87070
#
# Poissons Ratio (x) = 0.21991 0.46643
# Poissons Ratio (y) = 0.52233 0.15881
# Poissons Ratio (z) = 0.56331 0.08075
#
# Static dielectric constant tensor:
#      x y z
#    x 3.845320 0.000000 0.000000 
#    y 0.000000 3.527430 0.000000 
#    z 0.000000 0.000000 3.377190 
# 
# 
# High freq. dielectric constant tensor:
#      x y z
#    x 1.749920 0.000000 0.000000 
#    y 0.000000 1.741670 0.000000 
#    z 0.000000 0.000000 1.731910 
# 
# From -- ./inp_files/4934.got.cif
#   From: 2010.03.12/outbox.cif.g09.slc.cpg/sg25_3_cif.got.tgz:4934.got - 2010.04.14 03:30:10.
