data_PCOD8166095
_publ_section_title
;
Structure prediction by ZEFSAII (Michael W. Deem and Ramdas Pophale) SiO2 
 PCOD8166095
Probable space group: I 21 21 21
;
_chemical_formula_sum "Si O2"
_cell_formula_units_Z 40
_cell_length_a 8.664989
_cell_length_b 9.279197
_cell_length_c 23.438662
_cell_angle_alpha 90.000000
_cell_angle_beta 90.000000
_cell_angle_gamma 90.000000
_cell_volume 1884.565459
_symmetry_space_group_name_H-M "I 21 21 21"
_symmetry_group_IT_number 24
_symmetry_cell_setting 'orthorhombic'
loop_
_space_group_symop_operation_xyz
x,y,z
-x,1/2-y,z
x,-y,1/2-z
1/2-x,y,-z
1/2+x,1/2+y,1/2+z
1/2-x,-y,1/2+z
1/2+x,1/2-y,-z
-x,1/2+y,1/2-z
loop_
_atom_site_type_symbol
_atom_site_label
_atom_site_fract_x
_atom_site_fract_y
_atom_site_fract_z
Si Si1 0.924982 0.604016 0.593814
Si Si2 0.057196 0.899278 0.405350
Si Si3 0.880666 0.645024 0.717217
Si Si4 0.567489 0.093989 0.498700
Si Si5 0.391021 0.639027 0.713917
O O1 0.740853 0.595562 0.589903
O O2 0.968341 0.587582 0.660687
O O3 0.000000 0.750000 0.569043
O O4 0.003640 0.478332 0.558481
O O5 0.000000 0.750000 0.432824
O O6 0.987117 0.913920 0.341401
O O7 0.990952 0.026493 0.442767
O O8 0.824575 0.500000 0.750000
O O9 0.748305 0.755627 0.696535
O O10 0.000000 0.750000 0.752235
O O11 0.500000 0.250000 0.497069
O O12 0.750000 0.093599 0.500000
O O13 0.500000 0.750000 0.750204
O O14 0.338312 0.500000 0.750000
#
# Coordination Sequence:
#
# PCOD8166095 Si02
#       5
#     8   8   8   8   8
#     4  11  23  43  71  96 134 180 235 283 339 421
#     4  11  22  43  68 100 132 183 233 280 341 418
#     4  11  24  44  69 104 142 187 237 292 353 420
#     4  12  27  46  68  99 137 177 227 293 356 415
#     4  11  23  42  69 103 144 188 239 287 349 419
#
# _framework density 21.225052000000002
#
# number of rings (size 3 to 8) (size 9 to 14) (size 15 to 20)
#    0.000    0.800    4.000    4.800    2.800    1.600 
#    3.600    0.000    0.000    0.000    0.000    0.000 
#    0.000    0.000    0.000    0.000    0.000    0.000 
#
# Total GULP energy -247765.490628 kJ/mol
# GULP energy per Si atom -12388.274531 kJ/mol
# Density = 2.117674 g / cm^3
# Si number density = 21.225052 Si / 1000 Ang^3
#
#
#
# Elastic Constant Matrix: (Units=GPa)
#
#
# Indices 1 2 3 4 5 6 
#
# 1 164.0023 65.8378 49.5507 0.0000 0.0000 0.0000
# 2 65.8378 182.4293 82.3943 0.0000 0.0000 0.0000
# 3 49.5507 82.3943 101.4564 0.0000 0.0000 0.0000
# 4 0.0000 0.0000 0.0000 37.0711 0.0000 0.0000
# 5 0.0000 0.0000 0.0000 0.0000 30.0074 0.0000
# 6 0.0000 0.0000 0.0000 0.0000 0.0000 43.6078
#
#
#
# Elastic Compliance Matrix: (Units=1/GPa)
#
#
# Indices 1 2 3 4 5 6 
#
# 1 0.007455 -0.001652 -0.002300 0.000000 0.000000 0.000000
# 2 -0.001652 0.009023 -0.006521 0.000000 0.000000 0.000000
# 3 -0.002300 -0.006521 0.016275 0.000000 0.000000 0.000000
# 4 0.000000 0.000000 0.000000 0.026975 0.000000 0.000000
# 5 0.000000 0.000000 0.000000 0.000000 0.033325 0.000000
# 6 0.000000 0.000000 0.000000 0.000000 0.000000 0.022932
#
#
# Mechanical properties :
#
#
# Convention : Reuss Voigt Hill
#
# Bulk Modulus (GPa) = 84.68290 93.71708 89.19999
# Shear Modulus (GPa) = 35.49460 38.81095 37.15278
#
# Velocity S-wave (km/s) = 4.09381 4.28079 4.18834
# Velocity P-wave (km/s) = 7.89493 8.28754 8.09362
#
# Compressibility (1/GPa) = 0.01180876
#
# Stress axis : x y z
#
# Youngs Moduli (GPa) = 134.13012 110.82901 61.44330
#
# Poissons Ratio (x) = 0.18309 0.14129
# Poissons Ratio (y) = 0.22159 0.40066
# Poissons Ratio (z) = 0.30844 0.72269
#
# Static dielectric constant tensor:
#      x y z
#    x 4.180040 0.000000 0.000000 
#    y 0.000000 3.980710 0.000000 
#    z 0.000000 0.000000 3.751460 
# 
# 
# High freq. dielectric constant tensor:
#      x y z
#    x 1.856330 0.000000 0.000000 
#    y 0.000000 1.838430 0.000000 
#    z 0.000000 0.000000 1.817870 
# 
# From -- ./inp_files/9253.got.cif
#   From: 2010.03.12/outbox.cif.g09.slc.cpg/sg24_5_cif.got.tgz:9253.got - 2010.04.14 03:06:53.
