data_PCOD8166112
_publ_section_title
;
Structure prediction by ZEFSAII (Michael W. Deem and Ramdas Pophale) SiO2 
 PCOD8166112
Probable space group: I 21 21 21
;
_chemical_formula_sum "Si O2"
_cell_formula_units_Z 32
_cell_length_a 17.029902
_cell_length_b 5.120424
_cell_length_c 17.180936
_cell_angle_alpha 90.000000
_cell_angle_beta 90.000000
_cell_angle_gamma 90.000000
_cell_volume 1498.183099
_symmetry_space_group_name_H-M "I 21 21 21"
_symmetry_group_IT_number 24
_symmetry_cell_setting 'orthorhombic'
loop_
_space_group_symop_operation_xyz
x,y,z
-x,1/2-y,z
x,-y,1/2-z
1/2-x,y,-z
1/2+x,1/2+y,1/2+z
1/2-x,-y,1/2+z
1/2+x,1/2-y,-z
-x,1/2+y,1/2-z
loop_
_atom_site_type_symbol
_atom_site_label
_atom_site_fract_x
_atom_site_fract_y
_atom_site_fract_z
Si Si1 0.705045 0.948208 0.922568
Si Si2 0.910343 0.171341 0.822840
Si Si3 0.053274 0.501290 0.987118
Si Si4 0.257563 0.058267 0.165255
O O1 0.612679 0.957601 0.941554
O O2 0.730908 0.660253 0.895724
O O3 0.723719 0.159227 0.856904
O O4 0.750000 0.029985 0.000000
O O5 0.853163 0.423200 0.830273
O O6 0.000000 0.250000 0.807711
O O7 0.880066 0.000000 0.750000
O O8 0.901696 0.017131 0.904246
O O9 0.000000 0.750000 0.981620
O O10 0.000000 0.250000 0.003123
O O11 0.222126 0.000000 0.250000
#
# Coordination Sequence:
#
# PCOD8166112 Si02
#       4
#     8   8   8   8
#     4  12  25  44  70  98 135 176 229 283 331 393
#     4  11  23  39  62 100 144 188 219 263 331 424
#     4  11  25  43  69  98 135 180 227 276 340 401
#     4  12  26  43  68  98 137 179 225 277 340 398
#
# _framework density 21.359206
#
# number of rings (size 3 to 8) (size 9 to 14) (size 15 to 20)
#    0.000    0.500    2.500    6.000    7.000    0.000 
#    0.000    0.000    0.000   15.000    0.000    0.000 
#    0.000    0.000    0.000    0.000    0.000    0.000 
#
# Total GULP energy -198467.742755 kJ/mol
# GULP energy per Si atom -12404.233922 kJ/mol
# Density = 2.131059 g / cm^3
# Si number density = 21.359206 Si / 1000 Ang^3
#
#
#
# Elastic Constant Matrix: (Units=GPa)
#
#
# Indices 1 2 3 4 5 6 
#
# 1 94.4114 50.0899 60.9005 0.0000 0.0000 0.0000
# 2 50.0899 135.8021 39.5153 0.0000 0.0000 0.0000
# 3 60.9005 39.5153 103.7224 0.0000 0.0000 0.0000
# 4 0.0000 0.0000 0.0000 47.5848 0.0000 0.0000
# 5 0.0000 0.0000 0.0000 0.0000 22.7468 0.0000
# 6 0.0000 0.0000 0.0000 0.0000 0.0000 40.1462
#
#
#
# Elastic Compliance Matrix: (Units=1/GPa)
#
#
# Indices 1 2 3 4 5 6 
#
# 1 0.018988 -0.004228 -0.009538 0.000000 0.000000 0.000000
# 2 -0.004228 0.009223 -0.001031 0.000000 0.000000 0.000000
# 3 -0.009538 -0.001031 0.015634 0.000000 0.000000 0.000000
# 4 0.000000 0.000000 0.000000 0.021015 0.000000 0.000000
# 5 0.000000 0.000000 0.000000 0.000000 0.043962 0.000000
# 6 0.000000 0.000000 0.000000 0.000000 0.000000 0.024909
#
#
# Mechanical properties :
#
#
# Convention : Reuss Voigt Hill
#
# Bulk Modulus (GPa) = 70.17243 70.54970 70.36106
# Shear Modulus (GPa) = 29.74853 34.32425 32.03639
#
# Velocity S-wave (km/s) = 3.73604 4.01309 3.87704
# Velocity P-wave (km/s) = 7.17882 7.38749 7.28390
#
# Compressibility (1/GPa) = 0.01425061
#
# Stress axis : x y z
#
# Youngs Moduli (GPa) = 52.66611 108.42145 63.96303
#
# Poissons Ratio (x) = 0.45843 0.61006
# Poissons Ratio (y) = 0.22268 0.06596
# Poissons Ratio (z) = 0.50231 0.11181
#
# Static dielectric constant tensor:
#      x y z
#    x 3.899320 0.000000 0.000000 
#    y 0.000000 3.782070 0.000000 
#    z 0.000000 0.000000 4.367520 
# 
# 
# High freq. dielectric constant tensor:
#      x y z
#    x 1.832980 0.000000 0.000000 
#    y 0.000000 1.849900 0.000000 
#    z 0.000000 0.000000 1.840080 
# 
# From -- ./inp_files/3068.got.cif
#   From: 2010.03.12/outbox.cif.g09.slc.cpg/sg24_2_cif.got.tgz:3068.got - 2010.04.14 03:06:53.
