data_PCOD8166874
_publ_section_title
;
Structure prediction by ZEFSAII (Michael W. Deem and Ramdas Pophale) SiO2 
 PCOD8166874
Probable space group: P M M 2
;
_chemical_formula_sum "Si O2"
_cell_formula_units_Z 24
_cell_length_a 9.484325
_cell_length_b 9.376531
_cell_length_c 15.356339
_cell_angle_alpha 90.000000
_cell_angle_beta 90.000000
_cell_angle_gamma 90.000000
_cell_volume 1365.640262
_symmetry_space_group_name_H-M "P M M 2"
_symmetry_group_IT_number 25
_symmetry_cell_setting 'orthorhombic'
loop_
_space_group_symop_operation_xyz
x,y,z
-x,-y,z
-x,y,z
x,-y,z
loop_
_atom_site_type_symbol
_atom_site_label
_atom_site_fract_x
_atom_site_fract_y
_atom_site_fract_z
Si Si1 0.835590 0.165421 0.623380
Si Si2 0.663435 0.164608 0.312123
Si Si3 0.664693 0.334204 0.481921
Si Si4 0.168036 0.660028 0.978099
Si Si5 0.163637 0.834756 0.144336
Si Si6 0.167280 0.842156 0.819144
O O1 0.746885 0.266950 0.561950
O O2 0.791070 0.206537 0.721911
O O3 0.000000 0.195039 0.607686
O O4 0.800580 0.000000 0.604744
O O5 0.500000 0.190088 0.291138
O O6 0.714397 0.258446 0.393317
O O7 0.751235 0.215797 0.228808
O O8 0.694852 0.000000 0.334417
O O9 0.500000 0.307946 0.497752
O O10 0.702153 0.500000 0.474771
O O11 0.227798 0.500000 0.982548
O O12 0.229425 0.733487 0.890671
O O13 0.000000 0.660672 0.975318
O O14 0.221063 0.745632 0.062460
O O15 0.000000 0.804155 0.162302
O O16 0.190983 0.000000 0.123380
O O17 0.000000 0.848685 0.826309
O O18 0.228335 0.000000 0.838163
#
# Coordination Sequence:
#
# PCOD8166874 Si02
#       6
#     4   4   4   4   4   4
#     4   9  18  32  51  75  99 124 159 202 243 282
#     4   9  18  33  51  68  88 119 158 196 234 279
#     4  10  21  35  50  70  97 129 162 195 237 291
#     4   9  16  25  40  65  95 124 152 183 223 273
#     4   9  17  29  46  68  92 118 150 190 233 273
#     4   8  14  26  44  66  93 123 153 187 228 273
#
# _framework density 17.574175
#
# number of rings (size 3 to 8) (size 9 to 14) (size 15 to 20)
#    0.000    3.000    0.000    2.000    0.000    5.333 
#    0.000    3.333    0.000    1.000    0.000    2.333 
#    0.000    0.000    0.000    0.000    0.000    0.000 
#
# Total GULP energy -297576.957865 kJ/mol
# GULP energy per Si atom -12399.039911 kJ/mol
# Density = 1.753418 g / cm^3
# Si number density = 17.574175 Si / 1000 Ang^3
#
#
#
# Elastic Constant Matrix: (Units=GPa)
#
#
# Indices 1 2 3 4 5 6 
#
# 1 31.9531 36.3462 49.2144 0.0000 0.0000 0.0000
# 2 36.3462 120.0167 102.4163 0.0000 0.0000 0.0000
# 3 49.2144 102.4163 179.5136 0.0000 0.0000 0.0000
# 4 0.0000 0.0000 0.0000 14.6070 0.0000 0.0000
# 5 0.0000 0.0000 0.0000 0.0000 -5.1329 0.0000
# 6 0.0000 0.0000 0.0000 0.0000 0.0000 19.1962
#
#
#
# Elastic Compliance Matrix: (Units=1/GPa)
#
#
# Indices 1 2 3 4 5 6 
#
# 1 0.057635 -0.007738 -0.011386 0.000000 0.000000 0.000000
# 2 -0.007738 0.017276 -0.007735 0.000000 0.000000 0.000000
# 3 -0.011386 -0.007735 0.013105 0.000000 0.000000 0.000000
# 4 0.000000 0.000000 0.000000 0.068460 0.000000 0.000000
# 5 0.000000 0.000000 0.000000 0.000000 -0.194822 0.000000
# 6 0.000000 0.000000 0.000000 0.000000 0.000000 0.052094
#
#
# Mechanical properties :
#
#
# Convention : Reuss Voigt Hill
#
# Bulk Modulus (GPa) = 29.15635 78.60412 53.88023
# Shear Modulus (GPa) = 63.37245 15.30116 39.33681
#
# Velocity S-wave (km/s) = 6.01151 2.95390 4.73623
# Velocity P-wave (km/s) = 8.05052 7.51387 7.78682
#
# Compressibility (1/GPa) = 0.03429784
#
# Stress axis : x y z
#
# Youngs Moduli (GPa) = 17.35071 57.88281 76.30533
#
# Poissons Ratio (x) = 0.44788 0.86883
# Poissons Ratio (y) = 0.13426 0.59023
# Poissons Ratio (z) = 0.19756 0.44773
#
# Static dielectric constant tensor:
#      x y z
#    x 2.871160 0.000000 0.000000 
#    y 0.000000 3.392590 0.000000 
#    z 0.000000 0.000000 3.444770 
# 
# 
# High freq. dielectric constant tensor:
#      x y z
#    x 1.634860 0.000000 0.000000 
#    y 0.000000 1.680340 0.000000 
#    z 0.000000 0.000000 1.692510 
# 
# From -- ./inp_files/3914.got.cif
#   From: 2010.03.12/outbox.cif.g09.slc.cpg/sg25_2_cif.got.tgz:3914.got - 2010.04.14 03:30:10.
