data_PCOD8166879
_publ_section_title
;
Structure prediction by ZEFSAII (Michael W. Deem and Ramdas Pophale) SiO2 
 PCOD8166879
Probable space group: P M M 2
;
_chemical_formula_sum "Si O2"
_cell_formula_units_Z 28
_cell_length_a 9.119738
_cell_length_b 9.120078
_cell_length_c 18.205953
_cell_angle_alpha 90.000000
_cell_angle_beta 90.000000
_cell_angle_gamma 90.000000
_cell_volume 1514.238666
_symmetry_space_group_name_H-M "P M M 2"
_symmetry_group_IT_number 25
_symmetry_cell_setting 'orthorhombic'
loop_
_space_group_symop_operation_xyz
x,y,z
-x,-y,z
-x,y,z
x,-y,z
loop_
_atom_site_type_symbol
_atom_site_label
_atom_site_fract_x
_atom_site_fract_y
_atom_site_fract_z
Si Si1 0.174679 0.167391 0.710970
Si Si2 0.169991 0.330468 0.984480
Si Si3 0.830754 0.827682 0.132636
Si Si4 0.665622 0.673627 0.840336
Si Si5 0.328680 0.329721 0.263769
Si Si6 0.824912 0.832087 0.393614
Si Si7 0.159696 0.826910 0.552661
O O1 0.246713 0.270315 0.770593
O O2 0.237525 0.216973 0.629910
O O3 0.000000 0.186164 0.712456
O O4 0.218688 0.000000 0.727963
O O5 0.205468 0.500000 0.000671
O O6 0.260271 0.269327 0.915231
O O7 0.000000 0.306558 0.966219
O O8 0.219174 0.237913 0.054889
O O9 0.730539 0.759011 0.194791
O O10 0.000000 0.788405 0.149083
O O11 0.804918 0.000000 0.130898
O O12 0.500000 0.732776 0.837753
O O13 0.671955 0.500000 0.838340
O O14 0.500000 0.298850 0.271997
O O15 0.294081 0.500000 0.251679
O O16 0.249011 0.277247 0.337109
O O17 0.762047 0.787091 0.475122
O O18 0.000000 0.814481 0.391076
O O19 0.782377 0.000000 0.374419
O O20 0.000000 0.751271 0.551680
O O21 0.137317 0.000000 0.554341
#
# Coordination Sequence:
#
# PCOD8166879 Si02
#       7
#     4   4   4   4   4   4   4
#     4   9  17  31  53  78 102 131 170 215 259 302
#     4   9  18  34  55  76 100 133 171 209 250 298
#     4  10  21  37  58  83 106 128 161 207 256 304
#     4  10  21  35  50  72 105 142 175 207 248 299
#     4  11  24  38  51  72 105 142 175 206 245 296
#     4   9  17  32  56  81 102 128 167 214 260 305
#     4   7  12  26  49  76 102 127 161 209 260 304
#
# _framework density 18.491140000000001
#
# number of rings (size 3 to 8) (size 9 to 14) (size 15 to 20)
#    0.000    2.714    0.000    3.429    0.000    6.286 
#    0.000    4.286    0.000    6.857    0.000    0.000 
#    0.000    0.000    0.000    0.000    0.000    0.000 
#
# Total GULP energy -347031.385908 kJ/mol
# GULP energy per Si atom -12393.978068 kJ/mol
# Density = 1.844905 g / cm^3
# Si number density = 18.491140 Si / 1000 Ang^3
#
#
#
# Elastic Constant Matrix: (Units=GPa)
#
#
# Indices 1 2 3 4 5 6 
#
# 1 52.6185 25.8857 49.9892 0.0000 0.0000 0.0000
# 2 25.8857 47.3128 46.3485 0.0000 0.0000 0.0000
# 3 49.9892 46.3485 166.8686 0.0000 0.0000 0.0000
# 4 0.0000 0.0000 0.0000 63.9192 0.0000 0.0000
# 5 0.0000 0.0000 0.0000 0.0000 -9.5356 0.0000
# 6 0.0000 0.0000 0.0000 0.0000 0.0000 22.8066
#
#
#
# Elastic Compliance Matrix: (Units=1/GPa)
#
#
# Indices 1 2 3 4 5 6 
#
# 1 0.029885 -0.010414 -0.006060 0.000000 0.000000 0.000000
# 2 -0.010414 0.032666 -0.005953 0.000000 0.000000 0.000000
# 3 -0.006060 -0.005953 0.009462 0.000000 0.000000 0.000000
# 4 0.000000 0.000000 0.000000 0.015645 0.000000 0.000000
# 5 0.000000 0.000000 0.000000 0.000000 -0.104870 0.000000
# 6 0.000000 0.000000 0.000000 0.000000 0.000000 0.043847
#
#
# Mechanical properties :
#
#
# Convention : Reuss Voigt Hill
#
# Bulk Modulus (GPa) = 36.82216 56.80519 46.81367
# Shear Modulus (GPa) = 62.07919 25.07647 43.57783
#
# Velocity S-wave (km/s) = 5.80045 3.68657 4.85984
# Velocity P-wave (km/s) = 8.05090 6.99342 7.54072
#
# Compressibility (1/GPa) = 0.02715756
#
# Stress axis : x y z
#
# Youngs Moduli (GPa) = 33.46119 30.61329 105.68838
#
# Poissons Ratio (x) = 0.31881 0.64050
# Poissons Ratio (y) = 0.34847 0.62919
# Poissons Ratio (z) = 0.20278 0.18225
#
# Static dielectric constant tensor:
#      x y z
#    x 3.239270 0.000000 0.000000 
#    y 0.000000 3.128480 0.000000 
#    z 0.000000 0.000000 3.791400 
# 
# 
# High freq. dielectric constant tensor:
#      x y z
#    x 1.692590 0.000000 0.000000 
#    y 0.000000 1.697990 0.000000 
#    z 0.000000 0.000000 1.741600 
# 
# From -- ./inp_files/6047.got.cif
#   From: 2010.03.12/outbox.cif.g09.slc.cpg/sg25_4_cif.got.tgz:6047.got - 2010.04.14 03:30:10.
