data_PCOD8166225
_publ_section_title
;
Structure prediction by ZEFSAII (Michael W. Deem and Ramdas Pophale) SiO2 
 PCOD8166225
Probable space group: I 21 21 21
;
_chemical_formula_sum "Si O2"
_cell_formula_units_Z 24
_cell_length_a 11.412690
_cell_length_b 5.324109
_cell_length_c 14.728587
_cell_angle_alpha 90.000000
_cell_angle_beta 90.000000
_cell_angle_gamma 90.000000
_cell_volume 894.944376
_symmetry_space_group_name_H-M "I 21 21 21"
_symmetry_group_IT_number 24
_symmetry_cell_setting 'orthorhombic'
loop_
_space_group_symop_operation_xyz
x,y,z
-x,1/2-y,z
x,-y,1/2-z
1/2-x,y,-z
1/2+x,1/2+y,1/2+z
1/2-x,-y,1/2+z
1/2+x,1/2-y,-z
-x,1/2+y,1/2-z
loop_
_atom_site_type_symbol
_atom_site_label
_atom_site_fract_x
_atom_site_fract_y
_atom_site_fract_z
Si Si1 0.458960 0.500000 0.390672
Si Si2 0.303562 0.500001 0.643784
Si Si3 0.630913 0.499999 0.556265
O O1 0.500000 0.250000 0.336273
O O2 0.320868 0.500001 0.409424
O O3 0.520641 0.500000 0.488977
O O4 0.500000 0.750000 0.336273
O O5 0.274648 0.500000 0.750000
O O6 0.375454 0.249410 0.618804
O O7 0.375455 0.750592 0.618804
O O8 0.750000 0.500001 0.500000
#
# Coordination Sequence:
#
# PCOD8166225 Si02
#       3
#     8   8   8
#     4  12  23  40  71 105 134 185 234 282 337 427
#     4  12  26  45  71 109 142 174 231 305 350 390
#     4  12  23  44  70 103 141 189 229 279 349 431
#
# _framework density 26.817309000000002
#
# number of rings (size 3 to 8) (size 9 to 14) (size 15 to 20)
#    0.000    0.000    6.667    4.000    0.000    1.333 
#    0.000    0.000    0.000   20.000    0.000    0.000 
#    0.000    0.000    0.000    0.000    0.000    0.000 
#
# Total GULP energy -148780.452888 kJ/mol
# GULP energy per Si atom -12398.371074 kJ/mol
# Density = 2.675627 g / cm^3
# Si number density = 26.817309 Si / 1000 Ang^3
#
#
#
# Elastic Constant Matrix: (Units=GPa)
#
#
# Indices 1 2 3 4 5 6 
#
# 1 121.4557 16.5690 62.5340 0.0000 0.0000 0.0000
# 2 16.5690 299.8346 54.2304 0.0000 0.0000 0.0000
# 3 62.5340 54.2304 117.3987 0.0000 0.0000 0.0000
# 4 0.0000 0.0000 0.0000 -10.9757 0.0000 0.0000
# 5 0.0000 0.0000 0.0000 0.0000 2.4920 0.0000
# 6 0.0000 0.0000 0.0000 0.0000 0.0000 28.1149
#
#
#
# Elastic Compliance Matrix: (Units=1/GPa)
#
#
# Indices 1 2 3 4 5 6 
#
# 1 0.011416 0.000512 -0.006317 0.000000 0.000000 0.000000
# 2 0.000512 0.003662 -0.001964 0.000000 0.000000 0.000000
# 3 -0.006317 -0.001964 0.012790 0.000000 0.000000 0.000000
# 4 0.000000 0.000000 0.000000 -0.091111 0.000000 0.000000
# 5 0.000000 0.000000 0.000000 0.000000 0.401284 0.000000
# 6 0.000000 0.000000 0.000000 0.000000 0.000000 0.035568
#
#
# Mechanical properties :
#
#
# Convention : Reuss Voigt Hill
#
# Bulk Modulus (GPa) = 81.10983 89.48399 85.29691
# Shear Modulus (GPa) = 12.71423 30.94994 21.83208
#
# Velocity S-wave (km/s) = 2.17976 3.40089 2.85635
# Velocity P-wave (km/s) = 6.05360 6.99013 6.53865
#
# Compressibility (1/GPa) = 0.01232896
#
# Stress axis : x y z
#
# Youngs Moduli (GPa) = 87.59397 273.06251 78.18357
#
# Poissons Ratio (x) = -0.13974 0.49392
# Poissons Ratio (y) = -0.04483 0.15357
# Poissons Ratio (z) = 0.55337 0.53637
#
# Static dielectric constant tensor:
#      x y z
#    x 4.894690 0.000000 0.000000 
#    y 0.000000 7.046060 0.000000 
#    z 0.000000 0.000000 4.311180 
# 
# 
# High freq. dielectric constant tensor:
#      x y z
#    x 2.085920 0.000000 0.000000 
#    y 0.000000 2.125600 0.000000 
#    z 0.000000 0.000000 2.044450 
# 
# From -- ./inp_files/2844.got.cif
#   From: 2010.03.12/outbox.cif.g09.slc.cpg/sg24_2_cif.got.tgz:2844.got - 2010.04.14 03:06:53.
