data_PCOD8166130
_publ_section_title
;
Structure prediction by ZEFSAII (Michael W. Deem and Ramdas Pophale) SiO2 
 PCOD8166130
Probable space group: I 21 21 21
;
_chemical_formula_sum "Si O2"
_cell_formula_units_Z 32
_cell_length_a 4.918928
_cell_length_b 9.806384
_cell_length_c 30.911592
_cell_angle_alpha 90.000000
_cell_angle_beta 90.000000
_cell_angle_gamma 90.000000
_cell_volume 1491.079274
_symmetry_space_group_name_H-M "I 21 21 21"
_symmetry_group_IT_number 24
_symmetry_cell_setting 'orthorhombic'
loop_
_space_group_symop_operation_xyz
x,y,z
-x,1/2-y,z
x,-y,1/2-z
1/2-x,y,-z
1/2+x,1/2+y,1/2+z
1/2-x,-y,1/2+z
1/2+x,1/2-y,-z
-x,1/2+y,1/2-z
loop_
_atom_site_type_symbol
_atom_site_label
_atom_site_fract_x
_atom_site_fract_y
_atom_site_fract_z
Si Si1 0.000000 0.250000 0.532098
Si Si2 0.118495 0.391418 0.130506
Si Si3 0.633033 0.506777 0.416118
Si Si4 0.750000 0.667858 0.500000
Si Si5 0.733895 0.151925 0.770940
O O1 0.750000 0.221963 0.500000
O O2 0.961105 0.361543 0.568614
O O3 0.421949 0.416880 0.114802
O O4 0.125023 0.388650 0.181990
O O5 0.000000 0.250000 0.111888
O O6 0.914951 0.505352 0.110753
O O7 0.638598 0.581712 0.461235
O O8 0.500000 0.750000 0.519783
O O9 0.500000 0.250000 0.749134
O O10 0.000000 0.250000 0.771261
O O11 0.781274 0.000000 0.750000
#
# Coordination Sequence:
#
# PCOD8166130 Si02
#       5
#     4   8   8   4   8
#     4  12  26  46  62  84 134 184 218 274 338 396
#     4  11  23  43  68  96 131 168 215 275 339 387
#     4  12  24  42  63  91 127 172 222 266 331 398
#     4  12  24  36  60  90 118 156 212 272 310 378
#     4  11  24  46  75 105 144 183 226 285 354 425
#
# _framework density 21.460964000000001
#
# number of rings (size 3 to 8) (size 9 to 14) (size 15 to 20)
#    0.000    0.500    1.250    9.750    1.750    0.000 
#    6.750    0.000    0.000    0.000    0.000    0.000 
#    0.000    0.000    0.000    0.000    0.000    0.000 
#
# Total GULP energy -198214.606203 kJ/mol
# GULP energy per Si atom -12388.412888 kJ/mol
# Density = 2.141212 g / cm^3
# Si number density = 21.460964 Si / 1000 Ang^3
#
#
#
# Elastic Constant Matrix: (Units=GPa)
#
#
# Indices 1 2 3 4 5 6 
#
# 1 118.4424 31.5583 21.9922 0.0000 0.0000 0.0000
# 2 31.5583 134.4159 42.9954 0.0000 0.0000 0.0000
# 3 21.9922 42.9954 87.6224 0.0000 0.0000 0.0000
# 4 0.0000 0.0000 0.0000 24.6269 0.0000 0.0000
# 5 0.0000 0.0000 0.0000 0.0000 39.0169 0.0000
# 6 0.0000 0.0000 0.0000 0.0000 0.0000 42.9948
#
#
#
# Elastic Compliance Matrix: (Units=1/GPa)
#
#
# Indices 1 2 3 4 5 6 
#
# 1 0.009164 -0.001680 -0.001476 0.000000 0.000000 0.000000
# 2 -0.001680 0.009132 -0.004060 0.000000 0.000000 0.000000
# 3 -0.001476 -0.004060 0.013775 0.000000 0.000000 0.000000
# 4 0.000000 0.000000 0.000000 0.040606 0.000000 0.000000
# 5 0.000000 0.000000 0.000000 0.000000 0.025630 0.000000
# 6 0.000000 0.000000 0.000000 0.000000 0.000000 0.023259
#
#
# Mechanical properties :
#
#
# Convention : Reuss Voigt Hill
#
# Bulk Modulus (GPa) = 56.68419 59.28582 57.98500
# Shear Modulus (GPa) = 35.24163 37.59004 36.41584
#
# Velocity S-wave (km/s) = 4.05671 4.18970 4.12374
# Velocity P-wave (km/s) = 6.95792 7.14770 7.05345
#
# Compressibility (1/GPa) = 0.01764160
#
# Stress axis : x y z
#
# Youngs Moduli (GPa) = 109.11684 109.49934 72.59463
#
# Poissons Ratio (x) = 0.18390 0.10715
# Poissons Ratio (y) = 0.18326 0.29471
# Poissons Ratio (z) = 0.16106 0.44453
#
# Static dielectric constant tensor:
#      x y z
#    x 4.663270 0.000000 0.000000 
#    y 0.000000 3.843290 0.000000 
#    z 0.000000 0.000000 3.711170 
# 
# 
# High freq. dielectric constant tensor:
#      x y z
#    x 1.864370 0.000000 0.000000 
#    y 0.000000 1.845940 0.000000 
#    z 0.000000 0.000000 1.841140 
# 
# From -- ./inp_files/16582.got.cif
#   From: 2010.03.12/outbox.cif.g09.slc.cpg/sg24_9_cif.got.tgz:16582.got - 2010.04.14 03:06:53.
