data_PCOD8166410
_publ_section_title
;
Structure prediction by ZEFSAII (Michael W. Deem and Ramdas Pophale) SiO2 
 PCOD8166410
Probable space group: P M M 2
;
_chemical_formula_sum "Si O2"
_cell_formula_units_Z 24
_cell_length_a 9.044474
_cell_length_b 8.112102
_cell_length_c 17.191026
_cell_angle_alpha 90.000000
_cell_angle_beta 90.000000
_cell_angle_gamma 90.000000
_cell_volume 1261.300345
_symmetry_space_group_name_H-M "P M M 2"
_symmetry_group_IT_number 25
_symmetry_cell_setting 'orthorhombic'
loop_
_space_group_symop_operation_xyz
x,y,z
-x,-y,z
-x,y,z
x,-y,z
loop_
_atom_site_type_symbol
_atom_site_label
_atom_site_fract_x
_atom_site_fract_y
_atom_site_fract_z
Si Si1 0.323627 0.000000 0.485011
Si Si2 0.175320 0.187101 0.911052
Si Si3 0.176517 0.000000 0.651395
Si Si4 0.834468 0.694997 0.074324
Si Si5 0.835114 0.818552 0.360781
Si Si6 0.175511 0.683054 0.749812
Si Si7 0.338281 0.309947 0.220693
O O1 0.260583 0.836147 0.440641
O O2 0.500000 0.000000 0.484461
O O3 0.261623 0.000000 0.570970
O O4 0.236642 0.290433 0.837580
O O5 0.000000 0.205940 0.914565
O O6 0.224470 0.000000 0.898249
O O7 0.241313 0.253294 0.992555
O O8 0.230356 0.166361 0.695590
O O9 0.000000 0.000000 0.638810
O O10 0.840075 0.500000 0.079739
O O11 0.742927 0.771858 0.146452
O O12 0.000000 0.768258 0.080248
O O13 0.755219 0.701644 0.299626
O O14 0.000000 0.749916 0.379738
O O15 0.846923 0.000000 0.322022
O O16 0.228396 0.500000 0.720950
O O17 0.000000 0.690171 0.751377
O O18 0.500000 0.226537 0.231647
O O19 0.359147 0.500000 0.201835
#
# Coordination Sequence:
#
# PCOD8166410 Si02
#       7
#     2   4   2   4   4   4   4
#     4  10  20  36  58  79 104 137 166 205 262 325
#     4   9  15  25  42  69 102 134 172 224 276 319
#     4  10  18  32  54  79 108 137 174 221 266 325
#     4   9  17  28  43  65  97 137 179 223 269 316
#     4   9  19  35  56  80 102 130 171 215 263 318
#     4   9  16  27  47  76 108 140 175 221 276 324
#     4  10  20  33  50  74 106 144 183 223 270 323
#
# _framework density 19.027981
#
# number of rings (size 3 to 8) (size 9 to 14) (size 15 to 20)
#    0.500    2.167    0.833    2.000    0.000    3.667 
#    0.000    2.500    0.000    4.500    0.000    0.000 
#    0.000    0.000    0.000    0.000    0.000    0.000 
#
# Total GULP energy -297351.346190 kJ/mol
# GULP energy per Si atom -12389.639425 kJ/mol
# Density = 1.898467 g / cm^3
# Si number density = 19.027981 Si / 1000 Ang^3
#
#
#
# Elastic Constant Matrix: (Units=GPa)
#
#
# Indices 1 2 3 4 5 6 
#
# 1 94.4945 19.2435 59.0576 0.0000 0.0000 0.0000
# 2 19.2435 71.7753 45.2621 0.0000 0.0000 0.0000
# 3 59.0576 45.2621 167.2937 0.0000 0.0000 0.0000
# 4 0.0000 0.0000 0.0000 27.7470 0.0000 0.0000
# 5 0.0000 0.0000 0.0000 0.0000 6.0788 0.0000
# 6 0.0000 0.0000 0.0000 0.0000 0.0000 11.1390
#
#
#
# Elastic Compliance Matrix: (Units=1/GPa)
#
#
# Indices 1 2 3 4 5 6 
#
# 1 0.013612 -0.000747 -0.004603 0.000000 0.000000 0.000000
# 2 -0.000747 0.016839 -0.004292 0.000000 0.000000 0.000000
# 3 -0.004603 -0.004292 0.008764 0.000000 0.000000 0.000000
# 4 0.000000 0.000000 0.000000 0.036040 0.000000 0.000000
# 5 0.000000 0.000000 0.000000 0.000000 0.164505 0.000000
# 6 0.000000 0.000000 0.000000 0.000000 0.000000 0.089775
#
#
# Mechanical properties :
#
#
# Convention : Reuss Voigt Hill
#
# Bulk Modulus (GPa) = 50.17439 64.52110 57.34774
# Shear Modulus (GPa) = 14.06617 22.99298 18.52958
#
# Velocity S-wave (km/s) = 2.72184 3.47994 3.12397
# Velocity P-wave (km/s) = 6.02527 7.08017 6.57391
#
# Compressibility (1/GPa) = 0.01993049
#
# Stress axis : x y z
#
# Youngs Moduli (GPa) = 73.46711 59.38468 114.10554
#
# Poissons Ratio (x) = 0.04434 0.52524
# Poissons Ratio (y) = 0.05485 0.48979
# Poissons Ratio (z) = 0.33818 0.25490
#
# Static dielectric constant tensor:
#      x y z
#    x 3.327880 0.000000 0.000000 
#    y 0.000000 3.352890 0.000000 
#    z 0.000000 0.000000 3.489680 
# 
# 
# High freq. dielectric constant tensor:
#      x y z
#    x 1.700170 0.000000 0.000000 
#    y 0.000000 1.721300 0.000000 
#    z 0.000000 0.000000 1.741450 
# 
# From -- ./inp_files/6019.got.cif
#   From: 2010.03.12/outbox.cif.g09.slc.cpg/sg25_4_cif.got.tgz:6019.got - 2010.04.14 03:30:10.
