data_PCOD8166481
_publ_section_title
;
Structure prediction by ZEFSAII (Michael W. Deem and Ramdas Pophale) SiO2 
 PCOD8166481
Probable space group: P M M 2
;
_chemical_formula_sum "Si O2"
_cell_formula_units_Z 32
_cell_length_a 9.355179
_cell_length_b 13.119805
_cell_length_c 14.309862
_cell_angle_alpha 90.000000
_cell_angle_beta 90.000000
_cell_angle_gamma 90.000000
_cell_volume 1756.365620
_symmetry_space_group_name_H-M "P M M 2"
_symmetry_group_IT_number 25
_symmetry_cell_setting 'orthorhombic'
loop_
_space_group_symop_operation_xyz
x,y,z
-x,-y,z
-x,y,z
x,-y,z
loop_
_atom_site_type_symbol
_atom_site_label
_atom_site_fract_x
_atom_site_fract_y
_atom_site_fract_z
Si Si1 0.331253 0.382519 0.273260
Si Si2 0.153307 0.618731 0.602048
Si Si3 0.834174 0.115867 0.753771
Si Si4 0.348022 0.616258 0.757040
Si Si5 0.837720 0.383922 0.087951
Si Si6 0.334427 0.880343 0.565632
Si Si7 0.836601 0.289452 0.896988
Si Si8 0.832016 0.737471 0.427576
O O1 0.500000 0.360917 0.278277
O O2 0.297830 0.500000 0.303017
O O3 0.276355 0.363325 0.168661
O O4 0.248139 0.298412 0.334386
O O5 0.150045 0.500000 0.619697
O O6 0.267463 0.671531 0.670664
O O7 0.186931 0.640034 0.494779
O O8 0.000000 0.667194 0.628848
O O9 0.740464 0.148394 0.664002
O O10 0.794739 0.182551 0.846569
O O11 0.000000 0.128699 0.726560
O O12 0.799387 0.000000 0.782606
O O13 0.500000 0.672027 0.769884
O O14 0.373545 0.500000 0.731028
O O15 0.257072 0.622146 0.850799
O O16 0.820064 0.500000 0.049650
O O17 0.000000 0.369456 0.125705
O O18 0.806140 0.298863 0.007714
O O19 0.500000 0.843462 0.566607
O O20 0.247866 0.830950 0.478671
O O21 0.325627 0.000000 0.548096
O O22 0.000000 0.316158 0.877225
O O23 0.000000 0.763221 0.408114
#
# Coordination Sequence:
#
# PCOD8166481 Si02
#       8
#     4   4   4   4   4   4   4   4
#     4  10  21  36  54  77 105 136 170 210 257 309
#     4   9  18  31  45  64  94 130 163 195 236 290
#     4   9  18  33  52  75 104 136 171 212 256 303
#     4  10  20  30  41  63  96 130 161 196 240 291
#     4   9  18  33  52  73  98 130 170 214 257 304
#     4  10  21  36  53  75 105 139 174 214 260 309
#     4  10  19  31  50  73  96 128 169 209 252 301
#     4  11  21  33  53  77 100 130 170 213 256 305
#
# _framework density 18.219441
#
# number of rings (size 3 to 8) (size 9 to 14) (size 15 to 20)
#    0.000    2.250    0.000    3.000    0.000    8.250 
#    0.000    2.500    0.000    0.750    0.000    1.750 
#    0.000    0.000    0.000    0.000    0.000    0.000 
#
# Total GULP energy -396496.687546 kJ/mol
# GULP energy per Si atom -12390.521486 kJ/mol
# Density = 1.817797 g / cm^3
# Si number density = 18.219441 Si / 1000 Ang^3
#
#
#
# Elastic Constant Matrix: (Units=GPa)
#
#
# Indices 1 2 3 4 5 6 
#
# 1 124.3760 43.5686 63.1389 0.0000 0.0000 0.0000
# 2 43.5686 69.8098 43.7430 0.0000 0.0000 0.0000
# 3 63.1389 43.7430 104.2446 0.0000 0.0000 0.0000
# 4 0.0000 0.0000 0.0000 32.2694 0.0000 0.0000
# 5 0.0000 0.0000 0.0000 0.0000 -2.2019 0.0000
# 6 0.0000 0.0000 0.0000 0.0000 0.0000 5.7715
#
#
#
# Elastic Compliance Matrix: (Units=1/GPa)
#
#
# Indices 1 2 3 4 5 6 
#
# 1 0.012427 -0.004124 -0.005797 0.000000 0.000000 0.000000
# 2 -0.004124 0.020803 -0.006232 0.000000 0.000000 0.000000
# 3 -0.005797 -0.006232 0.015719 0.000000 0.000000 0.000000
# 4 0.000000 0.000000 0.000000 0.030989 0.000000 0.000000
# 5 0.000000 0.000000 0.000000 0.000000 -0.454160 0.000000
# 6 0.000000 0.000000 0.000000 0.000000 0.000000 0.173265
#
#
# Mechanical properties :
#
#
# Convention : Reuss Voigt Hill
#
# Bulk Modulus (GPa) = 60.07821 66.59238 63.33530
# Shear Modulus (GPa) = -30.65520 17.03312 -6.81104
#
# Velocity S-wave (km/s) = -4.10634 3.06091 -1.93557
# Velocity P-wave (km/s) = 3.25017 7.00869 5.46285
#
# Compressibility (1/GPa) = 0.01664497
#
# Stress axis : x y z
#
# Youngs Moduli (GPa) = 80.46810 48.06978 63.61885
#
# Poissons Ratio (x) = 0.19823 0.36877
# Poissons Ratio (y) = 0.33183 0.39645
# Poissons Ratio (z) = 0.46644 0.29956
#
# Static dielectric constant tensor:
#      x y z
#    x 3.801370 0.000000 0.000000 
#    y 0.000000 3.315870 0.000000 
#    z 0.000000 0.000000 3.206360 
# 
# 
# High freq. dielectric constant tensor:
#      x y z
#    x 1.719990 0.000000 0.000000 
#    y 0.000000 1.690990 0.000000 
#    z 0.000000 0.000000 1.687240 
# 
# From -- ./inp_files/4294.got.cif
#   From: 2010.03.12/outbox.cif.g09.slc.cpg/sg25_3_cif.got.tgz:4294.got - 2010.04.14 03:30:10.
