data_PCOD8166202
_publ_section_title
;
Structure prediction by ZEFSAII (Michael W. Deem and Ramdas Pophale) SiO2 
 PCOD8166202
Probable space group: I 21 21 21
;
_chemical_formula_sum "Si O2"
_cell_formula_units_Z 36
_cell_length_a 5.035282
_cell_length_b 21.231140
_cell_length_c 15.064120
_cell_angle_alpha 90.000000
_cell_angle_beta 90.000000
_cell_angle_gamma 90.000000
_cell_volume 1610.426391
_symmetry_space_group_name_H-M "I 21 21 21"
_symmetry_group_IT_number 24
_symmetry_cell_setting 'orthorhombic'
loop_
_space_group_symop_operation_xyz
x,y,z
-x,1/2-y,z
x,-y,1/2-z
1/2-x,y,-z
1/2+x,1/2+y,1/2+z
1/2-x,-y,1/2+z
1/2+x,1/2-y,-z
-x,1/2+y,1/2-z
loop_
_atom_site_type_symbol
_atom_site_label
_atom_site_fract_x
_atom_site_fract_y
_atom_site_fract_z
Si Si1 0.442556 0.072486 0.746215
Si Si2 0.428285 0.635300 0.171143
Si Si3 0.000000 0.250000 0.791515
Si Si4 0.000000 0.750000 0.403748
Si Si5 0.750000 0.792618 0.000000
Si Si6 0.004781 0.386010 0.051330
O O1 0.718870 0.080569 0.694071
O O2 0.482741 0.097944 0.845413
O O3 0.223699 0.109392 0.687985
O O4 0.361127 0.000000 0.750000
O O5 0.377496 0.693887 0.234891
O O6 0.379157 0.661402 0.072855
O O7 0.753349 0.273501 0.848348
O O8 0.946602 0.811177 0.463348
O O9 0.500000 0.750000 0.964738
O O10 0.750000 0.411355 0.000000
O O11 0.250000 0.419553 0.000000
#
# Coordination Sequence:
#
# PCOD8166202 Si02
#       6
#     8   8   4   4   4   8
#     4  12  27  50  72  94 140 197 243 285 345 424
#     4  12  24  46  72 102 142 186 235 293 365 425
#     4  12  20  39  71  98 136 182 216 276 359 425
#     4  12  22  39  67 102 138 174 214 270 357 423
#     4  12  26  42  74 116 150 176 232 312 378 450
#     4  12  24  42  67 102 136 171 224 285 341 408
#
# _framework density 22.354326
#
# number of rings (size 3 to 8) (size 9 to 14) (size 15 to 20)
#    0.000    0.000    5.556    5.333    1.556    0.000 
#    6.000    0.000    0.000    0.000    0.000    0.000 
#    0.000    0.000    0.000    0.000    0.000    0.000 
#
# Total GULP energy -223163.013931 kJ/mol
# GULP energy per Si atom -12397.945218 kJ/mol
# Density = 2.230345 g / cm^3
# Si number density = 22.354326 Si / 1000 Ang^3
#
#
#
# Elastic Constant Matrix: (Units=GPa)
#
#
# Indices 1 2 3 4 5 6 
#
# 1 157.9965 20.6128 68.8212 0.0000 0.0000 0.0000
# 2 20.6128 83.6348 21.9331 0.0001 0.0000 0.0000
# 3 68.8212 21.9331 117.0244 0.0001 0.0000 0.0000
# 4 0.0000 0.0001 0.0001 14.9186 0.0000 0.0000
# 5 0.0000 0.0000 0.0000 0.0000 46.8457 0.0000
# 6 0.0000 0.0000 0.0000 0.0000 0.0000 30.6406
#
#
#
# Elastic Compliance Matrix: (Units=1/GPa)
#
#
# Indices 1 2 3 4 5 6 
#
# 1 0.008563 -0.000831 -0.004880 0.000000 0.000000 0.000000
# 2 -0.000831 0.012655 -0.001883 0.000000 0.000000 0.000000
# 3 -0.004880 -0.001883 0.011768 0.000000 0.000000 0.000000
# 4 0.000000 0.000000 0.000000 0.067030 0.000000 0.000000
# 5 0.000000 0.000000 0.000000 0.000000 0.021347 0.000000
# 6 0.000000 0.000000 0.000000 0.000000 0.000000 0.032636
#
#
# Mechanical properties :
#
#
# Convention : Reuss Voigt Hill
#
# Bulk Modulus (GPa) = 56.18540 64.59886 60.39213
# Shear Modulus (GPa) = 28.55144 34.96689 31.75916
#
# Velocity S-wave (km/s) = 3.57770 3.95930 3.77333
# Velocity P-wave (km/s) = 6.50040 7.06129 6.78664
#
# Compressibility (1/GPa) = 0.01779822
#
# Stress axis : x y z
#
# Youngs Moduli (GPa) = 116.77495 79.01769 84.97362
#
# Poissons Ratio (x) = 0.06564 0.41471
# Poissons Ratio (y) = 0.09700 0.16004
# Poissons Ratio (z) = 0.56991 0.14882
#
# Static dielectric constant tensor:
#      x y z
#    x 4.259060 0.000000 0.000000 
#    y 0.000000 3.884020 0.000000 
#    z 0.000000 0.000000 3.963840 
# 
# 
# High freq. dielectric constant tensor:
#      x y z
#    x 1.908890 0.000000 0.000000 
#    y 0.000000 1.859790 0.000000 
#    z 0.000000 0.000000 1.881310 
# 
# From -- ./inp_files/23641.got.cif
#   From: 2010.03.12/outbox.cif.g09.slc.cpg/sg24_12_cif.got.tgz:23641.got - 2010.04.14 03:06:53.
