data_PCOD8166407
_publ_section_title
;
Structure prediction by ZEFSAII (Michael W. Deem and Ramdas Pophale) SiO2 
 PCOD8166407
Probable space group: P M M 2
;
_chemical_formula_sum "Si O2"
_cell_formula_units_Z 32
_cell_length_a 14.464510
_cell_length_b 9.307629
_cell_length_c 11.984608
_cell_angle_alpha 90.000000
_cell_angle_beta 90.000000
_cell_angle_gamma 90.000000
_cell_volume 1613.491283
_symmetry_space_group_name_H-M "P M M 2"
_symmetry_group_IT_number 25
_symmetry_cell_setting 'orthorhombic'
loop_
_space_group_symop_operation_xyz
x,y,z
-x,-y,z
-x,y,z
x,-y,z
loop_
_atom_site_type_symbol
_atom_site_label
_atom_site_fract_x
_atom_site_fract_y
_atom_site_fract_z
Si Si1 0.607930 0.332437 0.151160
Si Si2 0.895205 0.158899 0.671223
Si Si3 0.698531 0.341795 0.929331
Si Si4 0.265553 0.172296 0.305772
Si Si5 0.603180 0.329735 0.712235
Si Si6 0.099226 0.838027 0.158657
Si Si7 0.751492 0.330181 0.536316
Si Si8 0.102195 0.256086 0.915571
O O1 0.500000 0.306583 0.132028
O O2 0.630146 0.500000 0.173571
O O3 0.639978 0.240291 0.258212
O O4 0.663306 0.268114 0.043639
O O5 0.835894 0.285060 0.616028
O O6 0.889044 0.160209 0.805423
O O7 0.000000 0.185272 0.632082
O O8 0.861869 0.000000 0.632808
O O9 0.654776 0.500000 0.933848
O O10 0.656039 0.262535 0.820200
O O11 0.809595 0.361202 0.919342
O O12 0.183263 0.233540 0.226061
O O13 0.245038 0.234856 0.426655
O O14 0.273354 0.000000 0.309429
O O15 0.500000 0.265385 0.705172
O O16 0.601446 0.500000 0.724171
O O17 0.656720 0.289335 0.599407
O O18 0.000000 0.762384 0.187290
O O19 0.094666 0.000000 0.201122
O O20 0.113628 0.840921 0.025494
O O21 0.758919 0.500000 0.510563
O O22 0.000000 0.333749 0.916324
#
# Coordination Sequence:
#
# PCOD8166407 Si02
#       8
#     4   4   4   4   4   4   4   4
#     4  10  21  38  61  87 116 152 194 240 291 351
#     4  10  21  37  59  87 119 156 194 234 287 353
#     4  10  18  32  55  86 119 150 186 232 289 353
#     4  11  23  39  60  85 114 153 197 246 295 345
#     4   9  18  34  57  83 109 143 189 238 288 343
#     4   9  18  34  56  81 110 146 188 231 279 341
#     4  11  23  39  59  85 115 152 198 248 295 344
#     4  10  18  31  55  87 118 148 185 231 286 350
#
# _framework density 19.832768999999999
#
# number of rings (size 3 to 8) (size 9 to 14) (size 15 to 20)
#    0.000    2.000    2.500    1.500    0.000    4.750 
#    0.000    3.750    0.000    2.250    0.000    0.000 
#    0.000    0.000    0.000    0.000    0.000    0.000 
#
# Total GULP energy -396522.435776 kJ/mol
# GULP energy per Si atom -12391.326118 kJ/mol
# Density = 1.978763 g / cm^3
# Si number density = 19.832769 Si / 1000 Ang^3
#
#
#
# Elastic Constant Matrix: (Units=GPa)
#
#
# Indices 1 2 3 4 5 6 
#
# 1 143.8652 34.1666 59.6735 0.0000 0.0000 0.0000
# 2 34.1666 63.9780 33.1979 0.0000 0.0000 0.0000
# 3 59.6735 33.1979 123.8203 0.0000 0.0000 0.0000
# 4 0.0000 0.0000 0.0000 23.3918 0.0000 0.0000
# 5 0.0000 0.0000 0.0000 0.0000 23.7057 0.0000
# 6 0.0000 0.0000 0.0000 0.0000 0.0000 23.6093
#
#
#
# Elastic Compliance Matrix: (Units=1/GPa)
#
#
# Indices 1 2 3 4 5 6 
#
# 1 0.009165 -0.003023 -0.003606 0.000000 0.000000 0.000000
# 2 -0.003023 0.019153 -0.003678 0.000000 0.000000 0.000000
# 3 -0.003606 -0.003678 0.010800 0.000000 0.000000 0.000000
# 4 0.000000 0.000000 0.000000 0.042750 0.000000 0.000000
# 5 0.000000 0.000000 0.000000 0.000000 0.042184 0.000000
# 6 0.000000 0.000000 0.000000 0.000000 0.000000 0.042356
#
#
# Mechanical properties :
#
#
# Convention : Reuss Voigt Hill
#
# Bulk Modulus (GPa) = 54.04461 65.08216 59.56338
# Shear Modulus (GPa) = 25.88098 27.78306 26.83202
#
# Velocity S-wave (km/s) = 3.61634 3.74688 3.68219
# Velocity P-wave (km/s) = 6.68929 7.18369 6.94089
#
# Compressibility (1/GPa) = 0.01850323
#
# Stress axis : x y z
#
# Youngs Moduli (GPa) = 109.11389 52.20979 92.58861
#
# Poissons Ratio (x) = 0.15783 0.33390
# Poissons Ratio (y) = 0.32985 0.34058
# Poissons Ratio (z) = 0.39350 0.19205
#
# Static dielectric constant tensor:
#      x y z
#    x 3.898350 0.000000 0.000000 
#    y 0.000000 3.150020 0.000000 
#    z 0.000000 0.000000 3.627640 
# 
# 
# High freq. dielectric constant tensor:
#      x y z
#    x 1.786130 0.000000 0.000000 
#    y 0.000000 1.729180 0.000000 
#    z 0.000000 0.000000 1.777550 
# 
# From -- ./inp_files/4935.got.cif
#   From: 2010.03.12/outbox.cif.g09.slc.cpg/sg25_3_cif.got.tgz:4935.got - 2010.04.14 03:30:10.
