data_PCOD8166467
_publ_section_title
;
Structure prediction by ZEFSAII (Michael W. Deem and Ramdas Pophale) SiO2 
 PCOD8166467
Probable space group: P M M 2
;
_chemical_formula_sum "Si O2"
_cell_formula_units_Z 32
_cell_length_a 17.940309
_cell_length_b 9.099849
_cell_length_c 11.440256
_cell_angle_alpha 90.000000
_cell_angle_beta 90.000000
_cell_angle_gamma 90.000000
_cell_volume 1867.668730
_symmetry_space_group_name_H-M "P M M 2"
_symmetry_group_IT_number 25
_symmetry_cell_setting 'orthorhombic'
loop_
_space_group_symop_operation_xyz
x,y,z
-x,-y,z
-x,y,z
x,-y,z
loop_
_atom_site_type_symbol
_atom_site_label
_atom_site_fract_x
_atom_site_fract_y
_atom_site_fract_z
Si Si1 0.278072 0.167070 0.464980
Si Si2 0.147234 0.331574 0.353345
Si Si3 0.266731 0.674881 0.938841
Si Si4 0.637126 0.839035 0.255959
Si Si5 0.083626 0.669476 0.591530
Si Si6 0.800398 0.165035 0.147015
Si Si7 0.780355 0.831179 0.706699
Si Si8 0.418749 0.672386 0.050320
O O1 0.222980 0.291933 0.420114
O O2 0.357349 0.192360 0.396667
O O3 0.282816 0.182811 0.605245
O O4 0.249564 0.000000 0.435257
O O5 0.149686 0.500000 0.313116
O O6 0.083711 0.301776 0.450756
O O7 0.137959 0.235488 0.234838
O O8 0.261846 0.500000 0.942667
O O9 0.248427 0.731181 0.810936
O O10 0.350423 0.732846 0.971976
O O11 0.206070 0.740410 0.028504
O O12 0.722097 0.831639 0.212807
O O13 0.602886 0.000000 0.232401
O O14 0.587254 0.724645 0.185127
O O15 0.106202 0.500000 0.615908
O O16 0.139559 0.775775 0.660704
O O17 0.000000 0.702066 0.636284
O O18 0.825192 0.000000 0.114513
O O19 0.789115 0.000000 0.747347
O O20 0.500000 0.722466 0.000576
O O21 0.413528 0.500000 0.054350
#
# Coordination Sequence:
#
# PCOD8166467 Si02
#       8
#     4   4   4   4   4   4   4   4
#     4   8  15  27  42  62  89 117 144 179 224 271
#     4   9  15  24  42  67  91 115 145 181 223 271
#     4  10  19  31  48  69  93 124 163 203 241 285
#     4   8  14  25  42  64  87 112 142 176 219 272
#     4   9  18  32  49  70  97 127 158 194 237 286
#     4   9  16  27  43  64  91 118 145 183 229 274
#     4  10  19  31  48  70  96 126 162 203 241 280
#     4   9  18  31  46  66  92 120 151 192 242 292
#
# _framework density 17.133659999999999
#
# number of rings (size 3 to 8) (size 9 to 14) (size 15 to 20)
#    0.000    3.000    0.000    2.250    0.000    5.000 
#    0.000    0.000    0.000    1.500    0.000    5.250 
#    0.000    0.000    0.000    0.000    0.000    0.000 
#
# Total GULP energy -396419.651690 kJ/mol
# GULP energy per Si atom -12388.114115 kJ/mol
# Density = 1.709466 g / cm^3
# Si number density = 17.133660 Si / 1000 Ang^3
#
#
#
# Elastic Constant Matrix: (Units=GPa)
#
#
# Indices 1 2 3 4 5 6 
#
# 1 51.2076 23.9510 31.3908 0.0000 0.0000 0.0000
# 2 23.9510 66.1405 37.1566 0.0000 0.0000 0.0000
# 3 31.3908 37.1566 105.8785 0.0000 0.0000 0.0000
# 4 0.0000 0.0000 0.0000 31.8246 0.0000 0.0000
# 5 0.0000 0.0000 0.0000 0.0000 15.7600 0.0000
# 6 0.0000 0.0000 0.0000 0.0000 0.0000 14.4262
#
#
#
# Elastic Compliance Matrix: (Units=1/GPa)
#
#
# Indices 1 2 3 4 5 6 
#
# 1 0.025806 -0.006286 -0.005445 0.000000 0.000000 0.000000
# 2 -0.006286 0.020363 -0.005282 0.000000 0.000000 0.000000
# 3 -0.005445 -0.005282 0.012913 0.000000 0.000000 0.000000
# 4 0.000000 0.000000 0.000000 0.031422 0.000000 0.000000
# 5 0.000000 0.000000 0.000000 0.000000 0.063452 0.000000
# 6 0.000000 0.000000 0.000000 0.000000 0.000000 0.069319
#
#
# Mechanical properties :
#
#
# Convention : Reuss Voigt Hill
#
# Bulk Modulus (GPa) = 39.91176 45.35815 42.63496
# Shear Modulus (GPa) = 18.82144 21.11735 19.96939
#
# Velocity S-wave (km/s) = 3.31797 3.51452 3.41766
# Velocity P-wave (km/s) = 6.16632 6.55742 6.36487
#
# Compressibility (1/GPa) = 0.02505527
#
# Stress axis : x y z
#
# Youngs Moduli (GPa) = 38.75008 49.10798 77.44164
#
# Poissons Ratio (x) = 0.30870 0.42167
# Poissons Ratio (y) = 0.24359 0.40908
# Poissons Ratio (z) = 0.21100 0.25941
#
# Static dielectric constant tensor:
#      x y z
#    x 3.044550 0.000000 0.000000 
#    y 0.000000 3.280220 0.000000 
#    z 0.000000 0.000000 3.334410 
# 
# 
# High freq. dielectric constant tensor:
#      x y z
#    x 1.613270 0.000000 0.000000 
#    y 0.000000 1.670320 0.000000 
#    z 0.000000 0.000000 1.654680 
# 
# From -- ./inp_files/4391.got.cif
#   From: 2010.03.12/outbox.cif.g09.slc.cpg/sg25_3_cif.got.tgz:4391.got - 2010.04.14 03:30:10.
