data_PCOD8166067
_publ_section_title
;
Structure prediction by ZEFSAII (Michael W. Deem and Ramdas Pophale) SiO2 
 PCOD8166067
Probable space group: I 21 21 21
;
_chemical_formula_sum "Si O2"
_cell_formula_units_Z 64
_cell_length_a 28.257754
_cell_length_b 14.307896
_cell_length_c 8.930562
_cell_angle_alpha 90.000000
_cell_angle_beta 90.000000
_cell_angle_gamma 90.000000
_cell_volume 3610.706640
_symmetry_space_group_name_H-M "I 21 21 21"
_symmetry_group_IT_number 24
_symmetry_cell_setting 'orthorhombic'
loop_
_space_group_symop_operation_xyz
x,y,z
-x,1/2-y,z
x,-y,1/2-z
1/2-x,y,-z
1/2+x,1/2+y,1/2+z
1/2-x,-y,1/2+z
1/2+x,1/2-y,-z
-x,1/2+y,1/2-z
loop_
_atom_site_type_symbol
_atom_site_label
_atom_site_fract_x
_atom_site_fract_y
_atom_site_fract_z
Si Si1 0.621020 0.356518 0.927599
Si Si2 0.621020 0.356518 0.572401
Si Si3 0.053590 0.000000 0.927025
Si Si4 0.875609 0.852939 0.426442
Si Si5 0.953461 0.000000 0.074288
Si Si6 0.300253 0.000000 0.576413
Si Si7 0.624391 0.852939 0.926442
Si Si8 0.199118 0.500000 0.428093
O O1 0.612119 0.360174 0.750000
O O2 0.623498 0.251524 0.993042
O O3 0.669960 0.408194 0.969924
O O4 0.577227 0.407089 0.006241
O O5 0.577227 0.407089 0.493759
O O6 0.669960 0.408194 0.530076
O O7 0.623498 0.251524 0.506958
O O8 0.059182 0.000000 0.750000
O O9 0.999049 1.000000 0.971324
O O10 0.923374 0.907958 0.468663
O O11 0.871376 0.846394 0.250000
O O12 0.829539 0.908671 0.485294
O O13 0.966825 0.000000 0.250000
O O14 0.923374 0.907958 0.031337
O O15 0.250000 0.000000 0.500000
O O16 0.289812 0.000000 0.750000
O O17 0.670461 0.908671 0.985294
O O18 0.203596 0.500000 0.250000
O O19 0.250000 0.500000 0.500000
#
# Coordination Sequence:
#
# PCOD8166067 Si02
#       8
#     8   8   8   8   8   8   8   8
#     4   9  18  35  54  71  93 129 171 205 235 281
#     4   9  18  35  54  71  93 129 171 205 235 281
#     4  11  22  34  48  72 103 129 154 199 253 298
#     4   8  16  32  54  74  95 126 169 208 235 275
#     4   9  17  33  55  75  94 125 164 201 238 285
#     4   9  18  30  47  69  95 124 158 198 239 279
#     4   8  16  32  54  74  95 126 169 208 235 275
#     4   9  17  31  50  76 105 132 162 200 243 288
#
# _framework density 17.725061
#
# number of rings (size 3 to 8) (size 9 to 14) (size 15 to 20)
#    0.000    3.000    0.000    3.375    0.000    4.000 
#    0.000   10.000    0.000    0.000    0.000    0.000 
#    0.000    0.000    0.000    0.000    0.000    0.000 
#
# Total GULP energy -396695.417191 kJ/mol
# GULP energy per Si atom -12396.731787 kJ/mol
# Density = 1.768472 g / cm^3
# Si number density = 17.725061 Si / 1000 Ang^3
#
#
#
# Elastic Constant Matrix: (Units=GPa)
#
#
# Indices 1 2 3 4 5 6 
#
# 1 147.8280 82.1484 39.1938 0.0000 0.0000 0.0000
# 2 82.1484 189.4157 34.3038 0.0000 0.0000 0.0000
# 3 39.1938 34.3038 42.1564 0.0000 0.0000 0.0000
# 4 0.0000 0.0000 0.0000 6.8531 0.0000 0.0000
# 5 0.0000 0.0000 0.0000 0.0000 34.2762 0.0000
# 6 0.0000 0.0000 0.0000 0.0000 0.0000 11.7698
#
#
#
# Elastic Compliance Matrix: (Units=1/GPa)
#
#
# Indices 1 2 3 4 5 6 
#
# 1 0.010444 -0.003250 -0.007065 0.000000 0.000000 0.000000
# 2 -0.003250 0.007203 -0.002840 0.000000 0.000000 0.000000
# 3 -0.007065 -0.002840 0.032601 0.000000 0.000000 0.000000
# 4 0.000000 0.000000 0.000000 0.145920 0.000000 0.000000
# 5 0.000000 0.000000 0.000000 0.000000 0.029175 0.000000
# 6 0.000000 0.000000 0.000000 0.000000 0.000000 0.084963
#
#
# Mechanical properties :
#
#
# Convention : Reuss Voigt Hill
#
# Bulk Modulus (GPa) = 41.77526 76.74355 59.25941
# Shear Modulus (GPa) = 14.50979 25.49676 20.00328
#
# Velocity S-wave (km/s) = 2.86423 3.79682 3.36301
# Velocity P-wave (km/s) = 5.87861 7.91276 6.97029
#
# Compressibility (1/GPa) = 0.02393761
#
# Stress axis : x y z
#
# Youngs Moduli (GPa) = 95.75030 138.82801 30.67395
#
# Poissons Ratio (x) = 0.45117 0.21672
# Poissons Ratio (y) = 0.31118 0.08711
# Poissons Ratio (z) = 0.67651 0.39426
#
# Static dielectric constant tensor:
#      x y z
#    x 3.272920 0.000000 0.000000 
#    y 0.000000 4.023460 0.000000 
#    z 0.000000 0.000000 2.929340 
# 
# 
# High freq. dielectric constant tensor:
#      x y z
#    x 1.688610 0.000000 0.000000 
#    y 0.000000 1.695010 0.000000 
#    z 0.000000 0.000000 1.651520 
# 
# From -- ./inp_files/17053.got.cif
#   From: 2010.03.12/outbox.cif.g09.slc.cpg/sg24_9_cif.got.tgz:17053.got - 2010.04.14 03:06:53.
