data_PCOD8166818
_publ_section_title
;
Structure prediction by ZEFSAII (Michael W. Deem and Ramdas Pophale) SiO2 
 PCOD8166818
Probable space group: P M M 2
;
_chemical_formula_sum "Si O2"
_cell_formula_units_Z 32
_cell_length_a 28.101647
_cell_length_b 8.932396
_cell_length_c 6.935517
_cell_angle_alpha 90.000000
_cell_angle_beta 90.000000
_cell_angle_gamma 90.000000
_cell_volume 1740.919072
_symmetry_space_group_name_H-M "P M M 2"
_symmetry_group_IT_number 25
_symmetry_cell_setting 'orthorhombic'
loop_
_space_group_symop_operation_xyz
x,y,z
-x,-y,z
-x,y,z
x,-y,z
loop_
_atom_site_type_symbol
_atom_site_label
_atom_site_fract_x
_atom_site_fract_y
_atom_site_fract_z
Si Si1 0.800217 0.173142 0.262010
Si Si2 0.054361 0.673027 0.240496
Si Si3 0.625382 0.329346 0.915404
Si Si4 0.372159 0.175935 0.514826
Si Si5 0.119054 0.172557 0.951258
Si Si6 0.867465 0.325564 0.548314
Si Si7 0.299304 0.673647 0.241223
Si Si8 0.554608 0.325983 0.247626
O O1 0.822704 0.240661 0.455854
O O2 0.751853 0.255340 0.209438
O O3 0.789938 0.000000 0.299787
O O4 0.835114 0.199550 0.083336
O O5 0.060349 0.500000 0.181649
O O6 0.084406 0.710624 0.431381
O O7 0.000000 0.714190 0.286214
O O8 0.072028 0.773126 0.062663
O O9 0.623957 0.500000 0.839624
O O10 0.671849 0.301115 0.044617
O O11 0.578638 0.293218 0.041660
O O12 0.626449 0.215784 0.739246
O O13 0.325905 0.250416 0.420246
O O14 0.420592 0.232050 0.415941
O O15 0.368021 0.000000 0.489368
O O16 0.125271 0.271231 0.763445
O O17 0.112781 0.000000 0.894217
O O18 0.855495 0.500000 0.547571
O O19 0.294188 0.500000 0.291289
O O20 0.500000 0.276709 0.234487
O O21 0.560644 0.500000 0.301172
#
# Coordination Sequence:
#
# PCOD8166818 Si02
#       8
#     4   4   4   4   4   4   4   4
#     4  10  21  37  56  79 109 141 175 220 270 318
#     4   9  19  36  56  78 105 139 181 225 266 312
#     4   9  19  36  56  79 107 140 181 223 262 312
#     4  11  22  35  54  81 113 144 174 216 270 322
#     4  10  21  36  54  79 111 143 176 218 269 322
#     4  10  20  35  56  80 108 143 181 220 263 315
#     4  10  21  38  59  80 104 138 181 224 264 313
#     4   9  19  37  59  80 105 141 183 224 264 310
#
# _framework density 18.381094999999998
#
# number of rings (size 3 to 8) (size 9 to 14) (size 15 to 20)
#    0.000    2.250    0.000    3.375    0.000    7.000 
#    0.000    5.000    0.000    0.000    0.000    0.000 
#    0.000    0.000    0.000    0.000    0.000    0.000 
#
# Total GULP energy -396942.030739 kJ/mol
# GULP energy per Si atom -12404.438461 kJ/mol
# Density = 1.833926 g / cm^3
# Si number density = 18.381095 Si / 1000 Ang^3
#
#
#
# Elastic Constant Matrix: (Units=GPa)
#
#
# Indices 1 2 3 4 5 6 
#
# 1 125.8720 54.8865 35.4312 0.0000 0.0000 0.0000
# 2 54.8865 112.2816 53.7618 0.0000 0.0000 0.0000
# 3 35.4312 53.7618 102.8045 0.0000 0.0000 0.0000
# 4 0.0000 0.0000 0.0000 30.3528 0.0000 0.0000
# 5 0.0000 0.0000 0.0000 0.0000 12.1908 0.0000
# 6 0.0000 0.0000 0.0000 0.0000 0.0000 25.9043
#
#
#
# Elastic Compliance Matrix: (Units=1/GPa)
#
#
# Indices 1 2 3 4 5 6 
#
# 1 0.010209 -0.004410 -0.001212 0.000000 0.000000 0.000000
# 2 -0.004410 0.013786 -0.005690 0.000000 0.000000 0.000000
# 3 -0.001212 -0.005690 0.013120 0.000000 0.000000 0.000000
# 4 0.000000 0.000000 0.000000 0.032946 0.000000 0.000000
# 5 0.000000 0.000000 0.000000 0.000000 0.082029 0.000000
# 6 0.000000 0.000000 0.000000 0.000000 0.000000 0.038604
#
#
# Mechanical properties :
#
#
# Convention : Reuss Voigt Hill
#
# Bulk Modulus (GPa) = 69.00483 69.90190 69.45336
# Shear Modulus (GPa) = 22.92026 26.81483 24.86754
#
# Velocity S-wave (km/s) = 3.53504 3.82360 3.68215
# Velocity P-wave (km/s) = 7.36782 7.58980 7.47963
#
# Compressibility (1/GPa) = 0.01449174
#
# Stress axis : x y z
#
# Youngs Moduli (GPa) = 97.95521 72.53668 76.21724
#
# Poissons Ratio (x) = 0.31988 0.09239
# Poissons Ratio (y) = 0.43197 0.43365
# Poissons Ratio (z) = 0.11875 0.41271
#
# Static dielectric constant tensor:
#      x y z
#    x 3.490840 0.000000 0.000000 
#    y 0.000000 3.439340 0.000000 
#    z 0.000000 0.000000 3.273090 
# 
# 
# High freq. dielectric constant tensor:
#      x y z
#    x 1.716480 0.000000 0.000000 
#    y 0.000000 1.720030 0.000000 
#    z 0.000000 0.000000 1.711170 
# 
# From -- ./inp_files/1337.got.cif
#   From: 2010.03.12/outbox.cif.g09.slc.cpg/sg25_1_cif.got.tgz:1337.got - 2010.04.14 03:30:10.
