data_PCOD8166073
_publ_section_title
;
Structure prediction by ZEFSAII (Michael W. Deem and Ramdas Pophale) SiO2 
 PCOD8166073
Probable space group: I 21 21 21
;
_chemical_formula_sum "Si O2"
_cell_formula_units_Z 64
_cell_length_a 19.943859
_cell_length_b 10.053960
_cell_length_c 16.494032
_cell_angle_alpha 90.000000
_cell_angle_beta 90.000000
_cell_angle_gamma 90.000000
_cell_volume 3307.296878
_symmetry_space_group_name_H-M "I 21 21 21"
_symmetry_group_IT_number 24
_symmetry_cell_setting 'orthorhombic'
loop_
_space_group_symop_operation_xyz
x,y,z
-x,1/2-y,z
x,-y,1/2-z
1/2-x,y,-z
1/2+x,1/2+y,1/2+z
1/2-x,-y,1/2+z
1/2+x,1/2-y,-z
-x,1/2+y,1/2-z
loop_
_atom_site_type_symbol
_atom_site_label
_atom_site_fract_x
_atom_site_fract_y
_atom_site_fract_z
Si Si1 0.379294 0.475935 0.158529
Si Si2 0.576278 0.227090 0.434907
Si Si3 0.278835 0.025581 0.658605
Si Si4 0.120706 0.975935 0.841471
Si Si5 0.721165 0.974419 0.658605
Si Si6 0.311138 0.223721 0.938783
Si Si7 0.688862 0.776279 0.938783
Si Si8 0.576278 0.272910 0.065093
O O1 0.403521 0.500000 0.250000
O O2 0.415514 0.578295 0.098536
O O3 0.300240 0.495685 0.149837
O O4 0.400282 0.327129 0.135524
O O5 0.500000 0.250000 0.460203
O O6 0.599718 0.327129 0.364476
O O7 0.619601 0.251140 0.515398
O O8 0.301459 0.173022 0.634484
O O9 0.302688 0.000000 0.750000
O O10 0.199761 0.004315 0.649837
O O11 0.314541 0.923237 0.598128
O O12 0.084487 0.078295 0.901464
O O13 0.096479 0.000000 0.750000
O O14 0.698541 0.826978 0.634484
O O15 0.697313 0.000000 0.750000
O O16 0.685459 0.076763 0.598128
O O17 0.250000 0.241130 0.000000
O O18 0.380399 0.251140 0.984602
O O19 0.750000 0.758869 0.000000
O O20 0.500000 0.250000 0.039797
#
# Coordination Sequence:
#
# PCOD8166073 Si02
#       8
#     8   8   8   8   8   8   8   8
#     4  11  22  38  58  86 121 156 191 229 284 352
#     4  12  25  38  57  86 119 158 194 233 285 343
#     4  11  22  38  63  91 115 147 195 244 291 336
#     4  11  22  38  58  86 121 156 191 229 284 352
#     4  11  22  38  63  91 115 147 195 244 291 336
#     4  12  21  39  63  85 117 154 192 242 286 333
#     4  12  21  39  63  85 117 154 192 242 286 333
#     4  12  25  38  57  86 119 158 194 233 285 343
#
# _framework density 19.351151000000002
#
# number of rings (size 3 to 8) (size 9 to 14) (size 15 to 20)
#    0.000    0.500    5.000    4.500    0.000    7.000 
#    0.000    0.000    0.000    4.500    0.000    0.000 
#    0.000    0.000    0.000    0.000    0.000    0.000 
#
# Total GULP energy -397090.658069 kJ/mol
# GULP energy per Si atom -12409.083065 kJ/mol
# Density = 1.930711 g / cm^3
# Si number density = 19.351151 Si / 1000 Ang^3
#
#
#
# Elastic Constant Matrix: (Units=GPa)
#
#
# Indices 1 2 3 4 5 6 
#
# 1 96.4058 -2.1830 40.7777 0.0000 0.0000 0.0000
# 2 -2.1830 70.3546 8.1031 0.0000 0.0000 0.0000
# 3 40.7777 8.1031 88.2831 0.0000 0.0000 0.0000
# 4 0.0000 0.0000 0.0000 45.4763 0.0000 0.0000
# 5 0.0000 0.0000 0.0000 0.0000 18.2793 0.0000
# 6 0.0000 0.0000 0.0000 0.0000 0.0000 13.2084
#
#
#
# Elastic Compliance Matrix: (Units=1/GPa)
#
#
# Indices 1 2 3 4 5 6 
#
# 1 0.012976 0.001105 -0.006095 0.000000 0.000000 0.000000
# 2 0.001105 0.014460 -0.001837 0.000000 0.000000 0.000000
# 3 -0.006095 -0.001837 0.014311 0.000000 0.000000 0.000000
# 4 0.000000 0.000000 0.000000 0.021989 0.000000 0.000000
# 5 0.000000 0.000000 0.000000 0.000000 0.054707 0.000000
# 6 0.000000 0.000000 0.000000 0.000000 0.000000 0.075709
#
#
# Mechanical properties :
#
#
# Convention : Reuss Voigt Hill
#
# Bulk Modulus (GPa) = 35.59843 38.71548 37.15696
# Shear Modulus (GPa) = 23.02334 29.28252 26.15293
#
# Velocity S-wave (km/s) = 3.45304 3.89423 3.68025
# Velocity P-wave (km/s) = 5.85952 6.34589 6.10755
#
# Compressibility (1/GPa) = 0.02809112
#
# Stress axis : x y z
#
# Youngs Moduli (GPa) = 77.06625 69.15821 69.87608
#
# Poissons Ratio (x) = -0.07639 0.42589
# Poissons Ratio (y) = -0.08513 0.12839
# Poissons Ratio (z) = 0.46971 0.12707
#
# Static dielectric constant tensor:
#      x y z
#    x 3.405100 0.000000 0.000000 
#    y 0.000000 3.673300 0.000000 
#    z 0.000000 0.000000 3.612500 
# 
# 
# High freq. dielectric constant tensor:
#      x y z
#    x 1.731150 0.000000 0.000000 
#    y 0.000000 1.773400 0.000000 
#    z 0.000000 0.000000 1.754050 
# 
# From -- ./inp_files/31432.got.cif
#   From: 2010.03.12/outbox.cif.g09.slc.cpg/sg24_16_cif.got.tgz:31432.got - 2010.04.14 03:06:53.
