data_PCOD8166628
_publ_section_title
;
Structure prediction by ZEFSAII (Michael W. Deem and Ramdas Pophale) SiO2 
 PCOD8166628
Probable space group: P M M 2
;
_chemical_formula_sum "Si O2"
_cell_formula_units_Z 32
_cell_length_a 8.976876
_cell_length_b 9.263818
_cell_length_c 20.799772
_cell_angle_alpha 90.000000
_cell_angle_beta 90.000000
_cell_angle_gamma 90.000000
_cell_volume 1729.712065
_symmetry_space_group_name_H-M "P M M 2"
_symmetry_group_IT_number 25
_symmetry_cell_setting 'orthorhombic'
loop_
_space_group_symop_operation_xyz
x,y,z
-x,-y,z
-x,y,z
x,-y,z
loop_
_atom_site_type_symbol
_atom_site_label
_atom_site_fract_x
_atom_site_fract_y
_atom_site_fract_z
Si Si1 0.322851 0.335696 0.274830
Si Si2 0.824581 0.167746 0.159357
Si Si3 0.676904 0.837622 0.396569
Si Si4 0.326920 0.668721 0.797965
Si Si5 0.177156 0.663462 0.033515
Si Si6 0.823245 0.163659 0.910610
Si Si7 0.676774 0.340932 0.655072
Si Si8 0.677103 0.838646 0.537748
O O1 0.500000 0.329470 0.271392
O O2 0.265329 0.500000 0.268338
O O3 0.258000 0.237422 0.219101
O O4 0.262686 0.271308 0.342362
O O5 0.767223 0.249450 0.095763
O O6 0.000000 0.187969 0.168641
O O7 0.781230 0.000000 0.153616
O O8 0.500000 0.843501 0.394031
O O9 0.727278 0.780183 0.467288
O O10 0.738783 0.000000 0.384394
O O11 0.500000 0.696682 0.811995
O O12 0.288990 0.500000 0.806878
O O13 0.229649 0.764373 0.845108
O O14 0.283945 0.720647 0.725756
O O15 0.240388 0.500000 0.035397
O O16 0.000000 0.660994 0.031637
O O17 0.240289 0.744784 0.970691
O O18 0.000000 0.164496 0.911697
O O19 0.762850 0.000000 0.915396
O O20 0.500000 0.347341 0.648420
O O21 0.744743 0.500000 0.648393
O O22 0.748504 0.249685 0.596857
O O23 0.500000 0.834373 0.542629
O O24 0.736821 0.000000 0.545312
#
# Coordination Sequence:
#
# PCOD8166628 Si02
#       8
#     4   4   4   4   4   4   4   4
#     4  10  20  32  47  70  99 129 160 194 234 279
#     4  10  20  34  53  75  97 123 156 193 233 278
#     4   8  14  25  40  59  87 122 156 191 232 276
#     4   9  18  32  48  68  96 128 160 194 234 280
#     4   9  17  31  52  74  95 121 153 191 234 276
#     4  10  20  33  50  73  98 123 155 194 233 277
#     4   8  14  24  38  58  86 118 150 187 231 275
#     4   8  13  21  35  57  84 115 152 190 227 270
#
# _framework density 18.50019
#
# number of rings (size 3 to 8) (size 9 to 14) (size 15 to 20)
#    0.000    3.000    0.000    3.000    0.000    5.000 
#    0.000    4.375    0.000    3.750    0.000    0.875 
#    0.000    5.000    0.000    0.000    0.000    0.000 
#
# Total GULP energy -396622.332043 kJ/mol
# GULP energy per Si atom -12394.447876 kJ/mol
# Density = 1.845808 g / cm^3
# Si number density = 18.500190 Si / 1000 Ang^3
#
#
#
# Elastic Constant Matrix: (Units=GPa)
#
#
# Indices 1 2 3 4 5 6 
#
# 1 7.6732 15.1294 15.2899 0.0000 0.0000 0.0000
# 2 15.1294 130.0825 88.7909 0.0000 0.0000 0.0000
# 3 15.2899 88.7909 177.2865 0.0000 0.0000 0.0000
# 4 0.0000 0.0000 0.0000 43.4679 0.0000 0.0000
# 5 0.0000 0.0000 0.0000 0.0000 -110.2485 0.0000
# 6 0.0000 0.0000 0.0000 0.0000 0.0000 18.6043
#
#
#
# Elastic Compliance Matrix: (Units=1/GPa)
#
#
# Indices 1 2 3 4 5 6 
#
# 1 0.175364 -0.015305 -0.007459 0.000000 0.000000 0.000000
# 2 -0.015305 0.013016 -0.005199 0.000000 0.000000 0.000000
# 3 -0.007459 -0.005199 0.008888 0.000000 0.000000 0.000000
# 4 0.000000 0.000000 0.000000 0.023005 0.000000 0.000000
# 5 0.000000 0.000000 0.000000 0.000000 -0.009070 0.000000
# 6 0.000000 0.000000 0.000000 0.000000 0.000000 0.053751
#
#
# Mechanical properties :
#
#
# Convention : Reuss Voigt Hill
#
# Bulk Modulus (GPa) = 7.07499 61.49585 34.28542
# Shear Modulus (GPa) = 13.58718 3.42022 8.50370
#
# Velocity S-wave (km/s) = 2.71299 1.36116 2.14628
# Velocity P-wave (km/s) = 3.69409 5.98190 4.97139
#
# Compressibility (1/GPa) = 0.14134298
#
# Stress axis : x y z
#
# Youngs Moduli (GPa) = 5.70241 76.82782 112.51489
#
# Poissons Ratio (x) = 1.17581 0.83927
# Poissons Ratio (y) = 0.08727 0.58496
# Poissons Ratio (z) = 0.04254 0.39943
#
# Static dielectric constant tensor:
#      x y z
#    x 2.778640 0.000000 0.000000 
#    y 0.000000 3.672740 0.000000 
#    z 0.000000 0.000000 3.768100 
# 
# 
# High freq. dielectric constant tensor:
#      x y z
#    x 1.651250 0.000000 0.000000 
#    y 0.000000 1.723150 0.000000 
#    z 0.000000 0.000000 1.738500 
# 
# From -- ./inp_files/6370.got.cif
#   From: 2010.03.12/outbox.cif.g09.slc.cpg/sg25_4_cif.got.tgz:6370.got - 2010.04.14 03:30:10.
