data_PCOD8166814
_publ_section_title
;
Structure prediction by ZEFSAII (Michael W. Deem and Ramdas Pophale) SiO2 
 PCOD8166814
Probable space group: P M M 2
;
_chemical_formula_sum "Si O2"
_cell_formula_units_Z 32
_cell_length_a 9.322315
_cell_length_b 14.512001
_cell_length_c 12.429692
_cell_angle_alpha 90.000000
_cell_angle_beta 90.000000
_cell_angle_gamma 90.000000
_cell_volume 1681.556408
_symmetry_space_group_name_H-M "P M M 2"
_symmetry_group_IT_number 25
_symmetry_cell_setting 'orthorhombic'
loop_
_space_group_symop_operation_xyz
x,y,z
-x,-y,z
-x,y,z
x,-y,z
loop_
_atom_site_type_symbol
_atom_site_label
_atom_site_fract_x
_atom_site_fract_y
_atom_site_fract_z
Si Si1 0.667178 0.896037 0.835150
Si Si2 0.829439 0.275701 0.768590
Si Si3 0.165573 0.099240 0.280350
Si Si4 0.340899 0.658495 0.151826
Si Si5 0.170462 0.604637 0.565668
Si Si6 0.335656 0.601190 0.926963
Si Si7 0.830269 0.295390 0.352692
Si Si8 0.660939 0.136415 0.076728
O O1 0.500000 0.869203 0.826141
O O2 0.759747 0.825982 0.761988
O O3 0.694381 0.000000 0.793064
O O4 0.719317 0.889075 0.958727
O O5 0.776848 0.335873 0.667019
O O6 0.773738 0.327069 0.874727
O O7 0.000000 0.266007 0.772781
O O8 0.221555 0.187481 0.349320
O O9 0.242368 0.088778 0.166309
O O10 0.000000 0.116530 0.255292
O O11 0.188327 0.000000 0.341182
O O12 0.500000 0.640284 0.198974
O O13 0.230152 0.649823 0.249754
O O14 0.333152 0.755274 0.091518
O O15 0.303214 0.589362 0.054758
O O16 0.231349 0.500000 0.571443
O O17 0.230537 0.656183 0.459592
O O18 0.000000 0.601477 0.562960
O O19 0.500000 0.635306 0.909755
O O20 0.312976 0.500000 0.875349
O O21 0.000000 0.303334 0.349354
O O22 0.500000 0.097917 0.089854
#
# Coordination Sequence:
#
# PCOD8166814 Si02
#       8
#     4   4   4   4   4   4   4   4
#     4  10  20  35  55  78 108 147 185 219 265 327
#     4  11  22  36  56  80 109 140 181 234 277 321
#     4   9  17  28  44  71 105 135 167 211 260 308
#     4   9  17  31  50  75 109 141 170 213 267 319
#     4   9  19  37  58  78 102 137 180 227 278 326
#     4  10  20  35  55  78 108 146 181 217 273 340
#     4   9  18  33  53  75 100 134 178 220 266 321
#     4   9  16  29  49  71 100 140 179 208 245 307
#
# _framework density 19.029989
#
# number of rings (size 3 to 8) (size 9 to 14) (size 15 to 20)
#    0.000    2.500    1.250    1.125    0.000    3.250 
#    0.000    1.875    0.000    3.750    0.000    0.000 
#    0.000    0.000    0.000    0.000    0.000    0.000 
#
# Total GULP energy -396617.659867 kJ/mol
# GULP energy per Si atom -12394.301871 kJ/mol
# Density = 1.898668 g / cm^3
# Si number density = 19.029989 Si / 1000 Ang^3
#
#
#
# Elastic Constant Matrix: (Units=GPa)
#
#
# Indices 1 2 3 4 5 6 
#
# 1 48.6113 39.4649 33.8201 0.0000 0.0000 0.0000
# 2 39.4649 131.6206 58.0873 0.0000 0.0000 0.0000
# 3 33.8201 58.0873 99.1068 0.0000 0.0000 0.0000
# 4 0.0000 0.0000 0.0000 20.9241 0.0000 0.0000
# 5 0.0000 0.0000 0.0000 0.0000 12.3413 0.0000
# 6 0.0000 0.0000 0.0000 0.0000 0.0000 19.8116
#
#
#
# Elastic Compliance Matrix: (Units=1/GPa)
#
#
# Indices 1 2 3 4 5 6 
#
# 1 0.030197 -0.006079 -0.006742 0.000000 0.000000 0.000000
# 2 -0.006079 0.011472 -0.004650 0.000000 0.000000 0.000000
# 3 -0.006742 -0.004650 0.015116 0.000000 0.000000 0.000000
# 4 0.000000 0.000000 0.000000 0.047792 0.000000 0.000000
# 5 0.000000 0.000000 0.000000 0.000000 0.081029 0.000000
# 6 0.000000 0.000000 0.000000 0.000000 0.000000 0.050475
#
#
# Mechanical properties :
#
#
# Convention : Reuss Voigt Hill
#
# Bulk Modulus (GPa) = 45.77795 60.23149 53.00472
# Shear Modulus (GPa) = 17.96603 20.47982 19.22293
#
# Velocity S-wave (km/s) = 3.07594 3.28409 3.18172
# Velocity P-wave (km/s) = 6.05996 6.78969 6.43518
#
# Compressibility (1/GPa) = 0.02184458
#
# Stress axis : x y z
#
# Youngs Moduli (GPa) = 33.11598 87.16692 66.15546
#
# Poissons Ratio (x) = 0.52988 0.44601
# Poissons Ratio (y) = 0.20131 0.30759
# Poissons Ratio (z) = 0.22326 0.40529
#
# Static dielectric constant tensor:
#      x y z
#    x 3.275740 0.000000 0.000000 
#    y 0.000000 3.803270 0.000000 
#    z 0.000000 0.000000 3.347190 
# 
# 
# High freq. dielectric constant tensor:
#      x y z
#    x 1.715950 0.000000 0.000000 
#    y 0.000000 1.757410 0.000000 
#    z 0.000000 0.000000 1.712890 
# 
# From -- ./inp_files/4171.got.cif
#   From: 2010.03.12/outbox.cif.g09.slc.cpg/sg25_3_cif.got.tgz:4171.got - 2010.04.14 03:30:10.
