data_PCOD8166223
_publ_section_title
;
Structure prediction by ZEFSAII (Michael W. Deem and Ramdas Pophale) SiO2 
 PCOD8166223
Probable space group: I 21 21 21
;
_chemical_formula_sum "Si O2"
_cell_formula_units_Z 28
_cell_length_a 19.932778
_cell_length_b 11.055234
_cell_length_c 5.265648
_cell_angle_alpha 90.000000
_cell_angle_beta 90.000000
_cell_angle_gamma 90.000000
_cell_volume 1160.346224
_symmetry_space_group_name_H-M "I 21 21 21"
_symmetry_group_IT_number 24
_symmetry_cell_setting 'orthorhombic'
loop_
_space_group_symop_operation_xyz
x,y,z
-x,1/2-y,z
x,-y,1/2-z
1/2-x,y,-z
1/2+x,1/2+y,1/2+z
1/2-x,-y,1/2+z
1/2+x,1/2-y,-z
-x,1/2+y,1/2-z
loop_
_atom_site_type_symbol
_atom_site_label
_atom_site_fract_x
_atom_site_fract_y
_atom_site_fract_z
Si Si1 0.466551 0.380015 0.039745
Si Si2 0.393672 0.325421 0.536099
Si Si3 0.250000 0.419501 0.500000
Si Si4 0.403977 0.045230 0.500346
O O1 0.500000 0.250000 0.044669
O O2 0.426677 0.401455 0.306227
O O3 0.414974 0.384124 0.804131
O O4 0.523363 0.481215 0.004496
O O5 0.313631 0.330929 0.517763
O O6 0.417384 0.187094 0.508654
O O7 0.244466 0.500000 0.750000
O O8 0.363921 0.000000 0.750000
O O9 0.363585 0.000000 0.250000
#
# Coordination Sequence:
#
# PCOD8166223 Si02
#       4
#     8   8   4   8
#     4  12  23  41  72 110 150 183 231 301 377 439
#     4  12  26  48  70 105 147 191 247 299 360 436
#     4  12  30  56  76 100 142 204 260 296 352 446
#     4  12  23  39  66 106 147 178 228 293 367 431
#
# _framework density 24.130728999999999
#
# number of rings (size 3 to 8) (size 9 to 14) (size 15 to 20)
#    0.000    0.000    5.714    4.286    0.000    6.857 
#    0.000    1.429    0.000    0.000    0.000    0.000 
#    0.000    0.000    0.000    0.000    0.000    0.000 
#
# Total GULP energy -173587.074448 kJ/mol
# GULP energy per Si atom -12399.076746 kJ/mol
# Density = 2.407581 g / cm^3
# Si number density = 24.130729 Si / 1000 Ang^3
#
#
#
# Elastic Constant Matrix: (Units=GPa)
#
#
# Indices 1 2 3 4 5 6 
#
# 1 120.8704 29.9949 30.5250 0.0000 0.0000 0.0000
# 2 29.9949 97.6145 20.9312 0.0000 0.0000 0.0000
# 3 30.5250 20.9312 250.8132 0.0000 0.0000 0.0000
# 4 0.0000 0.0000 0.0000 104.6137 0.0000 0.0000
# 5 0.0000 0.0000 0.0000 0.0000 141.7221 0.0000
# 6 0.0000 0.0000 0.0000 0.0000 0.0000 14.9421
#
#
#
# Elastic Compliance Matrix: (Units=1/GPa)
#
#
# Indices 1 2 3 4 5 6 
#
# 1 0.009149 -0.002620 -0.000895 0.000000 0.000000 0.000000
# 2 -0.002620 0.011181 -0.000614 0.000000 0.000000 0.000000
# 3 -0.000895 -0.000614 0.004147 0.000000 0.000000 0.000000
# 4 0.000000 0.000000 0.000000 0.009559 0.000000 0.000000
# 5 0.000000 0.000000 0.000000 0.000000 0.007056 0.000000
# 6 0.000000 0.000000 0.000000 0.000000 0.000000 0.066925
#
#
# Mechanical properties :
#
#
# Convention : Reuss Voigt Hill
#
# Bulk Modulus (GPa) = 61.65161 70.24448 65.94805
# Shear Modulus (GPa) = 41.09073 78.11205 59.60139
#
# Velocity S-wave (km/s) = 4.13102 5.69567 4.97524
# Velocity P-wave (km/s) = 6.95401 8.51043 7.77128
#
# Compressibility (1/GPa) = 0.01622018
#
# Stress axis : x y z
#
# Youngs Moduli (GPa) = 109.29699 89.43729 241.12594
#
# Poissons Ratio (x) = 0.23428 0.21579
# Poissons Ratio (y) = 0.28631 0.14812
# Poissons Ratio (z) = 0.09781 0.05494
#
# Static dielectric constant tensor:
#      x y z
#    x 3.988620 0.000000 0.000000 
#    y 0.000000 4.572330 0.000000 
#    z 0.000000 0.000000 6.630960 
# 
# 
# High freq. dielectric constant tensor:
#      x y z
#    x 1.906220 0.000000 0.000000 
#    y 0.000000 1.991830 0.000000 
#    z 0.000000 0.000000 2.006990 
# 
# From -- ./inp_files/1858.got.cif
#   From: 2010.03.12/outbox.cif.g09.slc.cpg/sg24_1_cif.got.tgz:1858.got - 2010.04.14 03:06:53.
