data_PCOD8166464
_publ_section_title
;
Structure prediction by ZEFSAII (Michael W. Deem and Ramdas Pophale) SiO2 
 PCOD8166464
Probable space group: P M M 2
;
_chemical_formula_sum "Si O2"
_cell_formula_units_Z 32
_cell_length_a 9.034555
_cell_length_b 14.091703
_cell_length_c 15.557442
_cell_angle_alpha 90.000000
_cell_angle_beta 90.000000
_cell_angle_gamma 90.000000
_cell_volume 1980.653191
_symmetry_space_group_name_H-M "P M M 2"
_symmetry_group_IT_number 25
_symmetry_cell_setting 'orthorhombic'
loop_
_space_group_symop_operation_xyz
x,y,z
-x,-y,z
-x,y,z
x,-y,z
loop_
_atom_site_type_symbol
_atom_site_label
_atom_site_fract_x
_atom_site_fract_y
_atom_site_fract_z
Si Si1 0.827849 0.798382 0.827020
Si Si2 0.327680 0.392155 0.570037
Si Si3 0.327531 0.110940 0.357516
Si Si4 0.824809 0.783708 0.509461
Si Si5 0.831373 0.394627 0.746180
Si Si6 0.173913 0.892302 0.000785
Si Si7 0.663982 0.112786 0.166840
Si Si8 0.671988 0.111288 0.666750
O O1 0.801960 0.685007 0.818422
O O2 0.734345 0.856334 0.758050
O O3 0.000000 0.825208 0.814754
O O4 0.770830 0.828764 0.921121
O O5 0.500000 0.367659 0.563434
O O6 0.294570 0.500000 0.542074
O O7 0.235770 0.323940 0.507173
O O8 0.277910 0.374221 0.667762
O O9 0.500000 0.133257 0.375227
O O10 0.223364 0.166883 0.421952
O O11 0.281417 0.144939 0.261432
O O12 0.297279 0.000000 0.370346
O O13 0.758650 0.837014 0.591246
O O14 0.000000 0.783883 0.517008
O O15 0.802422 0.500000 0.785119
O O16 0.000000 0.386700 0.711867
O O17 0.234758 0.847939 0.089757
O O18 0.000000 0.890132 0.008437
O O19 0.231228 0.000000 0.986897
O O20 0.500000 0.152524 0.150534
O O21 0.663100 0.000000 0.166464
O O22 0.500000 0.138456 0.660544
O O23 0.697108 0.000000 0.656003
#
# Coordination Sequence:
#
# PCOD8166464 Si02
#       8
#     4   4   4   4   4   4   4   4
#     4  10  19  31  47  68  94 127 160 195 240 286
#     4  10  20  34  52  71  92 121 158 200 242 282
#     4   9  18  33  51  70  95 126 160 200 241 284
#     4  12  23  33  48  71  97 127 159 194 237 287
#     4   9  17  30  48  69  92 120 157 200 243 283
#     4   9  17  28  43  65  94 125 157 194 235 283
#     4   8  15  29  48  68  90 119 155 195 240 283
#     4  11  23  35  46  63  92 130 167 199 231 274
#
# _framework density 16.156286000000001
#
# number of rings (size 3 to 8) (size 9 to 14) (size 15 to 20)
#    0.000    2.250    1.250    3.375    0.000    5.000 
#    0.000    2.500    0.000    0.000    0.000    0.875 
#    0.000    3.000    0.000    0.000    0.000    0.000 
#
# Total GULP energy -396738.269224 kJ/mol
# GULP energy per Si atom -12398.070913 kJ/mol
# Density = 1.611951 g / cm^3
# Si number density = 16.156286 Si / 1000 Ang^3
#
#
#
# Elastic Constant Matrix: (Units=GPa)
#
#
# Indices 1 2 3 4 5 6 
#
# 1 88.5188 49.5052 57.9379 0.0000 0.0000 0.0000
# 2 49.5052 79.9303 48.9491 0.0000 0.0000 0.0000
# 3 57.9379 48.9491 120.8542 0.0000 0.0000 0.0000
# 4 0.0000 0.0000 0.0000 7.9502 0.0000 0.0000
# 5 0.0000 0.0000 0.0000 0.0000 27.2174 0.0000
# 6 0.0000 0.0000 0.0000 0.0000 0.0000 21.3595
#
#
#
# Elastic Compliance Matrix: (Units=1/GPa)
#
#
# Indices 1 2 3 4 5 6 
#
# 1 0.020217 -0.008759 -0.006145 0.000000 0.000000 0.000000
# 2 -0.008759 0.020432 -0.004077 0.000000 0.000000 0.000000
# 3 -0.006145 -0.004077 0.012871 0.000000 0.000000 0.000000
# 4 0.000000 0.000000 0.000000 0.125782 0.000000 0.000000
# 5 0.000000 0.000000 0.000000 0.000000 0.036741 0.000000
# 6 0.000000 0.000000 0.000000 0.000000 0.000000 0.046817
#
#
# Mechanical properties :
#
#
# Convention : Reuss Voigt Hill
#
# Bulk Modulus (GPa) = 64.26419 66.89862 65.58140
# Shear Modulus (GPa) = 16.33939 20.16618 18.25278
#
# Velocity S-wave (km/s) = 3.18360 3.53681 3.36484
# Velocity P-wave (km/s) = 7.30593 7.62731 7.46835
#
# Compressibility (1/GPa) = 0.01556077
#
# Stress axis : x y z
#
# Youngs Moduli (GPa) = 49.46255 48.94253 77.69167
#
# Poissons Ratio (x) = 0.42867 0.47740
# Poissons Ratio (y) = 0.43323 0.31672
# Poissons Ratio (z) = 0.30394 0.19952
#
# Static dielectric constant tensor:
#      x y z
#    x 3.139940 0.000000 0.000000 
#    y 0.000000 3.130240 0.000000 
#    z 0.000000 0.000000 3.120590 
# 
# 
# High freq. dielectric constant tensor:
#      x y z
#    x 1.625730 0.000000 0.000000 
#    y 0.000000 1.605220 0.000000 
#    z 0.000000 0.000000 1.608340 
# 
# From -- ./inp_files/5709.got.cif
#   From: 2010.03.12/outbox.cif.g09.slc.cpg/sg25_3_cif.got.tgz:5709.got - 2010.04.14 03:30:10.
