data_PCOD8166201
_publ_section_title
;
Structure prediction by ZEFSAII (Michael W. Deem and Ramdas Pophale) SiO2 
 PCOD8166201
Probable space group: I 21 21 21
;
_chemical_formula_sum "Si O2"
_cell_formula_units_Z 48
_cell_length_a 22.672939
_cell_length_b 12.012393
_cell_length_c 9.702365
_cell_angle_alpha 90.000000
_cell_angle_beta 90.000000
_cell_angle_gamma 90.000000
_cell_volume 2642.499784
_symmetry_space_group_name_H-M "I 21 21 21"
_symmetry_group_IT_number 24
_symmetry_cell_setting 'orthorhombic'
loop_
_space_group_symop_operation_xyz
x,y,z
-x,1/2-y,z
x,-y,1/2-z
1/2-x,y,-z
1/2+x,1/2+y,1/2+z
1/2-x,-y,1/2+z
1/2+x,1/2-y,-z
-x,1/2+y,1/2-z
loop_
_atom_site_type_symbol
_atom_site_label
_atom_site_fract_x
_atom_site_fract_y
_atom_site_fract_z
Si Si1 0.750000 0.411715 0.000000
Si Si2 0.954992 0.000000 0.250000
Si Si3 0.070664 0.731535 0.157960
Si Si4 0.413813 0.162715 0.377006
Si Si5 0.500000 0.750000 0.316358
Si Si6 0.468647 0.043626 0.010804
Si Si7 0.322110 0.000000 0.250000
Si Si8 0.138488 0.104772 0.149937
O O1 0.717662 0.485081 0.114910
O O2 0.800495 0.344493 0.085945
O O3 0.915634 0.101635 0.309495
O O4 0.998127 0.958196 0.367544
O O5 0.100657 0.799359 0.279954
O O6 0.000000 0.750000 0.151827
O O7 0.102971 0.772778 0.018124
O O8 0.441329 0.254617 0.276171
O O9 0.360700 0.107724 0.291815
O O10 0.466780 0.073329 0.407854
O O11 0.501064 0.861391 0.405139
O O12 0.399208 0.064423 0.981936
O O13 0.151407 0.000000 0.250000
#
# Coordination Sequence:
#
# PCOD8166201 Si02
#       8
#     4   4   8   8   4   8   4   8
#     4  12  24  38  60  94 120 168 214 270 318 374
#     4  12  22  35  58  90 122 159 214 246 304 394
#     4  12  21  36  61  89 127 166 205 252 313 383
#     4  12  21  38  54  86 131 169 203 254 319 382
#     4  12  22  30  52  80 126 170 192 244 316 380
#     4  12  19  34  53  82 122 166 200 246 303 376
#     4  12  24  39  60  88 132 167 218 268 322 380
#     4  12  20  38  61  89 121 157 209 258 309 370
#
# _framework density 18.164618999999998
#
# number of rings (size 3 to 8) (size 9 to 14) (size 15 to 20)
#    0.000    0.000   10.833    1.000    0.000    0.000 
#    0.000    0.000    0.000    0.000    4.333    0.000 
#    0.000    0.000    0.000    0.000    0.000    0.000 
#
# Total GULP energy -297407.778914 kJ/mol
# GULP energy per Si atom -12391.990788 kJ/mol
# Density = 1.812328 g / cm^3
# Si number density = 18.164619 Si / 1000 Ang^3
#
#
#
# Elastic Constant Matrix: (Units=GPa)
#
#
# Indices 1 2 3 4 5 6 
#
# 1 91.2009 28.3319 45.5309 0.0000 0.0000 0.0000
# 2 28.3319 102.2984 40.2437 0.0000 0.0000 0.0000
# 3 45.5309 40.2437 105.5525 0.0000 0.0000 0.0000
# 4 0.0000 0.0000 0.0000 40.0274 0.0000 0.0000
# 5 0.0000 0.0000 0.0000 0.0000 40.6772 0.0000
# 6 0.0000 0.0000 0.0000 0.0000 0.0000 13.6521
#
#
#
# Elastic Compliance Matrix: (Units=1/GPa)
#
#
# Indices 1 2 3 4 5 6 
#
# 1 0.014250 -0.001798 -0.005461 0.000000 0.000000 0.000000
# 2 -0.001798 0.011727 -0.003696 0.000000 0.000000 0.000000
# 3 -0.005461 -0.003696 0.013239 0.000000 0.000000 0.000000
# 4 0.000000 0.000000 0.000000 0.024983 0.000000 0.000000
# 5 0.000000 0.000000 0.000000 0.000000 0.024584 0.000000
# 6 0.000000 0.000000 0.000000 0.000000 0.000000 0.073249
#
#
# Mechanical properties :
#
#
# Convention : Reuss Voigt Hill
#
# Bulk Modulus (GPa) = 57.78376 58.58498 58.18437
# Shear Modulus (GPa) = 26.35605 31.20102 28.77853
#
# Velocity S-wave (km/s) = 3.81327 4.14899 3.98467
# Velocity P-wave (km/s) = 7.16019 7.43467 7.29872
#
# Compressibility (1/GPa) = 0.01730590
#
# Stress axis : x y z
#
# Youngs Moduli (GPa) = 70.17615 85.27244 75.53623
#
# Poissons Ratio (x) = 0.15333 0.41252
# Poissons Ratio (y) = 0.12619 0.27915
# Poissons Ratio (z) = 0.38325 0.31513
#
# Static dielectric constant tensor:
#      x y z
#    x 3.330930 0.000000 0.000000 
#    y 0.000000 3.357640 0.000000 
#    z 0.000000 0.000000 3.911720 
# 
# 
# High freq. dielectric constant tensor:
#      x y z
#    x 1.671300 0.000000 0.000000 
#    y 0.000000 1.677470 0.000000 
#    z 0.000000 0.000000 1.740400 
# 
# From -- ./inp_files/15904.got.cif
#   From: 2010.03.12/outbox.cif.g09.slc.cpg/sg24_8_cif.got.tgz:15904.got - 2010.04.14 03:06:53.
