data_PCOD8166034
_publ_section_title
;
Structure prediction by ZEFSAII (Michael W. Deem and Ramdas Pophale) SiO2 
 PCOD8166034
Probable space group: I 21 21 21
;
_chemical_formula_sum "Si O2"
_cell_formula_units_Z 64
_cell_length_a 24.961817
_cell_length_b 14.114386
_cell_length_c 8.169459
_cell_angle_alpha 90.000000
_cell_angle_beta 90.000000
_cell_angle_gamma 90.000000
_cell_volume 2878.269680
_symmetry_space_group_name_H-M "I 21 21 21"
_symmetry_group_IT_number 24
_symmetry_cell_setting 'orthorhombic'
loop_
_space_group_symop_operation_xyz
x,y,z
-x,1/2-y,z
x,-y,1/2-z
1/2-x,y,-z
1/2+x,1/2+y,1/2+z
1/2-x,-y,1/2+z
1/2+x,1/2-y,-z
-x,1/2+y,1/2-z
loop_
_atom_site_type_symbol
_atom_site_label
_atom_site_fract_x
_atom_site_fract_y
_atom_site_fract_z
Si Si1 0.937675 0.778342 0.928994
Si Si2 0.108992 0.608617 0.212588
Si Si3 0.173151 0.226702 0.170443
Si Si4 0.916599 0.617805 0.166109
Si Si5 0.430988 0.043452 0.074815
Si Si6 0.510485 0.852626 0.587911
Si Si7 0.136918 0.789163 0.670163
Si Si8 0.266328 0.891793 0.187758
O O1 0.901677 0.786894 0.763121
O O2 0.000000 0.750000 0.894508
O O3 0.924857 0.871195 0.043429
O O4 0.912778 0.687075 0.013023
O O5 0.125093 0.500000 0.250000
O O6 0.161012 0.677213 0.223402
O O7 0.072084 0.639411 0.364908
O O8 0.131651 0.142469 0.213319
O O9 0.230552 0.182031 0.209771
O O10 0.171396 0.257150 0.977802
O O11 0.974203 0.631974 0.250180
O O12 0.910374 0.513693 0.085408
O O13 0.400555 0.141175 0.067673
O O14 0.422397 0.000000 0.250000
O O15 0.494130 0.067884 0.046602
O O16 0.500000 0.750000 0.511522
O O17 0.173848 0.850246 0.794240
O O18 0.263215 0.000000 0.250000
O O19 0.250000 0.890442 0.000000
#
# Coordination Sequence:
#
# PCOD8166034 Si02
#       8
#     8   8   8   8   8   8   8   8
#     4  11  22  40  65  97 137 182 216 273 333 398
#     4  11  22  42  69  96 132 176 233 276 329 398
#     4  11  25  43  66  96 131 176 220 283 333 398
#     4  11  20  40  61  89 124 174 224 258 331 388
#     4  12  25  36  59  95 133 172 222 271 327 409
#     4  12  21  40  60  90 131 181 225 266 334 398
#     4  12  25  43  65  98 142 171 219 273 336 410
#     4  12  27  45  70 100 134 176 220 274 343 413
#
# _framework density 22.235582000000001
#
# number of rings (size 3 to 8) (size 9 to 14) (size 15 to 20)
#    0.000    0.500    6.250    4.125    3.500    1.500 
#    0.000    0.625    0.000    4.500    0.000    0.000 
#    0.000    0.000    0.000    0.000    0.000    0.000 
#
# Total GULP energy -396428.772804 kJ/mol
# GULP energy per Si atom -12388.399150 kJ/mol
# Density = 2.218497 g / cm^3
# Si number density = 22.235582 Si / 1000 Ang^3
#
#
#
# Elastic Constant Matrix: (Units=GPa)
#
#
# Indices 1 2 3 4 5 6 
#
# 1 80.5001 28.2438 25.2083 0.0000 0.0000 0.0000
# 2 28.2438 114.6349 13.7061 0.0000 0.0000 0.0000
# 3 25.2083 13.7061 102.3349 0.0000 0.0000 0.0000
# 4 0.0000 0.0000 0.0000 17.3392 0.0000 0.0000
# 5 0.0000 0.0000 0.0000 0.0000 32.0474 0.0000
# 6 0.0000 0.0000 0.0000 0.0000 0.0000 28.5198
#
#
#
# Elastic Compliance Matrix: (Units=1/GPa)
#
#
# Indices 1 2 3 4 5 6 
#
# 1 0.014533 -0.003204 -0.003151 0.000000 0.000000 0.000000
# 2 -0.003204 0.009572 -0.000493 0.000000 0.000000 0.000000
# 3 -0.003151 -0.000493 0.010614 0.000000 0.000000 0.000000
# 4 0.000000 0.000000 0.000000 0.057673 0.000000 0.000000
# 5 0.000000 0.000000 0.000000 0.000000 0.031204 0.000000
# 6 0.000000 0.000000 0.000000 0.000000 0.000000 0.035063
#
#
# Mechanical properties :
#
#
# Convention : Reuss Voigt Hill
#
# Bulk Modulus (GPa) = 47.56536 47.97624 47.77080
# Shear Modulus (GPa) = 27.87666 30.93541 29.40604
#
# Velocity S-wave (km/s) = 3.54460 3.73400 3.64053
# Velocity P-wave (km/s) = 6.17982 6.34142 6.26114
#
# Compressibility (1/GPa) = 0.02102370
#
# Stress axis : x y z
#
# Youngs Moduli (GPa) = 68.80825 104.47522 94.21530
#
# Poissons Ratio (x) = 0.33473 0.29686
# Poissons Ratio (y) = 0.22046 0.04642
# Poissons Ratio (z) = 0.21680 0.05148
#
# Static dielectric constant tensor:
#      x y z
#    x 3.960150 0.000000 0.000000 
#    y 0.000000 3.982150 0.000000 
#    z 0.000000 0.000000 4.155460 
# 
# 
# High freq. dielectric constant tensor:
#      x y z
#    x 1.855140 0.000000 0.000000 
#    y 0.000000 1.851450 0.000000 
#    z 0.000000 0.000000 1.892340 
# 
# From -- ./inp_files/16075.got.cif
#   From: 2010.03.12/outbox.cif.g09.slc.cpg/sg24_9_cif.got.tgz:16075.got - 2010.04.14 03:06:53.
