data_PCOD8166149
_publ_section_title
;
Structure prediction by ZEFSAII (Michael W. Deem and Ramdas Pophale) SiO2 
 PCOD8166149
Probable space group: I 21 21 21
;
_chemical_formula_sum "Si O2"
_cell_formula_units_Z 36
_cell_length_a 5.203394
_cell_length_b 21.167882
_cell_length_c 14.394719
_cell_angle_alpha 90.000000
_cell_angle_beta 90.000000
_cell_angle_gamma 90.000000
_cell_volume 1585.503880
_symmetry_space_group_name_H-M "I 21 21 21"
_symmetry_group_IT_number 24
_symmetry_cell_setting 'orthorhombic'
loop_
_space_group_symop_operation_xyz
x,y,z
-x,1/2-y,z
x,-y,1/2-z
1/2-x,y,-z
1/2+x,1/2+y,1/2+z
1/2-x,-y,1/2+z
1/2+x,1/2-y,-z
-x,1/2+y,1/2-z
loop_
_atom_site_type_symbol
_atom_site_label
_atom_site_fract_x
_atom_site_fract_y
_atom_site_fract_z
Si Si1 0.354122 0.019468 0.647798
Si Si2 0.091403 0.678363 0.588038
Si Si3 0.337000 0.590847 0.104465
Si Si4 0.251943 0.291854 0.278851
Si Si5 0.750000 0.419572 0.000000
O O1 0.627978 0.052789 0.664513
O O2 0.127882 0.066298 0.612829
O O3 0.259953 0.000000 0.750000
O O4 0.408660 0.965255 0.570064
O O5 0.250000 0.658112 0.500000
O O6 0.264225 0.669681 0.681122
O O7 0.000000 0.750000 0.576028
O O8 0.873941 0.624915 0.580183
O O9 0.311757 0.663490 0.135031
O O10 0.250000 0.586222 0.000000
O O11 0.500000 0.250000 0.263784
O O12 0.000000 0.250000 0.296735
#
# Coordination Sequence:
#
# PCOD8166149 Si02
#       5
#     8   8   8   8   4
#     4  12  27  46  71 103 144 194 243 295 355 427
#     4  11  24  41  67 101 143 178 233 291 352 429
#     4  12  25  49  71 104 147 182 242 310 346 421
#     4  11  26  45  73 104 140 189 236 292 370 429
#     4  12  26  42  70 104 136 198 236 286 372 420
#
# _framework density 22.705715999999999
#
# number of rings (size 3 to 8) (size 9 to 14) (size 15 to 20)
#    0.000    0.444    3.333    4.000    9.333    0.889 
#    0.000    0.000    0.000    0.000    0.000    0.000 
#    0.000    0.000    0.000    0.000    0.000    0.000 
#
# Total GULP energy -223014.327222 kJ/mol
# GULP energy per Si atom -12389.684846 kJ/mol
# Density = 2.265404 g / cm^3
# Si number density = 22.705716 Si / 1000 Ang^3
#
#
#
# Elastic Constant Matrix: (Units=GPa)
#
#
# Indices 1 2 3 4 5 6 
#
# 1 99.0241 28.1258 -5.8591 -0.0001 0.0000 0.0000
# 2 28.1258 99.6516 23.4994 0.0000 0.0000 0.0000
# 3 -5.8591 23.4994 81.6401 -0.0009 0.0000 0.0000
# 4 -0.0001 0.0000 -0.0009 -152.4036 0.0000 -0.0001
# 5 0.0000 0.0000 0.0000 0.0000 33.9131 0.0000
# 6 0.0000 0.0000 0.0000 -0.0001 0.0000 27.9654
#
#
#
# Elastic Compliance Matrix: (Units=1/GPa)
#
#
# Indices 1 2 3 4 5 6 
#
# 1 0.011231 -0.003605 0.001844 0.000000 0.000000 0.000000
# 2 -0.003605 0.011923 -0.003691 0.000000 0.000000 0.000000
# 3 0.001844 -0.003691 0.013443 0.000000 0.000000 0.000000
# 4 0.000000 0.000000 0.000000 -0.006562 0.000000 0.000000
# 5 0.000000 0.000000 0.000000 0.000000 0.029487 0.000000
# 6 0.000000 0.000000 0.000000 0.000000 0.000000 0.035758
#
#
# Mechanical properties :
#
#
# Convention : Reuss Voigt Hill
#
# Bulk Modulus (GPa) = 38.91905 41.31644 40.11775
# Shear Modulus (GPa) = 43.57310 -2.46837 20.55237
#
# Velocity S-wave (km/s) = 4.38543 -1.04378 3.01186
# Velocity P-wave (km/s) = 6.54374 4.09675 5.45912
#
# Compressibility (1/GPa) = 0.02569436
#
# Stress axis : x y z
#
# Youngs Moduli (GPa) = 89.03537 83.87397 74.38550
#
# Poissons Ratio (x) = 0.30234 -0.13714
# Poissons Ratio (y) = 0.32095 0.27452
# Poissons Ratio (z) = -0.16415 0.30954
#
# Static dielectric constant tensor:
#      x y z
#    x 7.967330 0.000000 0.000000 
#    y 0.000000 4.130320 0.000000 
#    z 0.000000 0.000000 4.349820 
# 
# 
# High freq. dielectric constant tensor:
#      x y z
#    x 1.892070 0.000000 0.000000 
#    y 0.000000 1.899980 0.000000 
#    z 0.000000 0.000000 1.911300 
# 
# From -- ./inp_files/23630.got.cif
#   From: 2010.03.12/outbox.cif.g09.slc.cpg/sg24_12_cif.got.tgz:23630.got - 2010.04.14 03:06:53.
