data_PCOD8166367
_publ_section_title
;
Structure prediction by ZEFSAII (Michael W. Deem and Ramdas Pophale) SiO2 
 PCOD8166367
Probable space group: P M M 2
;
_chemical_formula_sum "Si O2"
_cell_formula_units_Z 32
_cell_length_a 8.926308
_cell_length_b 14.151956
_cell_length_c 15.506445
_cell_angle_alpha 90.000000
_cell_angle_beta 90.000000
_cell_angle_gamma 90.000000
_cell_volume 1958.847293
_symmetry_space_group_name_H-M "P M M 2"
_symmetry_group_IT_number 25
_symmetry_cell_setting 'orthorhombic'
loop_
_space_group_symop_operation_xyz
x,y,z
-x,-y,z
-x,y,z
x,-y,z
loop_
_atom_site_type_symbol
_atom_site_label
_atom_site_fract_x
_atom_site_fract_y
_atom_site_fract_z
Si Si1 0.324671 0.110304 0.419830
Si Si2 0.170964 0.605697 0.826334
Si Si3 0.324088 0.891429 0.073184
Si Si4 0.674606 0.607757 0.648103
Si Si5 0.822221 0.894371 0.742507
Si Si6 0.831546 0.887877 0.246357
Si Si7 0.822346 0.781697 0.576283
Si Si8 0.826137 0.207679 0.915916
O O1 0.500000 0.130548 0.423549
O O2 0.262972 0.147382 0.328300
O O3 0.241731 0.168784 0.492524
O O4 0.288099 0.000000 0.433310
O O5 0.200262 0.500000 0.862384
O O6 0.276267 0.628599 0.745887
O O7 0.201412 0.680104 0.902962
O O8 0.000000 0.617460 0.793392
O O9 0.500000 0.882553 0.086609
O O10 0.245571 0.851134 0.159007
O O11 0.277231 0.000000 0.054819
O O12 0.273326 0.826514 0.994651
O O13 0.500000 0.629269 0.640360
O O14 0.712775 0.500000 0.623041
O O15 0.763357 0.674418 0.581719
O O16 0.761284 0.837228 0.660261
O O17 0.768576 0.845055 0.830176
O O18 0.000000 0.896457 0.739185
O O19 0.755482 0.000000 0.739410
O O20 0.000000 0.847392 0.251905
O O21 0.832352 0.000000 0.244989
O O22 0.000000 0.782090 0.570677
O O23 0.000000 0.184748 0.934647
#
# Coordination Sequence:
#
# PCOD8166367 Si02
#       8
#     4   4   4   4   4   4   4   4
#     4  10  20  33  49  72 103 134 162 198 243 289
#     4   9  17  31  50  70  92 120 159 205 248 289
#     4  10  20  32  46  68  98 129 160 198 242 285
#     4  10  20  33  49  69  94 124 159 204 255 299
#     4   9  17  28  42  63  93 127 162 197 231 270
#     4   9  17  31  51  72  93 123 163 203 240 282
#     4  11  20  32  49  70  96 130 169 205 240 285
#     4  10  18  30  47  68  93 126 163 198 238 285
#
# _framework density 16.336137999999998
#
# number of rings (size 3 to 8) (size 9 to 14) (size 15 to 20)
#    0.000    2.250    1.250    2.625    0.000    5.250 
#    0.000    0.000    0.000    2.250    0.000    0.875 
#    0.000    5.000    0.000    0.000    0.000    0.000 
#
# Total GULP energy -396828.997046 kJ/mol
# GULP energy per Si atom -12400.906158 kJ/mol
# Density = 1.629896 g / cm^3
# Si number density = 16.336138 Si / 1000 Ang^3
#
#
#
# Elastic Constant Matrix: (Units=GPa)
#
#
# Indices 1 2 3 4 5 6 
#
# 1 77.2134 40.7662 48.2231 0.0000 0.0000 0.0000
# 2 40.7662 90.7329 51.8475 0.0000 0.0000 0.0000
# 3 48.2231 51.8475 120.2307 0.0000 0.0000 0.0000
# 4 0.0000 0.0000 0.0000 9.9133 0.0000 0.0000
# 5 0.0000 0.0000 0.0000 0.0000 26.9616 0.0000
# 6 0.0000 0.0000 0.0000 0.0000 0.0000 21.4690
#
#
#
# Elastic Compliance Matrix: (Units=1/GPa)
#
#
# Indices 1 2 3 4 5 6 
#
# 1 0.019216 -0.005613 -0.005287 0.000000 0.000000 0.000000
# 2 -0.005613 0.016265 -0.004763 0.000000 0.000000 0.000000
# 3 -0.005287 -0.004763 0.012492 0.000000 0.000000 0.000000
# 4 0.000000 0.000000 0.000000 0.100875 0.000000 0.000000
# 5 0.000000 0.000000 0.000000 0.000000 0.037090 0.000000
# 6 0.000000 0.000000 0.000000 0.000000 0.000000 0.046579
#
#
# Mechanical properties :
#
#
# Convention : Reuss Voigt Hill
#
# Bulk Modulus (GPa) = 60.06762 63.31674 61.69218
# Shear Modulus (GPa) = 18.56040 21.49145 20.02593
#
# Velocity S-wave (km/s) = 3.37435 3.63102 3.50504
# Velocity P-wave (km/s) = 7.21327 7.51145 7.36387
#
# Compressibility (1/GPa) = 0.01664791
#
# Stress axis : x y z
#
# Youngs Moduli (GPa) = 52.03866 61.48286 80.05274
#
# Poissons Ratio (x) = 0.34509 0.42325
# Poissons Ratio (y) = 0.29208 0.38127
# Poissons Ratio (z) = 0.27513 0.29282
#
# Static dielectric constant tensor:
#      x y z
#    x 3.079270 0.000000 0.000000 
#    y 0.000000 3.128380 0.000000 
#    z 0.000000 0.000000 3.040350 
# 
# 
# High freq. dielectric constant tensor:
#      x y z
#    x 1.629750 0.000000 0.000000 
#    y 0.000000 1.610960 0.000000 
#    z 0.000000 0.000000 1.616360 
# 
# From -- ./inp_files/5669.got.cif
#   From: 2010.03.12/outbox.cif.g09.slc.cpg/sg25_3_cif.got.tgz:5669.got - 2010.04.14 03:30:10.
