data_PCOD8166460
_publ_section_title
;
Structure prediction by ZEFSAII (Michael W. Deem and Ramdas Pophale) SiO2 
 PCOD8166460
Probable space group: P M M 2
;
_chemical_formula_sum "Si O2"
_cell_formula_units_Z 32
_cell_length_a 8.372055
_cell_length_b 36.211050
_cell_length_c 5.231235
_cell_angle_alpha 90.000000
_cell_angle_beta 90.000000
_cell_angle_gamma 90.000000
_cell_volume 1585.905922
_symmetry_space_group_name_H-M "P M M 2"
_symmetry_group_IT_number 25
_symmetry_cell_setting 'orthorhombic'
loop_
_space_group_symop_operation_xyz
x,y,z
-x,-y,z
-x,y,z
x,-y,z
loop_
_atom_site_type_symbol
_atom_site_label
_atom_site_fract_x
_atom_site_fract_y
_atom_site_fract_z
Si Si1 0.810738 0.333659 0.695880
Si Si2 0.690255 0.458376 0.195847
Si Si3 0.809525 0.083503 0.695978
Si Si4 0.689614 0.416285 0.695844
Si Si5 0.190487 0.292183 0.195883
Si Si6 0.190477 0.833046 0.695976
Si Si7 0.190475 0.041725 0.195978
Si Si8 0.190467 0.791272 0.195975
O O1 0.754939 0.375354 0.695940
O O2 0.742719 0.313083 0.445602
O O3 0.000000 0.332186 0.695878
O O4 0.742722 0.313070 0.946111
O O5 0.500000 0.459082 0.195861
O O6 0.757771 0.500000 0.195910
O O7 0.755061 0.437411 0.446205
O O8 0.755051 0.437429 0.945414
O O9 0.743744 0.125229 0.695962
O O10 0.743801 0.062613 0.445983
O O11 0.000000 0.083529 0.695981
O O12 0.743800 0.062616 0.945984
O O13 0.500000 0.415328 0.695833
O O14 0.256234 0.250454 0.195943
O O15 0.000000 0.292064 0.195885
O O16 0.256219 0.812151 0.446003
O O17 0.000000 0.833070 0.695972
O O18 0.256217 0.812157 0.945971
O O19 0.000000 0.041698 0.195979
O O20 0.256261 0.000000 0.195969
O O21 0.000000 0.791278 0.195981
#
# Coordination Sequence:
#
# PCOD8166460 Si02
#       8
#     4   4   4   4   4   4   4   4
#     4  10  19  31  46  64  88 116 143 172 208 248
#     4   9  17  30  49  71  92 115 145 179 212 247
#     4   9  15  21  27  36  49  65  89 122 166 217
#     4  10  19  31  49  71  92 115 145 179 212 247
#     4   9  17  28  42  59  79 106 137 165 195 240
#     4   9  15  21  30  43  59  78 100 135 180 223
#     4   9  15  21  27  33  43  62  89 122 161 212
#     4   9  15  23  34  48  65  85 112 143 177 220
#
# _framework density 20.177743
#
# number of rings (size 3 to 8) (size 9 to 14) (size 15 to 20)
#    0.000    2.750    0.000    3.000    0.000    9.000 
#    0.000    0.000    0.000    2.250    0.000    0.000 
#    0.000    0.000    0.000    0.000    0.000    0.000 
#
# Total GULP energy -396788.504772 kJ/mol
# GULP energy per Si atom -12399.640774 kJ/mol
# Density = 2.013182 g / cm^3
# Si number density = 20.177743 Si / 1000 Ang^3
#
#
#
# Elastic Constant Matrix: (Units=GPa)
#
#
# Indices 1 2 3 4 5 6 
#
# 1 -0.0004 -3.9602 2.5064 0.0000 0.0000 0.0000
# 2 -3.9602 217.1183 126.2074 0.0000 0.0000 0.0000
# 3 2.5064 126.2074 239.0182 0.0000 0.0000 0.0000
# 4 0.0000 0.0000 0.0000 52.3961 0.0000 0.0000
# 5 0.0000 0.0000 0.0000 0.0000 2.4273 0.0000
# 6 0.0000 0.0000 0.0000 0.0000 0.0000 -24.1764
#
#
#
# Elastic Compliance Matrix: (Units=1/GPa)
#
#
# Indices 1 2 3 4 5 6 
#
# 1 -4.712871 -0.165480 0.136798 0.000000 0.000000 0.000000
# 2 -0.165480 0.000835 0.001294 0.000000 0.000000 0.000000
# 3 0.136798 0.001294 0.002066 0.000000 0.000000 0.000000
# 4 0.000000 0.000000 0.000000 0.019085 0.000000 0.000000
# 5 0.000000 0.000000 0.000000 0.000000 0.411984 0.000000
# 6 0.000000 0.000000 0.000000 0.000000 0.000000 -0.041363
#
#
# Mechanical properties :
#
#
# Convention : Reuss Voigt Hill
#
# Bulk Modulus (GPa) = -0.20987 78.40483 39.09748
# Shear Modulus (GPa) = -0.85416 28.22157 13.68371
#
# Velocity S-wave (km/s) = -0.65133 3.74391 2.60697
# Velocity P-wave (km/s) = 0.81846 7.59148 5.33670
#
# Compressibility (1/GPa) = -4.76474563
#
# Stress axis : x y z
#
# Youngs Moduli (GPa) = -0.21218 1197.49600 484.06637
#
# Poissons Ratio (x) = 198.16218 -66.21943
# Poissons Ratio (y) = -0.03511 -0.62655
# Poissons Ratio (z) = 0.02903 -1.54996
#
# Static dielectric constant tensor:
#      x y z
#    x 2.756290 0.000000 0.000000 
#    y 0.000000 3.982060 0.000000 
#    z 0.000000 0.000000 4.076980 
# 
# 
# High freq. dielectric constant tensor:
#      x y z
#    x 1.698370 0.000000 0.000000 
#    y 0.000000 1.808180 0.000000 
#    z 0.000000 0.000000 1.810290 
# 
# From -- ./inp_files/378.got.cif
#   From: 2010.03.12/outbox.cif.g09.slc.cpg/sg25_1_cif.got.tgz:378.got - 2010.04.14 03:30:10.
