data_PCOD8166738
_publ_section_title
;
Structure prediction by ZEFSAII (Michael W. Deem and Ramdas Pophale) SiO2 
 PCOD8166738
Probable space group: P M M 2
;
_chemical_formula_sum "Si O2"
_cell_formula_units_Z 24
_cell_length_a 12.550218
_cell_length_b 8.769646
_cell_length_c 11.656317
_cell_angle_alpha 90.000000
_cell_angle_beta 90.000000
_cell_angle_gamma 90.000000
_cell_volume 1282.905545
_symmetry_space_group_name_H-M "P M M 2"
_symmetry_group_IT_number 25
_symmetry_cell_setting 'orthorhombic'
loop_
_space_group_symop_operation_xyz
x,y,z
-x,-y,z
-x,y,z
x,-y,z
loop_
_atom_site_type_symbol
_atom_site_label
_atom_site_fract_x
_atom_site_fract_y
_atom_site_fract_z
Si Si1 0.306152 0.320683 0.099760
Si Si2 0.623153 0.821793 0.330281
Si Si3 0.305278 0.676168 0.558147
Si Si4 0.500000 0.324647 0.722536
Si Si5 0.121352 0.675975 0.726042
Si Si6 0.500000 0.178554 0.964215
Si Si7 0.876724 0.177541 0.963236
O O1 0.318185 0.500000 0.090618
O O2 0.318494 0.270231 0.230643
O O3 0.395060 0.245462 0.020995
O O4 0.190094 0.270547 0.056482
O O5 0.500000 0.770967 0.337300
O O6 0.682052 0.782400 0.448150
O O7 0.633502 0.000000 0.304971
O O8 0.310880 0.500000 0.519760
O O9 0.396743 0.713923 0.648730
O O10 0.192884 0.717903 0.616494
O O11 0.500000 0.500000 0.764067
O O12 0.500000 0.214006 0.830358
O O13 0.137719 0.500000 0.760702
O O14 0.157326 0.775340 0.834851
O O15 0.000000 0.711445 0.691012
O O16 0.500000 0.000000 0.985729
O O17 0.000000 0.218368 0.984171
O O18 0.853328 0.000000 0.978987
#
# Coordination Sequence:
#
# PCOD8166738 Si02
#       7
#     4   4   4   2   4   2   4
#     4  12  24  39  61  85 114 153 197 239 288 349
#     4  11  23  39  59  82 112 150 193 241 294 347
#     4  10  20  35  56  81 112 149 191 237 284 338
#     4  10  20  33  52  81 114 147 187 233 285 342
#     4   9  18  34  57  85 117 154 194 234 281 340
#     4  12  24  37  56  85 120 151 187 239 295 348
#     4  10  21  38  61  89 121 155 192 239 294 346
#
# _framework density 18.707533000000002
#
# number of rings (size 3 to 8) (size 9 to 14) (size 15 to 20)
#    0.000    1.500    1.667    4.250    0.000    4.333 
#    0.000    0.833    0.000    3.000    0.000    0.000 
#    0.000    0.000    0.000    0.000    0.000    0.000 
#
# Total GULP energy -297750.773365 kJ/mol
# GULP energy per Si atom -12406.282224 kJ/mol
# Density = 1.866495 g / cm^3
# Si number density = 18.707533 Si / 1000 Ang^3
#
#
#
# Elastic Constant Matrix: (Units=GPa)
#
#
# Indices 1 2 3 4 5 6 
#
# 1 103.3330 46.3118 60.9283 0.0000 0.0000 0.0000
# 2 46.3118 111.1275 56.7436 0.0000 0.0000 0.0000
# 3 60.9283 56.7436 122.3218 0.0000 0.0000 0.0000
# 4 0.0000 0.0000 0.0000 19.6675 0.0000 0.0000
# 5 0.0000 0.0000 0.0000 0.0000 91.6896 0.0000
# 6 0.0000 0.0000 0.0000 0.0000 0.0000 23.6449
#
#
#
# Elastic Compliance Matrix: (Units=1/GPa)
#
#
# Indices 1 2 3 4 5 6 
#
# 1 0.014463 -0.003078 -0.005776 0.000000 0.000000 0.000000
# 2 -0.003078 0.012447 -0.004241 0.000000 0.000000 0.000000
# 3 -0.005776 -0.004241 0.013019 0.000000 0.000000 0.000000
# 4 0.000000 0.000000 0.000000 0.050845 0.000000 0.000000
# 5 0.000000 0.000000 0.000000 0.000000 0.010906 0.000000
# 6 0.000000 0.000000 0.000000 0.000000 0.000000 0.042292
#
#
# Mechanical properties :
#
#
# Convention : Reuss Voigt Hill
#
# Bulk Modulus (GPa) = 72.78331 73.86106 73.32218
# Shear Modulus (GPa) = 28.61357 38.52031 33.56694
#
# Velocity S-wave (km/s) = 3.91515 4.54263 4.24051
# Velocity P-wave (km/s) = 7.70897 8.19034 7.95330
#
# Compressibility (1/GPa) = 0.01373941
#
# Stress axis : x y z
#
# Youngs Moduli (GPa) = 69.14381 80.34194 76.80814
#
# Poissons Ratio (x) = 0.24728 0.44364
# Poissons Ratio (y) = 0.21282 0.32573
# Poissons Ratio (z) = 0.39938 0.34072
#
# Static dielectric constant tensor:
#      x y z
#    x 3.552450 0.000000 0.000000 
#    y 0.000000 3.505220 0.000000 
#    z 0.000000 0.000000 3.387940 
# 
# 
# High freq. dielectric constant tensor:
#      x y z
#    x 1.730260 0.000000 0.000000 
#    y 0.000000 1.731500 0.000000 
#    z 0.000000 0.000000 1.725200 
# 
# From -- ./inp_files/4557.got.cif
#   From: 2010.03.12/outbox.cif.g09.slc.cpg/sg25_3_cif.got.tgz:4557.got - 2010.04.14 03:30:10.
