data_PCOD8166403
_publ_section_title
;
Structure prediction by ZEFSAII (Michael W. Deem and Ramdas Pophale) SiO2 
 PCOD8166403
Probable space group: P M M 2
;
_chemical_formula_sum "Si O2"
_cell_formula_units_Z 24
_cell_length_a 8.897506
_cell_length_b 12.713813
_cell_length_c 11.770936
_cell_angle_alpha 90.000000
_cell_angle_beta 90.000000
_cell_angle_gamma 90.000000
_cell_volume 1331.542729
_symmetry_space_group_name_H-M "P M M 2"
_symmetry_group_IT_number 25
_symmetry_cell_setting 'orthorhombic'
loop_
_space_group_symop_operation_xyz
x,y,z
-x,-y,z
-x,y,z
x,-y,z
loop_
_atom_site_type_symbol
_atom_site_label
_atom_site_fract_x
_atom_site_fract_y
_atom_site_fract_z
Si Si1 0.821601 0.500000 0.260291
Si Si2 0.178572 0.500000 0.003836
Si Si3 0.821338 0.884313 0.246356
Si Si4 0.323657 0.690020 0.871425
Si Si5 0.178723 0.697976 0.400706
Si Si6 0.323759 0.379770 0.620979
Si Si7 0.824912 0.121915 0.990123
O O1 0.760393 0.500000 0.132505
O O2 0.759851 0.398696 0.326299
O O3 0.000000 0.500000 0.259148
O O4 0.000000 0.500000 0.998667
O O5 0.237855 0.604833 0.945899
O O6 0.758970 0.802829 0.339276
O O7 0.000000 0.886226 0.248101
O O8 0.758127 0.000000 0.277183
O O9 0.771839 0.852669 0.118858
O O10 0.500000 0.675913 0.891418
O O11 0.280980 0.671463 0.740758
O O12 0.271892 0.806871 0.905130
O O13 0.242902 0.691263 0.527026
O O14 0.000000 0.698162 0.407332
O O15 0.500000 0.376963 0.598887
O O16 0.264343 0.500000 0.616920
O O17 0.000000 0.148968 0.974649
O O18 0.794104 0.000000 0.960951
#
# Coordination Sequence:
#
# PCOD8166403 Si02
#       7
#     2   2   4   4   4   4   4
#     4   9  18  30  47  76 106 129 158 211 274 317
#     4  11  21  34  55  80 108 139 174 219 270 323
#     4   8  15  30  53  79 108 139 167 207 265 316
#     4  11  22  37  54  76 109 144 180 221 270 322
#     4  10  18  31  53  78 102 129 173 218 255 308
#     4  10  21  38  53  68 101 145 179 213 263 315
#     4   9  18  35  59  84 109 140 179 219 263 319
#
# _framework density 18.024204999999998
#
# number of rings (size 3 to 8) (size 9 to 14) (size 15 to 20)
#    0.000    2.333    1.667    2.750    0.000    4.333 
#    0.000    5.000    0.000    4.500    0.000    0.000 
#    0.000    0.000    0.000    0.000    0.000    0.000 
#
# Total GULP energy -297603.940531 kJ/mol
# GULP energy per Si atom -12400.164189 kJ/mol
# Density = 1.798318 g / cm^3
# Si number density = 18.024205 Si / 1000 Ang^3
#
#
#
# Elastic Constant Matrix: (Units=GPa)
#
#
# Indices 1 2 3 4 5 6 
#
# 1 36.0743 27.4759 38.7977 0.0000 0.0000 0.0000
# 2 27.4759 125.5328 78.1915 0.0000 0.0000 0.0000
# 3 38.7977 78.1915 147.4427 0.0000 0.0000 0.0000
# 4 0.0000 0.0000 0.0000 26.0728 0.0000 0.0000
# 5 0.0000 0.0000 0.0000 0.0000 -15.6156 0.0000
# 6 0.0000 0.0000 0.0000 0.0000 0.0000 21.7518
#
#
#
# Elastic Compliance Matrix: (Units=1/GPa)
#
#
# Indices 1 2 3 4 5 6 
#
# 1 0.039528 -0.003245 -0.008680 0.000000 0.000000 0.000000
# 2 -0.003245 0.012162 -0.005596 0.000000 0.000000 0.000000
# 3 -0.008680 -0.005596 0.012034 0.000000 0.000000 0.000000
# 4 0.000000 0.000000 0.000000 0.038354 0.000000 0.000000
# 5 0.000000 0.000000 0.000000 0.000000 -0.064039 0.000000
# 6 0.000000 0.000000 0.000000 0.000000 0.000000 0.045973
#
#
# Mechanical properties :
#
#
# Convention : Reuss Voigt Hill
#
# Bulk Modulus (GPa) = 34.86577 66.44222 50.65400
# Shear Modulus (GPa) = 38.87589 17.41412 28.14500
#
# Velocity S-wave (km/s) = 4.64925 3.11167 3.95588
# Velocity P-wave (km/s) = 6.94309 7.06065 7.00212
#
# Compressibility (1/GPa) = 0.02868142
#
# Stress axis : x y z
#
# Youngs Moduli (GPa) = 25.29877 82.22526 83.09800
#
# Poissons Ratio (x) = 0.26680 0.72133
# Poissons Ratio (y) = 0.08209 0.46500
# Poissons Ratio (z) = 0.21960 0.46011
#
# Static dielectric constant tensor:
#      x y z
#    x 3.017760 0.000000 0.000000 
#    y 0.000000 3.560560 0.000000 
#    z 0.000000 0.000000 3.406240 
# 
# 
# High freq. dielectric constant tensor:
#      x y z
#    x 1.669870 0.000000 0.000000 
#    y 0.000000 1.703620 0.000000 
#    z 0.000000 0.000000 1.701060 
# 
# From -- ./inp_files/3953.got.cif
#   From: 2010.03.12/outbox.cif.g09.slc.cpg/sg25_2_cif.got.tgz:3953.got - 2010.04.14 03:30:10.
