data_PCOD8166750
_publ_section_title
;
Structure prediction by ZEFSAII (Michael W. Deem and Ramdas Pophale) SiO2 
 PCOD8166750
Probable space group: P M M 2
;
_chemical_formula_sum "Si O2"
_cell_formula_units_Z 32
_cell_length_a 8.699559
_cell_length_b 14.082214
_cell_length_c 15.381612
_cell_angle_alpha 90.000000
_cell_angle_beta 90.000000
_cell_angle_gamma 90.000000
_cell_volume 1884.386697
_symmetry_space_group_name_H-M "P M M 2"
_symmetry_group_IT_number 25
_symmetry_cell_setting 'orthorhombic'
loop_
_space_group_symop_operation_xyz
x,y,z
-x,-y,z
-x,y,z
x,-y,z
loop_
_atom_site_type_symbol
_atom_site_label
_atom_site_fract_x
_atom_site_fract_y
_atom_site_fract_z
Si Si1 0.322300 0.107252 0.530670
Si Si2 0.322522 0.611521 0.748330
Si Si3 0.172523 0.612698 0.925071
Si Si4 0.677357 0.892624 0.328083
Si Si5 0.680032 0.391735 0.101159
Si Si6 0.821877 0.288470 0.262018
Si Si7 0.322583 0.388702 0.423938
Si Si8 0.178455 0.291380 0.587248
O O1 0.500000 0.121108 0.555375
O O2 0.296776 0.129203 0.429333
O O3 0.219121 0.179550 0.586042
O O4 0.269678 0.000000 0.552494
O O5 0.500000 0.635820 0.731787
O O6 0.290015 0.500000 0.737157
O O7 0.276173 0.647022 0.844465
O O8 0.216566 0.667821 0.681465
O O9 0.175752 0.500000 0.929348
O O10 0.000000 0.651424 0.912828
O O11 0.240265 0.652185 0.015448
O O12 0.500000 0.876219 0.303809
O O13 0.782564 0.822654 0.271850
O O14 0.727225 0.000000 0.306136
O O15 0.500000 0.387053 0.085525
O O16 0.733620 0.500000 0.118300
O O17 0.723787 0.329646 0.183557
O O18 0.782067 0.343287 0.350094
O O19 0.000000 0.301322 0.240864
O O20 0.500000 0.365028 0.403784
O O21 0.291703 0.500000 0.426256
O O22 0.280283 0.346619 0.517128
O O23 0.000000 0.306375 0.566547
#
# Coordination Sequence:
#
# PCOD8166750 Si02
#       8
#     4   4   4   4   4   4   4   4
#     4   9  18  34  55  74  95 128 168 209 252 300
#     4  10  20  34  52  73 100 137 176 209 245 297
#     4   9  17  31  51  75 102 129 162 211 261 297
#     4   9  18  34  55  74  95 128 168 209 252 300
#     4  10  20  34  52  73 100 137 176 209 245 297
#     4  12  23  33  49  75 103 132 166 209 256 299
#     4  11  23  37  50  65  94 137 177 208 242 293
#     4  12  23  33  49  75 103 132 166 209 256 299
#
# _framework density 16.981652
#
# number of rings (size 3 to 8) (size 9 to 14) (size 15 to 20)
#    0.000    1.750    1.250    5.250    0.000    7.500 
#    0.000    1.250    0.000    0.000    0.000    0.875 
#    0.000    7.000    0.000    0.000    0.000    0.000 
#
# Total GULP energy -396907.954106 kJ/mol
# GULP energy per Si atom -12403.373566 kJ/mol
# Density = 1.694300 g / cm^3
# Si number density = 16.981652 Si / 1000 Ang^3
#
#
#
# Elastic Constant Matrix: (Units=GPa)
#
#
# Indices 1 2 3 4 5 6 
#
# 1 63.2677 28.7324 12.2850 0.0000 0.0000 0.0000
# 2 28.7324 76.6653 31.1668 0.0000 0.0000 0.0000
# 3 12.2850 31.1668 83.0871 0.0000 0.0000 0.0000
# 4 0.0000 0.0000 0.0000 3.4770 0.0000 0.0000
# 5 0.0000 0.0000 0.0000 0.0000 30.4522 0.0000
# 6 0.0000 0.0000 0.0000 0.0000 0.0000 20.5943
#
#
#
# Elastic Compliance Matrix: (Units=1/GPa)
#
#
# Indices 1 2 3 4 5 6 
#
# 1 0.019050 -0.007073 -0.000164 0.000000 0.000000 0.000000
# 2 -0.007073 0.018017 -0.005713 0.000000 0.000000 0.000000
# 3 -0.000164 -0.005713 0.014203 0.000000 0.000000 0.000000
# 4 0.000000 0.000000 0.000000 0.287601 0.000000 0.000000
# 5 0.000000 0.000000 0.000000 0.000000 0.032838 0.000000
# 6 0.000000 0.000000 0.000000 0.000000 0.000000 0.048557
#
#
# Mechanical properties :
#
#
# Convention : Reuss Voigt Hill
#
# Bulk Modulus (GPa) = 39.41478 40.82095 40.11786
# Shear Modulus (GPa) = 10.99818 20.96042 15.97930
#
# Velocity S-wave (km/s) = 2.54766 3.51707 3.07086
# Velocity P-wave (km/s) = 5.64931 6.37052 6.02072
#
# Compressibility (1/GPa) = 0.02537119
#
# Stress axis : x y z
#
# Youngs Moduli (GPa) = 52.49423 55.50378 70.40984
#
# Poissons Ratio (x) = 0.39257 0.01151
# Poissons Ratio (y) = 0.37129 0.40222
# Poissons Ratio (z) = 0.00858 0.31707
#
# Static dielectric constant tensor:
#      x y z
#    x 3.196690 0.000000 0.000000 
#    y 0.000000 3.118670 0.000000 
#    z 0.000000 0.000000 3.120040 
# 
# 
# High freq. dielectric constant tensor:
#      x y z
#    x 1.664540 0.000000 0.000000 
#    y 0.000000 1.635620 0.000000 
#    z 0.000000 0.000000 1.642860 
# 
# From -- ./inp_files/5748.got.cif
#   From: 2010.03.12/outbox.cif.g09.slc.cpg/sg25_3_cif.got.tgz:5748.got - 2010.04.14 03:30:10.
