data_PCOD8166227
_publ_section_title
;
Structure prediction by ZEFSAII (Michael W. Deem and Ramdas Pophale) SiO2 
 PCOD8166227
Probable space group: I 21 21 21
;
_chemical_formula_sum "Si O2"
_cell_formula_units_Z 32
_cell_length_a 15.902454
_cell_length_b 7.030141
_cell_length_c 13.090661
_cell_angle_alpha 90.000000
_cell_angle_beta 90.000000
_cell_angle_gamma 90.000000
_cell_volume 1463.490002
_symmetry_space_group_name_H-M "I 21 21 21"
_symmetry_group_IT_number 24
_symmetry_cell_setting 'orthorhombic'
loop_
_space_group_symop_operation_xyz
x,y,z
-x,1/2-y,z
x,-y,1/2-z
1/2-x,y,-z
1/2+x,1/2+y,1/2+z
1/2-x,-y,1/2+z
1/2+x,1/2-y,-z
-x,1/2+y,1/2-z
loop_
_atom_site_type_symbol
_atom_site_label
_atom_site_fract_x
_atom_site_fract_y
_atom_site_fract_z
Si Si1 0.778922 0.328829 0.316386
Si Si2 0.412693 0.659793 0.449674
Si Si3 0.662898 0.000000 0.250000
Si Si4 0.063677 0.589827 0.142038
Si Si5 0.250000 0.913362 0.500000
O O1 0.819977 0.500000 0.250000
O O2 0.712809 0.200566 0.253314
O O3 0.844415 0.176406 0.355213
O O4 0.737574 0.441415 0.407799
O O5 0.500000 0.750000 0.409569
O O6 0.387878 0.518692 0.356475
O O7 0.440704 0.559204 0.552587
O O8 0.335051 0.789570 0.490217
O O9 0.037683 0.500000 0.250000
O O10 0.000000 0.750000 0.110083
#
# Coordination Sequence:
#
# PCOD8166227 Si02
#       5
#     8   8   4   8   4
#     4  12  23  44  73 104 142 192 239 298 374 427
#     4  12  27  47  73 109 149 196 249 301 369 441
#     4  12  26  48  72 106 150 190 248 300 364 448
#     4  12  24  44  70 108 148 187 248 311 370 438
#     4  12  24  46  74 102 146 194 250 296 360 442
#
# _framework density 21.865538999999998
#
# number of rings (size 3 to 8) (size 9 to 14) (size 15 to 20)
#    0.000    0.000    3.750    7.500    0.000    3.000 
#    0.000    0.000    0.000    0.000    0.000    0.000 
#    0.000    0.000    0.000    0.000    0.000    0.000 
#
# Total GULP energy -198228.544347 kJ/mol
# GULP energy per Si atom -12389.284022 kJ/mol
# Density = 2.181577 g / cm^3
# Si number density = 21.865539 Si / 1000 Ang^3
#
#
#
# Elastic Constant Matrix: (Units=GPa)
#
#
# Indices 1 2 3 4 5 6 
#
# 1 101.7452 18.5880 9.1263 0.0000 0.0000 0.0000
# 2 18.5880 89.4928 35.6439 0.0000 0.0000 0.0000
# 3 9.1263 35.6439 122.7207 0.0000 0.0000 0.0000
# 4 0.0000 0.0000 0.0000 46.8401 0.0000 0.0000
# 5 0.0000 0.0000 0.0000 0.0000 19.1273 0.0000
# 6 0.0000 0.0000 0.0000 0.0000 0.0000 592.4395
#
#
#
# Elastic Compliance Matrix: (Units=1/GPa)
#
#
# Indices 1 2 3 4 5 6 
#
# 1 0.010219 -0.002058 -0.000162 0.000000 0.000000 0.000000
# 2 -0.002058 0.013050 -0.003637 0.000000 0.000000 0.000000
# 3 -0.000162 -0.003637 0.009217 0.000000 0.000000 0.000000
# 4 0.000000 0.000000 0.000000 0.021349 0.000000 0.000000
# 5 0.000000 0.000000 0.000000 0.000000 0.052281 0.000000
# 6 0.000000 0.000000 0.000000 0.000000 0.000000 0.001688
#
#
# Mechanical properties :
#
#
# Convention : Reuss Voigt Hill
#
# Bulk Modulus (GPa) = 48.14329 48.96388 48.55359
# Shear Modulus (GPa) = 39.54334 148.38807 93.96571
#
# Velocity S-wave (km/s) = 4.25723 8.24689 6.56259
# Velocity P-wave (km/s) = 6.79934 10.63595 8.92621
#
# Compressibility (1/GPa) = 0.02077133
#
# Stress axis : x y z
#
# Youngs Moduli (GPa) = 97.85711 76.62697 108.49381
#
# Poissons Ratio (x) = 0.15769 0.01760
# Poissons Ratio (y) = 0.20138 0.39463
# Poissons Ratio (z) = 0.01588 0.27872
#
# Static dielectric constant tensor:
#      x y z
#    x 3.961750 0.000000 0.000000 
#    y 0.000000 5.500300 0.000000 
#    z 0.000000 0.000000 -13.791550 
# 
# 
# High freq. dielectric constant tensor:
#      x y z
#    x 1.858230 0.000000 0.000000 
#    y 0.000000 1.876060 0.000000 
#    z 0.000000 0.000000 1.880310 
# 
# From -- ./inp_files/3099.got.cif
#   From: 2010.03.12/outbox.cif.g09.slc.cpg/sg24_2_cif.got.tgz:3099.got - 2010.04.14 03:06:53.
