data_PCOD8166571
_publ_section_title
;
Structure prediction by ZEFSAII (Michael W. Deem and Ramdas Pophale) SiO2 
 PCOD8166571
Probable space group: P M M 2
;
_chemical_formula_sum "Si O2"
_cell_formula_units_Z 32
_cell_length_a 9.197627
_cell_length_b 15.335098
_cell_length_c 15.084665
_cell_angle_alpha 90.000000
_cell_angle_beta 90.000000
_cell_angle_gamma 90.000000
_cell_volume 2127.639374
_symmetry_space_group_name_H-M "P M M 2"
_symmetry_group_IT_number 25
_symmetry_cell_setting 'orthorhombic'
loop_
_space_group_symop_operation_xyz
x,y,z
-x,-y,z
-x,y,z
x,-y,z
loop_
_atom_site_type_symbol
_atom_site_label
_atom_site_fract_x
_atom_site_fract_y
_atom_site_fract_z
Si Si1 0.669097 0.904687 0.650510
Si Si2 0.833966 0.719142 0.845966
Si Si3 0.831664 0.738376 0.639558
Si Si4 0.664162 0.396216 0.322495
Si Si5 0.164248 0.603778 0.152780
Si Si6 0.669235 0.601555 0.978355
Si Si7 0.835413 0.907057 0.829849
Si Si8 0.830146 0.400196 0.496438
O O1 0.500000 0.883278 0.649432
O O2 0.750782 0.824842 0.602378
O O3 0.721116 0.908912 0.751313
O O4 0.700106 0.000000 0.605786
O O5 0.794106 0.718772 0.741840
O O6 0.725593 0.653144 0.893093
O O7 0.809669 0.817919 0.885595
O O8 0.000000 0.688200 0.861145
O O9 0.782277 0.655616 0.581631
O O10 0.000000 0.756887 0.626683
O O11 0.500000 0.359793 0.320538
O O12 0.664412 0.500000 0.318289
O O13 0.751163 0.358359 0.238010
O O14 0.742812 0.364388 0.411711
O O15 0.163824 0.500000 0.156259
O O16 0.000000 0.640352 0.152310
O O17 0.245784 0.636032 0.064569
O O18 0.500000 0.620145 0.992960
O O19 0.699559 0.500000 0.961388
O O20 0.000000 0.900335 0.790444
O O21 0.819461 0.000000 0.883515
O O22 0.789065 0.500000 0.517761
O O23 0.000000 0.391006 0.474651
#
# Coordination Sequence:
#
# PCOD8166571 Si02
#       8
#     4   4   4   4   4   4   4   4
#     4   9  16  25  39  59  80 102 130 167 211 253
#     4   9  17  28  42  60  81 108 142 175 206 241
#     4   9  18  30  43  59  80 110 145 177 207 239
#     4   9  16  26  41  61  83 105 130 164 208 252
#     4   9  16  27  44  62  78 100 132 170 210 248
#     4  10  20  31  41  56  81 112 143 174 207 242
#     4   8  14  26  43  60  78 101 130 166 208 250
#     4   9  17  29  43  59  81 110 144 177 205 237
#
# _framework density 15.040144
#
# number of rings (size 3 to 8) (size 9 to 14) (size 15 to 20)
#    0.000    3.000    0.000    2.250    0.000    7.500 
#    0.000    1.250    0.000    1.500    0.000    0.000 
#    0.000    1.000    0.000    5.250    0.000    4.750 
#
# Total GULP energy -396525.174581 kJ/mol
# GULP energy per Si atom -12391.411706 kJ/mol
# Density = 1.500591 g / cm^3
# Si number density = 15.040144 Si / 1000 Ang^3
#
#
#
# Elastic Constant Matrix: (Units=GPa)
#
#
# Indices 1 2 3 4 5 6 
#
# 1 85.7054 45.6566 46.8054 0.0000 0.0000 0.0000
# 2 45.6566 77.2559 45.0821 0.0000 0.0000 0.0000
# 3 46.8054 45.0821 75.8124 0.0000 0.0000 0.0000
# 4 0.0000 0.0000 0.0000 1.4111 0.0000 0.0000
# 5 0.0000 0.0000 0.0000 0.0000 19.1140 0.0000
# 6 0.0000 0.0000 0.0000 0.0000 0.0000 20.2553
#
#
#
# Elastic Compliance Matrix: (Units=1/GPa)
#
#
# Indices 1 2 3 4 5 6 
#
# 1 0.019798 -0.006995 -0.008063 0.000000 0.000000 0.000000
# 2 -0.006995 0.022294 -0.008939 0.000000 0.000000 0.000000
# 3 -0.008063 -0.008939 0.023484 0.000000 0.000000 0.000000
# 4 0.000000 0.000000 0.000000 0.708656 0.000000 0.000000
# 5 0.000000 0.000000 0.000000 0.000000 0.052318 0.000000
# 6 0.000000 0.000000 0.000000 0.000000 0.000000 0.049370
#
#
# Mechanical properties :
#
#
# Convention : Reuss Voigt Hill
#
# Bulk Modulus (GPa) = 56.87607 57.09576 56.98591
# Shear Modulus (GPa) = 5.37766 14.90472 10.14119
#
# Velocity S-wave (km/s) = 1.89296 3.15142 2.59950
# Velocity P-wave (km/s) = 6.53269 7.16147 6.85429
#
# Compressibility (1/GPa) = 0.01758209
#
# Stress axis : x y z
#
# Youngs Moduli (GPa) = 50.51126 44.85552 42.58206
#
# Poissons Ratio (x) = 0.31375 0.34335
# Poissons Ratio (y) = 0.35331 0.38063
# Poissons Ratio (z) = 0.40729 0.40095
#
# Static dielectric constant tensor:
#      x y z
#    x 2.997290 0.000000 0.000000 
#    y 0.000000 3.002640 0.000000 
#    z 0.000000 0.000000 2.707200 
# 
# 
# High freq. dielectric constant tensor:
#      x y z
#    x 1.587470 0.000000 0.000000 
#    y 0.000000 1.554120 0.000000 
#    z 0.000000 0.000000 1.540250 
# 
# From -- ./inp_files/4451.got.cif
#   From: 2010.03.12/outbox.cif.g09.slc.cpg/sg25_3_cif.got.tgz:4451.got - 2010.04.14 03:30:10.
