data_PCOD8166532
_publ_section_title
;
Structure prediction by ZEFSAII (Michael W. Deem and Ramdas Pophale) SiO2 
 PCOD8166532
Probable space group: P M M 2
;
_chemical_formula_sum "Si O2"
_cell_formula_units_Z 20
_cell_length_a 13.040224
_cell_length_b 9.147327
_cell_length_c 9.093202
_cell_angle_alpha 90.000000
_cell_angle_beta 90.000000
_cell_angle_gamma 90.000000
_cell_volume 1084.666170
_symmetry_space_group_name_H-M "P M M 2"
_symmetry_group_IT_number 25
_symmetry_cell_setting 'orthorhombic'
loop_
_space_group_symop_operation_xyz
x,y,z
-x,-y,z
-x,y,z
x,-y,z
loop_
_atom_site_type_symbol
_atom_site_label
_atom_site_fract_x
_atom_site_fract_y
_atom_site_fract_z
Si Si1 0.194252 0.168979 0.803740
Si Si2 0.000000 0.828276 0.610923
Si Si3 0.813047 0.172552 0.143061
Si Si4 0.000000 0.325090 0.303471
Si Si5 0.613401 0.335093 0.145554
Si Si6 0.610964 0.664158 0.796131
O O1 0.097730 0.214733 0.707566
O O2 0.294704 0.243469 0.733120
O O3 0.217315 0.000000 0.795505
O O4 0.173560 0.214272 0.972057
O O5 0.000000 0.725076 0.471194
O O6 0.000000 0.000000 0.567904
O O7 0.899422 0.260488 0.228174
O O8 0.701615 0.225141 0.203045
O O9 0.825093 0.000000 0.171860
O O10 0.000000 0.500000 0.292243
O O11 0.500000 0.286168 0.202917
O O12 0.637173 0.500000 0.200120
O O13 0.613083 0.331333 0.970896
O O14 0.500000 0.725821 0.742036
O O15 0.624301 0.500000 0.738128
#
# Coordination Sequence:
#
# PCOD8166532 Si02
#       6
#     4   2   4   2   4   4
#     4   9  18  32  53  78 102 130 165 204 247 297
#     4  10  21  38  54  70  98 132 165 208 258 300
#     4  10  19  33  54  79 105 133 167 207 251 299
#     4  12  25  38  52  72  98 132 173 212 256 306
#     4   8  14  26  45  72 106 138 166 200 243 290
#     4   8  14  25  43  70 104 136 163 196 240 287
#
# _framework density 18.438853000000002
#
# number of rings (size 3 to 8) (size 9 to 14) (size 15 to 20)
#    0.000    2.800    0.000    3.300    0.000    4.000 
#    0.000    5.000    0.000    1.200    0.000    5.600 
#    0.000    0.000    0.000    0.000    0.000    0.000 
#
# Total GULP energy -247880.843787 kJ/mol
# GULP energy per Si atom -12394.042189 kJ/mol
# Density = 1.839689 g / cm^3
# Si number density = 18.438853 Si / 1000 Ang^3
#
#
#
# Elastic Constant Matrix: (Units=GPa)
#
#
# Indices 1 2 3 4 5 6 
#
# 1 196.7152 84.8277 55.9473 0.0000 0.0000 0.0000
# 2 84.8277 95.5170 43.7743 0.0000 0.0000 0.0000
# 3 55.9473 43.7743 53.8164 0.0000 0.0000 0.0000
# 4 0.0000 0.0000 0.0000 19.1721 0.0000 0.0000
# 5 0.0000 0.0000 0.0000 0.0000 -5.2027 0.0000
# 6 0.0000 0.0000 0.0000 0.0000 0.0000 39.8891
#
#
#
# Elastic Compliance Matrix: (Units=1/GPa)
#
#
# Indices 1 2 3 4 5 6 
#
# 1 0.008869 -0.005821 -0.004486 0.000000 0.000000 0.000000
# 2 -0.005821 0.020512 -0.010633 0.000000 0.000000 0.000000
# 3 -0.004486 -0.010633 0.031894 0.000000 0.000000 0.000000
# 4 0.000000 0.000000 0.000000 0.052159 0.000000 0.000000
# 5 0.000000 0.000000 0.000000 0.000000 -0.192206 0.000000
# 6 0.000000 0.000000 0.000000 0.000000 0.000000 0.025070
#
#
# Mechanical properties :
#
#
# Convention : Reuss Voigt Hill
#
# Bulk Modulus (GPa) = 51.55748 79.46080 65.50914
# Shear Modulus (GPa) = -933.23445 21.53830 -455.84808
#
# Velocity S-wave (km/s) = -22.52160 3.42145 -15.74034
# Velocity P-wave (km/s) = 25.46124 7.66787 17.16797
#
# Compressibility (1/GPa) = 0.01939583
#
# Stress axis : x y z
#
# Youngs Moduli (GPa) = 112.74648 48.75220 31.35404
#
# Poissons Ratio (x) = 0.28379 0.14065
# Poissons Ratio (y) = 0.65631 0.33338
# Poissons Ratio (z) = 0.50575 0.51837
#
# Static dielectric constant tensor:
#      x y z
#    x 4.019210 0.000000 0.000000 
#    y 0.000000 3.426810 0.000000 
#    z 0.000000 0.000000 3.081120 
# 
# 
# High freq. dielectric constant tensor:
#      x y z
#    x 1.739640 0.000000 0.000000 
#    y 0.000000 1.710360 0.000000 
#    z 0.000000 0.000000 1.664150 
# 
# From -- ./inp_files/3015.got.cif
#   From: 2010.03.12/outbox.cif.g09.slc.cpg/sg25_2_cif.got.tgz:3015.got - 2010.04.14 03:30:10.
