data_PCOD8166714
_publ_section_title
;
Structure prediction by ZEFSAII (Michael W. Deem and Ramdas Pophale) SiO2 
 PCOD8166714
Probable space group: P M M 2
;
_chemical_formula_sum "Si O2"
_cell_formula_units_Z 32
_cell_length_a 9.153628
_cell_length_b 9.149125
_cell_length_c 20.561197
_cell_angle_alpha 90.000000
_cell_angle_beta 90.000000
_cell_angle_gamma 90.000000
_cell_volume 1721.952686
_symmetry_space_group_name_H-M "P M M 2"
_symmetry_group_IT_number 25
_symmetry_cell_setting 'orthorhombic'
loop_
_space_group_symop_operation_xyz
x,y,z
-x,-y,z
-x,y,z
x,-y,z
loop_
_atom_site_type_symbol
_atom_site_label
_atom_site_fract_x
_atom_site_fract_y
_atom_site_fract_z
Si Si1 0.826144 0.664908 0.643760
Si Si2 0.830680 0.330370 0.391263
Si Si3 0.167675 0.828120 0.147024
Si Si4 0.831845 0.668791 0.017146
Si Si5 0.671499 0.668144 0.261051
Si Si6 0.671997 0.667858 0.886762
Si Si7 0.174079 0.835030 0.518654
Si Si8 0.830521 0.828878 0.772402
O O1 0.764755 0.500000 0.645083
O O2 0.762752 0.747008 0.580437
O O3 0.771947 0.748820 0.707873
O O4 0.000000 0.664713 0.641054
O O5 0.804600 0.500000 0.406632
O O6 0.742090 0.278141 0.328359
O O7 0.770062 0.240459 0.452671
O O8 0.000000 0.296598 0.378079
O O9 0.220753 0.762226 0.078665
O O10 0.267961 0.765959 0.203447
O O11 0.000000 0.783490 0.160603
O O12 0.188335 0.000000 0.143827
O O13 0.806461 0.500000 0.034624
O O14 0.000000 0.701073 0.999836
O O15 0.735249 0.717491 0.956065
O O16 0.500000 0.691082 0.266238
O O17 0.713497 0.500000 0.247553
O O18 0.500000 0.689331 0.888340
O O19 0.715835 0.500000 0.871991
O O20 0.738600 0.772225 0.832758
O O21 0.000000 0.832429 0.520564
O O22 0.233880 0.000000 0.521343
O O23 0.000000 0.792680 0.784867
O O24 0.804387 0.000000 0.763076
#
# Coordination Sequence:
#
# PCOD8166714 Si02
#       8
#     4   4   4   4   4   4   4   4
#     4   9  16  27  46  72 101 132 167 210 259 308
#     4   9  17  30  49  72  98 130 168 209 254 305
#     4  10  21  36  55  80 108 136 168 209 257 308
#     4   9  18  34  56  79 104 136 173 212 253 300
#     4  10  21  36  54  76 103 137 176 216 257 303
#     4  10  21  36  54  77 105 137 173 212 254 303
#     4   9  16  26  43  70 102 131 162 206 258 308
#     4  10  20  33  51  76 105 137 173 214 260 308
#
# _framework density 18.583552999999998
#
# number of rings (size 3 to 8) (size 9 to 14) (size 15 to 20)
#    0.000    2.500    0.000    2.250    0.000    7.500 
#    0.000    3.750    0.000    0.750    0.000    1.750 
#    0.000    0.000    0.000    0.000    0.000    0.000 
#
# Total GULP energy -396894.992197 kJ/mol
# GULP energy per Si atom -12402.968506 kJ/mol
# Density = 1.854126 g / cm^3
# Si number density = 18.583553 Si / 1000 Ang^3
#
#
#
# Elastic Constant Matrix: (Units=GPa)
#
#
# Indices 1 2 3 4 5 6 
#
# 1 50.2958 37.4306 54.6292 0.0000 0.0000 0.0000
# 2 37.4306 108.1770 85.8594 0.0000 0.0000 0.0000
# 3 54.6292 85.8594 174.4336 0.0000 0.0000 0.0000
# 4 0.0000 0.0000 0.0000 16.3727 0.0000 0.0000
# 5 0.0000 0.0000 0.0000 0.0000 -3.6193 0.0000
# 6 0.0000 0.0000 0.0000 0.0000 0.0000 18.9698
#
#
#
# Elastic Compliance Matrix: (Units=1/GPa)
#
#
# Indices 1 2 3 4 5 6 
#
# 1 0.031745 -0.005077 -0.007443 0.000000 0.000000 0.000000
# 2 -0.005077 0.015983 -0.006277 0.000000 0.000000 0.000000
# 3 -0.007443 -0.006277 0.011154 0.000000 0.000000 0.000000
# 4 0.000000 0.000000 0.000000 0.061077 0.000000 0.000000
# 5 0.000000 0.000000 0.000000 0.000000 -0.276299 0.000000
# 6 0.000000 0.000000 0.000000 0.000000 0.000000 0.052715
#
#
# Mechanical properties :
#
#
# Convention : Reuss Voigt Hill
#
# Bulk Modulus (GPa) = 46.97571 76.52718 61.75144
# Shear Modulus (GPa) = -84.83810 16.67713 -34.08049
#
# Velocity S-wave (km/s) = -6.76398 2.99894 -4.28706
# Velocity P-wave (km/s) = 5.97234 7.29801 2.96582
#
# Compressibility (1/GPa) = 0.02128760
#
# Stress axis : x y z
#
# Youngs Moduli (GPa) = 31.50126 62.56736 89.65736
#
# Poissons Ratio (x) = 0.31763 0.66732
# Poissons Ratio (y) = 0.15992 0.56279
# Poissons Ratio (z) = 0.23447 0.39274
#
# Static dielectric constant tensor:
#      x y z
#    x 3.091820 0.000000 0.000000 
#    y 0.000000 3.474890 0.000000 
#    z 0.000000 0.000000 3.567930 
# 
# 
# High freq. dielectric constant tensor:
#      x y z
#    x 1.685360 0.000000 0.000000 
#    y 0.000000 1.724350 0.000000 
#    z 0.000000 0.000000 1.736100 
# 
# From -- ./inp_files/6485.got.cif
#   From: 2010.03.12/outbox.cif.g09.slc.cpg/sg25_4_cif.got.tgz:6485.got - 2010.04.14 03:30:10.
