data_PCOD8166251
_publ_section_title
;
Structure prediction by ZEFSAII (Michael W. Deem and Ramdas Pophale) SiO2 
 PCOD8166251
Probable space group: I 21 21 21
;
_chemical_formula_sum "Si O2"
_cell_formula_units_Z 28
_cell_length_a 4.883225
_cell_length_b 22.618142
_cell_length_c 10.153409
_cell_angle_alpha 90.000000
_cell_angle_beta 90.000000
_cell_angle_gamma 90.000000
_cell_volume 1121.438708
_symmetry_space_group_name_H-M "I 21 21 21"
_symmetry_group_IT_number 24
_symmetry_cell_setting 'orthorhombic'
loop_
_space_group_symop_operation_xyz
x,y,z
-x,1/2-y,z
x,-y,1/2-z
1/2-x,y,-z
1/2+x,1/2+y,1/2+z
1/2-x,-y,1/2+z
1/2+x,1/2-y,-z
-x,1/2+y,1/2-z
loop_
_atom_site_type_symbol
_atom_site_label
_atom_site_fract_x
_atom_site_fract_y
_atom_site_fract_z
Si Si1 0.831956 0.000000 0.250000
Si Si2 0.250000 0.852662 0.500000
Si Si3 0.918176 0.685497 0.771802
Si Si4 0.750000 0.934302 0.500000
Si Si5 0.587815 0.881184 0.863066
O O1 0.008610 0.053656 0.314266
O O2 0.657372 0.974182 0.373354
O O3 0.190841 0.810008 0.622843
O O4 0.496137 0.894796 0.544345
O O5 0.684636 0.658923 0.868559
O O6 0.000000 0.750000 0.825739
O O7 0.187526 0.644722 0.761994
O O8 0.750000 0.881725 0.000000
#
# Coordination Sequence:
#
# PCOD8166251 Si02
#       5
#     4   4   8   4   8
#     4  12  24  48  74 114 154 204 246 314 378 458
#     4  12  24  47  72 114 146 195 252 310 382 454
#     4  12  27  48  75 106 150 199 255 314 378 448
#     4  12  26  43  76 112 160 197 254 308 380 466
#     4  12  27  47  75 112 148 203 252 307 381 457
#
# _framework density 24.967927
#
# number of rings (size 3 to 8) (size 9 to 14) (size 15 to 20)
#    0.000    0.000    7.143    1.714    0.000   10.286 
#    0.000    0.000    0.000    0.000    0.000    0.000 
#    0.000    0.000    0.000    0.000    0.000    0.000 
#
# Total GULP energy -173553.349983 kJ/mol
# GULP energy per Si atom -12396.667856 kJ/mol
# Density = 2.491110 g / cm^3
# Si number density = 24.967927 Si / 1000 Ang^3
#
#
#
# Elastic Constant Matrix: (Units=GPa)
#
#
# Indices 1 2 3 4 5 6 
#
# 1 143.7835 76.0636 15.5243 0.0000 0.0000 0.0000
# 2 76.0636 185.6672 51.3273 0.0000 0.0000 0.0000
# 3 15.5243 51.3273 107.2549 0.0001 0.0001 0.0000
# 4 0.0000 0.0000 0.0001 16.6993 0.0000 0.0000
# 5 0.0000 0.0000 0.0001 0.0000 34.3593 0.0000
# 6 0.0000 0.0000 0.0000 0.0000 0.0000 11.7189
#
#
#
# Elastic Compliance Matrix: (Units=1/GPa)
#
#
# Indices 1 2 3 4 5 6 
#
# 1 0.008905 -0.003794 0.000527 0.000000 0.000000 0.000000
# 2 -0.003794 0.007823 -0.003195 0.000000 0.000000 0.000000
# 3 0.000527 -0.003195 0.010776 0.000000 0.000000 0.000000
# 4 0.000000 0.000000 0.000000 0.059883 0.000000 0.000000
# 5 0.000000 0.000000 0.000000 0.000000 0.029104 0.000000
# 6 0.000000 0.000000 0.000000 0.000000 0.000000 0.085333
#
#
# Mechanical properties :
#
#
# Convention : Reuss Voigt Hill
#
# Bulk Modulus (GPa) = 68.58375 80.28176 74.43276
# Shear Modulus (GPa) = 22.76780 32.14151 27.45465
#
# Velocity S-wave (km/s) = 3.02301 3.59181 3.31961
# Velocity P-wave (km/s) = 6.30184 7.03030 6.67602
#
# Compressibility (1/GPa) = 0.01458071
#
# Stress axis : x y z
#
# Youngs Moduli (GPa) = 112.29654 127.82185 92.79665
#
# Poissons Ratio (x) = 0.48492 -0.04887
# Poissons Ratio (y) = 0.42602 0.29647
# Poissons Ratio (z) = -0.05913 0.40837
#
# Static dielectric constant tensor:
#      x y z
#    x 4.365300 0.000000 0.000000 
#    y 0.000000 4.430140 0.000000 
#    z 0.000000 0.000000 4.580900 
# 
# 
# High freq. dielectric constant tensor:
#      x y z
#    x 1.972040 0.000000 0.000000 
#    y 0.000000 1.994520 0.000000 
#    z 0.000000 0.000000 2.020710 
# 
# From -- ./inp_files/17354.got.cif
#   From: 2010.03.12/outbox.cif.g09.slc.cpg/sg24_9_cif.got.tgz:17354.got - 2010.04.14 03:06:53.
