data_PCOD8166391
_publ_section_title
;
Structure prediction by ZEFSAII (Michael W. Deem and Ramdas Pophale) SiO2 
 PCOD8166391
Probable space group: P M M 2
;
_chemical_formula_sum "Si O2"
_cell_formula_units_Z 32
_cell_length_a 8.997893
_cell_length_b 14.591815
_cell_length_c 12.333879
_cell_angle_alpha 90.000000
_cell_angle_beta 90.000000
_cell_angle_gamma 90.000000
_cell_volume 1619.383921
_symmetry_space_group_name_H-M "P M M 2"
_symmetry_group_IT_number 25
_symmetry_cell_setting 'orthorhombic'
loop_
_space_group_symop_operation_xyz
x,y,z
-x,-y,z
-x,y,z
x,-y,z
loop_
_atom_site_type_symbol
_atom_site_label
_atom_site_fract_x
_atom_site_fract_y
_atom_site_fract_z
Si Si1 0.334534 0.688730 0.751070
Si Si2 0.825053 0.273068 0.119661
Si Si3 0.672188 0.284108 0.510892
Si Si4 0.823713 0.605470 0.321801
Si Si5 0.172262 0.899011 0.573785
Si Si6 0.668044 0.600181 0.962066
Si Si7 0.670405 0.102128 0.035137
Si Si8 0.828551 0.140003 0.815588
O O1 0.500000 0.734072 0.756454
O O2 0.300415 0.665419 0.626170
O O3 0.327597 0.601117 0.830272
O O4 0.210091 0.754328 0.800086
O O5 0.767423 0.333875 0.220318
O O6 0.753731 0.171830 0.116626
O O7 0.000000 0.260580 0.122973
O O8 0.778154 0.324534 0.010180
O O9 0.500000 0.280072 0.478359
O O10 0.758330 0.347856 0.427912
O O11 0.732081 0.179363 0.514138
O O12 0.767795 0.500000 0.310318
O O13 0.000000 0.607488 0.329501
O O14 0.210433 0.908138 0.701464
O O15 0.000000 0.872353 0.558549
O O16 0.205917 0.000000 0.522966
O O17 0.500000 0.620144 0.002171
O O18 0.720536 0.500000 0.000445
O O19 0.500000 0.133431 0.027317
O O20 0.685290 0.000000 0.084837
O O21 0.735097 0.098496 0.913785
O O22 0.000000 0.128074 0.846732
#
# Coordination Sequence:
#
# PCOD8166391 Si02
#       8
#     4   4   4   4   4   4   4   4
#     4   9  18  33  52  79 120 159 189 230 285 340
#     4  11  23  40  62  86 113 146 192 248 293 340
#     4  10  21  36  58  88 118 150 194 244 289 341
#     4  10  23  44  66  86 111 147 192 243 297 350
#     4   9  18  33  54  82 119 161 200 237 282 338
#     4  10  20  34  55  83 117 156 190 226 284 352
#     4  11  23  37  55  82 118 157 193 233 286 347
#     4  10  18  30  52  82 116 155 198 239 278 329
#
# _framework density 19.7606
#
# number of rings (size 3 to 8) (size 9 to 14) (size 15 to 20)
#    0.000    2.000    1.250    2.250    0.000    5.250 
#    0.000    1.875    0.000    0.750    0.000    0.000 
#    0.000    0.000    0.000    0.000    0.000    0.000 
#
# Total GULP energy -396629.011626 kJ/mol
# GULP energy per Si atom -12394.656613 kJ/mol
# Density = 1.971562 g / cm^3
# Si number density = 19.760600 Si / 1000 Ang^3
#
#
#
# Elastic Constant Matrix: (Units=GPa)
#
#
# Indices 1 2 3 4 5 6 
#
# 1 62.7799 43.4224 31.5661 0.0000 0.0000 0.0000
# 2 43.4224 125.7833 53.9140 0.0000 0.0000 0.0000
# 3 31.5661 53.9140 95.8992 0.0000 0.0000 0.0000
# 4 0.0000 0.0000 0.0000 10.9706 0.0000 0.0000
# 5 0.0000 0.0000 0.0000 0.0000 28.3757 0.0000
# 6 0.0000 0.0000 0.0000 0.0000 0.0000 26.7810
#
#
#
# Elastic Compliance Matrix: (Units=1/GPa)
#
#
# Indices 1 2 3 4 5 6 
#
# 1 0.021986 -0.005913 -0.003913 0.000000 0.000000 0.000000
# 2 -0.005913 0.012064 -0.004836 0.000000 0.000000 0.000000
# 3 -0.003913 -0.004836 0.014434 0.000000 0.000000 0.000000
# 4 0.000000 0.000000 0.000000 0.091153 0.000000 0.000000
# 5 0.000000 0.000000 0.000000 0.000000 0.035241 0.000000
# 6 0.000000 0.000000 0.000000 0.000000 0.000000 0.037340
#
#
# Mechanical properties :
#
#
# Convention : Reuss Voigt Hill
#
# Bulk Modulus (GPa) = 52.18927 60.25193 56.22060
# Shear Modulus (GPa) = 20.16712 23.59614 21.88163
#
# Velocity S-wave (km/s) = 3.19811 3.45932 3.33128
# Velocity P-wave (km/s) = 6.33287 6.82005 6.58097
#
# Compressibility (1/GPa) = 0.01916103
#
# Stress axis : x y z
#
# Youngs Moduli (GPa) = 45.48445 82.88928 69.27884
#
# Poissons Ratio (x) = 0.49010 0.27106
# Poissons Ratio (y) = 0.26894 0.33505
# Poissons Ratio (z) = 0.17796 0.40087
#
# Static dielectric constant tensor:
#      x y z
#    x 3.584670 0.000000 0.000000 
#    y 0.000000 3.738260 0.000000 
#    z 0.000000 0.000000 3.504730 
# 
# 
# High freq. dielectric constant tensor:
#      x y z
#    x 1.770380 0.000000 0.000000 
#    y 0.000000 1.771600 0.000000 
#    z 0.000000 0.000000 1.752400 
# 
# From -- ./inp_files/4263.got.cif
#   From: 2010.03.12/outbox.cif.g09.slc.cpg/sg25_3_cif.got.tgz:4263.got - 2010.04.14 03:30:10.
