data_PCOD8166550
_publ_section_title
;
Structure prediction by ZEFSAII (Michael W. Deem and Ramdas Pophale) SiO2 
 PCOD8166550
Probable space group: P M M 2
;
_chemical_formula_sum "Si O2"
_cell_formula_units_Z 24
_cell_length_a 8.912063
_cell_length_b 12.603063
_cell_length_c 11.825410
_cell_angle_alpha 90.000000
_cell_angle_beta 90.000000
_cell_angle_gamma 90.000000
_cell_volume 1328.221672
_symmetry_space_group_name_H-M "P M M 2"
_symmetry_group_IT_number 25
_symmetry_cell_setting 'orthorhombic'
loop_
_space_group_symop_operation_xyz
x,y,z
-x,-y,z
-x,y,z
x,-y,z
loop_
_atom_site_type_symbol
_atom_site_label
_atom_site_fract_x
_atom_site_fract_y
_atom_site_fract_z
Si Si1 0.825351 0.876970 0.961820
Si Si2 0.326639 0.120001 0.729591
Si Si3 0.677808 0.380723 0.335781
Si Si4 0.324315 0.311136 0.576845
Si Si5 0.825516 0.500000 0.971842
Si Si6 0.172984 0.500000 0.706419
Si Si7 0.321866 0.696274 0.095274
O O1 0.771625 0.844832 0.836691
O O2 0.000000 0.850152 0.970932
O O3 0.790826 0.000000 0.985736
O O4 0.735906 0.810396 0.054977
O O5 0.500000 0.132083 0.764944
O O6 0.286569 0.193877 0.622945
O O7 0.288789 0.000000 0.692641
O O8 0.500000 0.387183 0.335607
O O9 0.744605 0.500000 0.334624
O O10 0.735500 0.319990 0.448015
O O11 0.732397 0.318033 0.224822
O O12 0.500000 0.335660 0.580984
O O13 0.245693 0.395309 0.656321
O O14 0.799496 0.500000 0.839051
O O15 0.000000 0.500000 0.004399
O O16 0.748429 0.395500 0.019787
O O17 0.000000 0.500000 0.674033
O O18 0.500000 0.690157 0.083980
#
# Coordination Sequence:
#
# PCOD8166550 Si02
#       7
#     4   4   4   4   2   2   4
#     4  10  21  37  56  78 108 145 179 217 271 326
#     4   9  18  33  55  83 109 135 174 220 262 313
#     4   9  17  33  54  77 106 140 176 216 262 312
#     4  10  19  34  56  77 103 140 175 211 262 318
#     4  11  23  36  51  76 112 145 174 217 272 325
#     4  11  23  34  47  74 108 135 168 219 266 311
#     4  11  21  35  56  80 106 139 182 226 267 313
#
# _framework density 18.069272999999999
#
# number of rings (size 3 to 8) (size 9 to 14) (size 15 to 20)
#    0.000    2.000    1.667    2.500    0.000    5.667 
#    0.000    3.333    0.000    3.000    0.000    2.333 
#    0.000    0.000    0.000    0.000    0.000    0.000 
#
# Total GULP energy -297638.657056 kJ/mol
# GULP energy per Si atom -12401.610711 kJ/mol
# Density = 1.802815 g / cm^3
# Si number density = 18.069273 Si / 1000 Ang^3
#
#
#
# Elastic Constant Matrix: (Units=GPa)
#
#
# Indices 1 2 3 4 5 6 
#
# 1 68.7177 43.6081 54.9730 0.0000 0.0000 0.0000
# 2 43.6081 116.6995 84.3081 0.0000 0.0000 0.0000
# 3 54.9730 84.3081 139.0742 0.0000 0.0000 0.0000
# 4 0.0000 0.0000 0.0000 22.9644 0.0000 0.0000
# 5 0.0000 0.0000 0.0000 0.0000 5.7711 0.0000
# 6 0.0000 0.0000 0.0000 0.0000 0.0000 17.9931
#
#
#
# Elastic Compliance Matrix: (Units=1/GPa)
#
#
# Indices 1 2 3 4 5 6 
#
# 1 0.022038 -0.003455 -0.006617 0.000000 0.000000 0.000000
# 2 -0.003455 0.015788 -0.008205 0.000000 0.000000 0.000000
# 3 -0.006617 -0.008205 0.014780 0.000000 0.000000 0.000000
# 4 0.000000 0.000000 0.000000 0.043546 0.000000 0.000000
# 5 0.000000 0.000000 0.000000 0.000000 0.173277 0.000000
# 6 0.000000 0.000000 0.000000 0.000000 0.000000 0.055577
#
#
# Mechanical properties :
#
#
# Convention : Reuss Voigt Hill
#
# Bulk Modulus (GPa) = 62.29680 76.69665 69.49672
# Shear Modulus (GPa) = 13.62737 18.78587 16.20662
#
# Velocity S-wave (km/s) = 2.74920 3.22787 2.99810
# Velocity P-wave (km/s) = 6.68049 7.51201 7.10842
#
# Compressibility (1/GPa) = 0.01605219
#
# Stress axis : x y z
#
# Youngs Moduli (GPa) = 45.37599 63.34080 67.66008
#
# Poissons Ratio (x) = 0.21884 0.44769
# Poissons Ratio (y) = 0.15677 0.55515
# Poissons Ratio (z) = 0.30024 0.51971
#
# Static dielectric constant tensor:
#      x y z
#    x 3.281300 0.000000 0.000000 
#    y 0.000000 3.694630 0.000000 
#    z 0.000000 0.000000 3.553290 
# 
# 
# High freq. dielectric constant tensor:
#      x y z
#    x 1.689660 0.000000 0.000000 
#    y 0.000000 1.702540 0.000000 
#    z 0.000000 0.000000 1.702650 
# 
# From -- ./inp_files/3982.got.cif
#   From: 2010.03.12/outbox.cif.g09.slc.cpg/sg25_2_cif.got.tgz:3982.got - 2010.04.14 03:30:10.
