data_PCOD8166355
_publ_section_title
;
Structure prediction by ZEFSAII (Michael W. Deem and Ramdas Pophale) SiO2 
 PCOD8166355
Probable space group: P M M 2
;
_chemical_formula_sum "Si O2"
_cell_formula_units_Z 32
_cell_length_a 9.380188
_cell_length_b 19.154769
_cell_length_c 9.971769
_cell_angle_alpha 90.000000
_cell_angle_beta 90.000000
_cell_angle_gamma 90.000000
_cell_volume 1791.680929
_symmetry_space_group_name_H-M "P M M 2"
_symmetry_group_IT_number 25
_symmetry_cell_setting 'orthorhombic'
loop_
_space_group_symop_operation_xyz
x,y,z
-x,-y,z
-x,y,z
x,-y,z
loop_
_atom_site_type_symbol
_atom_site_label
_atom_site_fract_x
_atom_site_fract_y
_atom_site_fract_z
Si Si1 0.160151 0.923648 0.776150
Si Si2 0.830936 0.341312 0.386242
Si Si3 0.335106 0.793328 0.770177
Si Si4 0.839817 0.077247 0.457537
Si Si5 0.336117 0.581176 0.162011
Si Si6 0.161963 0.420747 0.653200
Si Si7 0.333969 0.353218 0.879740
Si Si8 0.333061 0.791498 0.455936
O O1 0.256583 0.860901 0.831896
O O2 0.164320 0.923110 0.616852
O O3 0.000000 0.911263 0.827983
O O4 0.214980 0.000000 0.826553
O O5 0.770909 0.394626 0.276886
O O6 0.791538 0.371923 0.531010
O O7 0.750893 0.267507 0.373247
O O8 0.000000 0.332182 0.366401
O O9 0.500000 0.807209 0.794126
O O10 0.280700 0.725607 0.851163
O O11 0.301586 0.781932 0.613499
O O12 0.727436 0.134196 0.403633
O O13 0.000000 0.096273 0.409263
O O14 0.796926 0.000000 0.404024
O O15 0.500000 0.593790 0.205969
O O16 0.309358 0.500000 0.130548
O O17 0.298431 0.626336 0.031215
O O18 0.182761 0.500000 0.605595
O O19 0.257487 0.407179 0.782140
O O20 0.000000 0.405413 0.694722
O O21 0.500000 0.359471 0.847465
O O22 0.500000 0.787133 0.422624
#
# Coordination Sequence:
#
# PCOD8166355 Si02
#       8
#     4   4   4   4   4   4   4   4
#     4   8  14  24  39  62  95 134 171 204 242 291
#     4  11  22  36  54  75 103 137 172 214 262 310
#     4   9  17  28  45  71 102 132 165 207 251 298
#     4   8  14  25  41  64  98 138 174 207 250 303
#     4  10  22  39  57  76 100 133 172 214 262 315
#     4  10  21  35  52  76 102 129 165 208 256 309
#     4  10  20  36  55  77 104 134 169 209 258 311
#     4  10  18  29  47  73 104 135 172 215 257 305
#
# _framework density 17.860323999999999
#
# number of rings (size 3 to 8) (size 9 to 14) (size 15 to 20)
#    0.000    2.500    1.250    2.250    0.000    4.000 
#    0.000    2.500    0.000    0.000    0.000    0.875 
#    0.000    5.000    0.000    0.000    0.000    0.000 
#
# Total GULP energy -396756.650031 kJ/mol
# GULP energy per Si atom -12398.645313 kJ/mol
# Density = 1.781967 g / cm^3
# Si number density = 17.860324 Si / 1000 Ang^3
#
#
#
# Elastic Constant Matrix: (Units=GPa)
#
#
# Indices 1 2 3 4 5 6 
#
# 1 82.2353 54.6867 32.4562 0.0000 0.0000 0.0000
# 2 54.6867 122.8885 23.4200 0.0000 0.0000 0.0000
# 3 32.4562 23.4200 39.9171 0.0000 0.0000 0.0000
# 4 0.0000 0.0000 0.0000 19.8899 0.0000 0.0000
# 5 0.0000 0.0000 0.0000 0.0000 18.9771 0.0000
# 6 0.0000 0.0000 0.0000 0.0000 0.0000 37.1363
#
#
#
# Elastic Compliance Matrix: (Units=1/GPa)
#
#
# Indices 1 2 3 4 5 6 
#
# 1 0.022622 -0.007388 -0.014059 0.000000 0.000000 0.000000
# 2 -0.007388 0.011574 -0.000784 0.000000 0.000000 0.000000
# 3 -0.014059 -0.000784 0.036943 0.000000 0.000000 0.000000
# 4 0.000000 0.000000 0.000000 0.050277 0.000000 0.000000
# 5 0.000000 0.000000 0.000000 0.000000 0.052695 0.000000
# 6 0.000000 0.000000 0.000000 0.000000 0.000000 0.026928
#
#
# Mechanical properties :
#
#
# Convention : Reuss Voigt Hill
#
# Bulk Modulus (GPa) = 37.48429 51.79630 44.64030
# Shear Modulus (GPa) = 19.65459 24.16586 21.91023
#
# Velocity S-wave (km/s) = 3.32092 3.68237 3.50630
# Velocity P-wave (km/s) = 5.97810 6.86611 6.43744
#
# Compressibility (1/GPa) = 0.02667784
#
# Stress axis : x y z
#
# Youngs Moduli (GPa) = 44.20523 86.39724 27.06849
#
# Poissons Ratio (x) = 0.63826 0.38056
# Poissons Ratio (y) = 0.32657 0.02123
# Poissons Ratio (z) = 0.62149 0.06775
#
# Static dielectric constant tensor:
#      x y z
#    x 3.330910 0.000000 0.000000 
#    y 0.000000 3.662260 0.000000 
#    z 0.000000 0.000000 2.862120 
# 
# 
# High freq. dielectric constant tensor:
#      x y z
#    x 1.691940 0.000000 0.000000 
#    y 0.000000 1.709350 0.000000 
#    z 0.000000 0.000000 1.638970 
# 
# From -- ./inp_files/4446.got.cif
#   From: 2010.03.12/outbox.cif.g09.slc.cpg/sg25_3_cif.got.tgz:4446.got - 2010.04.14 03:30:10.
