data_PCOD8166840
_publ_section_title
;
Structure prediction by ZEFSAII (Michael W. Deem and Ramdas Pophale) SiO2 
 PCOD8166840
Probable space group: P M M 2
;
_chemical_formula_sum "Si O2"
_cell_formula_units_Z 16
_cell_length_a 8.851029
_cell_length_b 12.243542
_cell_length_c 7.477933
_cell_angle_alpha 90.000000
_cell_angle_beta 90.000000
_cell_angle_gamma 90.000000
_cell_volume 810.368234
_symmetry_space_group_name_H-M "P M M 2"
_symmetry_group_IT_number 25
_symmetry_cell_setting 'orthorhombic'
loop_
_space_group_symop_operation_xyz
x,y,z
-x,-y,z
-x,y,z
x,-y,z
loop_
_atom_site_type_symbol
_atom_site_label
_atom_site_fract_x
_atom_site_fract_y
_atom_site_fract_z
Si Si1 0.180070 0.733431 0.681240
Si Si2 0.674312 0.874197 0.385793
Si Si3 0.676654 0.720203 0.059836
Si Si4 0.835311 0.500000 0.655494
Si Si5 0.833078 0.500000 0.078428
O O1 0.225461 0.828324 0.546848
O O2 0.245107 0.615422 0.605986
O O3 0.000000 0.726091 0.700830
O O4 0.247813 0.758428 0.875385
O O5 0.500000 0.857935 0.438260
O O6 0.712785 0.814734 0.201115
O O7 0.716623 0.000000 0.359418
O O8 0.500000 0.703642 0.026986
O O9 0.743976 0.607967 0.140049
O O10 0.000000 0.500000 0.564776
O O11 0.849257 0.500000 0.867781
O O12 0.000000 0.500000 0.166978
#
# Coordination Sequence:
#
# PCOD8166840 Si02
#       5
#     4   4   4   2   2
#     4  10  20  36  59  86 115 146 181 227 284 339
#     4  10  23  41  57  77 109 150 195 237 277 329
#     4  10  20  36  59  85 114 149 187 228 278 338
#     4   7  14  30  51  78 111 141 169 208 267 333
#     4   9  17  32  55  84 117 147 179 226 281 335
#
# _framework density 19.744109000000002
#
# number of rings (size 3 to 8) (size 9 to 14) (size 15 to 20)
#    0.000    2.500    0.000    3.375    0.000    4.500 
#    0.000    6.875    0.000    0.000    0.000    0.000 
#    0.000    0.000    0.000    0.000    0.000    0.000 
#
# Total GULP energy -198322.503798 kJ/mol
# GULP energy per Si atom -12395.156487 kJ/mol
# Density = 1.969917 g / cm^3
# Si number density = 19.744109 Si / 1000 Ang^3
#
#
#
# Elastic Constant Matrix: (Units=GPa)
#
#
# Indices 1 2 3 4 5 6 
#
# 1 100.4404 61.9427 53.9735 0.0000 0.0000 0.0000
# 2 61.9427 172.5453 72.0841 0.0000 0.0000 0.0000
# 3 53.9735 72.0841 98.9899 0.0000 0.0000 0.0000
# 4 0.0000 0.0000 0.0000 39.9306 0.0000 0.0000
# 5 0.0000 0.0000 0.0000 0.0000 3.1101 0.0000
# 6 0.0000 0.0000 0.0000 0.0000 0.0000 27.7958
#
#
#
# Elastic Compliance Matrix: (Units=1/GPa)
#
#
# Indices 1 2 3 4 5 6 
#
# 1 0.014983 -0.002825 -0.006112 0.000000 0.000000 0.000000
# 2 -0.002825 0.008862 -0.004913 0.000000 0.000000 0.000000
# 3 -0.006112 -0.004913 0.017012 0.000000 0.000000 0.000000
# 4 0.000000 0.000000 0.000000 0.025043 0.000000 0.000000
# 5 0.000000 0.000000 0.000000 0.000000 0.321532 0.000000
# 6 0.000000 0.000000 0.000000 0.000000 0.000000 0.035977
#
#
# Mechanical properties :
#
#
# Convention : Reuss Voigt Hill
#
# Bulk Modulus (GPa) = 76.00612 83.10847 79.55730
# Shear Modulus (GPa) = 10.97706 26.43232 18.70469
#
# Velocity S-wave (km/s) = 2.36045 3.66286 3.08125
# Velocity P-wave (km/s) = 6.78293 7.75067 7.28289
#
# Compressibility (1/GPa) = 0.01315684
#
# Stress axis : x y z
#
# Youngs Moduli (GPa) = 66.74241 112.83628 58.78159
#
# Poissons Ratio (x) = 0.31881 0.35927
# Poissons Ratio (y) = 0.18858 0.28879
# Poissons Ratio (z) = 0.40792 0.55437
#
# Static dielectric constant tensor:
#      x y z
#    x 3.593550 0.000000 0.000000 
#    y 0.000000 3.893590 0.000000 
#    z 0.000000 0.000000 3.344520 
# 
# 
# High freq. dielectric constant tensor:
#      x y z
#    x 1.761670 0.000000 0.000000 
#    y 0.000000 1.777410 0.000000 
#    z 0.000000 0.000000 1.760780 
# 
# From -- ./inp_files/1602.got.cif
#   From: 2010.03.12/outbox.cif.g09.slc.cpg/sg25_1_cif.got.tgz:1602.got - 2010.04.14 03:30:10.
