data_PCOD8166701
_publ_section_title
;
Structure prediction by ZEFSAII (Michael W. Deem and Ramdas Pophale) SiO2 
 PCOD8166701
Probable space group: P M M 2
;
_chemical_formula_sum "Si O2"
_cell_formula_units_Z 28
_cell_length_a 9.115965
_cell_length_b 9.372305
_cell_length_c 18.040561
_cell_angle_alpha 90.000000
_cell_angle_beta 90.000000
_cell_angle_gamma 90.000000
_cell_volume 1541.342313
_symmetry_space_group_name_H-M "P M M 2"
_symmetry_group_IT_number 25
_symmetry_cell_setting 'orthorhombic'
loop_
_space_group_symop_operation_xyz
x,y,z
-x,-y,z
-x,y,z
x,-y,z
loop_
_atom_site_type_symbol
_atom_site_label
_atom_site_fract_x
_atom_site_fract_y
_atom_site_fract_z
Si Si1 0.330589 0.165761 0.820710
Si Si2 0.830562 0.667088 0.695267
Si Si3 0.165133 0.669684 0.246510
Si Si4 0.335588 0.670379 0.389450
Si Si5 0.670038 0.331882 0.099876
Si Si6 0.837422 0.330580 0.529606
Si Si7 0.170969 0.833389 0.969977
O O1 0.500000 0.201582 0.835821
O O2 0.276041 0.250209 0.749604
O O3 0.237878 0.215267 0.891727
O O4 0.305771 0.000000 0.804579
O O5 0.805633 0.500000 0.706995
O O6 0.785219 0.713928 0.611856
O O7 0.000000 0.707180 0.710394
O O8 0.163302 0.500000 0.248957
O O9 0.240291 0.729814 0.320985
O O10 0.257271 0.722885 0.175967
O O11 0.000000 0.730245 0.241212
O O12 0.500000 0.729000 0.381059
O O13 0.334221 0.500000 0.389321
O O14 0.270758 0.730549 0.466751
O O15 0.500000 0.289508 0.101439
O O16 0.692002 0.500000 0.089764
O O17 0.748972 0.254442 0.032956
O O18 0.843340 0.500000 0.525142
O O19 0.000000 0.269535 0.514180
O O20 0.000000 0.795303 0.970141
O O21 0.199358 0.000000 0.984016
#
# Coordination Sequence:
#
# PCOD8166701 Si02
#       7
#     4   4   4   4   4   4   4
#     4  10  21  36  53  73  97 126 161 200 242 289
#     4   9  18  32  50  73 100 129 162 201 244 289
#     4   9  16  26  41  62  91 127 163 198 237 281
#     4   9  15  22  35  58  89 124 160 196 235 280
#     4  10  20  33  50  74 103 131 160 198 244 290
#     4   8  14  25  40  60  89 123 157 193 234 281
#     4  10  21  37  56  75  95 124 163 202 240 287
#
# _framework density 18.165986
#
# number of rings (size 3 to 8) (size 9 to 14) (size 15 to 20)
#    0.000    2.714    0.000    3.000    0.000    7.429 
#    0.000    1.429    0.000    0.000    0.000    1.000 
#    0.000    3.429    0.000    0.000    0.000    0.000 
#
# Total GULP energy -347175.085984 kJ/mol
# GULP energy per Si atom -12399.110214 kJ/mol
# Density = 1.812464 g / cm^3
# Si number density = 18.165986 Si / 1000 Ang^3
#
#
#
# Elastic Constant Matrix: (Units=GPa)
#
#
# Indices 1 2 3 4 5 6 
#
# 1 155.6629 33.2419 97.5229 0.0000 0.0000 0.0000
# 2 33.2419 22.0873 36.2531 0.0000 0.0000 0.0000
# 3 97.5229 36.2531 168.6906 0.0000 0.0000 0.0000
# 4 0.0000 0.0000 0.0000 -10.4423 0.0000 0.0000
# 5 0.0000 0.0000 0.0000 0.0000 33.7417 0.0000
# 6 0.0000 0.0000 0.0000 0.0000 0.0000 20.0092
#
#
#
# Elastic Compliance Matrix: (Units=1/GPa)
#
#
# Indices 1 2 3 4 5 6 
#
# 1 0.011270 -0.009683 -0.004434 0.000000 0.000000 0.000000
# 2 -0.009683 0.078269 -0.011222 0.000000 0.000000 0.000000
# 3 -0.004434 -0.011222 0.010903 0.000000 0.000000 0.000000
# 4 0.000000 0.000000 0.000000 -0.095765 0.000000 0.000000
# 5 0.000000 0.000000 0.000000 0.000000 0.029637 0.000000
# 6 0.000000 0.000000 0.000000 0.000000 0.000000 0.049977
#
#
# Mechanical properties :
#
#
# Convention : Reuss Voigt Hill
#
# Bulk Modulus (GPa) = 20.09582 75.60851 47.85217
# Shear Modulus (GPa) = 32.99038 20.62327 26.80682
#
# Velocity S-wave (km/s) = 4.26614 3.37303 3.84560
# Velocity P-wave (km/s) = 5.94583 7.54195 6.79095
#
# Compressibility (1/GPa) = 0.04976159
#
# Stress axis : x y z
#
# Youngs Moduli (GPa) = 88.72928 12.77651 91.71410
#
# Poissons Ratio (x) = 0.12372 0.40670
# Poissons Ratio (y) = 0.85921 1.02926
# Poissons Ratio (z) = 0.39347 0.14338
#
# Static dielectric constant tensor:
#      x y z
#    x 3.630190 0.000000 0.000000 
#    y 0.000000 2.829100 0.000000 
#    z 0.000000 0.000000 3.582710 
# 
# 
# High freq. dielectric constant tensor:
#      x y z
#    x 1.717190 0.000000 0.000000 
#    y 0.000000 1.643800 0.000000 
#    z 0.000000 0.000000 1.721590 
# 
# From -- ./inp_files/6058.got.cif
#   From: 2010.03.12/outbox.cif.g09.slc.cpg/sg25_4_cif.got.tgz:6058.got - 2010.04.14 03:30:10.
