data_PCOD8166578
_publ_section_title
;
Structure prediction by ZEFSAII (Michael W. Deem and Ramdas Pophale) SiO2 
 PCOD8166578
Probable space group: P M M 2
;
_chemical_formula_sum "Si O2"
_cell_formula_units_Z 28
_cell_length_a 9.600419
_cell_length_b 9.380576
_cell_length_c 18.061414
_cell_angle_alpha 90.000000
_cell_angle_beta 90.000000
_cell_angle_gamma 90.000000
_cell_volume 1626.565070
_symmetry_space_group_name_H-M "P M M 2"
_symmetry_group_IT_number 25
_symmetry_cell_setting 'orthorhombic'
loop_
_space_group_symop_operation_xyz
x,y,z
-x,-y,z
-x,y,z
x,-y,z
loop_
_atom_site_type_symbol
_atom_site_label
_atom_site_fract_x
_atom_site_fract_y
_atom_site_fract_z
Si Si1 0.833949 0.839420 0.265610
Si Si2 0.663075 0.664915 0.707351
Si Si3 0.838070 0.333858 0.407314
Si Si4 0.163634 0.834029 0.826295
Si Si5 0.165331 0.340567 0.965717
Si Si6 0.165707 0.660433 0.129217
Si Si7 0.653582 0.330922 0.541412
O O1 0.780792 0.752108 0.336731
O O2 0.772715 0.766143 0.191348
O O3 0.000000 0.837620 0.263585
O O4 0.776251 0.000000 0.269811
O O5 0.500000 0.688252 0.723498
O O6 0.703448 0.500000 0.719989
O O7 0.755026 0.762952 0.759402
O O8 0.699999 0.714730 0.623809
O O9 0.807163 0.500000 0.393265
O O10 0.760788 0.273598 0.480096
O O11 0.000000 0.305506 0.420510
O O12 0.220028 0.767396 0.903293
O O13 0.000000 0.804635 0.815614
O O14 0.198201 0.000000 0.828178
O O15 0.220522 0.500000 0.948006
O O16 0.000000 0.341663 0.966324
O O17 0.218022 0.291823 0.047344
O O18 0.217313 0.500000 0.146140
O O19 0.000000 0.664382 0.131983
O O20 0.500000 0.269203 0.523706
O O21 0.647832 0.500000 0.539249
#
# Coordination Sequence:
#
# PCOD8166578 Si02
#       7
#     4   4   4   4   4   4   4
#     4   9  16  24  35  55  85 118 147 176 214 258
#     4   9  18  33  52  71  90 116 153 194 233 275
#     4   9  16  26  42  64  88 113 142 176 215 260
#     4  10  20  31  44  67  98 127 154 186 227 275
#     4   8  14  25  41  61  86 117 151 186 224 264
#     4   8  13  22  37  57  82 113 148 183 218 257
#     4   8  15  29  48  68  87 108 141 185 225 261
#
# _framework density 17.214189999999999
#
# number of rings (size 3 to 8) (size 9 to 14) (size 15 to 20)
#    0.000    3.286    0.000    2.571    0.000    4.000 
#    0.000    5.000    0.000    3.000    0.000    1.000 
#    0.000    3.429    0.000    0.000    0.000    0.000 
#
# Total GULP energy -347037.218356 kJ/mol
# GULP energy per Si atom -12394.186370 kJ/mol
# Density = 1.717501 g / cm^3
# Si number density = 17.214190 Si / 1000 Ang^3
#
#
#
# Elastic Constant Matrix: (Units=GPa)
#
#
# Indices 1 2 3 4 5 6 
#
# 1 32.3502 34.4221 50.6683 0.0000 0.0000 0.0000
# 2 34.4221 101.7013 88.5554 0.0000 0.0000 0.0000
# 3 50.6683 88.5554 182.9882 0.0000 0.0000 0.0000
# 4 0.0000 0.0000 0.0000 8.8736 0.0000 0.0000
# 5 0.0000 0.0000 0.0000 0.0000 0.2112 0.0000
# 6 0.0000 0.0000 0.0000 0.0000 0.0000 13.5207
#
#
#
# Elastic Compliance Matrix: (Units=1/GPa)
#
#
# Indices 1 2 3 4 5 6 
#
# 1 0.060044 -0.010103 -0.011736 0.000000 0.000000 0.000000
# 2 -0.010103 0.018694 -0.006249 0.000000 0.000000 0.000000
# 3 -0.011736 -0.006249 0.011739 0.000000 0.000000 0.000000
# 4 0.000000 0.000000 0.000000 0.112694 0.000000 0.000000
# 5 0.000000 0.000000 0.000000 0.000000 4.734467 0.000000
# 6 0.000000 0.000000 0.000000 0.000000 0.000000 0.073961
#
#
# Mechanical properties :
#
#
# Convention : Reuss Voigt Hill
#
# Bulk Modulus (GPa) = 29.15544 73.81458 51.48501
# Shear Modulus (GPa) = 0.98441 14.08070 7.53255
#
# Velocity S-wave (km/s) = 0.75703 2.86312 2.09411
# Velocity P-wave (km/s) = 4.21162 7.34187 5.98502
#
# Compressibility (1/GPa) = 0.03429891
#
# Stress axis : x y z
#
# Youngs Moduli (GPa) = 16.65441 53.49427 85.18794
#
# Poissons Ratio (x) = 0.54047 0.99981
# Poissons Ratio (y) = 0.16826 0.53234
# Poissons Ratio (z) = 0.19546 0.33429
#
# Static dielectric constant tensor:
#      x y z
#    x 2.805650 0.000000 0.000000 
#    y 0.000000 3.156640 0.000000 
#    z 0.000000 0.000000 3.612490 
# 
# 
# High freq. dielectric constant tensor:
#      x y z
#    x 1.609280 0.000000 0.000000 
#    y 0.000000 1.648890 0.000000 
#    z 0.000000 0.000000 1.682470 
# 
# From -- ./inp_files/6334.got.cif
#   From: 2010.03.12/outbox.cif.g09.slc.cpg/sg25_4_cif.got.tgz:6334.got - 2010.04.14 03:30:10.
