data_PCOD8166664
_publ_section_title
;
Structure prediction by ZEFSAII (Michael W. Deem and Ramdas Pophale) SiO2 
 PCOD8166664
Probable space group: P M M 2
;
_chemical_formula_sum "Si O2"
_cell_formula_units_Z 28
_cell_length_a 9.101574
_cell_length_b 9.405215
_cell_length_c 18.238030
_cell_angle_alpha 90.000000
_cell_angle_beta 90.000000
_cell_angle_gamma 90.000000
_cell_volume 1561.216592
_symmetry_space_group_name_H-M "P M M 2"
_symmetry_group_IT_number 25
_symmetry_cell_setting 'orthorhombic'
loop_
_space_group_symop_operation_xyz
x,y,z
-x,-y,z
-x,y,z
x,-y,z
loop_
_atom_site_type_symbol
_atom_site_label
_atom_site_fract_x
_atom_site_fract_y
_atom_site_fract_z
Si Si1 0.836886 0.831316 0.588810
Si Si2 0.672682 0.835779 0.732412
Si Si3 0.826844 0.334957 0.859468
Si Si4 0.174703 0.658875 0.297245
Si Si5 0.174679 0.660113 0.135484
Si Si6 0.174916 0.160421 0.000469
Si Si7 0.175141 0.157697 0.429388
O O1 0.725027 0.784199 0.652154
O O2 0.781953 0.774958 0.508962
O O3 0.000000 0.771736 0.607328
O O4 0.845239 0.000000 0.582217
O O5 0.500000 0.815982 0.737358
O O6 0.748331 0.734115 0.790451
O O7 0.718790 0.000000 0.746523
O O8 0.782812 0.500000 0.866464
O O9 0.770660 0.252774 0.931567
O O10 0.000000 0.316596 0.849077
O O11 0.234225 0.500000 0.307919
O O12 0.223213 0.714542 0.216454
O O13 0.243947 0.752300 0.362500
O O14 0.000000 0.661113 0.302325
O O15 0.233800 0.500000 0.121458
O O16 0.000000 0.657192 0.130099
O O17 0.238933 0.766671 0.074191
O O18 0.000000 0.157558 0.002880
O O19 0.237301 0.000000 0.994315
O O20 0.000000 0.153158 0.424231
O O21 0.240928 0.000000 0.421202
#
# Coordination Sequence:
#
# PCOD8166664 Si02
#       7
#     4   4   4   4   4   4   4
#     4   8  14  26  44  64  87 116 148 183 224 268
#     4  10  20  33  50  71  93 118 150 189 233 279
#     4  10  20  33  49  68  91 121 155 189 228 275
#     4   8  13  20  30  47  75 110 142 173 213 258
#     4   8  13  21  32  48  76 113 145 172 211 264
#     4   9  16  25  39  60  84 111 146 186 223 261
#     4   8  13  21  34  52  74 104 142 178 212 255
#
# _framework density 17.934730999999999
#
# number of rings (size 3 to 8) (size 9 to 14) (size 15 to 20)
#    0.000    3.286    0.000    3.000    0.000    4.000 
#    0.000    3.571    0.000    2.571    0.000    0.000 
#    0.000    1.143    0.000   10.571    0.000   12.857 
#
# Total GULP energy -346981.402041 kJ/mol
# GULP energy per Si atom -12392.192930 kJ/mol
# Density = 1.789391 g / cm^3
# Si number density = 17.934731 Si / 1000 Ang^3
#
#
#
# Elastic Constant Matrix: (Units=GPa)
#
#
# Indices 1 2 3 4 5 6 
#
# 1 18.0534 22.8736 26.2674 0.0000 0.0000 0.0000
# 2 22.8736 109.4981 91.5915 0.0000 0.0000 0.0000
# 3 26.2674 91.5915 188.2317 0.0000 0.0000 0.0000
# 4 0.0000 0.0000 0.0000 27.7846 0.0000 0.0000
# 5 0.0000 0.0000 0.0000 0.0000 -0.8830 0.0000
# 6 0.0000 0.0000 0.0000 0.0000 0.0000 10.0180
#
#
#
# Elastic Compliance Matrix: (Units=1/GPa)
#
#
# Indices 1 2 3 4 5 6 
#
# 1 0.078008 -0.012125 -0.004986 0.000000 0.000000 0.000000
# 2 -0.012125 0.017286 -0.006719 0.000000 0.000000 0.000000
# 3 -0.004986 -0.006719 0.009278 0.000000 0.000000 0.000000
# 4 0.000000 0.000000 0.000000 0.035991 0.000000 0.000000
# 5 0.000000 0.000000 0.000000 0.000000 -1.132466 0.000000
# 6 0.000000 0.000000 0.000000 0.000000 0.000000 0.099820
#
#
# Mechanical properties :
#
#
# Convention : Reuss Voigt Hill
#
# Bulk Modulus (GPa) = 17.57110 66.36092 41.96601
# Shear Modulus (GPa) = -6.05728 19.05396 6.49834
#
# Velocity S-wave (km/s) = -1.83976 3.26299 1.90557
# Velocity P-wave (km/s) = 2.30337 7.16085 5.31899
#
# Compressibility (1/GPa) = 0.05691164
#
# Stress axis : x y z
#
# Youngs Moduli (GPa) = 12.81921 57.85166 107.78422
#
# Poissons Ratio (x) = 0.70144 0.53743
# Poissons Ratio (y) = 0.15543 0.72420
# Poissons Ratio (z) = 0.06392 0.38870
#
# Static dielectric constant tensor:
#      x y z
#    x 2.671790 0.000000 0.000000 
#    y 0.000000 3.378660 0.000000 
#    z 0.000000 0.000000 3.774680 
# 
# 
# High freq. dielectric constant tensor:
#      x y z
#    x 1.621270 0.000000 0.000000 
#    y 0.000000 1.678700 0.000000 
#    z 0.000000 0.000000 1.716850 
# 
# From -- ./inp_files/6330.got.cif
#   From: 2010.03.12/outbox.cif.g09.slc.cpg/sg25_4_cif.got.tgz:6330.got - 2010.04.14 03:30:10.
