data_PCOD8166732
_publ_section_title
;
Structure prediction by ZEFSAII (Michael W. Deem and Ramdas Pophale) SiO2 
 PCOD8166732
Probable space group: P M M 2
;
_chemical_formula_sum "Si O2"
_cell_formula_units_Z 32
_cell_length_a 9.055640
_cell_length_b 15.624011
_cell_length_c 11.655249
_cell_angle_alpha 90.000000
_cell_angle_beta 90.000000
_cell_angle_gamma 90.000000
_cell_volume 1649.047788
_symmetry_space_group_name_H-M "P M M 2"
_symmetry_group_IT_number 25
_symmetry_cell_setting 'orthorhombic'
loop_
_space_group_symop_operation_xyz
x,y,z
-x,-y,z
-x,y,z
x,-y,z
loop_
_atom_site_type_symbol
_atom_site_label
_atom_site_fract_x
_atom_site_fract_y
_atom_site_fract_z
Si Si1 0.836446 0.905822 0.828090
Si Si2 0.327672 0.227649 0.686859
Si Si3 0.664418 0.319629 0.914754
Si Si4 0.172269 0.099423 0.275681
Si Si5 0.826221 0.749082 0.448175
Si Si6 0.326728 0.599760 0.315079
Si Si7 0.159520 0.598482 0.093270
Si Si8 0.669498 0.858627 0.041227
O O1 0.721412 0.860429 0.744474
O O2 0.000000 0.861627 0.830908
O O3 0.854693 0.000000 0.777514
O O4 0.769915 0.913982 0.955848
O O5 0.500000 0.222858 0.654121
O O6 0.297388 0.300848 0.782275
O O7 0.228372 0.242876 0.577371
O O8 0.500000 0.357011 0.922487
O O9 0.777186 0.388604 0.965316
O O10 0.681665 0.238283 0.997887
O O11 0.215896 0.163998 0.379298
O O12 0.268654 0.129909 0.168524
O O13 0.000000 0.108866 0.245271
O O14 0.208272 0.000000 0.308709
O O15 0.751959 0.662103 0.404037
O O16 0.000000 0.734870 0.446713
O O17 0.500000 0.614780 0.322367
O O18 0.287241 0.500000 0.340850
O O19 0.273326 0.630746 0.189656
O O20 0.132918 0.500000 0.112550
O O21 0.000000 0.645383 0.106592
O O22 0.500000 0.890205 0.038191
#
# Coordination Sequence:
#
# PCOD8166732 Si02
#       8
#     4   4   4   4   4   4   4   4
#     4  10  20  34  54  79 107 141 181 226 277 331
#     4  10  22  39  57  78 106 141 184 231 275 326
#     4   9  19  35  54  77 106 141 177 217 270 329
#     4  10  22  38  54  77 112 151 188 226 274 334
#     4  11  23  39  60  83 110 148 191 237 284 330
#     4  10  21  38  61  87 115 148 185 227 278 336
#     4  10  20  33  53  84 116 141 171 216 268 324
#     4  10  20  33  52  80 110 139 178 228 278 329
#
# _framework density 19.405137
#
# number of rings (size 3 to 8) (size 9 to 14) (size 15 to 20)
#    0.000    2.000    0.000    4.125    0.000   10.750 
#    0.000    1.875    0.000    0.750    0.000    0.000 
#    0.000    0.000    0.000    0.000    0.000    0.000 
#
# Total GULP energy -396654.414868 kJ/mol
# GULP energy per Si atom -12395.450465 kJ/mol
# Density = 1.936097 g / cm^3
# Si number density = 19.405137 Si / 1000 Ang^3
#
#
#
# Elastic Constant Matrix: (Units=GPa)
#
#
# Indices 1 2 3 4 5 6 
#
# 1 99.9556 36.0703 49.1345 0.0000 0.0000 0.0000
# 2 36.0703 51.5969 42.0248 0.0000 0.0000 0.0000
# 3 49.1345 42.0248 119.2047 0.0000 0.0000 0.0000
# 4 0.0000 0.0000 0.0000 10.7067 0.0000 0.0000
# 5 0.0000 0.0000 0.0000 0.0000 34.7884 0.0000
# 6 0.0000 0.0000 0.0000 0.0000 0.0000 25.6822
#
#
#
# Elastic Compliance Matrix: (Units=1/GPa)
#
#
# Indices 1 2 3 4 5 6 
#
# 1 0.014256 -0.007266 -0.003314 0.000000 0.000000 0.000000
# 2 -0.007266 0.030892 -0.007895 0.000000 0.000000 0.000000
# 3 -0.003314 -0.007895 0.012539 0.000000 0.000000 0.000000
# 4 0.000000 0.000000 0.000000 0.093399 0.000000 0.000000
# 5 0.000000 0.000000 0.000000 0.000000 0.028745 0.000000
# 6 0.000000 0.000000 0.000000 0.000000 0.000000 0.038937
#
#
# Mechanical properties :
#
#
# Convention : Reuss Voigt Hill
#
# Bulk Modulus (GPa) = 48.23135 58.35739 53.29437
# Shear Modulus (GPa) = 19.03806 23.80396 21.42101
#
# Velocity S-wave (km/s) = 3.13562 3.50620 3.32608
# Velocity P-wave (km/s) = 6.16591 6.82127 6.50185
#
# Compressibility (1/GPa) = 0.02073340
#
# Stress axis : x y z
#
# Youngs Moduli (GPa) = 70.14662 32.37129 79.75409
#
# Poissons Ratio (x) = 0.23523 0.26433
# Poissons Ratio (y) = 0.50972 0.62970
# Poissons Ratio (z) = 0.23249 0.25559
#
# Static dielectric constant tensor:
#      x y z
#    x 3.930780 0.000000 0.000000 
#    y 0.000000 3.490560 0.000000 
#    z 0.000000 0.000000 3.522100 
# 
# 
# High freq. dielectric constant tensor:
#      x y z
#    x 1.771570 0.000000 0.000000 
#    y 0.000000 1.745870 0.000000 
#    z 0.000000 0.000000 1.746290 
# 
# From -- ./inp_files/4282.got.cif
#   From: 2010.03.12/outbox.cif.g09.slc.cpg/sg25_3_cif.got.tgz:4282.got - 2010.04.14 03:30:10.
