data_PCOD8166633
_publ_section_title
;
Structure prediction by ZEFSAII (Michael W. Deem and Ramdas Pophale) SiO2 
 PCOD8166633
Probable space group: P M M 2
;
_chemical_formula_sum "Si O2"
_cell_formula_units_Z 28
_cell_length_a 9.745040
_cell_length_b 8.575702
_cell_length_c 18.005471
_cell_angle_alpha 90.000000
_cell_angle_beta 90.000000
_cell_angle_gamma 90.000000
_cell_volume 1504.727277
_symmetry_space_group_name_H-M "P M M 2"
_symmetry_group_IT_number 25
_symmetry_cell_setting 'orthorhombic'
loop_
_space_group_symop_operation_xyz
x,y,z
-x,-y,z
-x,y,z
x,-y,z
loop_
_atom_site_type_symbol
_atom_site_label
_atom_site_fract_x
_atom_site_fract_y
_atom_site_fract_z
Si Si1 0.156391 0.317734 0.292330
Si Si2 0.346077 0.814327 0.744761
Si Si3 0.345987 0.185356 0.580736
Si Si4 0.153399 0.185544 0.872135
Si Si5 0.344895 0.184491 0.167274
Si Si6 0.157569 0.819461 0.449546
Si Si7 0.154283 0.814477 0.037033
O O1 0.171677 0.500000 0.278437
O O2 0.263822 0.228228 0.241296
O O3 0.194962 0.278648 0.376820
O O4 0.000000 0.262003 0.275415
O O5 0.500000 0.755904 0.760088
O O6 0.298240 0.757360 0.662755
O O7 0.250550 0.740610 0.808863
O O8 0.340215 0.000000 0.747926
O O9 0.500000 0.244961 0.564452
O O10 0.245502 0.251399 0.517517
O O11 0.342160 0.000000 0.579399
O O12 0.000000 0.244848 0.856034
O O13 0.158698 0.000000 0.868922
O O14 0.199450 0.240995 0.954522
O O15 0.500000 0.253320 0.168627
O O16 0.262245 0.254421 0.096500
O O17 0.351990 0.000000 0.161507
O O18 0.000000 0.798264 0.472116
O O19 0.192752 0.000000 0.433933
O O20 0.000000 0.753554 0.055137
O O21 0.153616 0.000000 0.040708
#
# Coordination Sequence:
#
# PCOD8166633 Si02
#       7
#     4   4   4   4   4   4   4
#     4  10  21  36  52  69  91 120 152 187 231 281
#     4   8  13  20  30  47  75 111 145 175 211 256
#     4   8  14  24  37  55  81 113 147 180 216 261
#     4   8  13  20  31  50  77 110 146 180 215 256
#     4  10  20  32  48  71  95 120 153 191 230 273
#     4   9  17  29  46  67  88 112 146 186 224 264
#     4   8  14  25  40  58  83 116 151 185 221 263
#
# _framework density 18.608024
#
# number of rings (size 3 to 8) (size 9 to 14) (size 15 to 20)
#    0.000    3.286    0.000    2.571    0.000    3.429 
#    0.000    7.143    0.000    0.000    0.000    0.000 
#    0.000    1.143    0.000    6.286    0.000    8.571 
#
# Total GULP energy -347018.543188 kJ/mol
# GULP energy per Si atom -12393.519400 kJ/mol
# Density = 1.856567 g / cm^3
# Si number density = 18.608024 Si / 1000 Ang^3
#
#
#
# Elastic Constant Matrix: (Units=GPa)
#
#
# Indices 1 2 3 4 5 6 
#
# 1 130.2685 7.9963 103.8390 0.0000 0.0000 0.0000
# 2 7.9963 7.8144 4.8137 0.0000 0.0000 0.0000
# 3 103.8390 4.8137 157.7342 0.0000 0.0000 0.0000
# 4 0.0000 0.0000 0.0000 -0.6521 0.0000 0.0000
# 5 0.0000 0.0000 0.0000 0.0000 37.2803 0.0000
# 6 0.0000 0.0000 0.0000 0.0000 0.0000 8.2200
#
#
#
# Elastic Compliance Matrix: (Units=1/GPa)
#
#
# Indices 1 2 3 4 5 6 
#
# 1 0.016986 -0.010695 -0.010856 0.000000 0.000000 0.000000
# 2 -0.010695 0.137154 0.002855 0.000000 0.000000 0.000000
# 3 -0.010856 0.002855 0.013399 0.000000 0.000000 0.000000
# 4 0.000000 0.000000 0.000000 -1.533558 0.000000 0.000000
# 5 0.000000 0.000000 0.000000 0.000000 0.026824 0.000000
# 6 0.000000 0.000000 0.000000 0.000000 0.000000 0.121654
#
#
# Mechanical properties :
#
#
# Convention : Reuss Voigt Hill
#
# Bulk Modulus (GPa) = 7.68354 58.79057 33.23705
# Shear Modulus (GPa) = -4.39845 20.91419 8.25787
#
# Velocity S-wave (km/s) = -1.53911 3.35615 2.10889
# Velocity P-wave (km/s) = 0.98976 6.83236 4.88164
#
# Compressibility (1/GPa) = 0.13014836
#
# Stress axis : x y z
#
# Youngs Moduli (GPa) = 58.87030 7.29106 74.63015
#
# Poissons Ratio (x) = 0.07798 0.81019
# Poissons Ratio (y) = 0.62960 -0.21306
# Poissons Ratio (z) = 0.63910 -0.02081
#
# Static dielectric constant tensor:
#      x y z
#    x 3.682340 0.000000 0.000000 
#    y 0.000000 2.738270 0.000000 
#    z 0.000000 0.000000 3.784310 
# 
# 
# High freq. dielectric constant tensor:
#      x y z
#    x 1.721010 0.000000 0.000000 
#    y 0.000000 1.654400 0.000000 
#    z 0.000000 0.000000 1.736280 
# 
# From -- ./inp_files/6335.got.cif
#   From: 2010.03.12/outbox.cif.g09.slc.cpg/sg25_4_cif.got.tgz:6335.got - 2010.04.14 03:30:10.
