data_PCOD8166958
_publ_section_title
;
Structure prediction by ZEFSAII (Michael W. Deem and Ramdas Pophale) SiO2 
 PCOD8166958
Probable space group: P M M 2
;
_chemical_formula_sum "Si O2"
_cell_formula_units_Z 24
_cell_length_a 8.574152
_cell_length_b 14.993183
_cell_length_c 9.464559
_cell_angle_alpha 90.000000
_cell_angle_beta 90.000000
_cell_angle_gamma 90.000000
_cell_volume 1216.705309
_symmetry_space_group_name_H-M "P M M 2"
_symmetry_group_IT_number 25
_symmetry_cell_setting 'orthorhombic'
loop_
_space_group_symop_operation_xyz
x,y,z
-x,-y,z
-x,y,z
x,-y,z
loop_
_atom_site_type_symbol
_atom_site_label
_atom_site_fract_x
_atom_site_fract_y
_atom_site_fract_z
Si Si1 0.319427 0.896933 0.685690
Si Si2 0.317257 0.745967 0.205405
Si Si3 0.819988 0.603683 0.009405
Si Si4 0.319322 0.398460 0.714022
Si Si5 0.685268 0.901673 0.003465
Si Si6 0.819606 0.742824 0.511858
O O1 0.500000 0.869586 0.670571
O O2 0.218349 0.838282 0.579550
O O3 0.295576 0.000000 0.644836
O O4 0.258747 0.878585 0.844808
O O5 0.500000 0.755702 0.237810
O O6 0.251718 0.828617 0.112732
O O7 0.221291 0.745821 0.348232
O O8 0.286686 0.655209 0.120933
O O9 0.782269 0.500000 0.030298
O O10 0.777521 0.633079 0.850494
O O11 0.000000 0.625881 0.037548
O O12 0.500000 0.388358 0.752258
O O13 0.277609 0.500000 0.672193
O O14 0.278434 0.336144 0.582892
O O15 0.500000 0.902388 0.002276
O O16 0.747240 0.000000 0.047750
O O17 0.000000 0.720743 0.530951
#
# Coordination Sequence:
#
# PCOD8166958 Si02
#       6
#     4   4   4   4   4   4
#     4   9  18  36  62  87 111 143 187 237 285 338
#     4  11  22  36  57  83 113 151 193 234 277 332
#     4  10  21  38  60  86 116 148 182 226 284 342
#     4  10  21  39  63  87 110 142 189 239 283 336
#     4   8  16  33  58  85 108 135 178 230 278 324
#     4  12  25  38  54  80 118 156 189 234 291 344
#
# _framework density 19.725401000000002
#
# number of rings (size 3 to 8) (size 9 to 14) (size 15 to 20)
#    0.000    2.000    0.000    5.000    0.000    5.000 
#    0.000    2.500    0.000    3.500    0.000    0.000 
#    0.000    0.000    0.000    0.000    0.000    0.000 
#
# Total GULP energy -297686.655876 kJ/mol
# GULP energy per Si atom -12403.610661 kJ/mol
# Density = 1.968050 g / cm^3
# Si number density = 19.725401 Si / 1000 Ang^3
#
#
#
# Elastic Constant Matrix: (Units=GPa)
#
#
# Indices 1 2 3 4 5 6 
#
# 1 49.4667 22.8857 11.4845 0.0000 0.0000 0.0000
# 2 22.8857 102.9395 62.3922 0.0000 0.0000 0.0000
# 3 11.4845 62.3922 114.3455 0.0000 0.0000 0.0000
# 4 0.0000 0.0000 0.0000 17.2070 0.0000 0.0000
# 5 0.0000 0.0000 0.0000 0.0000 28.6766 0.0000
# 6 0.0000 0.0000 0.0000 0.0000 0.0000 23.2864
#
#
#
# Elastic Compliance Matrix: (Units=1/GPa)
#
#
# Indices 1 2 3 4 5 6 
#
# 1 0.022571 -0.005445 0.000704 0.000000 0.000000 0.000000
# 2 -0.005445 0.015828 -0.008090 0.000000 0.000000 0.000000
# 3 0.000704 -0.008090 0.013089 0.000000 0.000000 0.000000
# 4 0.000000 0.000000 0.000000 0.058116 0.000000 0.000000
# 5 0.000000 0.000000 0.000000 0.000000 0.034872 0.000000
# 6 0.000000 0.000000 0.000000 0.000000 0.000000 0.042944
#
#
# Mechanical properties :
#
#
# Convention : Reuss Voigt Hill
#
# Bulk Modulus (GPa) = 38.71898 51.14186 44.93042
# Shear Modulus (GPa) = 22.55408 25.16661 23.86034
#
# Velocity S-wave (km/s) = 3.38509 3.57578 3.48174
# Velocity P-wave (km/s) = 5.91186 6.55983 6.24426
#
# Compressibility (1/GPa) = 0.02582712
#
# Stress axis : x y z
#
# Youngs Moduli (GPa) = 44.30429 63.17859 76.40090
#
# Poissons Ratio (x) = 0.34399 -0.05378
# Poissons Ratio (y) = 0.24122 0.61806
# Poissons Ratio (z) = -0.03119 0.51110
#
# Static dielectric constant tensor:
#      x y z
#    x 3.398380 0.000000 0.000000 
#    y 0.000000 3.802870 0.000000 
#    z 0.000000 0.000000 3.537890 
# 
# 
# High freq. dielectric constant tensor:
#      x y z
#    x 1.755250 0.000000 0.000000 
#    y 0.000000 1.780930 0.000000 
#    z 0.000000 0.000000 1.765600 
# 
# From -- ./inp_files/1979.got.cif
#   From: 2010.03.12/outbox.cif.g09.slc.cpg/sg25_1_cif.got.tgz:1979.got - 2010.04.14 03:30:10.
