data_PCOD8166463
_publ_section_title
;
Structure prediction by ZEFSAII (Michael W. Deem and Ramdas Pophale) SiO2 
 PCOD8166463
Probable space group: P M M 2
;
_chemical_formula_sum "Si O2"
_cell_formula_units_Z 32
_cell_length_a 9.046416
_cell_length_b 14.127825
_cell_length_c 15.641590
_cell_angle_alpha 90.000000
_cell_angle_beta 90.000000
_cell_angle_gamma 90.000000
_cell_volume 1999.091900
_symmetry_space_group_name_H-M "P M M 2"
_symmetry_group_IT_number 25
_symmetry_cell_setting 'orthorhombic'
loop_
_space_group_symop_operation_xyz
x,y,z
-x,-y,z
-x,y,z
x,-y,z
loop_
_atom_site_type_symbol
_atom_site_label
_atom_site_fract_x
_atom_site_fract_y
_atom_site_fract_z
Si Si1 0.171393 0.107433 0.665540
Si Si2 0.824410 0.719623 0.417811
Si Si3 0.823990 0.394621 0.254925
Si Si4 0.672249 0.107409 0.486464
Si Si5 0.326950 0.276445 0.739798
Si Si6 0.164506 0.612750 0.068925
Si Si7 0.671057 0.610163 0.568921
Si Si8 0.674445 0.392925 0.902722
O O1 0.260695 0.126241 0.579204
O O2 0.236767 0.178207 0.736173
O O3 0.000000 0.129040 0.648039
O O4 0.194285 0.000000 0.697852
O O5 0.766668 0.673393 0.329840
O O6 0.752884 0.823873 0.419814
O O7 0.772115 0.656154 0.496706
O O8 0.000000 0.728134 0.420767
O O9 0.759541 0.500000 0.271418
O O10 0.772408 0.354583 0.161898
O O11 0.000000 0.400032 0.254956
O O12 0.500000 0.132212 0.491557
O O13 0.699749 0.000000 0.456215
O O14 0.500000 0.253340 0.745547
O O15 0.290290 0.342276 0.659103
O O16 0.269218 0.330130 0.823963
O O17 0.161692 0.500000 0.070439
O O18 0.000000 0.653141 0.054338
O O19 0.265277 0.650697 0.991565
O O20 0.500000 0.626255 0.545047
O O21 0.709817 0.500000 0.576400
O O22 0.500000 0.392272 0.907329
O O23 0.733086 0.500000 0.889334
#
# Coordination Sequence:
#
# PCOD8166463 Si02
#       8
#     4   4   4   4   4   4   4   4
#     4  10  20  33  49  69  91 115 149 196 240 272
#     4  11  20  30  47  70  94 121 155 195 234 272
#     4   8  15  28  45  66  94 125 154 185 226 274
#     4  10  20  34  50  66  88 120 155 191 234 282
#     4  10  19  31  47  66  92 127 158 185 226 276
#     4   8  14  27  46  65  87 119 156 191 227 268
#     4  10  20  32  44  61  91 130 164 188 216 264
#     4   9  17  29  45  67  95 124 154 189 227 267
#
# _framework density 16.007268
#
# number of rings (size 3 to 8) (size 9 to 14) (size 15 to 20)
#    0.000    2.500    1.250    2.625    0.000    4.250 
#    0.000    1.250    0.000    5.250    0.000    0.875 
#    0.000    1.000    0.000    0.000    0.000    0.000 
#
# Total GULP energy -396739.715363 kJ/mol
# GULP energy per Si atom -12398.116105 kJ/mol
# Density = 1.597083 g / cm^3
# Si number density = 16.007268 Si / 1000 Ang^3
#
#
#
# Elastic Constant Matrix: (Units=GPa)
#
#
# Indices 1 2 3 4 5 6 
#
# 1 56.3659 40.1500 43.1969 0.0000 0.0000 0.0000
# 2 40.1500 100.4704 61.1189 0.0000 0.0000 0.0000
# 3 43.1969 61.1189 134.7182 0.0000 0.0000 0.0000
# 4 0.0000 0.0000 0.0000 12.6034 0.0000 0.0000
# 5 0.0000 0.0000 0.0000 0.0000 19.0072 0.0000
# 6 0.0000 0.0000 0.0000 0.0000 0.0000 24.6421
#
#
#
# Elastic Compliance Matrix: (Units=1/GPa)
#
#
# Indices 1 2 3 4 5 6 
#
# 1 0.027242 -0.007697 -0.005243 0.000000 0.000000 0.000000
# 2 -0.007697 0.015922 -0.004755 0.000000 0.000000 0.000000
# 3 -0.005243 -0.004755 0.011262 0.000000 0.000000 0.000000
# 4 0.000000 0.000000 0.000000 0.079344 0.000000 0.000000
# 5 0.000000 0.000000 0.000000 0.000000 0.052612 0.000000
# 6 0.000000 0.000000 0.000000 0.000000 0.000000 0.040581
#
#
# Mechanical properties :
#
#
# Convention : Reuss Voigt Hill
#
# Bulk Modulus (GPa) = 52.53632 64.49846 58.51739
# Shear Modulus (GPa) = 18.60827 21.05644 19.83235
#
# Velocity S-wave (km/s) = 3.41323 3.63082 3.52370
# Velocity P-wave (km/s) = 6.95881 7.61301 7.29325
#
# Compressibility (1/GPa) = 0.01903445
#
# Stress axis : x y z
#
# Youngs Moduli (GPa) = 36.70804 62.80662 88.79788
#
# Poissons Ratio (x) = 0.48342 0.46558
# Poissons Ratio (y) = 0.28254 0.42227
# Poissons Ratio (z) = 0.19246 0.29867
#
# Static dielectric constant tensor:
#      x y z
#    x 2.971940 0.000000 0.000000 
#    y 0.000000 3.075800 0.000000 
#    z 0.000000 0.000000 3.193120 
# 
# 
# High freq. dielectric constant tensor:
#      x y z
#    x 1.609540 0.000000 0.000000 
#    y 0.000000 1.598750 0.000000 
#    z 0.000000 0.000000 1.605180 
# 
# From -- ./inp_files/5726.got.cif
#   From: 2010.03.12/outbox.cif.g09.slc.cpg/sg25_3_cif.got.tgz:5726.got - 2010.04.14 03:30:10.
