data_PCOD8166229
_publ_section_title
;
Structure prediction by ZEFSAII (Michael W. Deem and Ramdas Pophale) SiO2 
 PCOD8166229
Probable space group: I 21 21 21
;
_chemical_formula_sum "Si O2"
_cell_formula_units_Z 20
_cell_length_a 13.931415
_cell_length_b 4.874620
_cell_length_c 12.221794
_cell_angle_alpha 90.000000
_cell_angle_beta 90.000000
_cell_angle_gamma 90.000000
_cell_volume 829.986359
_symmetry_space_group_name_H-M "I 21 21 21"
_symmetry_group_IT_number 24
_symmetry_cell_setting 'orthorhombic'
loop_
_space_group_symop_operation_xyz
x,y,z
-x,1/2-y,z
x,-y,1/2-z
1/2-x,y,-z
1/2+x,1/2+y,1/2+z
1/2-x,-y,1/2+z
1/2+x,1/2-y,-z
-x,1/2+y,1/2-z
loop_
_atom_site_type_symbol
_atom_site_label
_atom_site_fract_x
_atom_site_fract_y
_atom_site_fract_z
Si Si1 0.141922 0.155139 0.492536
Si Si2 0.000000 0.750000 0.822983
Si Si3 0.899638 0.138479 0.145513
O O1 0.250000 0.270168 0.500000
O O2 0.088237 0.112941 0.608040
O O3 0.153910 0.885533 0.416302
O O4 0.078802 0.398048 0.440006
O O5 0.040938 0.500000 0.750000
O O6 0.000000 0.250000 0.191676
O O7 0.843532 0.000000 0.250000
#
# Coordination Sequence:
#
# PCOD8166229 Si02
#       3
#     8   4   8
#     4  12  26  46  72 106 148 191 249 303 363 448
#     4  12  26  48  72 100 148 198 242 298 370 440
#     4  12  23  44  73 106 138 184 236 305 374 432
#
# _framework density 24.096781
#
# number of rings (size 3 to 8) (size 9 to 14) (size 15 to 20)
#    0.000    0.000    4.000    7.200    0.000    4.800 
#    0.000    0.000    0.000    0.000    0.000    0.000 
#    0.000    0.000    0.000    0.000    0.000    0.000 
#
# Total GULP energy -123940.146116 kJ/mol
# GULP energy per Si atom -12394.014612 kJ/mol
# Density = 2.404194 g / cm^3
# Si number density = 24.096781 Si / 1000 Ang^3
#
#
#
# Elastic Constant Matrix: (Units=GPa)
#
#
# Indices 1 2 3 4 5 6 
#
# 1 90.7141 17.9707 41.5721 0.0000 0.0000 0.0000
# 2 17.9707 177.5975 68.6082 0.0000 0.0000 0.0000
# 3 41.5721 68.6082 125.8224 0.0000 0.0000 0.0000
# 4 0.0000 0.0000 0.0000 28.3413 0.0000 0.0000
# 5 0.0000 0.0000 0.0000 0.0000 9.2129 0.0000
# 6 0.0000 0.0000 0.0000 0.0000 0.0000 23.2445
#
#
#
# Elastic Compliance Matrix: (Units=1/GPa)
#
#
# Indices 1 2 3 4 5 6 
#
# 1 0.013017 0.000436 -0.004539 0.000000 0.000000 0.000000
# 2 0.000436 0.007148 -0.004042 0.000000 0.000000 0.000000
# 3 -0.004539 -0.004042 0.011651 0.000000 0.000000 0.000000
# 4 0.000000 0.000000 0.000000 0.035284 0.000000 0.000000
# 5 0.000000 0.000000 0.000000 0.000000 0.108544 0.000000
# 6 0.000000 0.000000 0.000000 0.000000 0.000000 0.043021
#
#
# Mechanical properties :
#
#
# Convention : Reuss Voigt Hill
#
# Bulk Modulus (GPa) = 64.40082 72.27068 68.33575
# Shear Modulus (GPa) = 20.82207 29.89194 25.35701
#
# Velocity S-wave (km/s) = 2.94275 3.52589 3.24743
# Velocity P-wave (km/s) = 6.19115 6.82882 6.51779
#
# Compressibility (1/GPa) = 0.01552775
#
# Stress axis : x y z
#
# Youngs Moduli (GPa) = 76.82113 139.90031 85.82796
#
# Poissons Ratio (x) = -0.06103 0.38956
# Poissons Ratio (y) = -0.03351 0.34689
# Poissons Ratio (z) = 0.34868 0.56544
#
# Static dielectric constant tensor:
#      x y z
#    x 3.810770 0.000000 0.000000 
#    y 0.000000 4.447020 0.000000 
#    z 0.000000 0.000000 4.431730 
# 
# 
# High freq. dielectric constant tensor:
#      x y z
#    x 1.920330 0.000000 0.000000 
#    y 0.000000 1.979680 0.000000 
#    z 0.000000 0.000000 1.967160 
# 
# From -- ./inp_files/13536.got.cif
#   From: 2010.03.12/outbox.cif.g09.slc.cpg/sg24_7_cif.got.tgz:13536.got - 2010.04.14 03:06:53.
