data_PCOD8166145
_publ_section_title
;
Structure prediction by ZEFSAII (Michael W. Deem and Ramdas Pophale) SiO2 
 PCOD8166145
Probable space group: I 21 21 21
;
_chemical_formula_sum "Si O2"
_cell_formula_units_Z 56
_cell_length_a 13.428391
_cell_length_b 21.221546
_cell_length_c 9.051458
_cell_angle_alpha 90.000000
_cell_angle_beta 90.000000
_cell_angle_gamma 90.000000
_cell_volume 2579.405005
_symmetry_space_group_name_H-M "I 21 21 21"
_symmetry_group_IT_number 24
_symmetry_cell_setting 'orthorhombic'
loop_
_space_group_symop_operation_xyz
x,y,z
-x,1/2-y,z
x,-y,1/2-z
1/2-x,y,-z
1/2+x,1/2+y,1/2+z
1/2-x,-y,1/2+z
1/2+x,1/2-y,-z
-x,1/2+y,1/2-z
loop_
_atom_site_type_symbol
_atom_site_label
_atom_site_fract_x
_atom_site_fract_y
_atom_site_fract_z
Si Si1 0.540695 0.684181 0.678272
Si Si2 0.481946 0.598222 0.425274
Si Si3 0.185927 0.057770 0.849811
Si Si4 0.623509 0.861235 0.897853
Si Si5 0.240441 0.194885 0.825880
Si Si6 0.651026 0.000607 0.920651
Si Si7 0.834973 0.823350 0.790903
O O1 0.500000 0.750000 0.626677
O O2 0.545786 0.646358 0.524887
O O3 0.473274 0.651365 0.801416
O O4 0.649596 0.696311 0.746497
O O5 0.565710 0.552406 0.356617
O O6 0.425883 0.554544 0.540896
O O7 0.407719 0.633590 0.311072
O O8 0.199196 0.126835 0.776626
O O9 0.225388 0.000000 0.750000
O O10 0.250000 0.053808 0.000000
O O11 0.723772 0.853802 0.798235
O O12 0.615794 0.931102 0.967918
O O13 0.623256 0.816809 0.042340
O O14 0.171438 0.251836 0.768072
O O15 0.250000 0.203761 0.000000
O O16 0.672744 0.000000 0.750000
O O17 0.750000 0.021206 0.000000
#
# Coordination Sequence:
#
# PCOD8166145 Si02
#       7
#     8   8   8   8   8   8   8
#     4  12  23  44  75 102 135 185 241 288 349 425
#     4  12  27  43  75 101 137 187 242 292 350 429
#     4  11  27  51  71 104 140 186 243 298 352 428
#     4  11  25  45  64 107 149 182 227 290 349 431
#     4  11  23  48  77 100 139 187 239 290 356 422
#     4  12  25  41  68 101 144 188 226 282 360 423
#     4  11  25  46  70 104 149 178 231 294 360 417
#
# _framework density 21.710435
#
# number of rings (size 3 to 8) (size 9 to 14) (size 15 to 20)
#    0.000    0.571    7.143    1.714    2.000    1.714 
#    5.143    0.000    0.000    0.000    0.000    0.000 
#    0.000    0.000    0.000    0.000    0.000    0.000 
#
# Total GULP energy -347073.413003 kJ/mol
# GULP energy per Si atom -12395.479036 kJ/mol
# Density = 2.166102 g / cm^3
# Si number density = 21.710435 Si / 1000 Ang^3
#
#
#
# Elastic Constant Matrix: (Units=GPa)
#
#
# Indices 1 2 3 4 5 6 
#
# 1 117.7968 25.1062 46.4474 0.0001 0.0000 0.0002
# 2 25.1062 133.9918 42.3260 0.0002 0.0000 -0.0002
# 3 46.4474 42.3260 96.3137 0.0018 0.0016 0.0012
# 4 0.0001 0.0002 0.0018 41.5159 0.0005 0.0012
# 5 0.0000 0.0000 0.0016 0.0005 21.2953 0.0005
# 6 0.0002 -0.0002 0.0012 0.0012 0.0005 3.8073
#
#
#
# Elastic Compliance Matrix: (Units=1/GPa)
#
#
# Indices 1 2 3 4 5 6 
#
# 1 0.010503 -0.000427 -0.004878 0.000000 0.000000 0.000001
# 2 -0.000427 0.008684 -0.003610 0.000000 0.000000 0.000002
# 3 -0.004878 -0.003610 0.014321 -0.000001 -0.000001 -0.000004
# 4 0.000000 0.000000 -0.000001 0.024087 -0.000001 -0.000008
# 5 0.000000 0.000000 -0.000001 -0.000001 0.046959 -0.000007
# 6 0.000001 0.000002 -0.000004 -0.000008 -0.000007 0.262654
#
#
# Mechanical properties :
#
#
# Convention : Reuss Voigt Hill
#
# Bulk Modulus (GPa) = 63.78066 63.98461 63.88263
# Shear Modulus (GPa) = 12.81184 28.93856 20.87520
#
# Velocity S-wave (km/s) = 2.43188 3.65490 3.10422
# Velocity P-wave (km/s) = 6.10959 6.88090 6.50668
#
# Compressibility (1/GPa) = 0.01567873
#
# Stress axis : x y z
#
# Youngs Moduli (GPa) = 95.20653 115.16022 69.82571
#
# Poissons Ratio (x) = 0.04921 0.34058
# Poissons Ratio (y) = 0.04068 0.25207
# Poissons Ratio (z) = 0.46437 0.41573
#
# Static dielectric constant tensor:
#      x y z
#    x 3.865490 0.000000 -0.000010 
#    y 0.000000 4.261110 0.000000 
#    z -0.000010 0.000000 3.896690 
# 
# 
# High freq. dielectric constant tensor:
#      x y z
#    x 1.860430 0.000000 0.000000 
#    y 0.000000 1.869000 0.000000 
#    z 0.000000 0.000000 1.841570 
# 
# From -- ./inp_files/13157.got.cif
#   From: 2010.03.12/outbox.cif.g09.slc.cpg/sg24_7_cif.got.tgz:13157.got - 2010.04.14 03:06:53.
