data_PCOD8166280
_publ_section_title
;
Structure prediction by ZEFSAII (Michael W. Deem and Ramdas Pophale) SiO2 
 PCOD8166280
Probable space group: I 21 21 21
;
_chemical_formula_sum "Si O2"
_cell_formula_units_Z 32
_cell_length_a 8.819402
_cell_length_b 29.516979
_cell_length_c 5.075144
_cell_angle_alpha 90.000000
_cell_angle_beta 90.000000
_cell_angle_gamma 90.000000
_cell_volume 1321.172162
_symmetry_space_group_name_H-M "I 21 21 21"
_symmetry_group_IT_number 24
_symmetry_cell_setting 'orthorhombic'
loop_
_space_group_symop_operation_xyz
x,y,z
-x,1/2-y,z
x,-y,1/2-z
1/2-x,y,-z
1/2+x,1/2+y,1/2+z
1/2-x,-y,1/2+z
1/2+x,1/2-y,-z
-x,1/2+y,1/2-z
loop_
_atom_site_type_symbol
_atom_site_label
_atom_site_fract_x
_atom_site_fract_y
_atom_site_fract_z
Si Si1 0.404871 0.793533 0.117018
Si Si2 0.019925 0.000000 0.750000
Si Si3 0.250000 0.070592 0.000000
Si Si4 0.750000 0.954318 0.000000
Si Si5 0.750000 0.892223 0.500000
Si Si6 0.945836 0.350019 0.115025
O O1 0.500000 0.750000 0.197810
O O2 0.364261 0.821499 0.381022
O O3 0.250000 0.774356 0.000000
O O4 0.479881 0.824117 0.887203
O O5 0.904520 0.015532 0.517480
O O6 0.131667 0.040550 0.834612
O O7 0.350890 0.104151 0.816546
O O8 0.732347 0.923759 0.748857
O O9 0.605278 0.860435 0.477275
#
# Coordination Sequence:
#
# PCOD8166280 Si02
#       6
#     8   4   4   4   4   8
#     4  12  27  49  78 111 148 190 245 315 386 470
#     4  12  30  46  80 112 162 210 276 324 390 450
#     4  12  28  48  75 116 149 217 258 327 378 454
#     4  12  27  52  70 114 151 203 256 328 376 450
#     4  12  27  48  79 108 152 202 250 311 392 454
#     4  12  27  50  76 110 153 195 255 309 386 463
#
# _framework density 24.220915999999999
#
# number of rings (size 3 to 8) (size 9 to 14) (size 15 to 20)
#    0.000    0.000    5.000    3.000    7.000    0.000 
#    0.000    0.000    0.000    0.000    0.000    0.000 
#    0.000    0.000    0.000    0.000    0.000    0.000 
#
# Total GULP energy -198353.487709 kJ/mol
# GULP energy per Si atom -12397.092982 kJ/mol
# Density = 2.416579 g / cm^3
# Si number density = 24.220916 Si / 1000 Ang^3
#
#
#
# Elastic Constant Matrix: (Units=GPa)
#
#
# Indices 1 2 3 4 5 6 
#
# 1 163.3360 62.5220 27.0631 -0.3481 0.0458 -0.1906
# 2 62.5220 144.3015 57.4561 -0.1778 0.0659 -0.1542
# 3 27.0631 57.4561 149.0524 -0.5134 0.2252 -0.2081
# 4 -0.3481 -0.1778 -0.5134 27.3146 -0.0145 0.0868
# 5 0.0458 0.0659 0.2252 -0.0145 40.7578 -0.1671
# 6 -0.1906 -0.1542 -0.2081 0.0868 -0.1671 52.5155
#
#
#
# Elastic Compliance Matrix: (Units=1/GPa)
#
#
# Indices 1 2 3 4 5 6 
#
# 1 0.007342 -0.003131 -0.000126 0.000071 -0.000002 0.000017
# 2 -0.003131 0.009521 -0.003102 -0.000036 0.000005 0.000004
# 3 -0.000126 -0.003102 0.007928 0.000127 -0.000039 0.000022
# 4 0.000071 -0.000036 0.000127 0.036614 0.000012 -0.000060
# 5 -0.000002 0.000005 -0.000039 0.000012 0.024536 0.000078
# 6 0.000017 0.000004 0.000022 -0.000060 0.000078 0.019042
#
#
# Mechanical properties :
#
#
# Convention : Reuss Voigt Hill
#
# Bulk Modulus (GPa) = 82.82187 83.41915 83.12051
# Shear Modulus (GPa) = 41.07608 44.76084 42.91846
#
# Velocity S-wave (km/s) = 4.12259 4.30353 4.21403
# Velocity P-wave (km/s) = 7.54517 7.69477 7.62034
#
# Compressibility (1/GPa) = 0.01207410
#
# Stress axis : x y z
#
# Youngs Moduli (GPa) = 136.20671 105.02583 126.13243
#
# Poissons Ratio (x) = 0.32881 0.01588
# Poissons Ratio (y) = 0.42643 0.39126
# Poissons Ratio (z) = 0.01715 0.32579
#
# Static dielectric constant tensor:
#      x y z
#    x 4.858810 0.000270 -0.000070 
#    y 0.000270 4.512180 0.000210 
#    z -0.000070 0.000210 4.216600 
# 
# 
# High freq. dielectric constant tensor:
#      x y z
#    x 1.988800 0.000010 -0.000010 
#    y 0.000010 1.968210 0.000010 
#    z -0.000010 0.000010 1.959190 
# 
# From -- ./inp_files/1243.got.cif
#   From: 2010.03.12/outbox.cif.g09.slc.cpg/sg24_1_cif.got.tgz:1243.got - 2010.04.14 03:06:53.
