data_PCOD8166901
_publ_section_title
;
Structure prediction by ZEFSAII (Michael W. Deem and Ramdas Pophale) SiO2 
 PCOD8166901
Probable space group: P M M 2
;
_chemical_formula_sum "Si O2"
_cell_formula_units_Z 32
_cell_length_a 8.936867
_cell_length_b 14.087781
_cell_length_c 13.079465
_cell_angle_alpha 90.000000
_cell_angle_beta 90.000000
_cell_angle_gamma 90.000000
_cell_volume 1646.712820
_symmetry_space_group_name_H-M "P M M 2"
_symmetry_group_IT_number 25
_symmetry_cell_setting 'orthorhombic'
loop_
_space_group_symop_operation_xyz
x,y,z
-x,-y,z
-x,y,z
x,-y,z
loop_
_atom_site_type_symbol
_atom_site_label
_atom_site_fract_x
_atom_site_fract_y
_atom_site_fract_z
Si Si1 0.322439 0.604265 0.659480
Si Si2 0.172194 0.887599 0.341647
Si Si3 0.665573 0.612375 0.435418
Si Si4 0.329033 0.111955 0.546298
Si Si5 0.824433 0.608552 0.232897
Si Si6 0.678311 0.107459 0.953596
Si Si7 0.322090 0.792765 0.751457
Si Si8 0.677317 0.784049 0.154315
O O1 0.500000 0.594409 0.657648
O O2 0.252059 0.500000 0.684113
O O3 0.274293 0.644398 0.547198
O O4 0.272061 0.681744 0.743873
O O5 0.235304 0.849245 0.449742
O O6 0.266083 0.841455 0.251517
O O7 0.000000 0.857330 0.331335
O O8 0.193508 0.000000 0.334475
O O9 0.500000 0.654597 0.411818
O O10 0.654689 0.500000 0.439457
O O11 0.779038 0.644381 0.346556
O O12 0.500000 0.145085 0.531010
O O13 0.261168 0.153203 0.651336
O O14 0.316187 0.000000 0.554302
O O15 0.772485 0.500000 0.213497
O O16 0.742637 0.676958 0.151985
O O17 0.000000 0.619152 0.220415
O O18 0.500000 0.106811 0.950381
O O19 0.745266 0.160587 0.853810
O O20 0.740086 0.000000 0.956073
O O21 0.736154 0.162761 0.053211
O O22 0.500000 0.801888 0.754542
O O23 0.500000 0.778772 0.156448
#
# Coordination Sequence:
#
# PCOD8166901 Si02
#       8
#     4   4   4   4   4   4   4   4
#     4   8  14  24  40  67 103 138 173 212 255 308
#     4  10  21  36  53  76 109 144 177 221 279 337
#     4   8  14  26  45  70 102 140 178 215 254 302
#     4   9  17  29  48  76 106 135 170 213 264 328
#     4  10  21  36  53  76 108 144 181 222 271 327
#     4   9  18  33  52  75 103 136 178 231 282 324
#     4   9  16  27  47  74 104 138 176 216 270 327
#     4  11  22  35  55  79 105 140 186 232 276 326
#
# _framework density 19.432652999999998
#
# number of rings (size 3 to 8) (size 9 to 14) (size 15 to 20)
#    0.000    2.750    0.000    2.625    1.750    3.500 
#    0.000    0.625    0.000    3.750    0.000    1.750 
#    0.000    2.000    0.000    0.000    0.000    0.000 
#
# Total GULP energy -396673.230316 kJ/mol
# GULP energy per Si atom -12396.038447 kJ/mol
# Density = 1.938842 g / cm^3
# Si number density = 19.432653 Si / 1000 Ang^3
#
#
#
# Elastic Constant Matrix: (Units=GPa)
#
#
# Indices 1 2 3 4 5 6 
#
# 1 47.5824 28.9153 29.8787 0.0000 0.0000 0.0000
# 2 28.9153 103.4214 85.5385 0.0000 0.0000 0.0000
# 3 29.8787 85.5385 151.6105 0.0000 0.0000 0.0000
# 4 0.0000 0.0000 0.0000 37.7696 0.0000 0.0000
# 5 0.0000 0.0000 0.0000 0.0000 1.5369 0.0000
# 6 0.0000 0.0000 0.0000 0.0000 0.0000 19.9993
#
#
#
# Elastic Compliance Matrix: (Units=1/GPa)
#
#
# Indices 1 2 3 4 5 6 
#
# 1 0.025603 -0.005597 -0.001888 0.000000 0.000000 0.000000
# 2 -0.005597 0.019352 -0.009816 0.000000 0.000000 0.000000
# 3 -0.001888 -0.009816 0.012506 0.000000 0.000000 0.000000
# 4 0.000000 0.000000 0.000000 0.026476 0.000000 0.000000
# 5 0.000000 0.000000 0.000000 0.000000 0.650652 0.000000
# 6 0.000000 0.000000 0.000000 0.000000 0.000000 0.050002
#
#
# Mechanical properties :
#
#
# Convention : Reuss Voigt Hill
#
# Bulk Modulus (GPa) = 43.74380 65.69771 54.72075
# Shear Modulus (GPa) = 6.04733 22.41329 14.23031
#
# Velocity S-wave (km/s) = 1.76598 3.39983 2.70902
# Velocity P-wave (km/s) = 5.16891 7.02091 6.16485
#
# Compressibility (1/GPa) = 0.02286038
#
# Stress axis : x y z
#
# Youngs Moduli (GPa) = 39.05832 51.67363 79.96248
#
# Poissons Ratio (x) = 0.28920 0.15097
# Poissons Ratio (y) = 0.21859 0.78488
# Poissons Ratio (z) = 0.07374 0.50721
#
# Static dielectric constant tensor:
#      x y z
#    x 3.141620 0.000000 0.000000 
#    y 0.000000 3.833800 0.000000 
#    z 0.000000 0.000000 3.701550 
# 
# 
# High freq. dielectric constant tensor:
#      x y z
#    x 1.707130 0.000000 0.000000 
#    y 0.000000 1.774340 0.000000 
#    z 0.000000 0.000000 1.744550 
# 
# From -- ./inp_files/4273.got.cif
#   From: 2010.03.12/outbox.cif.g09.slc.cpg/sg25_3_cif.got.tgz:4273.got - 2010.04.14 03:30:10.
