data_PCOD8166364
_publ_section_title
;
Structure prediction by ZEFSAII (Michael W. Deem and Ramdas Pophale) SiO2 
 PCOD8166364
Probable space group: P M M 2
;
_chemical_formula_sum "Si O2"
_cell_formula_units_Z 32
_cell_length_a 13.385189
_cell_length_b 18.565896
_cell_length_c 7.491113
_cell_angle_alpha 90.000000
_cell_angle_beta 90.000000
_cell_angle_gamma 90.000000
_cell_volume 1861.601711
_symmetry_space_group_name_H-M "P M M 2"
_symmetry_group_IT_number 25
_symmetry_cell_setting 'orthorhombic'
loop_
_space_group_symop_operation_xyz
x,y,z
-x,-y,z
-x,y,z
x,-y,z
loop_
_atom_site_type_symbol
_atom_site_label
_atom_site_fract_x
_atom_site_fract_y
_atom_site_fract_z
Si Si1 0.886547 0.829892 0.260750
Si Si2 0.118227 0.728068 0.583915
Si Si3 0.111711 0.578760 0.974393
Si Si4 0.615626 0.081431 0.669752
Si Si5 0.614115 0.181198 0.997515
Si Si6 0.301248 0.083102 0.289182
Si Si7 0.111302 0.424511 0.551571
Si Si8 0.199273 0.727646 0.975039
O O1 0.857902 0.790659 0.445487
O O2 0.813759 0.898272 0.242819
O O3 0.000000 0.857993 0.263610
O O4 0.873151 0.776346 0.095123
O O5 0.160121 0.652186 0.496313
O O6 0.172420 0.743782 0.769909
O O7 0.000000 0.719848 0.620283
O O8 0.149605 0.500000 0.045554
O O9 0.106807 0.576853 0.763564
O O10 0.184637 0.644005 0.032868
O O11 0.000000 0.593797 0.049185
O O12 0.500000 0.090744 0.620386
O O13 0.647956 0.134512 0.827212
O O14 0.679387 0.100669 0.495700
O O15 0.638024 0.000000 0.733382
O O16 0.500000 0.207733 0.982309
O O17 0.685169 0.251150 0.009097
O O18 0.624662 0.131711 0.172167
O O19 0.322263 0.000000 0.244889
O O20 0.166533 0.500000 0.490583
O O21 0.000000 0.428025 0.471832
#
# Coordination Sequence:
#
# PCOD8166364 Si02
#       8
#     4   4   4   4   4   4   4   4
#     4  10  20  31  44  65  90 118 154 186 216 265
#     4   9  16  27  44  64  89 121 150 178 217 262
#     4   8  13  23  42  66  89 116 150 183 217 259
#     4   9  17  30  49  71  92 113 142 183 228 272
#     4  10  20  32  48  70  92 115 147 188 231 272
#     4  10  20  33  49  67  89 118 148 182 227 273
#     4   7  10  18  34  57  84 113 143 173 207 247
#     4  10  18  30  47  65  91 122 151 186 226 266
#
# _framework density 17.189499999999999
#
# number of rings (size 3 to 8) (size 9 to 14) (size 15 to 20)
#    0.000    2.875    0.000    4.125    0.000    1.500 
#    0.000    0.625    0.000    2.625    0.000    3.500 
#    0.000    0.000    0.000    7.750    0.000    0.375 
#
# Total GULP energy -396478.115273 kJ/mol
# GULP energy per Si atom -12389.941102 kJ/mol
# Density = 1.715038 g / cm^3
# Si number density = 17.189500 Si / 1000 Ang^3
#
#
#
# Elastic Constant Matrix: (Units=GPa)
#
#
# Indices 1 2 3 4 5 6 
#
# 1 70.8269 39.5889 16.3370 0.0000 0.0000 0.0000
# 2 39.5889 88.0468 18.7068 0.0000 0.0000 0.0000
# 3 16.3370 18.7068 51.5474 0.0000 0.0000 0.0000
# 4 0.0000 0.0000 0.0000 -10.8283 0.0000 0.0000
# 5 0.0000 0.0000 0.0000 0.0000 16.8060 0.0000
# 6 0.0000 0.0000 0.0000 0.0000 0.0000 15.9627
#
#
#
# Elastic Compliance Matrix: (Units=1/GPa)
#
#
# Indices 1 2 3 4 5 6 
#
# 1 0.019340 -0.008011 -0.003222 0.000000 0.000000 0.000000
# 2 -0.008011 0.015625 -0.003131 0.000000 0.000000 0.000000
# 3 -0.003222 -0.003131 0.021557 0.000000 0.000000 0.000000
# 4 0.000000 0.000000 0.000000 -0.092350 0.000000 0.000000
# 5 0.000000 0.000000 0.000000 0.000000 0.059503 0.000000
# 6 0.000000 0.000000 0.000000 0.000000 0.000000 0.062646
#
#
# Mechanical properties :
#
#
# Convention : Reuss Voigt Hill
#
# Bulk Modulus (GPa) = 35.98072 39.96516 37.97294
# Shear Modulus (GPa) = 40.22051 13.44063 26.83057
#
# Velocity S-wave (km/s) = 4.84243 2.79930 3.95507
# Velocity P-wave (km/s) = 7.22791 5.80933 6.55710
#
# Compressibility (1/GPa) = 0.02779266
#
# Stress axis : x y z
#
# Youngs Moduli (GPa) = 51.70587 63.99950 46.38824
#
# Poissons Ratio (x) = 0.51273 0.14947
# Poissons Ratio (y) = 0.41424 0.14526
# Poissons Ratio (z) = 0.16660 0.20041
#
# Static dielectric constant tensor:
#      x y z
#    x 2.899940 0.000000 0.000000 
#    y 0.000000 3.591840 0.000000 
#    z 0.000000 0.000000 3.123260 
# 
# 
# High freq. dielectric constant tensor:
#      x y z
#    x 1.619950 0.000000 0.000000 
#    y 0.000000 1.665680 0.000000 
#    z 0.000000 0.000000 1.665140 
# 
# From -- ./inp_files/2881.got.cif
#   From: 2010.03.12/outbox.cif.g09.slc.cpg/sg25_2_cif.got.tgz:2881.got - 2010.04.14 03:30:10.
