data_PCOD8166007
_publ_section_title
;
Structure prediction by ZEFSAII (Michael W. Deem and Ramdas Pophale) SiO2 
 PCOD8166007
Probable space group: I 21 21 21
;
_chemical_formula_sum "Si O2"
_cell_formula_units_Z 40
_cell_length_a 9.424432
_cell_length_b 8.933774
_cell_length_c 26.874990
_cell_angle_alpha 90.000000
_cell_angle_beta 90.000000
_cell_angle_gamma 90.000000
_cell_volume 2262.759820
_symmetry_space_group_name_H-M "I 21 21 21"
_symmetry_group_IT_number 24
_symmetry_cell_setting 'orthorhombic'
loop_
_space_group_symop_operation_xyz
x,y,z
-x,1/2-y,z
x,-y,1/2-z
1/2-x,y,-z
1/2+x,1/2+y,1/2+z
1/2-x,-y,1/2+z
1/2+x,1/2-y,-z
-x,1/2+y,1/2-z
loop_
_atom_site_type_symbol
_atom_site_label
_atom_site_fract_x
_atom_site_fract_y
_atom_site_fract_z
Si Si1 0.144503 0.668773 0.454515
Si Si2 0.855783 0.667186 0.731943
Si Si3 0.040926 0.587927 0.109599
Si Si4 0.865146 0.145100 0.284667
Si Si5 0.854817 0.337083 0.140457
O O1 0.250000 0.661997 0.500000
O O2 0.114705 0.500477 0.435475
O O3 0.212892 0.760602 0.408579
O O4 0.000000 0.750000 0.471751
O O5 0.888339 0.500000 0.750000
O O6 0.777735 0.761947 0.774630
O O7 0.757303 0.666111 0.683835
O O8 0.000000 0.750000 0.717529
O O9 0.144130 0.597071 0.157626
O O10 0.000000 0.750000 0.088710
O O11 0.895902 0.507655 0.127842
O O12 0.000000 0.250000 0.274318
O O13 0.877394 0.000000 0.250000
O O14 0.000000 0.250000 0.155392
#
# Coordination Sequence:
#
# PCOD8166007 Si02
#       5
#     8   8   8   8   8
#     4   9  19  36  57  77  99 131 172 213 255 305
#     4  12  24  35  49  76 112 145 174 212 261 308
#     4   9  17  31  55  81 102 127 169 217 255 298
#     4  11  19  32  55  79 105 140 178 212 251 304
#     4   9  19  36  57  77  99 135 180 212 244 305
#
# _framework density 17.677527000000001
#
# number of rings (size 3 to 8) (size 9 to 14) (size 15 to 20)
#    0.000    2.400    0.000    7.800    0.000    1.600 
#    0.000    4.000    0.000    3.600    0.000    0.000 
#    0.000    0.000    0.000    0.000    0.000    0.000 
#
# Total GULP energy -247950.396136 kJ/mol
# GULP energy per Si atom -12397.519807 kJ/mol
# Density = 1.763729 g / cm^3
# Si number density = 17.677527 Si / 1000 Ang^3
#
#
#
# Elastic Constant Matrix: (Units=GPa)
#
#
# Indices 1 2 3 4 5 6 
#
# 1 94.8377 50.6779 64.4910 0.0000 0.0000 0.0000
# 2 50.6779 150.1930 58.5191 0.0000 0.0000 0.0000
# 3 64.4910 58.5191 130.2925 0.0000 0.0000 0.0000
# 4 0.0000 0.0000 0.0000 17.5311 0.0000 0.0000
# 5 0.0000 0.0000 0.0000 0.0000 30.8578 0.0000
# 6 0.0000 0.0000 0.0000 0.0000 0.0000 16.8273
#
#
#
# Elastic Compliance Matrix: (Units=1/GPa)
#
#
# Indices 1 2 3 4 5 6 
#
# 1 0.016917 -0.002964 -0.007042 0.000000 0.000000 0.000000
# 2 -0.002964 0.008590 -0.002391 0.000000 0.000000 0.000000
# 3 -0.007042 -0.002391 0.012234 0.000000 0.000000 0.000000
# 4 0.000000 0.000000 0.000000 0.057042 0.000000 0.000000
# 5 0.000000 0.000000 0.000000 0.000000 0.032407 0.000000
# 6 0.000000 0.000000 0.000000 0.000000 0.000000 0.059427
#
#
# Mechanical properties :
#
#
# Convention : Reuss Voigt Hill
#
# Bulk Modulus (GPa) = 77.23788 80.29992 78.76890
# Shear Modulus (GPa) = 23.17746 26.48559 24.83152
#
# Velocity S-wave (km/s) = 3.62488 3.87494 3.75199
# Velocity P-wave (km/s) = 7.82989 8.09591 7.96401
#
# Compressibility (1/GPa) = 0.01294702
#
# Stress axis : x y z
#
# Youngs Moduli (GPa) = 59.11179 116.41690 81.73660
#
# Poissons Ratio (x) = 0.34510 0.57560
# Poissons Ratio (y) = 0.17523 0.19541
# Poissons Ratio (z) = 0.41627 0.27832
#
# Static dielectric constant tensor:
#      x y z
#    x 3.073110 0.000000 0.000000 
#    y 0.000000 3.604890 0.000000 
#    z 0.000000 0.000000 3.180970 
# 
# 
# High freq. dielectric constant tensor:
#      x y z
#    x 1.654740 0.000000 0.000000 
#    y 0.000000 1.706520 0.000000 
#    z 0.000000 0.000000 1.673830 
# 
# From -- ./inp_files/9483.got.cif
#   From: 2010.03.12/outbox.cif.g09.slc.cpg/sg24_5_cif.got.tgz:9483.got - 2010.04.14 03:06:53.
