data_PCOD8166014
_publ_section_title
;
Structure prediction by ZEFSAII (Michael W. Deem and Ramdas Pophale) SiO2 
 PCOD8166014
Probable space group: I 21 21 21
;
_chemical_formula_sum "Si O2"
_cell_formula_units_Z 56
_cell_length_a 14.691353
_cell_length_b 11.463085
_cell_length_c 14.877227
_cell_angle_alpha 90.000000
_cell_angle_beta 90.000000
_cell_angle_gamma 90.000000
_cell_volume 2505.447440
_symmetry_space_group_name_H-M "I 21 21 21"
_symmetry_group_IT_number 24
_symmetry_cell_setting 'orthorhombic'
loop_
_space_group_symop_operation_xyz
x,y,z
-x,1/2-y,z
x,-y,1/2-z
1/2-x,y,-z
1/2+x,1/2+y,1/2+z
1/2-x,-y,1/2+z
1/2+x,1/2-y,-z
-x,1/2+y,1/2-z
loop_
_atom_site_type_symbol
_atom_site_label
_atom_site_fract_x
_atom_site_fract_y
_atom_site_fract_z
Si Si1 0.339536 0.491416 0.456837
Si Si2 0.000000 0.750000 0.402909
Si Si3 0.170289 0.888782 0.949330
Si Si4 0.321890 0.301026 0.307005
Si Si5 0.526844 0.586624 0.440489
Si Si6 0.138126 0.638173 0.263729
Si Si7 0.094903 0.703784 0.071741
Si Si8 0.000000 0.250000 0.790654
O O1 0.250000 0.554102 0.500000
O O2 0.305947 0.403185 0.379805
O O3 0.416991 0.579395 0.423450
O O4 0.390481 0.427246 0.538829
O O5 0.047644 0.846945 0.466259
O O6 0.080053 0.686952 0.346973
O O7 0.190454 0.827004 0.852971
O O8 0.079247 0.964466 0.938781
O O9 0.250000 0.964996 0.000000
O O10 0.166501 0.787917 0.024836
O O11 0.245804 0.325943 0.229384
O O12 0.424448 0.313302 0.270720
O O13 0.557141 0.660150 0.353148
O O14 0.124435 0.500000 0.250000
O O15 0.100889 0.709081 0.178480
O O16 0.000000 0.750000 0.035813
#
# Coordination Sequence:
#
# PCOD8166014 Si02
#       8
#     8   4   8   8   8   8   8   4
#     4  11  21  38  69  99 126 168 217 274 335 388
#     4  11  28  46  63 100 138 174 229 276 338 415
#     4  11  22  42  71  97 131 172 220 269 331 392
#     4  11  24  42  67 106 131 165 225 282 326 399
#     4  11  26  46  64  90 134 187 222 263 334 402
#     4  12  25  41  69 104 135 172 221 283 348 395
#     4  11  19  38  63  99 133 162 217 281 324 393
#     4  11  28  44  61  92 142 180 219 272 322 395
#
# _framework density 22.351299000000001
#
# number of rings (size 3 to 8) (size 9 to 14) (size 15 to 20)
#    0.000    0.857    5.000    2.571    4.000    2.857 
#    0.000    2.857    0.000    0.000    0.000    0.000 
#    0.000    0.000    0.000    0.000    0.000    0.000 
#
# Total GULP energy -346980.474330 kJ/mol
# GULP energy per Si atom -12392.159798 kJ/mol
# Density = 2.230043 g / cm^3
# Si number density = 22.351299 Si / 1000 Ang^3
#
#
#
# Elastic Constant Matrix: (Units=GPa)
#
#
# Indices 1 2 3 4 5 6 
#
# 1 127.0626 25.1487 24.5735 0.0000 0.0000 0.0000
# 2 25.1487 81.2586 18.0641 0.0000 0.0000 0.0000
# 3 24.5735 18.0641 85.2966 0.0000 0.0000 0.0000
# 4 0.0000 0.0000 0.0000 12.7518 0.0000 0.0000
# 5 0.0000 0.0000 0.0000 0.0000 28.4946 0.0000
# 6 0.0000 0.0000 0.0000 0.0000 0.0000 27.1950
#
#
#
# Elastic Compliance Matrix: (Units=1/GPa)
#
#
# Indices 1 2 3 4 5 6 
#
# 1 0.008707 -0.002243 -0.002034 0.000000 0.000000 0.000000
# 2 -0.002243 0.013492 -0.002211 0.000000 0.000000 0.000000
# 3 -0.002034 -0.002211 0.012778 0.000000 0.000000 0.000000
# 4 0.000000 0.000000 0.000000 0.078420 0.000000 0.000000
# 5 0.000000 0.000000 0.000000 0.000000 0.035094 0.000000
# 6 0.000000 0.000000 0.000000 0.000000 0.000000 0.036771
#
#
# Mechanical properties :
#
#
# Convention : Reuss Voigt Hill
#
# Bulk Modulus (GPa) = 45.44992 47.68784 46.56888
# Shear Modulus (GPa) = 24.32231 28.74372 26.53302
#
# Velocity S-wave (km/s) = 3.30234 3.58997 3.44916
# Velocity P-wave (km/s) = 5.90924 6.21014 6.06155
#
# Compressibility (1/GPa) = 0.02200224
#
# Stress axis : x y z
#
# Youngs Moduli (GPa) = 114.84596 74.11762 78.25983
#
# Poissons Ratio (x) = 0.16623 0.15915
# Poissons Ratio (y) = 0.25757 0.17305
# Poissons Ratio (z) = 0.23355 0.16389
#
# Static dielectric constant tensor:
#      x y z
#    x 4.211120 0.000000 0.000000 
#    y 0.000000 3.815220 0.000000 
#    z 0.000000 0.000000 4.106090 
# 
# 
# High freq. dielectric constant tensor:
#      x y z
#    x 1.891670 0.000000 0.000000 
#    y 0.000000 1.857400 0.000000 
#    z 0.000000 0.000000 1.884800 
# 
# From -- ./inp_files/26537.got.cif
#   From: 2010.03.12/outbox.cif.g09.slc.cpg/sg24_14_cif.got.tgz:26537.got - 2010.04.14 03:06:53.
