data_PCOD8166866
_publ_section_title
;
Structure prediction by ZEFSAII (Michael W. Deem and Ramdas Pophale) SiO2 
 PCOD8166866
Probable space group: P M M 2
;
_chemical_formula_sum "Si O2"
_cell_formula_units_Z 24
_cell_length_a 15.354035
_cell_length_b 9.306913
_cell_length_c 9.820192
_cell_angle_alpha 90.000000
_cell_angle_beta 90.000000
_cell_angle_gamma 90.000000
_cell_volume 1403.292356
_symmetry_space_group_name_H-M "P M M 2"
_symmetry_group_IT_number 25
_symmetry_cell_setting 'orthorhombic'
loop_
_space_group_symop_operation_xyz
x,y,z
-x,-y,z
-x,y,z
x,-y,z
loop_
_atom_site_type_symbol
_atom_site_label
_atom_site_fract_x
_atom_site_fract_y
_atom_site_fract_z
Si Si1 0.719838 0.163497 0.761110
Si Si2 0.400655 0.832532 0.227601
Si Si3 0.092778 0.162538 0.736590
Si Si4 0.398874 0.333022 0.958793
Si Si5 0.259287 0.833892 0.443319
Si Si6 0.095453 0.332960 0.463783
O O1 0.818361 0.187336 0.822746
O O2 0.654084 0.271592 0.831738
O O3 0.720787 0.200382 0.600736
O O4 0.688471 0.000000 0.785771
O O5 0.500000 0.793506 0.264919
O O6 0.342488 0.784901 0.355625
O O7 0.390377 0.000000 0.193624
O O8 0.368656 0.745633 0.096002
O O9 0.090788 0.276941 0.617100
O O10 0.000000 0.177569 0.819122
O O11 0.099512 0.000000 0.675216
O O12 0.500000 0.303918 0.929402
O O13 0.378057 0.500000 0.974737
O O14 0.174010 0.749328 0.387827
O O15 0.239472 0.000000 0.420480
O O16 0.118462 0.500000 0.466289
O O17 0.000000 0.306739 0.394410
#
# Coordination Sequence:
#
# PCOD8166866 Si02
#       6
#     4   4   4   4   4   4
#     4   9  17  29  48  74  99 123 153 191 233 274
#     4   9  18  34  54  72  91 119 156 196 237 282
#     4   8  14  26  44  66  93 123 154 190 231 274
#     4  10  21  35  49  67  93 126 161 193 230 280
#     4   9  18  31  49  74  98 121 154 195 237 278
#     4   9  16  25  40  65  96 128 158 187 224 272
#
# _framework density 17.102637000000001
#
# number of rings (size 3 to 8) (size 9 to 14) (size 15 to 20)
#    0.000    3.000    0.000    2.000    0.000    6.000 
#    0.000    1.667    0.000    3.000    0.000    2.333 
#    0.000    0.000    0.000    0.000    0.000    0.000 
#
# Total GULP energy -297361.844601 kJ/mol
# GULP energy per Si atom -12390.076858 kJ/mol
# Density = 1.706371 g / cm^3
# Si number density = 17.102637 Si / 1000 Ang^3
#
#
#
# Elastic Constant Matrix: (Units=GPa)
#
#
# Indices 1 2 3 4 5 6 
#
# 1 121.8433 59.8266 55.4564 0.0000 0.0000 0.0000
# 2 59.8266 74.3768 37.8871 0.0000 0.0000 0.0000
# 3 55.4564 37.8871 58.7837 0.0000 0.0000 0.0000
# 4 0.0000 0.0000 0.0000 13.8656 0.0000 0.0000
# 5 0.0000 0.0000 0.0000 0.0000 5.2315 0.0000
# 6 0.0000 0.0000 0.0000 0.0000 0.0000 29.5915
#
#
#
# Elastic Compliance Matrix: (Units=1/GPa)
#
#
# Indices 1 2 3 4 5 6 
#
# 1 0.017267 -0.008324 -0.010924 0.000000 0.000000 0.000000
# 2 -0.008324 0.024030 -0.007635 0.000000 0.000000 0.000000
# 3 -0.010924 -0.007635 0.032238 0.000000 0.000000 0.000000
# 4 0.000000 0.000000 0.000000 0.072121 0.000000 0.000000
# 5 0.000000 0.000000 0.000000 0.000000 0.191151 0.000000
# 6 0.000000 0.000000 0.000000 0.000000 0.000000 0.033794
#
#
# Mechanical properties :
#
#
# Convention : Reuss Voigt Hill
#
# Bulk Modulus (GPa) = 50.58569 62.37157 56.47863
# Shear Modulus (GPa) = 11.60214 16.52663 14.06438
#
# Velocity S-wave (km/s) = 2.60740 3.11194 2.87078
# Velocity P-wave (km/s) = 6.22147 7.03281 6.63954
#
# Compressibility (1/GPa) = 0.01976843
#
# Stress axis : x y z
#
# Youngs Moduli (GPa) = 57.91537 41.61511 31.01913
#
# Poissons Ratio (x) = 0.34640 0.33886
# Poissons Ratio (y) = 0.48209 0.23682
# Poissons Ratio (z) = 0.63268 0.31772
#
# Static dielectric constant tensor:
#      x y z
#    x 3.702950 0.000000 0.000000 
#    y 0.000000 3.193580 0.000000 
#    z 0.000000 0.000000 2.780100 
# 
# 
# High freq. dielectric constant tensor:
#      x y z
#    x 1.680980 0.000000 0.000000 
#    y 0.000000 1.662490 0.000000 
#    z 0.000000 0.000000 1.604100 
# 
# From -- ./inp_files/3349.got.cif
#   From: 2010.03.12/outbox.cif.g09.slc.cpg/sg25_2_cif.got.tgz:3349.got - 2010.04.14 03:30:10.
