data_PCOD8166086
_publ_section_title
;
Structure prediction by ZEFSAII (Michael W. Deem and Ramdas Pophale) SiO2 
 PCOD8166086
Probable space group: I 21 21 21
;
_chemical_formula_sum "Si O2"
_cell_formula_units_Z 56
_cell_length_a 14.530198
_cell_length_b 8.529852
_cell_length_c 20.422790
_cell_angle_alpha 90.000000
_cell_angle_beta 90.000000
_cell_angle_gamma 90.000000
_cell_volume 2531.209547
_symmetry_space_group_name_H-M "I 21 21 21"
_symmetry_group_IT_number 24
_symmetry_cell_setting 'orthorhombic'
loop_
_space_group_symop_operation_xyz
x,y,z
-x,1/2-y,z
x,-y,1/2-z
1/2-x,y,-z
1/2+x,1/2+y,1/2+z
1/2-x,-y,1/2+z
1/2+x,1/2-y,-z
-x,1/2+y,1/2-z
loop_
_atom_site_type_symbol
_atom_site_label
_atom_site_fract_x
_atom_site_fract_y
_atom_site_fract_z
Si Si1 0.266003 0.225294 0.284942
Si Si2 0.335199 0.620162 0.416665
Si Si3 0.430445 0.624438 0.293023
Si Si4 0.972297 0.916445 0.463451
Si Si5 0.324991 0.391230 0.597150
Si Si6 0.755971 0.592118 0.347347
Si Si7 0.840629 0.557614 0.039472
O O1 0.356907 0.308600 0.258869
O O2 0.202287 0.340687 0.328941
O O3 0.208830 0.177711 0.218959
O O4 0.295753 0.070806 0.326759
O O5 0.385444 0.538620 0.355207
O O6 0.401992 0.624879 0.478236
O O7 0.247337 0.514445 0.433243
O O8 0.310071 0.795955 0.390947
O O9 0.500000 0.750000 0.321730
O O10 0.487723 0.500000 0.250000
O O11 0.000000 0.750000 0.432129
O O12 0.923511 0.020405 0.406687
O O13 0.061385 0.010666 0.492513
O O14 0.332507 0.243345 0.548919
O O15 0.841875 0.537666 0.391619
O O16 0.750000 0.500274 0.000000
#
# Coordination Sequence:
#
# PCOD8166086 Si02
#       7
#     8   8   8   8   8   8   8
#     4   9  20  42  66  98 129 175 218 271 334 400
#     4  11  22  41  64  95 134 180 225 272 335 402
#     4  11  23  38  61  96 139 178 223 274 335 405
#     4  12  25  41  64  98 133 174 228 282 337 404
#     4  11  23  43  68  95 133 177 225 276 339 408
#     4   9  20  38  71  93 130 171 221 270 329 401
#     4  11  23  42  65  98 136 178 220 280 341 404
#
# _framework density 22.123809999999999
#
# number of rings (size 3 to 8) (size 9 to 14) (size 15 to 20)
#    0.000    1.429    1.429    3.857    4.000    1.143 
#    2.571    0.000    0.000   32.571    0.000    0.000 
#    0.000    0.000    0.000    0.000    0.000    0.000 
#
# Total GULP energy -346876.694016 kJ/mol
# GULP energy per Si atom -12388.453358 kJ/mol
# Density = 2.207346 g / cm^3
# Si number density = 22.123810 Si / 1000 Ang^3
#
#
#
# Elastic Constant Matrix: (Units=GPa)
#
#
# Indices 1 2 3 4 5 6 
#
# 1 117.2639 44.2535 46.3838 0.0000 0.0000 0.0000
# 2 44.2535 89.9785 52.1187 0.0000 0.0000 0.0000
# 3 46.3838 52.1187 90.2451 0.0000 0.0000 0.0000
# 4 0.0000 0.0000 0.0000 33.8087 0.0000 0.0000
# 5 0.0000 0.0000 0.0000 0.0000 25.1760 0.0000
# 6 0.0000 0.0000 0.0000 0.0000 0.0000 32.0630
#
#
#
# Elastic Compliance Matrix: (Units=1/GPa)
#
#
# Indices 1 2 3 4 5 6 
#
# 1 0.011321 -0.003302 -0.003912 0.000000 0.000000 0.000000
# 2 -0.003302 0.017664 -0.008504 0.000000 0.000000 0.000000
# 3 -0.003912 -0.008504 0.018003 0.000000 0.000000 0.000000
# 4 0.000000 0.000000 0.000000 0.029578 0.000000 0.000000
# 5 0.000000 0.000000 0.000000 0.000000 0.039720 0.000000
# 6 0.000000 0.000000 0.000000 0.000000 0.000000 0.031189
#
#
# Mechanical properties :
#
#
# Convention : Reuss Voigt Hill
#
# Bulk Modulus (GPa) = 64.30113 64.77773 64.53943
# Shear Modulus (GPa) = 27.15996 28.52497 27.84247
#
# Velocity S-wave (km/s) = 3.50756 3.59462 3.55136
# Velocity P-wave (km/s) = 6.74769 6.82434 6.78612
#
# Compressibility (1/GPa) = 0.01555183
#
# Stress axis : x y z
#
# Youngs Moduli (GPa) = 88.32921 56.61345 55.54725
#
# Poissons Ratio (x) = 0.18695 0.21729
# Poissons Ratio (y) = 0.29169 0.47237
# Poissons Ratio (z) = 0.34552 0.48144
#
# Static dielectric constant tensor:
#      x y z
#    x 3.804470 0.000000 0.000000 
#    y 0.000000 4.324490 0.000000 
#    z 0.000000 0.000000 4.091000 
# 
# 
# High freq. dielectric constant tensor:
#      x y z
#    x 1.842700 0.000000 0.000000 
#    y 0.000000 1.890560 0.000000 
#    z 0.000000 0.000000 1.869440 
# 
# From -- ./inp_files/33779.got.cif
#   From: 2010.03.12/outbox.cif.g09.slc.cpg/sg24_17_cif.got.tgz:33779.got - 2010.04.14 03:06:53.
