data_PCOD8166572
_publ_section_title
;
Structure prediction by ZEFSAII (Michael W. Deem and Ramdas Pophale) SiO2 
 PCOD8166572
Probable space group: P M M 2
;
_chemical_formula_sum "Si O2"
_cell_formula_units_Z 32
_cell_length_a 15.284415
_cell_length_b 9.256056
_cell_length_c 14.926376
_cell_angle_alpha 90.000000
_cell_angle_beta 90.000000
_cell_angle_gamma 90.000000
_cell_volume 2111.685180
_symmetry_space_group_name_H-M "P M M 2"
_symmetry_group_IT_number 25
_symmetry_cell_setting 'orthorhombic'
loop_
_space_group_symop_operation_xyz
x,y,z
-x,-y,z
-x,y,z
x,-y,z
loop_
_atom_site_type_symbol
_atom_site_label
_atom_site_fract_x
_atom_site_fract_y
_atom_site_fract_z
Si Si1 0.601440 0.831240 0.294320
Si Si2 0.280310 0.662680 0.624133
Si Si3 0.601741 0.168137 0.753710
Si Si4 0.736798 0.333158 0.412442
Si Si5 0.396001 0.160321 0.094212
Si Si6 0.903732 0.831927 0.425982
Si Si7 0.604189 0.338089 0.927801
Si Si8 0.906728 0.336666 0.605399
O O1 0.500000 0.794474 0.308799
O O2 0.654310 0.736809 0.364316
O O3 0.631376 0.787989 0.193512
O O4 0.619051 0.000000 0.310948
O O5 0.312815 0.500000 0.645002
O O6 0.346587 0.775151 0.667525
O O7 0.276330 0.690811 0.518140
O O8 0.181340 0.688073 0.664092
O O9 0.500000 0.200216 0.737045
O O10 0.636959 0.248457 0.842109
O O11 0.619986 0.000000 0.766639
O O12 0.741804 0.500000 0.386380
O O13 0.826392 0.257257 0.377383
O O14 0.500000 0.154717 0.088665
O O15 0.358833 0.000000 0.075231
O O16 0.357737 0.267523 0.018792
O O17 0.909056 0.781071 0.528043
O O18 0.000000 0.805872 0.381103
O O19 0.878884 0.000000 0.423504
O O20 0.500000 0.337419 0.930873
O O21 0.641199 0.500000 0.920354
O O22 0.898829 0.500000 0.564026
O O23 0.000000 0.324067 0.659402
#
# Coordination Sequence:
#
# PCOD8166572 Si02
#       8
#     4   4   4   4   4   4   4   4
#     4   9  18  31  45  61  84 115 147 178 210 244
#     4   9  18  30  42  58  81 110 142 174 207 242
#     4  10  20  31  42  57  79 110 145 177 208 243
#     4  10  20  31  43  60  84 115 147 179 213 249
#     4   8  14  26  43  61  81 105 133 167 209 252
#     4   9  16  26  42  62  81 103 134 173 215 256
#     4   9  16  26  42  62  81 102 130 168 212 252
#     4   8  14  26  43  61  81 104 130 164 210 258
#
# _framework density 15.153772999999999
#
# number of rings (size 3 to 8) (size 9 to 14) (size 15 to 20)
#    0.000    3.000    0.000    3.000    0.000    6.750 
#    0.000    3.750    0.000    0.000    0.000    0.000 
#    0.000    1.000    0.000    6.500    0.000    4.375 
#
# Total GULP energy -396504.413538 kJ/mol
# GULP energy per Si atom -12390.762923 kJ/mol
# Density = 1.511928 g / cm^3
# Si number density = 15.153773 Si / 1000 Ang^3
#
#
#
# Elastic Constant Matrix: (Units=GPa)
#
#
# Indices 1 2 3 4 5 6 
#
# 1 75.4611 54.7948 37.8597 0.0000 0.0000 0.0000
# 2 54.7948 101.9413 43.7218 0.0000 0.0000 0.0000
# 3 37.8597 43.7218 57.7742 0.0000 0.0000 0.0000
# 4 0.0000 0.0000 0.0000 23.9245 0.0000 0.0000
# 5 0.0000 0.0000 0.0000 0.0000 0.5546 0.0000
# 6 0.0000 0.0000 0.0000 0.0000 0.0000 22.2672
#
#
#
# Elastic Compliance Matrix: (Units=1/GPa)
#
#
# Indices 1 2 3 4 5 6 
#
# 1 0.024555 -0.009324 -0.009035 0.000000 0.000000 0.000000
# 2 -0.009324 0.018064 -0.007560 0.000000 0.000000 0.000000
# 3 -0.009035 -0.007560 0.028951 0.000000 0.000000 0.000000
# 4 0.000000 0.000000 0.000000 0.041798 0.000000 0.000000
# 5 0.000000 0.000000 0.000000 0.000000 1.803122 0.000000
# 6 0.000000 0.000000 0.000000 0.000000 0.000000 0.044909
#
#
# Mechanical properties :
#
#
# Convention : Reuss Voigt Hill
#
# Bulk Modulus (GPa) = 50.68023 56.43657 53.55840
# Shear Modulus (GPa) = 2.47547 15.93595 9.20571
#
# Velocity S-wave (km/s) = 1.27950 3.24638 2.46740
# Velocity P-wave (km/s) = 5.97490 7.16767 6.59829
#
# Compressibility (1/GPa) = 0.01973156
#
# Stress axis : x y z
#
# Youngs Moduli (GPa) = 40.72472 55.35989 34.54111
#
# Poissons Ratio (x) = 0.51615 0.31209
# Poissons Ratio (y) = 0.37970 0.26114
# Poissons Ratio (z) = 0.36796 0.41853
#
# Static dielectric constant tensor:
#      x y z
#    x 2.975300 0.000000 0.000000 
#    y 0.000000 3.051260 0.000000 
#    z 0.000000 0.000000 2.710370 
# 
# 
# High freq. dielectric constant tensor:
#      x y z
#    x 1.559910 0.000000 0.000000 
#    y 0.000000 1.593950 0.000000 
#    z 0.000000 0.000000 1.542910 
# 
# From -- ./inp_files/5719.got.cif
#   From: 2010.03.12/outbox.cif.g09.slc.cpg/sg25_3_cif.got.tgz:5719.got - 2010.04.14 03:30:10.
