data_PCOD8166908
_publ_section_title
;
Structure prediction by ZEFSAII (Michael W. Deem and Ramdas Pophale) SiO2 
 PCOD8166908
Probable space group: P M M 2
;
_chemical_formula_sum "Si O2"
_cell_formula_units_Z 28
_cell_length_a 9.156215
_cell_length_b 9.400222
_cell_length_c 17.974387
_cell_angle_alpha 90.000000
_cell_angle_beta 90.000000
_cell_angle_gamma 90.000000
_cell_volume 1547.063644
_symmetry_space_group_name_H-M "P M M 2"
_symmetry_group_IT_number 25
_symmetry_cell_setting 'orthorhombic'
loop_
_space_group_symop_operation_xyz
x,y,z
-x,-y,z
-x,y,z
x,-y,z
loop_
_atom_site_type_symbol
_atom_site_label
_atom_site_fract_x
_atom_site_fract_y
_atom_site_fract_z
Si Si1 0.669010 0.333085 0.836720
Si Si2 0.169699 0.164446 0.545375
Si Si3 0.671925 0.836596 0.397457
Si Si4 0.169589 0.165751 0.965128
Si Si5 0.326252 0.660831 0.257005
Si Si6 0.669336 0.164598 0.115216
Si Si7 0.168439 0.334537 0.688492
O O1 0.500000 0.290337 0.837668
O O2 0.692521 0.500000 0.848793
O O3 0.751170 0.253131 0.901785
O O4 0.736721 0.283868 0.758467
O O5 0.254692 0.219575 0.472941
O O6 0.226475 0.250834 0.616617
O O7 0.000000 0.193249 0.531415
O O8 0.203583 0.000000 0.560589
O O9 0.500000 0.818748 0.406503
O O10 0.733486 0.742189 0.329681
O O11 0.715047 0.000000 0.381663
O O12 0.000000 0.205782 0.965941
O O13 0.195397 0.000000 0.949403
O O14 0.237817 0.209972 0.043856
O O15 0.500000 0.663175 0.258197
O O16 0.265675 0.500000 0.256653
O O17 0.270842 0.741937 0.183571
O O18 0.500000 0.196341 0.098129
O O19 0.692836 0.000000 0.136112
O O20 0.190531 0.500000 0.672106
O O21 0.000000 0.297526 0.705448
#
# Coordination Sequence:
#
# PCOD8166908 Si02
#       7
#     4   4   4   4   4   4   4
#     4  10  21  36  54  77 104 134 169 208 251 300
#     4   9  18  32  49  70  96 126 161 200 242 289
#     4   9  17  30  48  69  94 125 160 197 240 290
#     4  10  21  36  54  77 104 134 169 208 251 300
#     4   9  17  29  47  72  98 124 159 202 244 287
#     4   9  17  31  51  72  96 128 164 202 246 295
#     4   9  18  33  51  70  96 131 166 200 244 297
#
# _framework density 18.098803
#
# number of rings (size 3 to 8) (size 9 to 14) (size 15 to 20)
#    0.000    2.714    0.000    1.286    0.000    5.714 
#    0.000    3.571    0.000    4.286    0.000    0.000 
#    0.000    0.000    0.000    0.000    0.000    0.000 
#
# Total GULP energy -347264.811105 kJ/mol
# GULP energy per Si atom -12402.314682 kJ/mol
# Density = 1.805761 g / cm^3
# Si number density = 18.098803 Si / 1000 Ang^3
#
#
#
# Elastic Constant Matrix: (Units=GPa)
#
#
# Indices 1 2 3 4 5 6 
#
# 1 73.7909 42.5609 76.5365 0.0000 0.0000 0.0000
# 2 42.5609 81.5097 90.3887 0.0000 0.0000 0.0000
# 3 76.5365 90.3887 199.0529 0.0000 0.0000 0.0000
# 4 0.0000 0.0000 0.0000 21.9481 0.0000 0.0000
# 5 0.0000 0.0000 0.0000 0.0000 -710.0828 0.0000
# 6 0.0000 0.0000 0.0000 0.0000 0.0000 20.4675
#
#
#
# Elastic Compliance Matrix: (Units=1/GPa)
#
#
# Indices 1 2 3 4 5 6 
#
# 1 0.023334 -0.004501 -0.006928 0.000000 0.000000 0.000000
# 2 -0.004501 0.025581 -0.009886 0.000000 0.000000 0.000000
# 3 -0.006928 -0.009886 0.012177 0.000000 0.000000 0.000000
# 4 0.000000 0.000000 0.000000 0.045562 0.000000 0.000000
# 5 0.000000 0.000000 0.000000 0.000000 -0.001408 0.000000
# 6 0.000000 0.000000 0.000000 0.000000 0.000000 0.048858
#
#
# Mechanical properties :
#
#
# Convention : Reuss Voigt Hill
#
# Bulk Modulus (GPa) = 54.16516 85.92508 70.04512
# Shear Modulus (GPa) = 24.64431 -123.87562 -49.61566
#
# Velocity S-wave (km/s) = 3.69406 -8.28207 -5.24150
# Velocity P-wave (km/s) = 6.94170 6.62407 1.46782
#
# Compressibility (1/GPa) = 0.01846205
#
# Stress axis : x y z
#
# Youngs Moduli (GPa) = 42.85643 39.09110 82.12528
#
# Poissons Ratio (x) = 0.17596 0.56895
# Poissons Ratio (y) = 0.19291 0.81185
# Poissons Ratio (z) = 0.29690 0.38644
#
# Static dielectric constant tensor:
#      x y z
#    x 3.972460 0.000000 0.000000 
#    y 0.000000 3.368880 0.000000 
#    z 0.000000 0.000000 3.527820 
# 
# 
# High freq. dielectric constant tensor:
#      x y z
#    x 1.683560 0.000000 0.000000 
#    y 0.000000 1.696160 0.000000 
#    z 0.000000 0.000000 1.713640 
# 
# From -- ./inp_files/6022.got.cif
#   From: 2010.03.12/outbox.cif.g09.slc.cpg/sg25_4_cif.got.tgz:6022.got - 2010.04.14 03:30:10.
