data_PCOD8166035
_publ_section_title
;
Structure prediction by ZEFSAII (Michael W. Deem and Ramdas Pophale) SiO2 
 PCOD8166035
Probable space group: I 21 21 21
;
_chemical_formula_sum "Si O2"
_cell_formula_units_Z 56
_cell_length_a 8.782190
_cell_length_b 19.514422
_cell_length_c 14.700944
_cell_angle_alpha 90.000000
_cell_angle_beta 90.000000
_cell_angle_gamma 90.000000
_cell_volume 2519.438400
_symmetry_space_group_name_H-M "I 21 21 21"
_symmetry_group_IT_number 24
_symmetry_cell_setting 'orthorhombic'
loop_
_space_group_symop_operation_xyz
x,y,z
-x,1/2-y,z
x,-y,1/2-z
1/2-x,y,-z
1/2+x,1/2+y,1/2+z
1/2-x,-y,1/2+z
1/2+x,1/2-y,-z
-x,1/2+y,1/2-z
loop_
_atom_site_type_symbol
_atom_site_label
_atom_site_fract_x
_atom_site_fract_y
_atom_site_fract_z
Si Si1 0.073485 0.573807 0.517516
Si Si2 0.069395 0.824823 0.865343
Si Si3 0.623735 0.303280 0.735958
Si Si4 0.567625 0.074247 0.725760
Si Si5 0.417191 0.423639 0.223312
Si Si6 0.926458 0.916223 0.015504
Si Si7 0.109652 0.809018 0.435673
O O1 0.250000 0.585591 0.500000
O O2 0.035180 0.594663 0.621039
O O3 0.033291 0.493768 0.509808
O O4 0.979282 0.617856 0.444316
O O5 0.247210 0.815393 0.839909
O O6 0.000000 0.750000 0.875043
O O7 0.992538 0.866278 0.784572
O O8 0.039293 0.866013 0.959094
O O9 0.500000 0.250000 0.694666
O O10 0.541994 0.371933 0.772126
O O11 0.676969 0.282375 0.837559
O O12 0.737037 0.081108 0.763212
O O13 0.547196 0.094246 0.621040
O O14 0.502894 0.000000 0.750000
O O15 0.473356 0.500000 0.250000
O O16 0.750000 0.897925 0.000000
O O17 0.250000 0.816453 0.500000
O O18 0.000000 0.750000 0.473764
#
# Coordination Sequence:
#
# PCOD8166035 Si02
#       7
#     8   8   8   8   8   8   8
#     4  11  21  39  70 102 139 179 230 287 363 421
#     4  12  26  45  71 101 135 190 237 294 357 420
#     4  11  26  45  65  97 141 186 237 290 357 427
#     4  11  22  42  70  97 138 184 230 281 357 424
#     4  11  20  40  69 101 137 179 234 293 352 427
#     4  11  22  44  70 103 138 175 236 297 348 429
#     4  11  24  43  66 101 141 183 235 298 358 428
#
# _framework density 22.227177999999999
#
# number of rings (size 3 to 8) (size 9 to 14) (size 15 to 20)
#    0.000    0.857    2.857    6.429    0.000    6.286 
#    5.143    0.000    0.000    0.000    0.000    0.000 
#    0.000    0.000    0.000    0.000    0.000    0.000 
#
# Total GULP energy -347065.241082 kJ/mol
# GULP energy per Si atom -12395.187181 kJ/mol
# Density = 2.217659 g / cm^3
# Si number density = 22.227178 Si / 1000 Ang^3
#
#
#
# Elastic Constant Matrix: (Units=GPa)
#
#
# Indices 1 2 3 4 5 6 
#
# 1 85.6122 51.6946 -6.8862 0.0000 0.0000 0.0000
# 2 51.6946 123.4403 3.5870 0.0000 0.0000 0.0000
# 3 -6.8862 3.5870 71.6085 0.0000 0.0000 0.0000
# 4 0.0000 0.0000 0.0000 30.8562 0.0000 0.0000
# 5 0.0000 0.0000 0.0000 0.0000 26.7329 0.0000
# 6 0.0000 0.0000 0.0000 0.0000 0.0000 38.2966
#
#
#
# Elastic Compliance Matrix: (Units=1/GPa)
#
#
# Indices 1 2 3 4 5 6 
#
# 1 0.015878 -0.006704 0.001863 0.000000 0.000000 0.000000
# 2 -0.006704 0.010943 -0.001193 0.000000 0.000000 0.000000
# 3 0.001863 -0.001193 0.014204 0.000000 0.000000 0.000000
# 4 0.000000 0.000000 0.000000 0.032408 0.000000 0.000000
# 5 0.000000 0.000000 0.000000 0.000000 0.037407 0.000000
# 6 0.000000 0.000000 0.000000 0.000000 0.000000 0.026112
#
#
# Mechanical properties :
#
#
# Convention : Reuss Voigt Hill
#
# Bulk Modulus (GPa) = 34.53332 41.93911 38.23622
# Shear Modulus (GPa) = 31.51145 34.66151 33.08648
#
# Velocity S-wave (km/s) = 3.76932 3.95323 3.86237
# Velocity P-wave (km/s) = 5.87486 6.30450 6.09347
#
# Compressibility (1/GPa) = 0.02895754
#
# Stress axis : x y z
#
# Youngs Moduli (GPa) = 62.97934 91.38171 70.40420
#
# Poissons Ratio (x) = 0.61259 -0.13114
# Poissons Ratio (y) = 0.42219 0.08398
# Poissons Ratio (z) = -0.11731 0.10900
#
# Static dielectric constant tensor:
#      x y z
#    x 3.866980 0.000000 0.000000 
#    y 0.000000 4.387620 0.000000 
#    z 0.000000 0.000000 4.256370 
# 
# 
# High freq. dielectric constant tensor:
#      x y z
#    x 1.857200 0.000000 0.000000 
#    y 0.000000 1.887960 0.000000 
#    z 0.000000 0.000000 1.893500 
# 
# From -- ./inp_files/25075.got.cif
#   From: 2010.03.12/outbox.cif.g09.slc.cpg/sg24_13_cif.got.tgz:25075.got - 2010.04.14 03:06:53.
