data_PCOD8166051
_publ_section_title
;
Structure prediction by ZEFSAII (Michael W. Deem and Ramdas Pophale) SiO2 
 PCOD8166051
Probable space group: I 21 21 21
;
_chemical_formula_sum "Si O2"
_cell_formula_units_Z 56
_cell_length_a 8.548734
_cell_length_b 14.363374
_cell_length_c 22.452973
_cell_angle_alpha 90.000000
_cell_angle_beta 90.000000
_cell_angle_gamma 90.000000
_cell_volume 2756.970550
_symmetry_space_group_name_H-M "I 21 21 21"
_symmetry_group_IT_number 24
_symmetry_cell_setting 'orthorhombic'
loop_
_space_group_symop_operation_xyz
x,y,z
-x,1/2-y,z
x,-y,1/2-z
1/2-x,y,-z
1/2+x,1/2+y,1/2+z
1/2-x,-y,1/2+z
1/2+x,1/2-y,-z
-x,1/2+y,1/2-z
loop_
_atom_site_type_symbol
_atom_site_label
_atom_site_fract_x
_atom_site_fract_y
_atom_site_fract_z
Si Si1 0.381257 0.927901 0.958471
Si Si2 0.878393 0.500000 0.250000
Si Si3 0.000000 0.250000 0.528286
Si Si4 0.821308 0.050472 0.059689
Si Si5 0.350076 0.615965 0.110953
Si Si6 0.823300 0.788238 0.204853
Si Si7 0.808024 0.388420 0.657123
Si Si8 0.583765 0.153236 0.822515
O O1 0.308094 0.891829 0.898104
O O2 0.507668 0.008087 0.949643
O O3 0.250000 0.974857 0.000000
O O4 0.445027 0.835419 0.989391
O O5 0.758325 0.460996 0.297016
O O6 0.978027 0.578044 0.285873
O O7 0.137595 0.289317 0.571457
O O8 0.832569 0.116675 0.117682
O O9 0.695874 0.969078 0.069153
O O10 0.750000 0.101655 0.000000
O O11 0.210185 0.626300 0.159494
O O12 0.514687 0.588377 0.140330
O O13 0.694573 0.712511 0.187550
O O14 0.787493 0.820037 0.272488
O O15 0.000000 0.750000 0.198013
O O16 0.500000 0.250000 0.840623
#
# Coordination Sequence:
#
# PCOD8166051 Si02
#       8
#     8   4   4   8   8   8   8   8
#     4  12  24  39  62  96 139 183 222 272 337 421
#     4  12  22  42  70 104 122 178 224 288 346 412
#     4  12  24  34  60  92 142 174 216 260 346 408
#     4  12  25  43  68  98 133 185 233 287 346 407
#     4  12  24  39  62 103 144 175 216 279 346 418
#     4  11  21  39  65  94 131 178 220 269 335 411
#     4  12  23  39  63  98 136 175 219 275 342 406
#     4  11  24  45  73  99 131 177 237 288 349 418
#
# _framework density 20.312149999999999
#
# number of rings (size 3 to 8) (size 9 to 14) (size 15 to 20)
#    0.000    0.286    8.571    1.714    5.000    1.143 
#    0.000    0.714    0.000    0.000    0.000    0.000 
#    0.000    0.000    0.000    0.000    0.000    0.000 
#
# Total GULP energy -346989.390795 kJ/mol
# GULP energy per Si atom -12392.478243 kJ/mol
# Density = 2.026592 g / cm^3
# Si number density = 20.312150 Si / 1000 Ang^3
#
#
#
# Elastic Constant Matrix: (Units=GPa)
#
#
# Indices 1 2 3 4 5 6 
#
# 1 89.2667 13.5194 44.9967 0.0000 0.0000 0.0000
# 2 13.5194 58.8485 37.4500 0.0000 0.0000 0.0000
# 3 44.9967 37.4500 159.9656 0.0000 0.0000 0.0000
# 4 0.0000 0.0000 0.0000 48.4750 0.0000 0.0000
# 5 0.0000 0.0000 0.0000 0.0000 13.1842 0.0000
# 6 0.0000 0.0000 0.0000 0.0000 0.0000 20.5459
#
#
#
# Elastic Compliance Matrix: (Units=1/GPa)
#
#
# Indices 1 2 3 4 5 6 
#
# 1 0.013084 -0.000780 -0.003498 0.000000 0.000000 0.000000
# 2 -0.000780 0.020014 -0.004466 0.000000 0.000000 0.000000
# 3 -0.003498 -0.004466 0.008281 0.000000 0.000000 0.000000
# 4 0.000000 0.000000 0.000000 0.020629 0.000000 0.000000
# 5 0.000000 0.000000 0.000000 0.000000 0.075848 0.000000
# 6 0.000000 0.000000 0.000000 0.000000 0.000000 0.048671
#
#
# Mechanical properties :
#
#
# Convention : Reuss Voigt Hill
#
# Bulk Modulus (GPa) = 41.85674 55.55698 48.70686
# Shear Modulus (GPa) = 23.58726 30.58200 27.08463
#
# Velocity S-wave (km/s) = 3.41139 3.88442 3.65556
# Velocity P-wave (km/s) = 6.01401 6.89415 6.46906
#
# Compressibility (1/GPa) = 0.02389102
#
# Stress axis : x y z
#
# Youngs Moduli (GPa) = 76.43162 49.96469 120.76118
#
# Poissons Ratio (x) = 0.03897 0.42239
# Poissons Ratio (y) = 0.05961 0.53934
# Poissons Ratio (z) = 0.26734 0.22315
#
# Static dielectric constant tensor:
#      x y z
#    x 3.645840 0.000000 0.000000 
#    y 0.000000 3.726720 0.000000 
#    z 0.000000 0.000000 4.211800 
# 
# 
# High freq. dielectric constant tensor:
#      x y z
#    x 1.787250 0.000000 0.000000 
#    y 0.000000 1.771340 0.000000 
#    z 0.000000 0.000000 1.819170 
# 
# From -- ./inp_files/32867.got.cif
#   From: 2010.03.12/outbox.cif.g09.slc.cpg/sg24_17_cif.got.tgz:32867.got - 2010.04.14 03:06:53.
