data_PCOD8166543
_publ_section_title
;
Structure prediction by ZEFSAII (Michael W. Deem and Ramdas Pophale) SiO2 
 PCOD8166543
Probable space group: P M M 2
;
_chemical_formula_sum "Si O2"
_cell_formula_units_Z 32
_cell_length_a 14.502251
_cell_length_b 8.932369
_cell_length_c 12.573064
_cell_angle_alpha 90.000000
_cell_angle_beta 90.000000
_cell_angle_gamma 90.000000
_cell_volume 1628.707887
_symmetry_space_group_name_H-M "P M M 2"
_symmetry_group_IT_number 25
_symmetry_cell_setting 'orthorhombic'
loop_
_space_group_symop_operation_xyz
x,y,z
-x,-y,z
-x,y,z
x,-y,z
loop_
_atom_site_type_symbol
_atom_site_label
_atom_site_fract_x
_atom_site_fract_y
_atom_site_fract_z
Si Si1 0.607708 0.176614 0.226220
Si Si2 0.897301 0.173211 0.489664
Si Si3 0.275984 0.175841 0.022523
Si Si4 0.341842 0.336181 0.638889
Si Si5 0.103266 0.674124 0.941219
Si Si6 0.136138 0.666218 0.704573
Si Si7 0.282840 0.320471 0.417673
Si Si8 0.399465 0.324585 0.854169
O O1 0.500000 0.222334 0.216927
O O2 0.662722 0.230784 0.121937
O O3 0.655660 0.263538 0.321849
O O4 0.617622 0.000000 0.244448
O O5 0.901518 0.228721 0.611256
O O6 0.822653 0.261141 0.416856
O O7 0.000000 0.196206 0.440490
O O8 0.869038 0.000000 0.489221
O O9 0.266431 0.000000 0.024139
O O10 0.173235 0.244055 0.022284
O O11 0.325896 0.227077 0.915876
O O12 0.381285 0.500000 0.611847
O O13 0.244784 0.346424 0.697876
O O14 0.332015 0.253667 0.525099
O O15 0.405348 0.264044 0.731041
O O16 0.128995 0.500000 0.941789
O O17 0.110088 0.734837 0.819843
O O18 0.000000 0.703302 0.984231
O O19 0.092169 0.500000 0.692212
O O20 0.277886 0.500000 0.418791
O O21 0.500000 0.300794 0.905896
O O22 0.371185 0.500000 0.856131
#
# Coordination Sequence:
#
# PCOD8166543 Si02
#       8
#     4   4   4   4   4   4   4   4
#     4  10  23  44  65  83 109 149 194 241 295 350
#     4  10  20  33  52  82 121 161 197 233 279 339
#     4  11  23  39  59  83 116 152 191 241 289 344
#     4   8  15  30  51  79 115 148 179 223 279 335
#     4  10  20  35  57  84 116 154 195 239 287 340
#     4   9  16  30  52  77 112 156 197 236 278 330
#     4  10  21  37  60  88 115 146 192 246 292 341
#     4  10  19  33  56  83 113 151 190 229 281 346
#
# _framework density 19.647475
#
# number of rings (size 3 to 8) (size 9 to 14) (size 15 to 20)
#    0.000    2.250    1.250    2.625    0.000    4.750 
#    0.000    2.500    0.000    0.750    0.000    0.000 
#    0.000    0.000    0.000    0.000    0.000    0.000 
#
# Total GULP energy -396527.335967 kJ/mol
# GULP energy per Si atom -12391.479249 kJ/mol
# Density = 1.960276 g / cm^3
# Si number density = 19.647475 Si / 1000 Ang^3
#
#
#
# Elastic Constant Matrix: (Units=GPa)
#
#
# Indices 1 2 3 4 5 6 
#
# 1 133.4504 45.7801 63.7870 0.0000 0.0000 0.0000
# 2 45.7801 60.4251 40.8316 0.0000 0.0000 0.0000
# 3 63.7870 40.8316 109.8457 0.0000 0.0000 0.0000
# 4 0.0000 0.0000 0.0000 26.6040 0.0000 0.0000
# 5 0.0000 0.0000 0.0000 0.0000 21.7077 0.0000
# 6 0.0000 0.0000 0.0000 0.0000 0.0000 25.2411
#
#
#
# Elastic Compliance Matrix: (Units=1/GPa)
#
#
# Indices 1 2 3 4 5 6 
#
# 1 0.011676 -0.005695 -0.004663 0.000000 0.000000 0.000000
# 2 -0.005695 0.024879 -0.005941 0.000000 0.000000 0.000000
# 3 -0.004663 -0.005941 0.014020 0.000000 0.000000 0.000000
# 4 0.000000 0.000000 0.000000 0.037588 0.000000 0.000000
# 5 0.000000 0.000000 0.000000 0.000000 0.046067 0.000000
# 6 0.000000 0.000000 0.000000 0.000000 0.000000 0.039618
#
#
# Mechanical properties :
#
#
# Convention : Reuss Voigt Hill
#
# Bulk Modulus (GPa) = 55.62839 67.16873 61.39856
# Shear Modulus (GPa) = 23.53633 24.93207 24.23420
#
# Velocity S-wave (km/s) = 3.46487 3.56613 3.51586
# Velocity P-wave (km/s) = 6.66197 7.15664 6.91373
#
# Compressibility (1/GPa) = 0.01797643
#
# Stress axis : x y z
#
# Youngs Moduli (GPa) = 85.64522 40.19528 71.32700
#
# Poissons Ratio (x) = 0.22891 0.33262
# Poissons Ratio (y) = 0.48775 0.42374
# Poissons Ratio (z) = 0.39939 0.23879
#
# Static dielectric constant tensor:
#      x y z
#    x 3.819020 0.000000 0.000000 
#    y 0.000000 3.361340 0.000000 
#    z 0.000000 0.000000 3.533160 
# 
# 
# High freq. dielectric constant tensor:
#      x y z
#    x 1.778590 0.000000 0.000000 
#    y 0.000000 1.741020 0.000000 
#    z 0.000000 0.000000 1.749110 
# 
# From -- ./inp_files/4902.got.cif
#   From: 2010.03.12/outbox.cif.g09.slc.cpg/sg25_3_cif.got.tgz:4902.got - 2010.04.14 03:30:10.
