data_PCOD8166450
_publ_section_title
;
Structure prediction by ZEFSAII (Michael W. Deem and Ramdas Pophale) SiO2 
 PCOD8166450
Probable space group: P M M 2
;
_chemical_formula_sum "Si O2"
_cell_formula_units_Z 32
_cell_length_a 9.036007
_cell_length_b 14.188158
_cell_length_c 15.520795
_cell_angle_alpha 90.000000
_cell_angle_beta 90.000000
_cell_angle_gamma 90.000000
_cell_volume 1989.832581
_symmetry_space_group_name_H-M "P M M 2"
_symmetry_group_IT_number 25
_symmetry_cell_setting 'orthorhombic'
loop_
_space_group_symop_operation_xyz
x,y,z
-x,-y,z
-x,y,z
x,-y,z
loop_
_atom_site_type_symbol
_atom_site_label
_atom_site_fract_x
_atom_site_fract_y
_atom_site_fract_z
Si Si1 0.671667 0.393508 0.951710
Si Si2 0.826371 0.890097 0.522081
Si Si3 0.827053 0.890554 0.180028
Si Si4 0.675780 0.203037 0.683390
Si Si5 0.174838 0.781715 0.012279
Si Si6 0.666689 0.111960 0.350084
Si Si7 0.675404 0.397525 0.757714
Si Si8 0.829305 0.109970 0.842274
O O1 0.500000 0.366656 0.955274
O O2 0.698043 0.500000 0.984311
O O3 0.734688 0.381685 0.854667
O O4 0.760066 0.323450 0.013954
O O5 0.750301 0.830547 0.596339
O O6 0.760129 0.853159 0.432098
O O7 0.000000 0.870792 0.522249
O O8 0.790946 0.000000 0.537117
O O9 0.766966 0.835843 0.096551
O O10 0.741839 0.849532 0.263074
O O11 0.000000 0.873947 0.195687
O O12 0.792014 0.000000 0.165117
O O13 0.500000 0.194118 0.675534
O O14 0.728012 0.311579 0.697643
O O15 0.728920 0.138870 0.762042
O O16 0.000000 0.776957 0.014271
O O17 0.228888 0.836427 0.927007
O O18 0.500000 0.151328 0.356895
O O19 0.668115 0.000000 0.347835
O O20 0.500000 0.399871 0.762913
O O21 0.732383 0.500000 0.722841
O O22 0.000000 0.134749 0.821620
O O23 0.809984 0.000000 0.860114
#
# Coordination Sequence:
#
# PCOD8166450 Si02
#       8
#     4   4   4   4   4   4   4   4
#     4   9  17  31  49  66  88 120 156 195 240 284
#     4  10  20  33  48  66  93 128 158 186 227 279
#     4   9  17  30  47  67  94 128 160 188 227 279
#     4  11  20  30  47  69  91 119 157 197 232 270
#     4  10  19  30  46  68  93 123 160 196 228 269
#     4   9  17  30  48  70  93 117 152 198 236 266
#     4   8  15  29  47  65  87 117 152 191 236 280
#     4  10  20  32  43  59  91 131 162 187 221 268
#
# _framework density 16.081755000000001
#
# number of rings (size 3 to 8) (size 9 to 14) (size 15 to 20)
#    0.000    2.500    1.250    2.625    0.000    6.250 
#    0.000    0.000    0.000    3.750    0.000    0.875 
#    0.000    5.000    0.000    0.000    0.000    0.000 
#
# Total GULP energy -396761.609141 kJ/mol
# GULP energy per Si atom -12398.800286 kJ/mol
# Density = 1.604515 g / cm^3
# Si number density = 16.081755 Si / 1000 Ang^3
#
#
#
# Elastic Constant Matrix: (Units=GPa)
#
#
# Indices 1 2 3 4 5 6 
#
# 1 52.1462 30.8848 44.4763 0.0000 0.0000 0.0000
# 2 30.8848 83.1927 51.0010 0.0000 0.0000 0.0000
# 3 44.4763 51.0010 126.3479 0.0000 0.0000 0.0000
# 4 0.0000 0.0000 0.0000 11.2027 0.0000 0.0000
# 5 0.0000 0.0000 0.0000 0.0000 24.2844 0.0000
# 6 0.0000 0.0000 0.0000 0.0000 0.0000 22.0428
#
#
#
# Elastic Compliance Matrix: (Units=1/GPa)
#
#
# Indices 1 2 3 4 5 6 
#
# 1 0.029569 -0.006108 -0.007943 0.000000 0.000000 0.000000
# 2 -0.006108 0.017235 -0.004807 0.000000 0.000000 0.000000
# 3 -0.007943 -0.004807 0.012651 0.000000 0.000000 0.000000
# 4 0.000000 0.000000 0.000000 0.089264 0.000000 0.000000
# 5 0.000000 0.000000 0.000000 0.000000 0.041179 0.000000
# 6 0.000000 0.000000 0.000000 0.000000 0.000000 0.045366
#
#
# Mechanical properties :
#
#
# Convention : Reuss Voigt Hill
#
# Bulk Modulus (GPa) = 46.00001 57.15677 51.57839
# Shear Modulus (GPa) = 17.84272 20.52764 19.18518
#
# Velocity S-wave (km/s) = 3.33453 3.57663 3.45770
# Velocity P-wave (km/s) = 6.59480 7.25775 6.93420
#
# Compressibility (1/GPa) = 0.02173913
#
# Stress axis : x y z
#
# Youngs Moduli (GPa) = 33.81870 58.02301 79.04418
#
# Poissons Ratio (x) = 0.35439 0.62788
# Poissons Ratio (y) = 0.20656 0.37995
# Poissons Ratio (z) = 0.26864 0.27890
#
# Static dielectric constant tensor:
#      x y z
#    x 2.986860 0.000000 0.000000 
#    y 0.000000 3.100780 0.000000 
#    z 0.000000 0.000000 3.094210 
# 
# 
# High freq. dielectric constant tensor:
#      x y z
#    x 1.613510 0.000000 0.000000 
#    y 0.000000 1.599540 0.000000 
#    z 0.000000 0.000000 1.608900 
# 
# From -- ./inp_files/5678.got.cif
#   From: 2010.03.12/outbox.cif.g09.slc.cpg/sg25_3_cif.got.tgz:5678.got - 2010.04.14 03:30:10.
