data_PCOD8166147
_publ_section_title
;
Structure prediction by ZEFSAII (Michael W. Deem and Ramdas Pophale) SiO2 
 PCOD8166147
Probable space group: I 21 21 21
;
_chemical_formula_sum "Si O2"
_cell_formula_units_Z 60
_cell_length_a 25.580283
_cell_length_b 6.889350
_cell_length_c 16.725530
_cell_angle_alpha 90.000000
_cell_angle_beta 90.000000
_cell_angle_gamma 90.000000
_cell_volume 2947.565620
_symmetry_space_group_name_H-M "I 21 21 21"
_symmetry_group_IT_number 24
_symmetry_cell_setting 'orthorhombic'
loop_
_space_group_symop_operation_xyz
x,y,z
-x,1/2-y,z
x,-y,1/2-z
1/2-x,y,-z
1/2+x,1/2+y,1/2+z
1/2-x,-y,1/2+z
1/2+x,1/2-y,-z
-x,1/2+y,1/2-z
loop_
_atom_site_type_symbol
_atom_site_label
_atom_site_fract_x
_atom_site_fract_y
_atom_site_fract_z
Si Si1 0.658931 0.666437 0.188893
Si Si2 0.586782 0.000000 0.250000
Si Si3 0.209504 0.226157 0.063686
Si Si4 0.442324 0.302002 0.544972
Si Si5 0.147889 0.443888 0.342738
Si Si6 0.121811 0.972832 0.532639
Si Si7 0.225785 0.894695 0.173980
Si Si8 0.551381 0.866146 0.414330
O O1 0.642604 0.500000 0.250000
O O2 0.645480 0.611098 0.099217
O O3 0.720545 0.717778 0.195693
O O4 0.625092 0.850446 0.208863
O O5 0.549648 0.081203 0.179874
O O6 0.180971 0.387290 0.115893
O O7 0.242254 0.070719 0.115245
O O8 0.250000 0.322184 0.000000
O O9 0.166869 0.089007 0.025746
O O10 0.500000 0.250000 0.578829
O O11 0.407856 0.406377 0.614255
O O12 0.419777 0.094979 0.518188
O O13 0.445084 0.442039 0.468171
O O14 0.138479 0.500000 0.250000
O O15 0.182357 0.252867 0.357083
O O16 0.099754 0.775401 0.570497
O O17 0.200301 0.000000 0.250000
O O18 0.500000 0.750000 0.437992
#
# Coordination Sequence:
#
# PCOD8166147 Si02
#       8
#     8   4   8   8   8   8   8   8
#     4  11  24  39  64  99 145 184 224 271 335 404
#     4  12  26  40  68 106 142 184 234 284 334 418
#     4  12  25  42  71 106 140 180 230 278 342 418
#     4  12  26  46  72  98 129 181 233 295 359 412
#     4  12  27  46  72 105 139 176 231 295 353 412
#     4  12  23  42  68  96 133 177 232 287 339 410
#     4  11  24  42  67 100 138 184 217 269 338 414
#     4  12  26  43  68 100 137 179 236 291 345 411
#
# _framework density 20.355779999999999
#
# number of rings (size 3 to 8) (size 9 to 14) (size 15 to 20)
#    0.000    0.267    9.333    0.000    0.933    4.267 
#    0.000    2.667    0.000    0.000    0.000    0.000 
#    0.000    0.000    0.000    0.000    0.000    0.000 
#
# Total GULP energy -372000.386576 kJ/mol
# GULP energy per Si atom -12400.012886 kJ/mol
# Density = 2.030945 g / cm^3
# Si number density = 20.355780 Si / 1000 Ang^3
#
#
#
# Elastic Constant Matrix: (Units=GPa)
#
#
# Indices 1 2 3 4 5 6 
#
# 1 95.5679 38.2293 35.9762 0.0000 0.0000 0.0000
# 2 38.2293 89.3755 39.4230 0.0000 0.0000 0.0000
# 3 35.9762 39.4230 116.2636 0.0000 0.0000 0.0000
# 4 0.0000 0.0000 0.0000 40.3720 0.0000 0.0000
# 5 0.0000 0.0000 0.0000 0.0000 24.8388 0.0000
# 6 0.0000 0.0000 0.0000 0.0000 0.0000 14.3091
#
#
#
# Elastic Compliance Matrix: (Units=1/GPa)
#
#
# Indices 1 2 3 4 5 6 
#
# 1 0.013241 -0.004535 -0.002560 0.000000 0.000000 0.000000
# 2 -0.004535 0.014710 -0.003585 0.000000 0.000000 0.000000
# 3 -0.002560 -0.003585 0.010609 0.000000 0.000000 0.000000
# 4 0.000000 0.000000 0.000000 0.024770 0.000000 0.000000
# 5 0.000000 0.000000 0.000000 0.000000 0.040260 0.000000
# 6 0.000000 0.000000 0.000000 0.000000 0.000000 0.069885
#
#
# Mechanical properties :
#
#
# Convention : Reuss Voigt Hill
#
# Bulk Modulus (GPa) = 58.13418 58.71820 58.42619
# Shear Modulus (GPa) = 24.92946 28.40924 26.66935
#
# Velocity S-wave (km/s) = 3.50335 3.73987 3.62354
# Velocity P-wave (km/s) = 6.70713 6.89619 6.80232
#
# Compressibility (1/GPa) = 0.01720159
#
# Stress axis : x y z
#
# Youngs Moduli (GPa) = 75.52092 67.98305 94.26260
#
# Poissons Ratio (x) = 0.30829 0.24128
# Poissons Ratio (y) = 0.34247 0.33789
# Poissons Ratio (z) = 0.19331 0.24369
#
# Static dielectric constant tensor:
#      x y z
#    x 3.673000 0.000000 0.000000 
#    y 0.000000 3.431430 0.000000 
#    z 0.000000 0.000000 3.776850 
# 
# 
# High freq. dielectric constant tensor:
#      x y z
#    x 1.797840 0.000000 0.000000 
#    y 0.000000 1.806160 0.000000 
#    z 0.000000 0.000000 1.801600 
# 
# From -- ./inp_files/4998.got.cif
#   From: 2010.03.12/outbox.cif.g09.slc.cpg/sg24_3_cif.got.tgz:4998.got - 2010.04.14 03:06:53.
