data_PCOD8166900
_publ_section_title
;
Structure prediction by ZEFSAII (Michael W. Deem and Ramdas Pophale) SiO2 
 PCOD8166900
Probable space group: P M M 2
;
_chemical_formula_sum "Si O2"
_cell_formula_units_Z 32
_cell_length_a 13.957844
_cell_length_b 9.137007
_cell_length_c 13.076265
_cell_angle_alpha 90.000000
_cell_angle_beta 90.000000
_cell_angle_gamma 90.000000
_cell_volume 1667.654236
_symmetry_space_group_name_H-M "P M M 2"
_symmetry_group_IT_number 25
_symmetry_cell_setting 'orthorhombic'
loop_
_space_group_symop_operation_xyz
x,y,z
-x,-y,z
-x,y,z
x,-y,z
loop_
_atom_site_type_symbol
_atom_site_label
_atom_site_fract_x
_atom_site_fract_y
_atom_site_fract_z
Si Si1 0.214649 0.173954 0.048750
Si Si2 0.390627 0.672125 0.974541
Si Si3 0.394288 0.171647 0.550769
Si Si4 0.795018 0.827043 0.455854
Si Si5 0.113894 0.667248 0.863733
Si Si6 0.891899 0.825870 0.252596
Si Si7 0.386251 0.339050 0.747252
Si Si8 0.886568 0.167044 0.663841
O O1 0.322787 0.236932 0.050571
O O2 0.165728 0.226922 0.153602
O O3 0.217000 0.000000 0.039027
O O4 0.153154 0.239435 0.957194
O O5 0.500000 0.725301 0.989866
O O6 0.382869 0.500000 0.996855
O O7 0.350520 0.707719 0.860136
O O8 0.500000 0.237896 0.525110
O O9 0.318410 0.214125 0.462377
O O10 0.352931 0.227971 0.659332
O O11 0.402235 0.000000 0.562502
O O12 0.840257 0.758509 0.353324
O O13 0.847420 0.766974 0.557244
O O14 0.809456 0.000000 0.452408
O O15 0.149672 0.500000 0.872220
O O16 0.153291 0.734564 0.757205
O O17 0.000000 0.677457 0.866738
O O18 0.000000 0.764602 0.247555
O O19 0.893001 0.000000 0.257947
O O20 0.500000 0.343342 0.754792
O O21 0.347121 0.500000 0.719029
O O22 0.000000 0.174938 0.659196
O O23 0.851679 0.000000 0.680224
#
# Coordination Sequence:
#
# PCOD8166900 Si02
#       8
#     4   4   4   4   4   4   4   4
#     4  11  22  34  54  82 109 138 181 231 277 324
#     4   9  19  36  55  76 107 147 186 221 264 322
#     4   9  17  28  44  71 106 137 167 208 257 309
#     4   9  17  30  50  75 102 134 175 216 267 327
#     4  10  21  36  53  75 107 145 180 218 273 338
#     4   9  18  34  55  78 104 136 177 227 278 327
#     4   8  15  29  48  69  96 134 175 210 247 297
#     4   9  17  30  50  76 103 130 166 217 271 323
#
# _framework density 19.188628000000001
#
# number of rings (size 3 to 8) (size 9 to 14) (size 15 to 20)
#    0.000    2.750    0.000    2.250    1.750    3.500 
#    0.000    1.875    0.000    5.250    0.000    3.500 
#    0.000    0.000    0.000    0.000    0.000    0.000 
#
# Total GULP energy -396688.634550 kJ/mol
# GULP energy per Si atom -12396.519830 kJ/mol
# Density = 1.914495 g / cm^3
# Si number density = 19.188628 Si / 1000 Ang^3
#
#
#
# Elastic Constant Matrix: (Units=GPa)
#
#
# Indices 1 2 3 4 5 6 
#
# 1 87.3890 34.5099 75.9606 0.0000 0.0000 0.0000
# 2 34.5099 49.8808 41.2864 0.0000 0.0000 0.0000
# 3 75.9606 41.2864 157.3878 0.0000 0.0000 0.0000
# 4 0.0000 0.0000 0.0000 6.4591 0.0000 0.0000
# 5 0.0000 0.0000 0.0000 0.0000 35.3513 0.0000
# 6 0.0000 0.0000 0.0000 0.0000 0.0000 23.1860
#
#
#
# Elastic Compliance Matrix: (Units=1/GPa)
#
#
# Indices 1 2 3 4 5 6 
#
# 1 0.022084 -0.008247 -0.008495 0.000000 0.000000 0.000000
# 2 -0.008247 0.028688 -0.003545 0.000000 0.000000 0.000000
# 3 -0.008495 -0.003545 0.011384 0.000000 0.000000 0.000000
# 4 0.000000 0.000000 0.000000 0.154819 0.000000 0.000000
# 5 0.000000 0.000000 0.000000 0.000000 0.028287 0.000000
# 6 0.000000 0.000000 0.000000 0.000000 0.000000 0.043129
#
#
# Mechanical properties :
#
#
# Convention : Reuss Voigt Hill
#
# Bulk Modulus (GPa) = 46.33766 66.46351 56.40058
# Shear Modulus (GPa) = 14.87385 22.52601 18.69993
#
# Velocity S-wave (km/s) = 2.78715 3.42998 3.12514
# Velocity P-wave (km/s) = 5.87865 7.09919 6.51755
#
# Compressibility (1/GPa) = 0.02158072
#
# Stress axis : x y z
#
# Youngs Moduli (GPa) = 45.28143 34.85776 87.84529
#
# Poissons Ratio (x) = 0.28749 0.74625
# Poissons Ratio (y) = 0.37346 0.31141
# Poissons Ratio (z) = 0.38467 0.12357
#
# Static dielectric constant tensor:
#      x y z
#    x 3.751730 0.000000 0.000000 
#    y 0.000000 3.290530 0.000000 
#    z 0.000000 0.000000 3.608130 
# 
# 
# High freq. dielectric constant tensor:
#      x y z
#    x 1.763900 0.000000 0.000000 
#    y 0.000000 1.712190 0.000000 
#    z 0.000000 0.000000 1.732170 
# 
# From -- ./inp_files/4152.got.cif
#   From: 2010.03.12/outbox.cif.g09.slc.cpg/sg25_3_cif.got.tgz:4152.got - 2010.04.14 03:30:10.
