data_PCOD8166969
_publ_section_title
;
Structure prediction by ZEFSAII (Michael W. Deem and Ramdas Pophale) SiO2 
 PCOD8166969
Probable space group: P M M 2
;
_chemical_formula_sum "Si O2"
_cell_formula_units_Z 20
_cell_length_a 9.355960
_cell_length_b 7.730123
_cell_length_c 14.564567
_cell_angle_alpha 90.000000
_cell_angle_beta 90.000000
_cell_angle_gamma 90.000000
_cell_volume 1053.349124
_symmetry_space_group_name_H-M "P M M 2"
_symmetry_group_IT_number 25
_symmetry_cell_setting 'orthorhombic'
loop_
_space_group_symop_operation_xyz
x,y,z
-x,-y,z
-x,y,z
x,-y,z
loop_
_atom_site_type_symbol
_atom_site_label
_atom_site_fract_x
_atom_site_fract_y
_atom_site_fract_z
Si Si1 0.330582 0.191326 0.910240
Si Si2 0.164141 0.300630 0.279406
Si Si3 0.329257 0.500000 0.577538
Si Si4 0.165205 0.804610 0.479682
Si Si5 0.329984 0.500000 0.787057
Si Si6 0.661852 0.705016 0.107075
O O1 0.500000 0.215075 0.915147
O O2 0.267570 0.330307 0.838432
O O3 0.287183 0.000000 0.875880
O O4 0.270203 0.221081 0.012959
O O5 0.204094 0.500000 0.297197
O O6 0.202584 0.198020 0.371751
O O7 0.252521 0.222238 0.194480
O O8 0.000000 0.278141 0.252728
O O9 0.500000 0.500000 0.567023
O O10 0.267728 0.673672 0.532720
O O11 0.277632 0.500000 0.682725
O O12 0.000000 0.748514 0.494216
O O13 0.191682 0.000000 0.515762
O O14 0.500000 0.500000 0.790414
O O15 0.500000 0.769098 0.118745
O O16 0.672240 0.500000 0.101866
#
# Coordination Sequence:
#
# PCOD8166969 Si02
#       6
#     4   4   2   4   2   4
#     4   9  16  28  48  72 101 138 174 206 250 314
#     4   9  17  31  51  75 104 140 180 217 258 314
#     4  11  23  37  58  85 114 140 175 235 294 331
#     4  10  21  39  61  81 107 148 192 226 266 331
#     4   9  18  33  50  73 104 136 169 213 268 321
#     4   9  16  27  46  73 104 136 171 212 256 305
#
# _framework density 18.987057
#
# number of rings (size 3 to 8) (size 9 to 14) (size 15 to 20)
#    0.000    2.600    2.000    0.300    0.000    2.800 
#    0.000    2.000    0.000    2.400    0.000    0.000 
#    0.000    0.000    0.000    0.000    0.000    0.000 
#
# Total GULP energy -247954.349248 kJ/mol
# GULP energy per Si atom -12397.717462 kJ/mol
# Density = 1.894384 g / cm^3
# Si number density = 18.987057 Si / 1000 Ang^3
#
#
#
# Elastic Constant Matrix: (Units=GPa)
#
#
# Indices 1 2 3 4 5 6 
#
# 1 54.8569 36.2179 50.8871 0.0000 0.0000 0.0000
# 2 36.2179 113.2070 66.6723 0.0000 0.0000 0.0000
# 3 50.8871 66.6723 139.8115 0.0000 0.0000 0.0000
# 4 0.0000 0.0000 0.0000 7.6898 0.0000 0.0000
# 5 0.0000 0.0000 0.0000 0.0000 3.1797 0.0000
# 6 0.0000 0.0000 0.0000 0.0000 0.0000 12.9053
#
#
#
# Elastic Compliance Matrix: (Units=1/GPa)
#
#
# Indices 1 2 3 4 5 6 
#
# 1 0.028918 -0.004245 -0.008501 0.000000 0.000000 0.000000
# 2 -0.004245 0.012906 -0.004610 0.000000 0.000000 0.000000
# 3 -0.008501 -0.004610 0.012445 0.000000 0.000000 0.000000
# 4 0.000000 0.000000 0.000000 0.130043 0.000000 0.000000
# 5 0.000000 0.000000 0.000000 0.000000 0.314494 0.000000
# 6 0.000000 0.000000 0.000000 0.000000 0.000000 0.077488
#
#
# Mechanical properties :
#
#
# Convention : Reuss Voigt Hill
#
# Bulk Modulus (GPa) = 51.13065 68.38110 59.75588
# Shear Modulus (GPa) = 8.09687 15.02816 11.56251
#
# Velocity S-wave (km/s) = 2.06729 2.81640 2.47041
# Velocity P-wave (km/s) = 5.71716 6.83147 6.29900
#
# Compressibility (1/GPa) = 0.01955774
#
# Stress axis : x y z
#
# Youngs Moduli (GPa) = 34.58111 77.48189 80.35564
#
# Poissons Ratio (x) = 0.32891 0.68308
# Poissons Ratio (y) = 0.14680 0.37041
# Poissons Ratio (z) = 0.29397 0.35716
#
# Static dielectric constant tensor:
#      x y z
#    x 3.159880 0.000000 0.000000 
#    y 0.000000 3.495530 0.000000 
#    z 0.000000 0.000000 3.607390 
# 
# 
# High freq. dielectric constant tensor:
#      x y z
#    x 1.692850 0.000000 0.000000 
#    y 0.000000 1.743370 0.000000 
#    z 0.000000 0.000000 1.739750 
# 
# From -- ./inp_files/5157.got.cif
#   From: 2010.03.12/outbox.cif.g09.slc.cpg/sg25_3_cif.got.tgz:5157.got - 2010.04.14 03:30:10.
