data_PCOD8166637
_publ_section_title
;
Structure prediction by ZEFSAII (Michael W. Deem and Ramdas Pophale) SiO2 
 PCOD8166637
Probable space group: P M M 2
;
_chemical_formula_sum "Si O2"
_cell_formula_units_Z 32
_cell_length_a 16.242182
_cell_length_b 9.282377
_cell_length_c 11.584932
_cell_angle_alpha 90.000000
_cell_angle_beta 90.000000
_cell_angle_gamma 90.000000
_cell_volume 1746.614514
_symmetry_space_group_name_H-M "P M M 2"
_symmetry_group_IT_number 25
_symmetry_cell_setting 'orthorhombic'
loop_
_space_group_symop_operation_xyz
x,y,z
-x,-y,z
-x,y,z
x,-y,z
loop_
_atom_site_type_symbol
_atom_site_label
_atom_site_fract_x
_atom_site_fract_y
_atom_site_fract_z
Si Si1 0.410073 0.840517 0.614740
Si Si2 0.193936 0.833634 0.515938
Si Si3 0.256876 0.670827 0.980715
Si Si4 0.270657 0.330150 0.717843
Si Si5 0.594580 0.329135 0.144459
Si Si6 0.094910 0.655859 0.355593
Si Si7 0.356165 0.162934 0.371208
Si Si8 0.907709 0.328442 0.100404
O O1 0.500000 0.840392 0.670315
O O2 0.361554 0.714391 0.677887
O O3 0.418485 0.812557 0.477619
O O4 0.367920 0.000000 0.631897
O O5 0.205799 0.752790 0.637546
O O6 0.114187 0.768841 0.455674
O O7 0.266759 0.803226 0.424864
O O8 0.180680 0.000000 0.542911
O O9 0.256477 0.500000 0.990529
O O10 0.337660 0.728123 0.051042
O O11 0.168400 0.732649 0.024541
O O12 0.262055 0.721930 0.849064
O O13 0.258074 0.500000 0.704377
O O14 0.500000 0.280978 0.112863
O O15 0.598424 0.500000 0.152258
O O16 0.620534 0.269584 0.268928
O O17 0.140078 0.500000 0.373974
O O18 0.115840 0.720908 0.229811
O O19 0.000000 0.624627 0.360967
O O20 0.360961 0.000000 0.323233
O O21 0.910853 0.500000 0.093937
O O22 0.000000 0.270325 0.063922
#
# Coordination Sequence:
#
# PCOD8166637 Si02
#       8
#     4   4   4   4   4   4   4   4
#     4   9  18  33  51  70  96 129 163 205 256 304
#     4  10  20  34  51  71  99 135 168 201 250 305
#     4   9  18  32  48  68  98 133 166 206 253 294
#     4  10  20  33  50  71  95 127 170 214 249 288
#     4  10  20  32  48  72 101 132 164 200 248 306
#     4   9  17  30  52  82 108 127 155 199 247 298
#     4   9  18  32  49  70  96 126 161 202 249 299
#     4   8  14  27  50  78 103 127 158 199 250 303
#
# _framework density 18.321158
#
# number of rings (size 3 to 8) (size 9 to 14) (size 15 to 20)
#    0.000    2.750    0.000    3.375    0.000    5.250 
#    0.000    3.125    0.000    3.750    0.000    0.000 
#    0.000    0.000    0.000    0.000    0.000    0.000 
#
# Total GULP energy -396473.971510 kJ/mol
# GULP energy per Si atom -12389.811610 kJ/mol
# Density = 1.827946 g / cm^3
# Si number density = 18.321158 Si / 1000 Ang^3
#
#
#
# Elastic Constant Matrix: (Units=GPa)
#
#
# Indices 1 2 3 4 5 6 
#
# 1 60.4564 22.3347 64.4891 0.0000 0.0000 0.0000
# 2 22.3347 57.0046 45.5312 0.0000 0.0000 0.0000
# 3 64.4891 45.5312 133.2574 0.0000 0.0000 0.0000
# 4 0.0000 0.0000 0.0000 9.1701 0.0000 0.0000
# 5 0.0000 0.0000 0.0000 0.0000 9.4219 0.0000
# 6 0.0000 0.0000 0.0000 0.0000 0.0000 15.9090
#
#
#
# Elastic Compliance Matrix: (Units=1/GPa)
#
#
# Indices 1 2 3 4 5 6 
#
# 1 0.034194 -0.000248 -0.016463 0.000000 0.000000 0.000000
# 2 -0.000248 0.024129 -0.008124 0.000000 0.000000 0.000000
# 3 -0.016463 -0.008124 0.018247 0.000000 0.000000 0.000000
# 4 0.000000 0.000000 0.000000 0.109050 0.000000 0.000000
# 5 0.000000 0.000000 0.000000 0.000000 0.106136 0.000000
# 6 0.000000 0.000000 0.000000 0.000000 0.000000 0.062857
#
#
# Mechanical properties :
#
#
# Convention : Reuss Voigt Hill
#
# Bulk Modulus (GPa) = 37.17564 57.26981 47.22273
# Shear Modulus (GPa) = 12.09921 14.79110 13.44516
#
# Velocity S-wave (km/s) = 2.57260 2.84443 2.71192
# Velocity P-wave (km/s) = 5.39996 6.48956 5.96967
#
# Compressibility (1/GPa) = 0.02689933
#
# Stress axis : x y z
#
# Youngs Moduli (GPa) = 29.24512 41.44446 54.80209
#
# Poissons Ratio (x) = 0.01026 0.90222
# Poissons Ratio (y) = 0.00724 0.44523
# Poissons Ratio (z) = 0.48147 0.33671
#
# Static dielectric constant tensor:
#      x y z
#    x 3.586000 0.000000 0.000000 
#    y 0.000000 3.155190 0.000000 
#    z 0.000000 0.000000 3.374180 
# 
# 
# High freq. dielectric constant tensor:
#      x y z
#    x 1.712490 0.000000 0.000000 
#    y 0.000000 1.683310 0.000000 
#    z 0.000000 0.000000 1.700000 
# 
# From -- ./inp_files/5073.got.cif
#   From: 2010.03.12/outbox.cif.g09.slc.cpg/sg25_3_cif.got.tgz:5073.got - 2010.04.14 03:30:10.
