data_PCOD8166618
_publ_section_title
;
Structure prediction by ZEFSAII (Michael W. Deem and Ramdas Pophale) SiO2 
 PCOD8166618
Probable space group: P M M 2
;
_chemical_formula_sum "Si O2"
_cell_formula_units_Z 32
_cell_length_a 15.892484
_cell_length_b 9.527139
_cell_length_c 11.734583
_cell_angle_alpha 90.000000
_cell_angle_beta 90.000000
_cell_angle_gamma 90.000000
_cell_volume 1776.732087
_symmetry_space_group_name_H-M "P M M 2"
_symmetry_group_IT_number 25
_symmetry_cell_setting 'orthorhombic'
loop_
_space_group_symop_operation_xyz
x,y,z
-x,-y,z
-x,y,z
x,-y,z
loop_
_atom_site_type_symbol
_atom_site_label
_atom_site_fract_x
_atom_site_fract_y
_atom_site_fract_z
Si Si1 0.597792 0.653928 0.678710
Si Si2 0.095141 0.833523 0.885402
Si Si3 0.247095 0.165654 0.039878
Si Si4 0.219884 0.836891 0.294966
Si Si5 0.317440 0.155435 0.516801
Si Si6 0.093764 0.656316 0.427090
Si Si7 0.860096 0.159591 0.630998
Si Si8 0.596650 0.164520 0.892713
O O1 0.500000 0.631518 0.686865
O O2 0.641615 0.500000 0.685894
O O3 0.617265 0.727772 0.558115
O O4 0.627346 0.753589 0.780997
O O5 0.165181 0.771435 0.973432
O O6 0.123462 0.787456 0.758995
O O7 0.000000 0.776943 0.911991
O O8 0.094624 0.000000 0.894018
O O9 0.337421 0.213381 0.989402
O O10 0.240704 0.000000 0.031632
O O11 0.248159 0.215189 0.170733
O O12 0.294694 0.812729 0.385515
O O13 0.141396 0.743741 0.331032
O O14 0.192296 0.000000 0.295416
O O15 0.237867 0.166684 0.600576
O O16 0.357381 0.000000 0.526006
O O17 0.133327 0.500000 0.442216
O O18 0.091195 0.736092 0.547599
O O19 0.000000 0.642646 0.380739
O O20 0.893477 0.000000 0.614638
O O21 0.500000 0.201234 0.928690
O O22 0.604704 0.000000 0.865632
#
# Coordination Sequence:
#
# PCOD8166618 Si02
#       8
#     4   4   4   4   4   4   4   4
#     4  10  20  32  48  73 102 128 156 192 236 293
#     4   9  16  25  42  71 102 128 154 191 240 286
#     4   9  17  31  49  71  99 126 160 204 240 282
#     4   9  19  34  51  70  93 125 165 205 242 286
#     4   9  17  30  48  70  94 123 160 201 246 289
#     4  10  20  32  47  69  97 128 163 204 246 288
#     4   9  17  30  49  72  97 124 158 200 244 295
#     4   9  17  31  53  77 100 128 159 196 246 294
#
# _framework density 18.010594999999999
#
# number of rings (size 3 to 8) (size 9 to 14) (size 15 to 20)
#    0.000    2.750    0.000    2.625    0.000    6.750 
#    0.000    2.500    0.000    3.000    0.000    3.500 
#    0.000    0.000    0.000    0.000    0.000    0.000 
#
# Total GULP energy -396603.653454 kJ/mol
# GULP energy per Si atom -12393.864170 kJ/mol
# Density = 1.796960 g / cm^3
# Si number density = 18.010595 Si / 1000 Ang^3
#
#
#
# Elastic Constant Matrix: (Units=GPa)
#
#
# Indices 1 2 3 4 5 6 
#
# 1 63.2034 25.0856 60.5389 0.0000 0.0000 0.0000
# 2 25.0856 78.6795 49.0604 0.0000 0.0000 0.0000
# 3 60.5389 49.0604 148.9290 0.0000 0.0000 0.0000
# 4 0.0000 0.0000 0.0000 2.5945 0.0000 0.0000
# 5 0.0000 0.0000 0.0000 0.0000 18.0500 0.0000
# 6 0.0000 0.0000 0.0000 0.0000 0.0000 17.5516
#
#
#
# Elastic Compliance Matrix: (Units=1/GPa)
#
#
# Indices 1 2 3 4 5 6 
#
# 1 0.026198 -0.002155 -0.009939 0.000000 0.000000 0.000000
# 2 -0.002155 0.016173 -0.004452 0.000000 0.000000 0.000000
# 3 -0.009939 -0.004452 0.012221 0.000000 0.000000 0.000000
# 4 0.000000 0.000000 0.000000 0.385430 0.000000 0.000000
# 5 0.000000 0.000000 0.000000 0.000000 0.055402 0.000000
# 6 0.000000 0.000000 0.000000 0.000000 0.000000 0.056975
#
#
# Mechanical properties :
#
#
# Convention : Reuss Voigt Hill
#
# Bulk Modulus (GPa) = 46.51225 62.24244 54.37734
# Shear Modulus (GPa) = 8.43660 18.04768 13.24214
#
# Velocity S-wave (km/s) = 2.16666 3.16897 2.71448
# Velocity P-wave (km/s) = 5.66923 6.92991 6.33103
#
# Compressibility (1/GPa) = 0.02149971
#
# Stress axis : x y z
#
# Youngs Moduli (GPa) = 38.17157 61.83266 81.82421
#
# Poissons Ratio (x) = 0.13325 0.81327
# Poissons Ratio (y) = 0.08226 0.36425
# Poissons Ratio (z) = 0.37940 0.27526
#
# Static dielectric constant tensor:
#      x y z
#    x 3.317520 0.000000 0.000000 
#    y 0.000000 3.325180 0.000000 
#    z 0.000000 0.000000 3.397410 
# 
# 
# High freq. dielectric constant tensor:
#      x y z
#    x 1.690770 0.000000 0.000000 
#    y 0.000000 1.670800 0.000000 
#    z 0.000000 0.000000 1.689780 
# 
# From -- ./inp_files/4283.got.cif
#   From: 2010.03.12/outbox.cif.g09.slc.cpg/sg25_3_cif.got.tgz:4283.got - 2010.04.14 03:30:10.
