data_PCOD8166382
_publ_section_title
;
Structure prediction by ZEFSAII (Michael W. Deem and Ramdas Pophale) SiO2 
 PCOD8166382
Probable space group: P M M 2
;
_chemical_formula_sum "Si O2"
_cell_formula_units_Z 20
_cell_length_a 12.698255
_cell_length_b 9.087964
_cell_length_c 9.786774
_cell_angle_alpha 90.000000
_cell_angle_beta 90.000000
_cell_angle_gamma 90.000000
_cell_volume 1129.406289
_symmetry_space_group_name_H-M "P M M 2"
_symmetry_group_IT_number 25
_symmetry_cell_setting 'orthorhombic'
loop_
_space_group_symop_operation_xyz
x,y,z
-x,-y,z
-x,y,z
x,-y,z
loop_
_atom_site_type_symbol
_atom_site_label
_atom_site_fract_x
_atom_site_fract_y
_atom_site_fract_z
Si Si1 0.727222 0.334651 0.219860
Si Si2 0.122913 0.830199 0.720224
Si Si3 0.500000 0.333505 0.186721
Si Si4 0.710115 0.671914 0.900522
Si Si5 0.116219 0.826411 0.412845
Si Si6 0.500000 0.826266 0.910559
O O1 0.767547 0.500000 0.244402
O O2 0.606616 0.315695 0.275294
O O3 0.801215 0.226846 0.302042
O O4 0.729007 0.294633 0.060122
O O5 0.187959 0.728371 0.821591
O O6 0.148992 0.778801 0.565646
O O7 0.000000 0.807111 0.751739
O O8 0.154416 0.000000 0.742492
O O9 0.500000 0.500000 0.120171
O O10 0.500000 0.210290 0.070677
O O11 0.694792 0.500000 0.873316
O O12 0.605796 0.755828 0.845501
O O13 0.000000 0.763005 0.378176
O O14 0.112005 0.000000 0.406075
O O15 0.500000 0.000000 0.885178
#
# Coordination Sequence:
#
# PCOD8166382 Si02
#       6
#     4   4   2   4   4   2
#     4   9  18  32  51  74 100 130 164 202 244 296
#     4   9  19  36  54  72  98 133 172 213 255 298
#     4   8  16  32  49  70 103 134 160 200 252 296
#     4  10  20  34  52  76 105 134 166 206 252 300
#     4   9  19  35  52  71  99 133 167 206 251 295
#     4  10  18  30  51  76 101 132 168 204 248 298
#
# _framework density 17.70842
#
# number of rings (size 3 to 8) (size 9 to 14) (size 15 to 20)
#    0.000    2.800    0.000    3.900    0.000    6.400 
#    0.000    7.000    0.000    4.800    0.000    0.000 
#    0.000    0.000    0.000    0.000    0.000    0.000 
#
# Total GULP energy -247904.450507 kJ/mol
# GULP energy per Si atom -12395.222525 kJ/mol
# Density = 1.766811 g / cm^3
# Si number density = 17.708420 Si / 1000 Ang^3
#
#
#
# Elastic Constant Matrix: (Units=GPa)
#
#
# Indices 1 2 3 4 5 6 
#
# 1 119.2012 51.3146 58.3498 0.0000 0.0000 0.0000
# 2 51.3146 77.3094 37.4538 0.0000 0.0000 0.0000
# 3 58.3498 37.4538 63.4862 0.0000 0.0000 0.0000
# 4 0.0000 0.0000 0.0000 23.8126 0.0000 0.0000
# 5 0.0000 0.0000 0.0000 0.0000 -11.3970 0.0000
# 6 0.0000 0.0000 0.0000 0.0000 0.0000 34.0491
#
#
#
# Elastic Compliance Matrix: (Units=1/GPa)
#
#
# Indices 1 2 3 4 5 6 
#
# 1 0.016555 -0.005065 -0.012228 0.000000 0.000000 0.000000
# 2 -0.005065 0.019661 -0.006944 0.000000 0.000000 0.000000
# 3 -0.012228 -0.006944 0.031087 0.000000 0.000000 0.000000
# 4 0.000000 0.000000 0.000000 0.041995 0.000000 0.000000
# 5 0.000000 0.000000 0.000000 0.000000 -0.087743 0.000000
# 6 0.000000 0.000000 0.000000 0.000000 0.000000 0.029369
#
#
# Mechanical properties :
#
#
# Convention : Reuss Voigt Hill
#
# Bulk Modulus (GPa) = 53.10804 61.58147 57.34475
# Shear Modulus (GPa) = 47.31570 16.81819 32.06694
#
# Velocity S-wave (km/s) = 5.17468 3.08511 4.26000
# Velocity P-wave (km/s) = 8.10916 6.89502 7.52661
#
# Compressibility (1/GPa) = 0.01882954
#
# Stress axis : x y z
#
# Youngs Moduli (GPa) = 60.40490 50.86246 32.16815
#
# Poissons Ratio (x) = 0.25759 0.39334
# Poissons Ratio (y) = 0.30592 0.22338
# Poissons Ratio (z) = 0.73862 0.35320
#
# Static dielectric constant tensor:
#      x y z
#    x 3.535840 0.000000 0.000000 
#    y 0.000000 3.168820 0.000000 
#    z 0.000000 0.000000 3.029930 
# 
# 
# High freq. dielectric constant tensor:
#      x y z
#    x 1.700350 0.000000 0.000000 
#    y 0.000000 1.683620 0.000000 
#    z 0.000000 0.000000 1.652950 
# 
# From -- ./inp_files/3009.got.cif
#   From: 2010.03.12/outbox.cif.g09.slc.cpg/sg25_2_cif.got.tgz:3009.got - 2010.04.14 03:30:10.
