data_PCOD8166644
_publ_section_title
;
Structure prediction by ZEFSAII (Michael W. Deem and Ramdas Pophale) SiO2 
 PCOD8166644
Probable space group: P M M 2
;
_chemical_formula_sum "Si O2"
_cell_formula_units_Z 32
_cell_length_a 15.776765
_cell_length_b 9.683646
_cell_length_c 11.635414
_cell_angle_alpha 90.000000
_cell_angle_beta 90.000000
_cell_angle_gamma 90.000000
_cell_volume 1777.619075
_symmetry_space_group_name_H-M "P M M 2"
_symmetry_group_IT_number 25
_symmetry_cell_setting 'orthorhombic'
loop_
_space_group_symop_operation_xyz
x,y,z
-x,-y,z
-x,y,z
x,-y,z
loop_
_atom_site_type_symbol
_atom_site_label
_atom_site_fract_x
_atom_site_fract_y
_atom_site_fract_z
Si Si1 0.744424 0.339596 0.816930
Si Si2 0.138344 0.657149 0.220860
Si Si3 0.316207 0.348004 0.333275
Si Si4 0.598061 0.852221 0.178411
Si Si5 0.401697 0.836491 0.924828
Si Si6 0.905375 0.845910 0.426605
Si Si7 0.095212 0.336655 0.963718
Si Si8 0.783596 0.342247 0.553378
O O1 0.729449 0.500000 0.850210
O O2 0.661522 0.250882 0.845845
O O3 0.830869 0.282479 0.877618
O O4 0.752470 0.320957 0.681219
O O5 0.104479 0.500000 0.238571
O O6 0.238100 0.662279 0.245005
O O7 0.093322 0.761696 0.307569
O O8 0.119026 0.709881 0.092645
O O9 0.355890 0.500000 0.331732
O O10 0.386704 0.246175 0.286040
O O11 0.291228 0.307186 0.463036
O O12 0.500000 0.879593 0.167589
O O13 0.643387 0.000000 0.201679
O O14 0.626225 0.793775 0.054292
O O15 0.500000 0.796513 0.898605
O O16 0.388714 0.000000 0.904786
O O17 0.858966 0.762968 0.527649
O O18 0.000000 0.861468 0.471384
O O19 0.865848 0.000000 0.408841
O O20 0.093264 0.500000 0.954998
O O21 0.000000 0.280049 0.932209
O O22 0.814547 0.500000 0.531412
#
# Coordination Sequence:
#
# PCOD8166644 Si02
#       8
#     4   4   4   4   4   4   4   4
#     4  10  20  35  55  77 101 133 176 220 254 291
#     4   9  17  30  49  72  99 130 162 200 252 310
#     4   9  17  30  48  71  96 124 163 206 248 295
#     4   9  18  32  50  74 102 129 158 193 240 304
#     4   9  19  36  56  78 105 135 165 201 252 312
#     4  10  20  32  48  72  99 127 165 212 253 292
#     4   9  17  29  48  76 106 134 167 209 256 306
#     4   9  20  36  51  69  96 132 171 207 247 298
#
# _framework density 18.001607
#
# number of rings (size 3 to 8) (size 9 to 14) (size 15 to 20)
#    0.000    2.750    0.000    3.000    0.000    6.500 
#    0.000    3.750    0.000    4.875    0.000    0.000 
#    0.000    0.000    0.000    0.000    0.000    0.000 
#
# Total GULP energy -396555.930431 kJ/mol
# GULP energy per Si atom -12392.372826 kJ/mol
# Density = 1.796063 g / cm^3
# Si number density = 18.001607 Si / 1000 Ang^3
#
#
#
# Elastic Constant Matrix: (Units=GPa)
#
#
# Indices 1 2 3 4 5 6 
#
# 1 66.4350 37.1901 50.0975 0.0000 0.0000 0.0000
# 2 37.1901 85.4314 50.8994 0.0000 0.0000 0.0000
# 3 50.0975 50.8994 113.3914 0.0000 0.0000 0.0000
# 4 0.0000 0.0000 0.0000 11.1081 0.0000 0.0000
# 5 0.0000 0.0000 0.0000 0.0000 15.7696 0.0000
# 6 0.0000 0.0000 0.0000 0.0000 0.0000 26.5964
#
#
#
# Elastic Compliance Matrix: (Units=1/GPa)
#
#
# Indices 1 2 3 4 5 6 
#
# 1 0.024481 -0.005751 -0.008234 0.000000 0.000000 0.000000
# 2 -0.005751 0.017330 -0.005238 0.000000 0.000000 0.000000
# 3 -0.008234 -0.005238 0.014808 0.000000 0.000000 0.000000
# 4 0.000000 0.000000 0.000000 0.090024 0.000000 0.000000
# 5 0.000000 0.000000 0.000000 0.000000 0.063413 0.000000
# 6 0.000000 0.000000 0.000000 0.000000 0.000000 0.037599
#
#
# Mechanical properties :
#
#
# Convention : Reuss Voigt Hill
#
# Bulk Modulus (GPa) = 55.03003 60.18133 57.60568
# Shear Modulus (GPa) = 17.11389 19.16622 18.14006
#
# Velocity S-wave (km/s) = 3.08667 3.26651 3.17786
# Velocity P-wave (km/s) = 6.58325 6.90872 6.74795
#
# Compressibility (1/GPa) = 0.01817190
#
# Stress axis : x y z
#
# Youngs Moduli (GPa) = 40.84747 57.70435 67.52940
#
# Poissons Ratio (x) = 0.33187 0.55607
# Poissons Ratio (y) = 0.23492 0.35372
# Poissons Ratio (z) = 0.33636 0.30226
#
# Static dielectric constant tensor:
#      x y z
#    x 3.215160 0.000000 0.000000 
#    y 0.000000 3.295610 0.000000 
#    z 0.000000 0.000000 3.303840 
# 
# 
# High freq. dielectric constant tensor:
#      x y z
#    x 1.686570 0.000000 0.000000 
#    y 0.000000 1.685890 0.000000 
#    z 0.000000 0.000000 1.690800 
# 
# From -- ./inp_files/5034.got.cif
#   From: 2010.03.12/outbox.cif.g09.slc.cpg/sg25_3_cif.got.tgz:5034.got - 2010.04.14 03:30:10.
