data_PCOD8166357
_publ_section_title
;
Structure prediction by ZEFSAII (Michael W. Deem and Ramdas Pophale) SiO2 
 PCOD8166357
Probable space group: P M M 2
;
_chemical_formula_sum "Si O2"
_cell_formula_units_Z 20
_cell_length_a 19.433862
_cell_length_b 10.504437
_cell_length_c 5.277559
_cell_angle_alpha 90.000000
_cell_angle_beta 90.000000
_cell_angle_gamma 90.000000
_cell_volume 1077.370283
_symmetry_space_group_name_H-M "P M M 2"
_symmetry_group_IT_number 25
_symmetry_cell_setting 'orthorhombic'
loop_
_space_group_symop_operation_xyz
x,y,z
-x,-y,z
-x,y,z
x,-y,z
loop_
_atom_site_type_symbol
_atom_site_label
_atom_site_fract_x
_atom_site_fract_y
_atom_site_fract_z
Si Si1 0.922615 0.356988 0.914990
Si Si2 0.348499 0.648978 0.175815
Si Si3 0.199516 0.243139 0.164402
Si Si4 0.421700 0.348059 0.675770
Si Si5 0.150514 0.858523 0.672482
O O1 0.913378 0.500000 0.804364
O O2 0.908285 0.251087 0.695657
O O3 0.000000 0.338076 0.019667
O O4 0.867650 0.335509 0.142039
O O5 0.361745 0.500000 0.175694
O O6 0.267511 0.673090 0.177685
O O7 0.383844 0.707785 0.426686
O O8 0.383715 0.707675 0.924639
O O9 0.193712 0.159144 0.416459
O O10 0.201843 0.153244 0.914652
O O11 0.500000 0.299690 0.676087
O O12 0.418310 0.500000 0.675535
O O13 0.117378 0.000000 0.671374
#
# Coordination Sequence:
#
# PCOD8166357 Si02
#       5
#     4   4   4   4   4
#     4   9  21  39  59  84 115 151 189 234 286 338
#     4  10  18  29  48  76 109 146 184 224 278 331
#     4  10  21  36  57  80 111 144 192 232 279 332
#     4   9  17  28  44  70 110 152 183 216 269 339
#     4  10  22  39  58  80 111 148 191 238 286 333
#
# _framework density 18.563718000000001
#
# number of rings (size 3 to 8) (size 9 to 14) (size 15 to 20)
#    1.200    1.200    0.000    3.000    0.000    5.200 
#    0.000    2.000    0.000    0.000    0.000    0.000 
#    0.000   56.000    0.000    0.000    0.000    0.000 
#
# Total GULP energy -247788.878761 kJ/mol
# GULP energy per Si atom -12389.443938 kJ/mol
# Density = 1.852147 g / cm^3
# Si number density = 18.563718 Si / 1000 Ang^3
#
#
#
# Elastic Constant Matrix: (Units=GPa)
#
#
# Indices 1 2 3 4 5 6 
#
# 1 139.1693 21.7121 62.4604 0.0000 0.0000 0.0000
# 2 21.7121 73.7485 33.1162 0.0000 0.0000 0.0000
# 3 62.4604 33.1162 163.5950 0.0000 0.0000 0.0000
# 4 0.0000 0.0000 0.0000 10.7097 0.0000 0.0000
# 5 0.0000 0.0000 0.0000 0.0000 21.4059 0.0000
# 6 0.0000 0.0000 0.0000 0.0000 0.0000 5.7533
#
#
#
# Elastic Compliance Matrix: (Units=1/GPa)
#
#
# Indices 1 2 3 4 5 6 
#
# 1 0.008765 -0.001185 -0.003106 0.000000 0.000000 0.000000
# 2 -0.001185 0.015076 -0.002599 0.000000 0.000000 0.000000
# 3 -0.003106 -0.002599 0.007825 0.000000 0.000000 0.000000
# 4 0.000000 0.000000 0.000000 0.093374 0.000000 0.000000
# 5 0.000000 0.000000 0.000000 0.000000 0.046716 0.000000
# 6 0.000000 0.000000 0.000000 0.000000 0.000000 0.173813
#
#
# Mechanical properties :
#
#
# Convention : Reuss Voigt Hill
#
# Bulk Modulus (GPa) = 55.91838 67.89892 61.90865
# Shear Modulus (GPa) = 13.68696 24.85537 19.27116
#
# Velocity S-wave (km/s) = 2.71827 3.66310 3.22547
# Velocity P-wave (km/s) = 6.32770 7.38557 6.87700
#
# Compressibility (1/GPa) = 0.01788321
#
# Stress axis : x y z
#
# Youngs Moduli (GPa) = 114.09534 66.33171 127.79891
#
# Poissons Ratio (x) = 0.07864 0.39699
# Poissons Ratio (y) = 0.13526 0.33217
# Poissons Ratio (z) = 0.35442 0.17241
#
# Static dielectric constant tensor:
#      x y z
#    x 3.265090 0.000000 0.000000 
#    y 0.000000 2.991590 0.000000 
#    z 0.000000 0.000000 3.564460 
# 
# 
# High freq. dielectric constant tensor:
#      x y z
#    x 1.712950 0.000000 0.000000 
#    y 0.000000 1.673710 0.000000 
#    z 0.000000 0.000000 1.727300 
# 
# From -- ./inp_files/1084.got.cif
#   From: 2010.03.12/outbox.cif.g09.slc.cpg/sg25_1_cif.got.tgz:1084.got - 2010.04.14 03:30:10.
