data_PCOD8166998
_publ_section_title
;
Structure prediction by ZEFSAII (Michael W. Deem and Ramdas Pophale) SiO2 
 PCOD8166998
Probable space group: P M M 2
;
_chemical_formula_sum "Si O2"
_cell_formula_units_Z 32
_cell_length_a 9.684384
_cell_length_b 9.283278
_cell_length_c 20.960610
_cell_angle_alpha 90.000000
_cell_angle_beta 90.000000
_cell_angle_gamma 90.000000
_cell_volume 1884.418135
_symmetry_space_group_name_H-M "P M M 2"
_symmetry_group_IT_number 25
_symmetry_cell_setting 'orthorhombic'
loop_
_space_group_symop_operation_xyz
x,y,z
-x,-y,z
-x,y,z
x,-y,z
loop_
_atom_site_type_symbol
_atom_site_label
_atom_site_fract_x
_atom_site_fract_y
_atom_site_fract_z
Si Si1 0.164099 0.336111 0.582130
Si Si2 0.160032 0.832509 0.947858
Si Si3 0.341213 0.832370 0.067298
Si Si4 0.836216 0.659533 0.444675
Si Si5 0.835075 0.837312 0.702318
Si Si6 0.155536 0.672419 0.308218
Si Si7 0.340893 0.668414 0.193033
Si Si8 0.164205 0.662634 0.823819
O O1 0.218869 0.500000 0.590093
O O2 0.208191 0.268171 0.512493
O O3 0.224981 0.236372 0.638128
O O4 0.000000 0.338249 0.587282
O O5 0.248158 0.781189 0.008383
O O6 0.000000 0.800882 0.962514
O O7 0.184367 0.000000 0.932403
O O8 0.214652 0.742134 0.887701
O O9 0.500000 0.795796 0.051327
O O10 0.289796 0.747082 0.129328
O O11 0.320120 0.000000 0.081355
O O12 0.772430 0.500000 0.447063
O O13 0.790527 0.734425 0.377535
O O14 0.000000 0.648833 0.441522
O O15 0.777691 0.748542 0.762773
O O16 0.000000 0.836775 0.702165
O O17 0.778649 0.000000 0.706101
O O18 0.159551 0.500000 0.311844
O O19 0.254471 0.730580 0.252598
O O20 0.000000 0.725642 0.293595
O O21 0.500000 0.703148 0.207074
O O22 0.314207 0.500000 0.183373
O O23 0.222469 0.500000 0.822848
O O24 0.000000 0.661825 0.821508
#
# Coordination Sequence:
#
# PCOD8166998 Si02
#       8
#     4   4   4   4   4   4   4   4
#     4   8  12  18  29  45  65  91 125 163 198 231
#     4   9  17  29  44  61  81 105 133 166 202 237
#     4   9  18  32  47  61  80 108 137 162 194 241
#     4   7  10  17  30  48  69  94 126 162 196 231
#     4   9  15  21  30  46  71 104 136 162 193 236
#     4   8  13  22  37  57  80 106 135 165 199 241
#     4   9  17  28  42  61  83 104 129 166 206 237
#     4   9  16  25  37  54  77 104 133 165 200 238
#
# _framework density 16.981369000000001
#
# number of rings (size 3 to 8) (size 9 to 14) (size 15 to 20)
#    0.000    3.500    0.000    2.250    0.000    4.000 
#    0.000    0.000    0.000    0.750    0.000    1.750 
#    0.000    1.000    0.000    4.000    0.000    5.125 
#
# Total GULP energy -396468.965707 kJ/mol
# GULP energy per Si atom -12389.655178 kJ/mol
# Density = 1.694272 g / cm^3
# Si number density = 16.981369 Si / 1000 Ang^3
#
#
#
# Elastic Constant Matrix: (Units=GPa)
#
#
# Indices 1 2 3 4 5 6 
#
# 1 29.5466 18.9669 49.1409 0.0000 0.0000 0.0000
# 2 18.9669 70.8454 71.8848 0.0000 0.0000 0.0000
# 3 49.1409 71.8848 210.1869 0.0000 0.0000 0.0000
# 4 0.0000 0.0000 0.0000 12.7408 0.0000 0.0000
# 5 0.0000 0.0000 0.0000 0.0000 1.9660 0.0000
# 6 0.0000 0.0000 0.0000 0.0000 0.0000 8.8655
#
#
#
# Elastic Compliance Matrix: (Units=1/GPa)
#
#
# Indices 1 2 3 4 5 6 
#
# 1 0.055689 -0.002601 -0.012130 0.000000 0.000000 0.000000
# 2 -0.002601 0.021738 -0.006826 0.000000 0.000000 0.000000
# 3 -0.012130 -0.006826 0.009928 0.000000 0.000000 0.000000
# 4 0.000000 0.000000 0.000000 0.078488 0.000000 0.000000
# 5 0.000000 0.000000 0.000000 0.000000 0.508653 0.000000
# 6 0.000000 0.000000 0.000000 0.000000 0.000000 0.112797
#
#
# Mechanical properties :
#
#
# Convention : Reuss Voigt Hill
#
# Bulk Modulus (GPa) = 22.60379 65.61821 44.11100
# Shear Modulus (GPa) = 5.91606 16.08687 11.00146
#
# Velocity S-wave (km/s) = 1.86853 3.08120 2.54806
# Velocity P-wave (km/s) = 4.24206 7.16824 5.88976
#
# Compressibility (1/GPa) = 0.04424038
#
# Stress axis : x y z
#
# Youngs Moduli (GPa) = 17.95676 46.00205 100.72114
#
# Poissons Ratio (x) = 0.11964 1.22179
# Poissons Ratio (y) = 0.04670 0.68757
# Poissons Ratio (z) = 0.21782 0.31403
#
# Static dielectric constant tensor:
#      x y z
#    x 2.671960 0.000000 0.000000 
#    y 0.000000 3.007860 0.000000 
#    z 0.000000 0.000000 3.656500 
# 
# 
# High freq. dielectric constant tensor:
#      x y z
#    x 1.588930 0.000000 0.000000 
#    y 0.000000 1.626380 0.000000 
#    z 0.000000 0.000000 1.679690 
# 
# From -- ./inp_files/6256.got.cif
#   From: 2010.03.12/outbox.cif.g09.slc.cpg/sg25_4_cif.got.tgz:6256.got - 2010.04.14 03:30:10.
