data_PCOD8166739
_publ_section_title
;
Structure prediction by ZEFSAII (Michael W. Deem and Ramdas Pophale) SiO2 
 PCOD8166739
Probable space group: P M M 2
;
_chemical_formula_sum "Si O2"
_cell_formula_units_Z 32
_cell_length_a 13.910361
_cell_length_b 9.246306
_cell_length_c 13.139247
_cell_angle_alpha 90.000000
_cell_angle_beta 90.000000
_cell_angle_gamma 90.000000
_cell_volume 1689.962780
_symmetry_space_group_name_H-M "P M M 2"
_symmetry_group_IT_number 25
_symmetry_cell_setting 'orthorhombic'
loop_
_space_group_symop_operation_xyz
x,y,z
-x,-y,z
-x,y,z
x,-y,z
loop_
_atom_site_type_symbol
_atom_site_label
_atom_site_fract_x
_atom_site_fract_y
_atom_site_fract_z
Si Si1 0.797236 0.668639 0.061930
Si Si2 0.607986 0.334302 0.574165
Si Si3 0.797968 0.332627 0.472083
Si Si4 0.890797 0.327783 0.265122
Si Si5 0.392783 0.332379 0.965890
Si Si6 0.885929 0.836051 0.658545
Si Si7 0.113915 0.334514 0.854270
Si Si8 0.614240 0.162546 0.769429
O O1 0.821732 0.500000 0.064887
O O2 0.840995 0.739728 0.164022
O O3 0.681706 0.696017 0.058248
O O4 0.846112 0.732154 0.959930
O O5 0.500000 0.286202 0.540745
O O6 0.606381 0.500000 0.611015
O O7 0.682063 0.313206 0.480658
O O8 0.650347 0.239332 0.666664
O O9 0.827520 0.500000 0.484500
O O10 0.831423 0.272041 0.362784
O O11 0.852193 0.244993 0.558272
O O12 0.887818 0.500000 0.261131
O O13 0.000000 0.271147 0.271751
O O14 0.500000 0.279825 0.997993
O O15 0.394735 0.500000 0.935625
O O16 0.350538 0.248354 0.868588
O O17 0.844298 0.758716 0.760033
O O18 0.000000 0.830531 0.660887
O O19 0.847629 0.000000 0.656993
O O20 0.148363 0.500000 0.839296
O O21 0.000000 0.324599 0.858268
O O22 0.500000 0.165421 0.768606
O O23 0.654807 0.000000 0.772648
#
# Coordination Sequence:
#
# PCOD8166739 Si02
#       8
#     4   4   4   4   4   4   4   4
#     4   9  17  29  48  73  99 128 165 205 251 300
#     4   9  18  32  48  69 101 137 170 206 251 302
#     4  10  20  33  53  77 100 131 173 213 255 306
#     4   9  17  31  52  77 101 125 163 217 262 296
#     4   9  17  29  45  68 101 136 166 199 244 299
#     4  10  21  35  50  72 104 136 164 204 260 314
#     4   9  17  30  49  72  97 126 162 204 249 301
#     4   9  17  29  46  69  97 131 170 209 246 288
#
# _framework density 18.935328999999999
#
# number of rings (size 3 to 8) (size 9 to 14) (size 15 to 20)
#    0.000    2.750    0.000    1.500    1.750    4.750 
#    0.000    0.625    0.000    5.250    0.000    1.750 
#    0.000    4.000    0.000    0.000    0.000    0.000 
#
# Total GULP energy -396701.090161 kJ/mol
# GULP energy per Si atom -12396.909068 kJ/mol
# Density = 1.889223 g / cm^3
# Si number density = 18.935329 Si / 1000 Ang^3
#
#
#
# Elastic Constant Matrix: (Units=GPa)
#
#
# Indices 1 2 3 4 5 6 
#
# 1 76.8436 24.5365 69.5506 0.0000 0.0000 0.0000
# 2 24.5365 61.2901 46.3849 0.0000 0.0000 0.0000
# 3 69.5506 46.3849 168.7464 0.0000 0.0000 0.0000
# 4 0.0000 0.0000 0.0000 2.2978 0.0000 0.0000
# 5 0.0000 0.0000 0.0000 0.0000 33.8180 0.0000
# 6 0.0000 0.0000 0.0000 0.0000 0.0000 12.4040
#
#
#
# Elastic Compliance Matrix: (Units=1/GPa)
#
#
# Indices 1 2 3 4 5 6 
#
# 1 0.021020 -0.002346 -0.008019 0.000000 0.000000 0.000000
# 2 -0.002346 0.020864 -0.004768 0.000000 0.000000 0.000000
# 3 -0.008019 -0.004768 0.010542 0.000000 0.000000 0.000000
# 4 0.000000 0.000000 0.000000 0.435207 0.000000 0.000000
# 5 0.000000 0.000000 0.000000 0.000000 0.029570 0.000000
# 6 0.000000 0.000000 0.000000 0.000000 0.000000 0.080619
#
#
# Mechanical properties :
#
#
# Convention : Reuss Voigt Hill
#
# Bulk Modulus (GPa) = 45.12749 65.31379 55.22064
# Shear Modulus (GPa) = 7.86813 20.79783 14.33298
#
# Velocity S-wave (km/s) = 2.04066 3.31775 2.75425
# Velocity P-wave (km/s) = 5.42555 7.01745 6.27221
#
# Compressibility (1/GPa) = 0.02215944
#
# Stress axis : x y z
#
# Youngs Moduli (GPa) = 47.57266 47.93048 94.86168
#
# Poissons Ratio (x) = 0.11247 0.76068
# Poissons Ratio (y) = 0.11163 0.45228
# Poissons Ratio (z) = 0.38148 0.22852
#
# Static dielectric constant tensor:
#      x y z
#    x 3.643390 0.000000 0.000000 
#    y 0.000000 3.278940 0.000000 
#    z 0.000000 0.000000 3.514800 
# 
# 
# High freq. dielectric constant tensor:
#      x y z
#    x 1.751970 0.000000 0.000000 
#    y 0.000000 1.698450 0.000000 
#    z 0.000000 0.000000 1.718120 
# 
# From -- ./inp_files/4153.got.cif
#   From: 2010.03.12/outbox.cif.g09.slc.cpg/sg25_3_cif.got.tgz:4153.got - 2010.04.14 03:30:10.
