data_PCOD8166508
_publ_section_title
;
Structure prediction by ZEFSAII (Michael W. Deem and Ramdas Pophale) SiO2 
 PCOD8166508
Probable space group: P M M 2
;
_chemical_formula_sum "Si O2"
_cell_formula_units_Z 24
_cell_length_a 8.935748
_cell_length_b 16.440778
_cell_length_c 9.184143
_cell_angle_alpha 90.000000
_cell_angle_beta 90.000000
_cell_angle_gamma 90.000000
_cell_volume 1349.248410
_symmetry_space_group_name_H-M "P M M 2"
_symmetry_group_IT_number 25
_symmetry_cell_setting 'orthorhombic'
loop_
_space_group_symop_operation_xyz
x,y,z
-x,-y,z
-x,y,z
x,-y,z
loop_
_atom_site_type_symbol
_atom_site_label
_atom_site_fract_x
_atom_site_fract_y
_atom_site_fract_z
Si Si1 0.822010 0.729361 0.753310
Si Si2 0.321816 0.755080 0.443190
Si Si3 0.328175 0.593098 0.938138
Si Si4 0.164455 0.169762 0.019341
Si Si5 0.324079 0.910472 0.265713
Si Si6 0.167582 0.334835 0.197756
O O1 0.744677 0.748336 0.602195
O O2 0.759253 0.645470 0.818190
O O3 0.000000 0.720653 0.736422
O O4 0.779947 0.805840 0.857785
O O5 0.500000 0.748781 0.447061
O O6 0.265867 0.841818 0.377458
O O7 0.257534 0.680798 0.347197
O O8 0.500000 0.622722 0.946342
O O9 0.317516 0.500000 0.887548
O O10 0.255673 0.600335 0.098840
O O11 0.272499 0.106581 0.099784
O O12 0.158056 0.252379 0.108861
O O13 0.000000 0.129954 0.012098
O O14 0.500000 0.908767 0.262450
O O15 0.265729 0.000000 0.314167
O O16 0.000000 0.366933 0.233132
#
# Coordination Sequence:
#
# PCOD8166508 Si02
#       6
#     4   4   4   4   4   4
#     4  10  20  34  52  74 102 134 169 207 249 302
#     4  10  19  32  52  75 102 135 169 207 251 299
#     4  10  20  34  53  77 103 130 164 207 252 298
#     4   8  16  30  48  70  94 124 161 199 240 289
#     4   9  18  32  50  73  99 128 165 208 252 298
#     4   9  17  31  51  73  98 128 164 202 240 290
#
# _framework density 17.787680000000002
#
# number of rings (size 3 to 8) (size 9 to 14) (size 15 to 20)
#    0.000    2.667    0.000    3.000    0.000    7.000 
#    0.000    1.667    0.000    8.000    0.000    0.000 
#    0.000    0.000    0.000    0.000    0.000    0.000 
#
# Total GULP energy -297493.035414 kJ/mol
# GULP energy per Si atom -12395.543142 kJ/mol
# Density = 1.774719 g / cm^3
# Si number density = 17.787680 Si / 1000 Ang^3
#
#
#
# Elastic Constant Matrix: (Units=GPa)
#
#
# Indices 1 2 3 4 5 6 
#
# 1 79.1079 26.1608 41.2382 0.0000 0.0000 0.0000
# 2 26.1608 65.4544 34.1171 0.0000 0.0000 0.0000
# 3 41.2382 34.1171 132.4654 0.0000 0.0000 0.0000
# 4 0.0000 0.0000 0.0000 18.1923 0.0000 0.0000
# 5 0.0000 0.0000 0.0000 0.0000 35.9032 0.0000
# 6 0.0000 0.0000 0.0000 0.0000 0.0000 19.0546
#
#
#
# Elastic Compliance Matrix: (Units=1/GPa)
#
#
# Indices 1 2 3 4 5 6 
#
# 1 0.016127 -0.004422 -0.003881 0.000000 0.000000 0.000000
# 2 -0.004422 0.018860 -0.003481 0.000000 0.000000 0.000000
# 3 -0.003881 -0.003481 0.009654 0.000000 0.000000 0.000000
# 4 0.000000 0.000000 0.000000 0.054968 0.000000 0.000000
# 5 0.000000 0.000000 0.000000 0.000000 0.027853 0.000000
# 6 0.000000 0.000000 0.000000 0.000000 0.000000 0.052481
#
#
# Mechanical properties :
#
#
# Convention : Reuss Voigt Hill
#
# Bulk Modulus (GPa) = 47.45781 53.33998 50.39890
# Shear Modulus (GPa) = 23.74904 26.33079 25.03992
#
# Velocity S-wave (km/s) = 3.65792 3.85162 3.75602
# Velocity P-wave (km/s) = 6.67672 7.05918 6.87061
#
# Compressibility (1/GPa) = 0.02107135
#
# Stress axis : x y z
#
# Youngs Moduli (GPa) = 62.00848 53.02341 103.58454
#
# Poissons Ratio (x) = 0.23449 0.40206
# Poissons Ratio (y) = 0.27423 0.36054
# Poissons Ratio (z) = 0.24068 0.18455
#
# Static dielectric constant tensor:
#      x y z
#    x 3.512360 0.000000 0.000000 
#    y 0.000000 3.314420 0.000000 
#    z 0.000000 0.000000 3.398490 
# 
# 
# High freq. dielectric constant tensor:
#      x y z
#    x 1.699490 0.000000 0.000000 
#    y 0.000000 1.665050 0.000000 
#    z 0.000000 0.000000 1.680590 
# 
# From -- ./inp_files/2106.got.cif
#   From: 2010.03.12/outbox.cif.g09.slc.cpg/sg25_2_cif.got.tgz:2106.got - 2010.04.14 03:30:10.
