data_PCOD8166446
_publ_section_title
;
Structure prediction by ZEFSAII (Michael W. Deem and Ramdas Pophale) SiO2 
 PCOD8166446
Probable space group: P M M 2
;
_chemical_formula_sum "Si O2"
_cell_formula_units_Z 28
_cell_length_a 10.907450
_cell_length_b 16.390705
_cell_length_c 8.412918
_cell_angle_alpha 90.000000
_cell_angle_beta 90.000000
_cell_angle_gamma 90.000000
_cell_volume 1504.068170
_symmetry_space_group_name_H-M "P M M 2"
_symmetry_group_IT_number 25
_symmetry_cell_setting 'orthorhombic'
loop_
_space_group_symop_operation_xyz
x,y,z
-x,-y,z
-x,y,z
x,-y,z
loop_
_atom_site_type_symbol
_atom_site_label
_atom_site_fract_x
_atom_site_fract_y
_atom_site_fract_z
Si Si1 0.860429 0.797993 0.764850
Si Si2 0.639476 0.410121 0.643738
Si Si3 0.365247 0.800201 0.183425
Si Si4 0.866783 0.588463 0.221344
Si Si5 0.785620 0.719044 0.449471
Si Si6 0.642527 0.904730 0.899031
Si Si7 0.724579 0.669408 0.955575
O O1 0.858211 0.769984 0.581201
O O2 0.748526 0.862096 0.791433
O O3 0.837234 0.720175 0.877870
O O4 0.000000 0.831412 0.798761
O O5 0.500000 0.421192 0.599033
O O6 0.703333 0.500000 0.624944
O O7 0.686216 0.340969 0.525318
O O8 0.650791 0.379713 0.823910
O O9 0.500000 0.805838 0.259386
O O10 0.272316 0.784524 0.327215
O O11 0.333470 0.882813 0.085173
O O12 0.365420 0.730048 0.048812
O O13 0.832998 0.500000 0.297651
O O14 0.874114 0.659041 0.353341
O O15 0.000000 0.584600 0.142117
O O16 0.772274 0.604423 0.081300
O O17 0.500000 0.879943 0.852684
O O18 0.660983 0.000000 0.874949
#
# Coordination Sequence:
#
# PCOD8166446 Si02
#       7
#     4   4   4   4   4   4   4
#     4  10  20  34  54  78 106 140 173 208 252 305
#     4  10  19  30  45  67  98 136 177 222 266 303
#     4   9  17  31  52  75  99 131 167 206 254 307
#     4  10  19  31  47  66  92 129 172 218 262 299
#     4  10  20  32  47  71 103 136 172 209 251 305
#     4   9  19  37  60  84 106 128 161 206 254 306
#     4   9  18  31  48  70  96 129 175 221 260 302
#
# _framework density 18.616178000000001
#
# number of rings (size 3 to 8) (size 9 to 14) (size 15 to 20)
#    0.000    2.429    0.000    2.571    0.000    4.286 
#    0.000    1.429    0.000   15.429    0.000    0.000 
#    0.000    0.000    0.000    0.000    0.000    0.000 
#
# Total GULP energy -346895.148003 kJ/mol
# GULP energy per Si atom -12389.112429 kJ/mol
# Density = 1.857381 g / cm^3
# Si number density = 18.616178 Si / 1000 Ang^3
#
#
#
# Elastic Constant Matrix: (Units=GPa)
#
#
# Indices 1 2 3 4 5 6 
#
# 1 92.4656 36.5894 20.3559 0.0000 0.0000 0.0000
# 2 36.5894 81.8116 22.6802 0.0000 0.0000 0.0000
# 3 20.3559 22.6802 74.2156 0.0000 0.0000 0.0000
# 4 0.0000 0.0000 0.0000 6.7490 0.0000 0.0000
# 5 0.0000 0.0000 0.0000 0.0000 12.1458 0.0000
# 6 0.0000 0.0000 0.0000 0.0000 0.0000 22.2267
#
#
#
# Elastic Compliance Matrix: (Units=1/GPa)
#
#
# Indices 1 2 3 4 5 6 
#
# 1 0.013411 -0.005439 -0.002016 0.000000 0.000000 0.000000
# 2 -0.005439 0.015560 -0.003263 0.000000 0.000000 0.000000
# 3 -0.002016 -0.003263 0.015025 0.000000 0.000000 0.000000
# 4 0.000000 0.000000 0.000000 0.148170 0.000000 0.000000
# 5 0.000000 0.000000 0.000000 0.000000 0.082333 0.000000
# 6 0.000000 0.000000 0.000000 0.000000 0.000000 0.044991
#
#
# Mechanical properties :
#
#
# Convention : Reuss Voigt Hill
#
# Bulk Modulus (GPa) = 44.32880 45.30484 44.81682
# Shear Modulus (GPa) = 14.34942 19.48214 16.91578
#
# Velocity S-wave (km/s) = 2.77935 3.23850 3.01767
# Velocity P-wave (km/s) = 5.84494 6.19459 6.02231
#
# Compressibility (1/GPa) = 0.02255870
#
# Stress axis : x y z
#
# Youngs Moduli (GPa) = 74.56601 64.26556 66.55765
#
# Poissons Ratio (x) = 0.34954 0.13419
# Poissons Ratio (y) = 0.40556 0.21721
# Poissons Ratio (z) = 0.15034 0.20973
#
# Static dielectric constant tensor:
#      x y z
#    x 3.311800 0.000000 0.000000 
#    y 0.000000 3.456510 0.000000 
#    z 0.000000 0.000000 3.367170 
# 
# 
# High freq. dielectric constant tensor:
#      x y z
#    x 1.717090 0.000000 0.000000 
#    y 0.000000 1.710790 0.000000 
#    z 0.000000 0.000000 1.716480 
# 
# From -- ./inp_files/2834.got.cif
#   From: 2010.03.12/outbox.cif.g09.slc.cpg/sg25_2_cif.got.tgz:2834.got - 2010.04.14 03:30:10.
