data_PCOD8166080
_publ_section_title
;
Structure prediction by ZEFSAII (Michael W. Deem and Ramdas Pophale) SiO2 
 PCOD8166080
Probable space group: I 21 21 21
;
_chemical_formula_sum "Si O2"
_cell_formula_units_Z 48
_cell_length_a 11.171585
_cell_length_b 22.270333
_cell_length_c 8.692064
_cell_angle_alpha 90.000000
_cell_angle_beta 90.000000
_cell_angle_gamma 90.000000
_cell_volume 2162.541351
_symmetry_space_group_name_H-M "I 21 21 21"
_symmetry_group_IT_number 24
_symmetry_cell_setting 'orthorhombic'
loop_
_space_group_symop_operation_xyz
x,y,z
-x,1/2-y,z
x,-y,1/2-z
1/2-x,y,-z
1/2+x,1/2+y,1/2+z
1/2-x,-y,1/2+z
1/2+x,1/2-y,-z
-x,1/2+y,1/2-z
loop_
_atom_site_type_symbol
_atom_site_label
_atom_site_fract_x
_atom_site_fract_y
_atom_site_fract_z
Si Si1 0.551364 0.090599 0.094506
Si Si2 0.142336 0.874367 0.109526
Si Si3 0.267289 0.621174 0.825574
Si Si4 0.700773 0.559823 0.335665
Si Si5 0.034965 0.527347 0.097369
Si Si6 0.537255 0.814350 0.678553
O O1 0.649425 0.104951 0.225946
O O2 0.421326 0.097670 0.167269
O O3 0.547341 0.137158 0.955683
O O4 0.571585 0.022754 0.028138
O O5 0.197946 0.899792 0.264027
O O6 0.061972 0.925902 0.024202
O O7 0.054784 0.823979 0.178393
O O8 0.250000 0.850577 0.000000
O O9 0.349758 0.561747 0.833918
O O10 0.329982 0.679661 0.750099
O O11 0.250000 0.641552 0.000000
O O12 0.669312 0.500000 0.250000
O O13 0.750000 0.540164 0.500000
O O14 0.971550 0.500000 0.250000
O O15 0.500000 0.750000 0.608275
#
# Coordination Sequence:
#
# PCOD8166080 Si02
#       6
#     8   8   8   8   8   8
#     4  12  25  45  68 107 142 189 231 285 359 433
#     4  11  23  43  69 102 142 183 228 295 359 420
#     4  11  28  44  70 106 143 183 230 290 359 429
#     4  12  23  39  66 105 146 181 229 279 351 442
#     4  11  22  39  67 104 145 183 225 277 356 438
#     4  11  26  51  73  94 132 185 247 300 349 418
#
# _framework density 22.196106
#
# number of rings (size 3 to 8) (size 9 to 14) (size 15 to 20)
#    0.000    0.667    5.000    3.500    9.333    0.667 
#    6.000    0.833    0.000    0.000    0.000    0.000 
#    0.000    0.000    0.000    0.000    0.000    0.000 
#
# Total GULP energy -297330.406473 kJ/mol
# GULP energy per Si atom -12388.766936 kJ/mol
# Density = 2.214559 g / cm^3
# Si number density = 22.196106 Si / 1000 Ang^3
#
#
#
# Elastic Constant Matrix: (Units=GPa)
#
#
# Indices 1 2 3 4 5 6 
#
# 1 142.0738 34.0291 45.8713 0.0014 -0.0001 -0.0003
# 2 34.0291 76.5052 15.6341 0.0056 0.0005 -0.0004
# 3 45.8713 15.6341 106.9097 0.0064 -0.0017 -0.0013
# 4 0.0014 0.0056 0.0064 -8.1078 0.0008 -0.0007
# 5 -0.0001 0.0005 -0.0017 0.0008 50.6385 0.0003
# 6 -0.0003 -0.0004 -0.0013 -0.0007 0.0003 20.0653
#
#
#
# Elastic Compliance Matrix: (Units=1/GPa)
#
#
# Indices 1 2 3 4 5 6 
#
# 1 0.008902 -0.003277 -0.003340 -0.000003 0.000000 0.000000
# 2 -0.003277 0.014680 -0.000741 0.000009 0.000000 0.000000
# 3 -0.003340 -0.000741 0.010895 0.000008 0.000000 0.000001
# 4 -0.000003 0.000009 0.000008 -0.123338 0.000002 -0.000004
# 5 0.000000 0.000000 0.000000 0.000002 0.019748 0.000000
# 6 0.000000 0.000000 0.000001 -0.000004 0.000000 0.049837
#
#
# Mechanical properties :
#
#
# Convention : Reuss Voigt Hill
#
# Bulk Modulus (GPa) = 50.60428 57.39529 53.99978
# Shear Modulus (GPa) = 2466.03699 27.84948 1246.94323
#
# Velocity S-wave (km/s) = 33.36816 3.54602 23.72771
# Velocity P-wave (km/s) = 38.82560 6.53300 27.83979
#
# Compressibility (1/GPa) = 0.01976117
#
# Stress axis : x y z
#
# Youngs Moduli (GPa) = 112.33477 68.12021 91.78331
#
# Poissons Ratio (x) = 0.22323 0.30659
# Poissons Ratio (y) = 0.36811 0.06799
# Poissons Ratio (z) = 0.37523 0.05046
#
# Static dielectric constant tensor:
#      x y z
#    x 4.383320 0.000000 0.000000 
#    y 0.000000 3.707990 0.000000 
#    z 0.000000 0.000000 4.191970 
# 
# 
# High freq. dielectric constant tensor:
#      x y z
#    x 1.895940 0.000000 0.000000 
#    y 0.000000 1.829930 0.000000 
#    z 0.000000 0.000000 1.886270 
# 
# From -- ./inp_files/11250.got.cif
#   From: 2010.03.12/outbox.cif.g09.slc.cpg/sg24_6_cif.got.tgz:11250.got - 2010.04.14 03:06:53.
