data_PCOD8166752
_publ_section_title
;
Structure prediction by ZEFSAII (Michael W. Deem and Ramdas Pophale) SiO2 
 PCOD8166752
Probable space group: P M M 2
;
_chemical_formula_sum "Si O2"
_cell_formula_units_Z 32
_cell_length_a 14.132899
_cell_length_b 8.945653
_cell_length_c 14.134642
_cell_angle_alpha 90.000000
_cell_angle_beta 90.000000
_cell_angle_gamma 90.000000
_cell_volume 1787.014665
_symmetry_space_group_name_H-M "P M M 2"
_symmetry_group_IT_number 25
_symmetry_cell_setting 'orthorhombic'
loop_
_space_group_symop_operation_xyz
x,y,z
-x,-y,z
-x,y,z
x,-y,z
loop_
_atom_site_type_symbol
_atom_site_label
_atom_site_fract_x
_atom_site_fract_y
_atom_site_fract_z
Si Si1 0.733379 0.822569 0.263450
Si Si2 0.108452 0.175243 0.929299
Si Si3 0.104292 0.823784 0.400849
Si Si4 0.750820 0.324113 0.062402
Si Si5 0.393484 0.324663 0.900301
Si Si6 0.749870 0.823231 0.555056
Si Si7 0.389374 0.674319 0.418231
Si Si8 0.747367 0.174992 0.769553
O O1 0.832913 0.773647 0.311129
O O2 0.728734 0.755856 0.159863
O O3 0.647345 0.757508 0.324578
O O4 0.722893 0.000000 0.259577
O O5 0.162244 0.221347 0.832867
O O6 0.000000 0.223151 0.917070
O O7 0.118877 0.000000 0.950162
O O8 0.151488 0.263771 0.018223
O O9 0.156483 0.774181 0.497371
O O10 0.000000 0.748530 0.395515
O O11 0.092799 0.000000 0.400098
O O12 0.759247 0.500000 0.078462
O O13 0.664584 0.279975 0.993649
O O14 0.500000 0.264543 0.912475
O O15 0.391627 0.500000 0.884033
O O16 0.347594 0.251133 0.807895
O O17 0.659012 0.740110 0.512329
O O18 0.765646 0.771454 0.662698
O O19 0.732418 0.000000 0.545832
O O20 0.500000 0.704446 0.427654
O O21 0.365594 0.500000 0.409150
O O22 0.730236 0.000000 0.773623
#
# Coordination Sequence:
#
# PCOD8166752 Si02
#       8
#     4   4   4   4   4   4   4   4
#     4  10  20  34  53  77 103 131 164 205 253 301
#     4   9  18  33  52  74 102 136 173 212 252 297
#     4   8  15  29  49  72  97 126 160 196 236 286
#     4  10  20  34  52  74 101 133 168 208 253 301
#     4   9  19  35  52  70  95 129 167 204 244 295
#     4   9  18  32  51  75 102 131 164 206 253 298
#     4  10  21  36  53  73  99 133 171 209 249 297
#     4   9  18  32  50  75 103 129 163 208 254 297
#
# _framework density 17.906959000000001
#
# number of rings (size 3 to 8) (size 9 to 14) (size 15 to 20)
#    0.000    2.750    0.000    1.875    0.000    4.500 
#    0.000    7.500    0.000    9.000    0.000    5.250 
#    0.000    0.000    0.000    0.000    0.000    0.000 
#
# Total GULP energy -396803.477943 kJ/mol
# GULP energy per Si atom -12400.108686 kJ/mol
# Density = 1.786620 g / cm^3
# Si number density = 17.906959 Si / 1000 Ang^3
#
#
#
# Elastic Constant Matrix: (Units=GPa)
#
#
# Indices 1 2 3 4 5 6 
#
# 1 107.7715 24.8257 12.6894 0.0000 0.0000 0.0000
# 2 24.8257 45.0319 20.7329 0.0000 0.0000 0.0000
# 3 12.6894 20.7329 75.5378 0.0000 0.0000 0.0000
# 4 0.0000 0.0000 0.0000 23.9414 0.0000 0.0000
# 5 0.0000 0.0000 0.0000 0.0000 13.8568 0.0000
# 6 0.0000 0.0000 0.0000 0.0000 0.0000 23.7150
#
#
#
# Elastic Compliance Matrix: (Units=1/GPa)
#
#
# Indices 1 2 3 4 5 6 
#
# 1 0.010631 -0.005768 -0.000203 0.000000 0.000000 0.000000
# 2 -0.005768 0.028548 -0.006867 0.000000 0.000000 0.000000
# 3 -0.000203 -0.006867 0.015157 0.000000 0.000000 0.000000
# 4 0.000000 0.000000 0.000000 0.041769 0.000000 0.000000
# 5 0.000000 0.000000 0.000000 0.000000 0.072167 0.000000
# 6 0.000000 0.000000 0.000000 0.000000 0.000000 0.042167
#
#
# Mechanical properties :
#
#
# Convention : Reuss Voigt Hill
#
# Bulk Modulus (GPa) = 34.88949 38.31525 36.60237
# Shear Modulus (GPa) = 20.35277 23.64219 21.99748
#
# Velocity S-wave (km/s) = 3.37498 3.63751 3.50870
# Velocity P-wave (km/s) = 5.89181 6.25182 6.07448
#
# Compressibility (1/GPa) = 0.02866193
#
# Stress axis : x y z
#
# Youngs Moduli (GPa) = 94.06120 35.02931 65.97534
#
# Poissons Ratio (x) = 0.20203 0.01339
# Poissons Ratio (y) = 0.54251 0.45303
# Poissons Ratio (z) = 0.01909 0.24053
#
# Static dielectric constant tensor:
#      x y z
#    x 3.549600 0.000000 0.000000 
#    y 0.000000 3.208990 0.000000 
#    z 0.000000 0.000000 3.415210 
# 
# 
# High freq. dielectric constant tensor:
#      x y z
#    x 1.695260 0.000000 0.000000 
#    y 0.000000 1.682340 0.000000 
#    z 0.000000 0.000000 1.696600 
# 
# From -- ./inp_files/5942.got.cif
#   From: 2010.03.12/outbox.cif.g09.slc.cpg/sg25_3_cif.got.tgz:5942.got - 2010.04.14 03:30:10.
