data_PCOD8166602
_publ_section_title
;
Structure prediction by ZEFSAII (Michael W. Deem and Ramdas Pophale) SiO2 
 PCOD8166602
Probable space group: P M M 2
;
_chemical_formula_sum "Si O2"
_cell_formula_units_Z 20
_cell_length_a 14.007017
_cell_length_b 9.017091
_cell_length_c 10.196974
_cell_angle_alpha 90.000000
_cell_angle_beta 90.000000
_cell_angle_gamma 90.000000
_cell_volume 1287.903787
_symmetry_space_group_name_H-M "P M M 2"
_symmetry_group_IT_number 25
_symmetry_cell_setting 'orthorhombic'
loop_
_space_group_symop_operation_xyz
x,y,z
-x,-y,z
-x,y,z
x,-y,z
loop_
_atom_site_type_symbol
_atom_site_label
_atom_site_fract_x
_atom_site_fract_y
_atom_site_fract_z
Si Si1 0.608714 0.324813 0.799580
Si Si2 0.256844 0.332530 0.568201
Si Si3 0.610636 0.173455 0.065302
Si Si4 0.734761 0.332300 0.280279
Si Si5 0.109585 0.825166 0.418406
O O1 0.500000 0.276645 0.770209
O O2 0.616532 0.500000 0.818335
O O3 0.673324 0.267613 0.679091
O O4 0.646986 0.246737 0.930694
O O5 0.225532 0.500000 0.604381
O O6 0.311706 0.332028 0.426989
O O7 0.161372 0.231400 0.552933
O O8 0.500000 0.211044 0.087949
O O9 0.667785 0.240205 0.185762
O O10 0.630175 0.000000 0.057519
O O11 0.747033 0.500000 0.227477
O O12 0.839185 0.253771 0.293165
O O13 0.000000 0.775812 0.421978
O O14 0.121215 0.000000 0.405381
#
# Coordination Sequence:
#
# PCOD8166602 Si02
#       5
#     4   4   4   4   4
#     4   9  17  31  49  68  94 128 161 191 228 277
#     4   8  17  30  47  72  95 122 157 195 234 275
#     4  10  20  32  46  68  98 130 161 193 232 278
#     4   9  18  31  49  72  94 123 158 195 235 277
#     4   9  17  30  49  71  95 123 153 190 240 288
#
# _framework density 15.529111
#
# number of rings (size 3 to 8) (size 9 to 14) (size 15 to 20)
#    1.200    1.800    0.000    1.200    0.000    4.400 
#    0.000    2.000    0.000    1.200    0.000    5.600 
#    0.000    0.000    0.000    0.000    0.000    0.000 
#
# Total GULP energy -247803.094638 kJ/mol
# GULP energy per Si atom -12390.154732 kJ/mol
# Density = 1.549377 g / cm^3
# Si number density = 15.529111 Si / 1000 Ang^3
#
#
#
# Elastic Constant Matrix: (Units=GPa)
#
#
# Indices 1 2 3 4 5 6 
#
# 1 91.7739 43.8239 58.6121 0.0000 0.0000 0.0000
# 2 43.8239 55.0705 34.8008 0.0000 0.0000 0.0000
# 3 58.6121 34.8008 90.2769 0.0000 0.0000 0.0000
# 4 0.0000 0.0000 0.0000 21.8383 0.0000 0.0000
# 5 0.0000 0.0000 0.0000 0.0000 3.5360 0.0000
# 6 0.0000 0.0000 0.0000 0.0000 0.0000 24.9150
#
#
#
# Elastic Compliance Matrix: (Units=1/GPa)
#
#
# Indices 1 2 3 4 5 6 
#
# 1 0.023310 -0.011880 -0.010554 0.000000 0.000000 0.000000
# 2 -0.011880 0.030061 -0.003875 0.000000 0.000000 0.000000
# 3 -0.010554 -0.003875 0.019423 0.000000 0.000000 0.000000
# 4 0.000000 0.000000 0.000000 0.045791 0.000000 0.000000
# 5 0.000000 0.000000 0.000000 0.000000 0.282809 0.000000
# 6 0.000000 0.000000 0.000000 0.000000 0.000000 0.040136
#
#
# Mechanical properties :
#
#
# Convention : Reuss Voigt Hill
#
# Bulk Modulus (GPa) = 49.56535 56.84386 53.20461
# Shear Modulus (GPa) = 9.98254 16.71682 13.34968
#
# Velocity S-wave (km/s) = 2.53815 3.28454 2.93517
# Velocity P-wave (km/s) = 6.36998 7.14622 6.76923
#
# Compressibility (1/GPa) = 0.02017538
#
# Stress axis : x y z
#
# Youngs Moduli (GPa) = 42.90046 33.26550 51.48463
#
# Poissons Ratio (x) = 0.39519 0.54338
# Poissons Ratio (y) = 0.50965 0.19952
# Poissons Ratio (z) = 0.45278 0.12891
#
# Static dielectric constant tensor:
#      x y z
#    x 2.819480 0.000000 0.000000 
#    y 0.000000 2.992550 0.000000 
#    z 0.000000 0.000000 2.865460 
# 
# 
# High freq. dielectric constant tensor:
#      x y z
#    x 1.574390 0.000000 0.000000 
#    y 0.000000 1.606310 0.000000 
#    z 0.000000 0.000000 1.580590 
# 
# From -- ./inp_files/2949.got.cif
#   From: 2010.03.12/outbox.cif.g09.slc.cpg/sg25_2_cif.got.tgz:2949.got - 2010.04.14 03:30:10.
