data_PCOD8166045
_publ_section_title
;
Structure prediction by ZEFSAII (Michael W. Deem and Ramdas Pophale) SiO2 
 PCOD8166045
Probable space group: I 21 21 21
;
_chemical_formula_sum "Si O2"
_cell_formula_units_Z 56
_cell_length_a 14.549740
_cell_length_b 14.684995
_cell_length_c 11.757279
_cell_angle_alpha 90.000000
_cell_angle_beta 90.000000
_cell_angle_gamma 90.000000
_cell_volume 2512.093847
_symmetry_space_group_name_H-M "I 21 21 21"
_symmetry_group_IT_number 24
_symmetry_cell_setting 'orthorhombic'
loop_
_space_group_symop_operation_xyz
x,y,z
-x,1/2-y,z
x,-y,1/2-z
1/2-x,y,-z
1/2+x,1/2+y,1/2+z
1/2-x,-y,1/2+z
1/2+x,1/2-y,-z
-x,1/2+y,1/2-z
loop_
_atom_site_type_symbol
_atom_site_label
_atom_site_fract_x
_atom_site_fract_y
_atom_site_fract_z
Si Si1 0.093344 0.412760 0.976359
Si Si2 0.290094 0.286023 0.169846
Si Si3 0.917401 0.821132 0.290380
Si Si4 0.443836 0.604916 0.955283
Si Si5 0.093332 0.110823 0.846467
Si Si6 0.673338 0.771667 0.081029
Si Si7 0.885879 0.581994 0.906084
O O1 0.183488 0.365194 0.920583
O O2 0.004774 0.380766 0.905886
O O3 0.067811 0.386673 0.104390
O O4 0.111116 0.521099 0.984275
O O5 0.180562 0.271386 0.185908
O O6 0.339072 0.194320 0.125158
O O7 0.326300 0.314177 0.293774
O O8 0.919583 0.883575 0.177352
O O9 0.000000 0.750000 0.280636
O O10 0.421367 0.698587 0.021874
O O11 0.550812 0.586348 0.981276
O O12 0.064578 0.105630 0.713936
O O13 0.150135 0.021564 0.891780
O O14 0.689772 0.661703 0.081777
O O15 0.750000 0.816433 0.000000
#
# Coordination Sequence:
#
# PCOD8166045 Si02
#       7
#     8   8   8   8   8   8   8
#     4  11  24  42  64  96 130 173 227 273 336 394
#     4  11  23  41  67  95 130 171 224 278 331 396
#     4  12  25  43  64  91 135 182 222 268 331 414
#     4  11  23  41  63  93 132 175 213 274 337 408
#     4   9  19  40  68  98 123 164 220 286 334 387
#     4  11  21  37  60  96 128 168 217 274 334 394
#     4   9  19  37  67  94 127 159 213 277 340 392
#
# _framework density 22.292159999999999
#
# number of rings (size 3 to 8) (size 9 to 14) (size 15 to 20)
#    0.000    1.429    1.429    4.286    0.000    5.143 
#    2.571    4.286    6.286    0.000    0.000    0.000 
#    0.000    0.000    0.000    0.000    0.000    0.000 
#
# Total GULP energy -346872.399570 kJ/mol
# GULP energy per Si atom -12388.299985 kJ/mol
# Density = 2.224142 g / cm^3
# Si number density = 22.292160 Si / 1000 Ang^3
#
#
#
# Elastic Constant Matrix: (Units=GPa)
#
#
# Indices 1 2 3 4 5 6 
#
# 1 95.6231 34.8066 36.3977 0.0000 0.0000 0.0000
# 2 34.8066 97.0748 36.6720 0.0000 0.0000 0.0000
# 3 36.3977 36.6720 137.8456 0.0000 0.0000 0.0000
# 4 0.0000 0.0000 0.0000 32.6790 0.0000 0.0000
# 5 0.0000 0.0000 0.0000 0.0000 32.5945 0.0000
# 6 0.0000 0.0000 0.0000 0.0000 0.0000 17.4824
#
#
#
# Elastic Compliance Matrix: (Units=1/GPa)
#
#
# Indices 1 2 3 4 5 6 
#
# 1 0.012693 -0.003652 -0.002380 0.000000 0.000000 0.000000
# 2 -0.003652 0.012503 -0.002362 0.000000 0.000000 0.000000
# 3 -0.002380 -0.002362 0.008511 0.000000 0.000000 0.000000
# 4 0.000000 0.000000 0.000000 0.030601 0.000000 0.000000
# 5 0.000000 0.000000 0.000000 0.000000 0.030680 0.000000
# 6 0.000000 0.000000 0.000000 0.000000 0.000000 0.057200
#
#
# Mechanical properties :
#
#
# Convention : Reuss Voigt Hill
#
# Bulk Modulus (GPa) = 59.10382 60.69957 59.90170
# Shear Modulus (GPa) = 28.63423 31.39566 30.01494
#
# Velocity S-wave (km/s) = 3.58788 3.75690 3.67336
# Velocity P-wave (km/s) = 6.61322 6.79023 6.70231
#
# Compressibility (1/GPa) = 0.01691938
#
# Stress axis : x y z
#
# Youngs Moduli (GPa) = 78.78384 79.98033 117.49104
#
# Poissons Ratio (x) = 0.29209 0.27962
# Poissons Ratio (y) = 0.28772 0.27751
# Poissons Ratio (z) = 0.18750 0.18891
#
# Static dielectric constant tensor:
#      x y z
#    x 3.668830 0.000000 0.000000 
#    y 0.000000 4.253890 0.000000 
#    z 0.000000 0.000000 4.222970 
# 
# 
# High freq. dielectric constant tensor:
#      x y z
#    x 1.851480 0.000000 0.000000 
#    y 0.000000 1.881560 0.000000 
#    z 0.000000 0.000000 1.894960 
# 
# From -- ./inp_files/20874.got.cif
#   From: 2010.03.12/outbox.cif.g09.slc.cpg/sg24_11_cif.got.tgz:20874.got - 2010.04.14 03:06:53.
