data_PCOD8166272
_publ_section_title
;
Structure prediction by ZEFSAII (Michael W. Deem and Ramdas Pophale) SiO2 
 PCOD8166272
Probable space group: I 21 21 21
;
_chemical_formula_sum "Si O2"
_cell_formula_units_Z 32
_cell_length_a 8.972703
_cell_length_b 11.425066
_cell_length_c 13.268833
_cell_angle_alpha 90.000000
_cell_angle_beta 90.000000
_cell_angle_gamma 90.000000
_cell_volume 1360.237484
_symmetry_space_group_name_H-M "I 21 21 21"
_symmetry_group_IT_number 24
_symmetry_cell_setting 'orthorhombic'
loop_
_space_group_symop_operation_xyz
x,y,z
-x,1/2-y,z
x,-y,1/2-z
1/2-x,y,-z
1/2+x,1/2+y,1/2+z
1/2-x,-y,1/2+z
1/2+x,1/2-y,-z
-x,1/2+y,1/2-z
loop_
_atom_site_type_symbol
_atom_site_label
_atom_site_fract_x
_atom_site_fract_y
_atom_site_fract_z
Si Si1 0.010846 0.114693 0.417271
Si Si2 0.746723 0.032987 0.137077
Si Si3 0.250000 0.255935 0.000000
Si Si4 0.410544 0.049777 0.080656
Si Si5 0.315137 0.000000 0.750000
O O1 0.081173 0.095641 0.305961
O O2 0.000000 0.250000 0.442819
O O3 0.118857 0.053749 0.499920
O O4 0.846074 0.056921 0.428975
O O5 0.790945 0.162538 0.096904
O O6 0.570124 0.022616 0.127969
O O7 0.792659 0.000000 0.250000
O O8 0.394642 0.173804 0.022455
O O9 0.288613 0.061709 0.168048
#
# Coordination Sequence:
#
# PCOD8166272 Si02
#       5
#     8   8   4   8   4
#     4  12  28  51  75 114 163 209 263 336 407 473
#     4  12  27  48  80 115 153 209 266 331 402 471
#     4  12  26  50  84 116 158 210 274 330 392 494
#     4  12  26  50  79 115 156 211 263 333 399 473
#     4  12  26  46  80 114 152 208 274 324 400 472
#
# _framework density 23.525303999999998
#
# number of rings (size 3 to 8) (size 9 to 14) (size 15 to 20)
#    0.000    0.000    7.500    0.750    3.500    4.000 
#    0.000    0.000    0.000    0.000    0.000    0.000 
#    0.000    0.000    0.000    0.000    0.000    0.000 
#
# Total GULP energy -198247.001173 kJ/mol
# GULP energy per Si atom -12390.437573 kJ/mol
# Density = 2.347176 g / cm^3
# Si number density = 23.525304 Si / 1000 Ang^3
#
#
#
# Elastic Constant Matrix: (Units=GPa)
#
#
# Indices 1 2 3 4 5 6 
#
# 1 133.5763 48.9480 29.8033 0.0000 0.0000 0.0000
# 2 48.9480 209.9449 68.0895 0.0000 0.0000 0.0000
# 3 29.8033 68.0895 137.4401 0.0000 0.0000 0.0000
# 4 0.0000 0.0000 0.0000 29.9566 0.0000 0.0000
# 5 0.0000 0.0000 0.0000 0.0000 49.4794 0.0000
# 6 0.0000 0.0000 0.0000 0.0000 0.0000 37.7271
#
#
#
# Elastic Compliance Matrix: (Units=1/GPa)
#
#
# Indices 1 2 3 4 5 6 
#
# 1 0.008300 -0.001610 -0.001002 0.000000 0.000000 0.000000
# 2 -0.001610 0.005987 -0.002617 0.000000 0.000000 0.000000
# 3 -0.001002 -0.002617 0.008790 0.000000 0.000000 0.000000
# 4 0.000000 0.000000 0.000000 0.033382 0.000000 0.000000
# 5 0.000000 0.000000 0.000000 0.000000 0.020210 0.000000
# 6 0.000000 0.000000 0.000000 0.000000 0.000000 0.026506
#
#
# Mechanical properties :
#
#
# Convention : Reuss Voigt Hill
#
# Bulk Modulus (GPa) = 79.24924 86.07143 82.66034
# Shear Modulus (GPa) = 42.43045 45.70732 44.06889
#
# Velocity S-wave (km/s) = 4.25150 4.41262 4.33281
# Velocity P-wave (km/s) = 7.60659 7.91377 7.76170
#
# Compressibility (1/GPa) = 0.01261842
#
# Stress axis : x y z
#
# Youngs Moduli (GPa) = 120.48245 167.02007 113.76924
#
# Poissons Ratio (x) = 0.26892 0.11401
# Poissons Ratio (y) = 0.19399 0.29774
# Poissons Ratio (z) = 0.12074 0.43710
#
# Static dielectric constant tensor:
#      x y z
#    x 4.436140 0.000000 0.000000 
#    y 0.000000 3.938620 0.000000 
#    z 0.000000 0.000000 4.624880 
# 
# 
# High freq. dielectric constant tensor:
#      x y z
#    x 1.958240 0.000000 0.000000 
#    y 0.000000 1.907840 0.000000 
#    z 0.000000 0.000000 1.942170 
# 
# From -- ./inp_files/10288.got.cif
#   From: 2010.03.12/outbox.cif.g09.slc.cpg/sg24_6_cif.got.tgz:10288.got - 2010.04.14 03:06:53.
