data_PCOD8166244
_publ_section_title
;
Structure prediction by ZEFSAII (Michael W. Deem and Ramdas Pophale) SiO2 
 PCOD8166244
Probable space group: I 21 21 21
;
_chemical_formula_sum "Si O2"
_cell_formula_units_Z 32
_cell_length_a 18.489620
_cell_length_b 4.958454
_cell_length_c 15.474163
_cell_angle_alpha 90.000000
_cell_angle_beta 90.000000
_cell_angle_gamma 90.000000
_cell_volume 1418.670184
_symmetry_space_group_name_H-M "I 21 21 21"
_symmetry_group_IT_number 24
_symmetry_cell_setting 'orthorhombic'
loop_
_space_group_symop_operation_xyz
x,y,z
-x,1/2-y,z
x,-y,1/2-z
1/2-x,y,-z
1/2+x,1/2+y,1/2+z
1/2-x,-y,1/2+z
1/2+x,1/2-y,-z
-x,1/2+y,1/2-z
loop_
_atom_site_type_symbol
_atom_site_label
_atom_site_fract_x
_atom_site_fract_y
_atom_site_fract_z
Si Si1 0.270484 0.922214 0.902991
Si Si2 0.000000 0.750000 0.936247
Si Si3 0.000000 0.750000 0.446874
Si Si4 0.142132 0.425744 0.150983
Si Si5 0.126331 0.754745 0.807627
O O1 0.328712 0.680937 0.902927
O O2 0.199670 0.840460 0.852300
O O3 0.301424 0.182886 0.854978
O O4 0.250000 0.001613 0.000000
O O5 0.932307 0.835036 0.877897
O O6 0.975228 0.498258 0.993945
O O7 0.065803 0.662063 0.387106
O O8 0.130447 0.500000 0.250000
O O9 0.145271 0.500000 0.750000
O O10 0.094967 0.000000 0.750000
#
# Coordination Sequence:
#
# PCOD8166244 Si02
#       5
#     8   4   4   8   8
#     4  12  25  44  70 101 135 175 221 274 332 395
#     4  12  26  46  68 100 136 176 224 272 330 398
#     4  12  26  46  70  98 134 178 222 276 332 392
#     4  12  26  45  69 100 134 175 224 275 331 394
#     4  12  24  43  69 100 136 177 220 273 331 394
#
# _framework density 22.556334
#
# number of rings (size 3 to 8) (size 9 to 14) (size 15 to 20)
#    0.000    0.000    0.000   12.000    0.000    3.000 
#    0.000    0.000    0.000    0.000    0.000    0.000 
#    0.000    0.000    0.000    0.000    0.000    0.000 
#
# Total GULP energy -198585.105846 kJ/mol
# GULP energy per Si atom -12411.569115 kJ/mol
# Density = 2.250499 g / cm^3
# Si number density = 22.556334 Si / 1000 Ang^3
#
#
#
# Elastic Constant Matrix: (Units=GPa)
#
#
# Indices 1 2 3 4 5 6 
#
# 1 117.7598 36.7609 86.0718 0.0000 0.0000 0.0000
# 2 36.7609 143.8628 63.4145 0.0000 0.0000 0.0000
# 3 86.0718 63.4145 149.7300 0.0000 0.0000 0.0000
# 4 0.0000 0.0000 0.0000 32.0034 0.0000 0.0000
# 5 0.0000 0.0000 0.0000 0.0000 32.9231 0.0000
# 6 0.0000 0.0000 0.0000 0.0000 0.0000 41.0409
#
#
#
# Elastic Compliance Matrix: (Units=1/GPa)
#
#
# Indices 1 2 3 4 5 6 
#
# 1 0.014645 -0.000038 -0.008403 0.000000 0.000000 0.000000
# 2 -0.000038 0.008547 -0.003598 0.000000 0.000000 0.000000
# 3 -0.008403 -0.003598 0.013033 0.000000 0.000000 0.000000
# 4 0.000000 0.000000 0.000000 0.031247 0.000000 0.000000
# 5 0.000000 0.000000 0.000000 0.000000 0.030374 0.000000
# 6 0.000000 0.000000 0.000000 0.000000 0.000000 0.024366
#
#
# Mechanical properties :
#
#
# Convention : Reuss Voigt Hill
#
# Bulk Modulus (GPa) = 82.32252 87.09409 84.70830
# Shear Modulus (GPa) = 33.25847 36.20049 34.72948
#
# Velocity S-wave (km/s) = 3.84404 4.01046 3.92813
# Velocity P-wave (km/s) = 7.50185 7.75504 7.62950
#
# Compressibility (1/GPa) = 0.01214734
#
# Stress axis : x y z
#
# Youngs Moduli (GPa) = 68.28087 117.00378 76.73081
#
# Poissons Ratio (x) = 0.00450 0.64474
# Poissons Ratio (y) = 0.00263 0.27605
# Poissons Ratio (z) = 0.57373 0.42094
#
# Static dielectric constant tensor:
#      x y z
#    x 4.144160 0.000000 0.000000 
#    y 0.000000 4.360100 0.000000 
#    z 0.000000 0.000000 4.245080 
# 
# 
# High freq. dielectric constant tensor:
#      x y z
#    x 1.904130 0.000000 0.000000 
#    y 0.000000 1.907600 0.000000 
#    z 0.000000 0.000000 1.906880 
# 
# From -- ./inp_files/27314.got.cif
#   From: 2010.03.12/outbox.cif.g09.slc.cpg/sg24_14_cif.got.tgz:27314.got - 2010.04.14 03:06:53.
