data_PCOD8166564
_publ_section_title
;
Structure prediction by ZEFSAII (Michael W. Deem and Ramdas Pophale) SiO2 
 PCOD8166564
Probable space group: P M M 2
;
_chemical_formula_sum "Si O2"
_cell_formula_units_Z 24
_cell_length_a 8.873104
_cell_length_b 14.001669
_cell_length_c 10.290961
_cell_angle_alpha 90.000000
_cell_angle_beta 90.000000
_cell_angle_gamma 90.000000
_cell_volume 1278.531142
_symmetry_space_group_name_H-M "P M M 2"
_symmetry_group_IT_number 25
_symmetry_cell_setting 'orthorhombic'
loop_
_space_group_symop_operation_xyz
x,y,z
-x,-y,z
-x,y,z
x,-y,z
loop_
_atom_site_type_symbol
_atom_site_label
_atom_site_fract_x
_atom_site_fract_y
_atom_site_fract_z
Si Si1 0.327106 0.392884 0.291220
Si Si2 0.678732 0.893918 0.414479
Si Si3 0.321478 0.215066 0.667599
Si Si4 0.176778 0.110587 0.908792
Si Si5 0.823411 0.608557 0.561555
Si Si6 0.324660 0.206742 0.151403
O O1 0.500000 0.381545 0.337302
O O2 0.293018 0.500000 0.240591
O O3 0.226874 0.366605 0.415232
O O4 0.295085 0.319993 0.172914
O O5 0.500000 0.896873 0.421099
O O6 0.740261 0.835493 0.537347
O O7 0.731152 0.845672 0.281393
O O8 0.747425 0.000000 0.420247
O O9 0.500000 0.218984 0.675227
O O10 0.262965 0.155210 0.788196
O O11 0.257721 0.322956 0.666083
O O12 0.000000 0.121155 0.886162
O O13 0.224288 0.000000 0.924684
O O14 0.222742 0.169296 0.035665
O O15 0.777660 0.500000 0.595993
O O16 0.000000 0.624646 0.571951
O O17 0.500000 0.185686 0.121015
#
# Coordination Sequence:
#
# PCOD8166564 Si02
#       6
#     4   4   4   4   4   4
#     4   9  17  32  56  86 117 147 186 236 285 336
#     4   9  17  30  52  83 112 136 178 238 288 332
#     4  11  21  37  60  85 112 149 195 240 287 338
#     4  11  25  42  57  79 115 156 194 236 291 351
#     4  10  20  34  55  85 120 154 186 228 287 347
#     4  10  19  35  58  84 112 148 191 236 286 339
#
# _framework density 18.771540999999999
#
# number of rings (size 3 to 8) (size 9 to 14) (size 15 to 20)
#    0.000    2.000    1.667    2.500    0.000    4.333 
#    0.000    0.833    0.000    6.000    0.000    0.000 
#    0.000    0.000    0.000    0.000    0.000    0.000 
#
# Total GULP energy -297626.466676 kJ/mol
# GULP energy per Si atom -12401.102778 kJ/mol
# Density = 1.872882 g / cm^3
# Si number density = 18.771541 Si / 1000 Ang^3
#
#
#
# Elastic Constant Matrix: (Units=GPa)
#
#
# Indices 1 2 3 4 5 6 
#
# 1 62.5278 43.9407 33.0930 0.0000 0.0000 0.0000
# 2 43.9407 140.1407 52.0487 0.0000 0.0000 0.0000
# 3 33.0930 52.0487 100.4285 0.0000 0.0000 0.0000
# 4 0.0000 0.0000 0.0000 33.7129 0.0000 0.0000
# 5 0.0000 0.0000 0.0000 0.0000 23.7829 0.0000
# 6 0.0000 0.0000 0.0000 0.0000 0.0000 27.2698
#
#
#
# Elastic Compliance Matrix: (Units=1/GPa)
#
#
# Indices 1 2 3 4 5 6 
#
# 1 0.022084 -0.005228 -0.004568 0.000000 0.000000 0.000000
# 2 -0.005228 0.010074 -0.003498 0.000000 0.000000 0.000000
# 3 -0.004568 -0.003498 0.013276 0.000000 0.000000 0.000000
# 4 0.000000 0.000000 0.000000 0.029662 0.000000 0.000000
# 5 0.000000 0.000000 0.000000 0.000000 0.042047 0.000000
# 6 0.000000 0.000000 0.000000 0.000000 0.000000 0.036671
#
#
# Mechanical properties :
#
#
# Convention : Reuss Voigt Hill
#
# Bulk Modulus (GPa) = 53.06197 62.36245 57.71221
# Shear Modulus (GPa) = 26.78321 28.55408 27.66864
#
# Velocity S-wave (km/s) = 3.78140 3.90441 3.84339
# Velocity P-wave (km/s) = 6.88432 7.32255 7.10682
#
# Compressibility (1/GPa) = 0.01884589
#
# Stress axis : x y z
#
# Youngs Moduli (GPa) = 45.28110 99.26308 75.32627
#
# Poissons Ratio (x) = 0.51895 0.34407
# Poissons Ratio (y) = 0.23673 0.26352
# Poissons Ratio (z) = 0.20683 0.34726
#
# Static dielectric constant tensor:
#      x y z
#    x 3.283100 0.000000 0.000000 
#    y 0.000000 3.853640 0.000000 
#    z 0.000000 0.000000 3.383960 
# 
# 
# High freq. dielectric constant tensor:
#      x y z
#    x 1.714690 0.000000 0.000000 
#    y 0.000000 1.749810 0.000000 
#    z 0.000000 0.000000 1.710410 
# 
# From -- ./inp_files/1988.got.cif
#   From: 2010.03.12/outbox.cif.g09.slc.cpg/sg25_1_cif.got.tgz:1988.got - 2010.04.14 03:30:10.
