data_PCOD8166930
_publ_section_title
;
Structure prediction by ZEFSAII (Michael W. Deem and Ramdas Pophale) SiO2 
 PCOD8166930
Probable space group: P M M 2
;
_chemical_formula_sum "Si O2"
_cell_formula_units_Z 28
_cell_length_a 19.089273
_cell_length_b 8.961980
_cell_length_c 9.605369
_cell_angle_alpha 90.000000
_cell_angle_beta 90.000000
_cell_angle_gamma 90.000000
_cell_volume 1643.264271
_symmetry_space_group_name_H-M "P M M 2"
_symmetry_group_IT_number 25
_symmetry_cell_setting 'orthorhombic'
loop_
_space_group_symop_operation_xyz
x,y,z
-x,-y,z
-x,y,z
x,-y,z
loop_
_atom_site_type_symbol
_atom_site_label
_atom_site_fract_x
_atom_site_fract_y
_atom_site_fract_z
Si Si1 0.289817 0.330403 0.670890
Si Si2 0.081811 0.327818 0.934327
Si Si3 0.577435 0.328989 0.816986
Si Si4 0.184925 0.323964 0.441314
Si Si5 0.082209 0.172060 0.648119
Si Si6 0.698364 0.827394 0.935670
Si Si7 0.182748 0.175186 0.144788
O O1 0.267615 0.500000 0.701220
O O2 0.375432 0.312707 0.674672
O O3 0.256323 0.281025 0.524819
O O4 0.258999 0.233641 0.799891
O O5 0.102575 0.500000 0.912719
O O6 0.103959 0.236370 0.797776
O O7 0.000000 0.309956 0.965248
O O8 0.120796 0.260930 0.067390
O O9 0.500000 0.257919 0.795637
O O10 0.569563 0.500000 0.860074
O O11 0.620978 0.249030 0.941925
O O12 0.178817 0.500000 0.411942
O O13 0.118522 0.269771 0.529163
O O14 0.188199 0.233631 0.300018
O O15 0.000000 0.188803 0.622860
O O16 0.106114 0.000000 0.639684
O O17 0.685917 0.000000 0.915375
O O18 0.742670 0.790201 0.072691
O O19 0.165764 0.000000 0.143373
#
# Coordination Sequence:
#
# PCOD8166930 Si02
#       7
#     4   4   4   4   4   4   4
#     4   8  17  32  50  75 102 130 165 207 252 299
#     4  10  21  37  57  79 102 132 174 222 265 308
#     4   8  15  30  53  79 105 131 163 207 253 299
#     4  11  22  35  53  75 103 139 177 219 260 304
#     4  10  21  37  56  77 103 135 171 215 265 315
#     4   9  18  31  50  76 103 133 167 206 250 301
#     4  11  23  36  51  74 106 142 176 214 263 314
#
# _framework density 17.039256999999999
#
# number of rings (size 3 to 8) (size 9 to 14) (size 15 to 20)
#    0.857    1.571    0.000    2.571    0.000    8.286 
#    0.000    0.000    0.000    0.857    0.000    2.000 
#    0.000    0.000    0.000    0.000    0.000    0.000 
#
# Total GULP energy -346972.984181 kJ/mol
# GULP energy per Si atom -12391.892292 kJ/mol
# Density = 1.700047 g / cm^3
# Si number density = 17.039257 Si / 1000 Ang^3
#
#
#
# Elastic Constant Matrix: (Units=GPa)
#
#
# Indices 1 2 3 4 5 6 
#
# 1 94.1655 42.6811 47.1362 0.0000 0.0000 0.0000
# 2 42.6811 58.6874 24.1532 0.0000 0.0000 0.0000
# 3 47.1362 24.1532 94.7839 0.0000 0.0000 0.0000
# 4 0.0000 0.0000 0.0000 31.4947 0.0000 0.0000
# 5 0.0000 0.0000 0.0000 0.0000 7.2717 0.0000
# 6 0.0000 0.0000 0.0000 0.0000 0.0000 22.7739
#
#
#
# Elastic Compliance Matrix: (Units=1/GPa)
#
#
# Indices 1 2 3 4 5 6 
#
# 1 0.018933 -0.011053 -0.006599 0.000000 0.000000 0.000000
# 2 -0.011053 0.025489 -0.000998 0.000000 0.000000 0.000000
# 3 -0.006599 -0.000998 0.014086 0.000000 0.000000 0.000000
# 4 0.000000 0.000000 0.000000 0.031751 0.000000 0.000000
# 5 0.000000 0.000000 0.000000 0.000000 0.137520 0.000000
# 6 0.000000 0.000000 0.000000 0.000000 0.000000 0.043910
#
#
# Mechanical properties :
#
#
# Convention : Reuss Voigt Hill
#
# Bulk Modulus (GPa) = 47.15357 52.84197 49.99777
# Shear Modulus (GPa) = 15.81985 21.21914 18.51950
#
# Velocity S-wave (km/s) = 3.05033 3.53272 3.30035
# Velocity P-wave (km/s) = 6.33558 6.90792 6.62793
#
# Compressibility (1/GPa) = 0.02120730
#
# Stress axis : x y z
#
# Youngs Moduli (GPa) = 52.81890 39.23267 70.99145
#
# Poissons Ratio (x) = 0.43365 0.46844
# Poissons Ratio (y) = 0.58382 0.07088
# Poissons Ratio (z) = 0.34853 0.03917
#
# Static dielectric constant tensor:
#      x y z
#    x 3.331240 0.000000 0.000000 
#    y 0.000000 3.298440 0.000000 
#    z 0.000000 0.000000 3.000660 
# 
# 
# High freq. dielectric constant tensor:
#      x y z
#    x 1.654390 0.000000 0.000000 
#    y 0.000000 1.670540 0.000000 
#    z 0.000000 0.000000 1.632800 
# 
# From -- ./inp_files/3566.got.cif
#   From: 2010.03.12/outbox.cif.g09.slc.cpg/sg25_2_cif.got.tgz:3566.got - 2010.04.14 03:30:10.
