data_PCOD8166097
_publ_section_title
;
Structure prediction by ZEFSAII (Michael W. Deem and Ramdas Pophale) SiO2 
 PCOD8166097
Probable space group: I 21 21 21
;
_chemical_formula_sum "Si O2"
_cell_formula_units_Z 40
_cell_length_a 15.618708
_cell_length_b 4.963433
_cell_length_c 23.240877
_cell_angle_alpha 90.000000
_cell_angle_beta 90.000000
_cell_angle_gamma 90.000000
_cell_volume 1801.688812
_symmetry_space_group_name_H-M "I 21 21 21"
_symmetry_group_IT_number 24
_symmetry_cell_setting 'orthorhombic'
loop_
_space_group_symop_operation_xyz
x,y,z
-x,1/2-y,z
x,-y,1/2-z
1/2-x,y,-z
1/2+x,1/2+y,1/2+z
1/2-x,-y,1/2+z
1/2+x,1/2-y,-z
-x,1/2+y,1/2-z
loop_
_atom_site_type_symbol
_atom_site_label
_atom_site_fract_x
_atom_site_fract_y
_atom_site_fract_z
Si Si1 0.944870 0.500000 0.250000
Si Si2 0.000000 0.750000 0.789218
Si Si3 0.398971 0.746949 0.444257
Si Si4 0.658180 0.644037 0.860545
Si Si5 0.402798 0.654787 0.574152
Si Si6 0.849675 0.258898 0.623909
O O1 0.887871 0.630320 0.200488
O O2 0.000000 0.250000 0.224570
O O3 0.026777 0.500000 0.750000
O O4 0.081154 0.833044 0.827699
O O5 0.500000 0.750000 0.437373
O O6 0.372326 0.658040 0.508156
O O7 0.638413 0.458544 0.430337
O O8 0.360192 0.543207 0.398166
O O9 0.658299 0.354721 0.890985
O O10 0.755775 0.724398 0.848810
O O11 0.608158 0.855479 0.901043
O O12 0.500000 0.750000 0.580634
#
# Coordination Sequence:
#
# PCOD8166097 Si02
#       6
#     4   4   8   8   8   8
#     4  12  26  48  72  92 136 182 220 276 342 394
#     4  12  26  46  72  94 136 186 220 274 332 398
#     4  11  22  43  69  98 136 186 217 268 335 407
#     4  12  26  43  67 105 131 172 229 284 325 398
#     4  11  24  43  70  98 138 178 224 268 338 405
#     4  12  25  44  69 101 138 170 230 273 337 393
#
# _framework density 22.201391999999998
#
# number of rings (size 3 to 8) (size 9 to 14) (size 15 to 20)
#    0.000    0.400    2.000    7.200    1.400    8.000 
#    1.800    0.000    0.000    0.000    0.000    0.000 
#    0.000    0.000    0.000    0.000    0.000    0.000 
#
# Total GULP energy -248189.373420 kJ/mol
# GULP energy per Si atom -12409.468671 kJ/mol
# Density = 2.215086 g / cm^3
# Si number density = 22.201392 Si / 1000 Ang^3
#
#
#
# Elastic Constant Matrix: (Units=GPa)
#
#
# Indices 1 2 3 4 5 6 
#
# 1 120.6265 9.4827 43.9508 0.0000 0.0000 0.0000
# 2 9.4827 98.5958 31.2753 0.0000 0.0000 0.0000
# 3 43.9508 31.2753 128.0130 0.0000 0.0000 0.0000
# 4 0.0000 0.0000 0.0000 35.9727 0.0000 0.0000
# 5 0.0000 0.0000 0.0000 0.0000 9.4953 0.0000
# 6 0.0000 0.0000 0.0000 0.0000 0.0000 35.4982
#
#
#
# Elastic Compliance Matrix: (Units=1/GPa)
#
#
# Indices 1 2 3 4 5 6 
#
# 1 0.009477 0.000131 -0.003286 0.000000 0.000000 0.000000
# 2 0.000131 0.010996 -0.002731 0.000000 0.000000 0.000000
# 3 -0.003286 -0.002731 0.009607 0.000000 0.000000 0.000000
# 4 0.000000 0.000000 0.000000 0.027799 0.000000 0.000000
# 5 0.000000 0.000000 0.000000 0.000000 0.105315 0.000000
# 6 0.000000 0.000000 0.000000 0.000000 0.000000 0.028170
#
#
# Mechanical properties :
#
#
# Convention : Reuss Voigt Hill
#
# Bulk Modulus (GPa) = 54.62203 57.40589 56.01396
# Shear Modulus (GPa) = 23.89597 33.69499 28.79548
#
# Velocity S-wave (km/s) = 3.28430 3.89999 3.60531
# Velocity P-wave (km/s) = 6.24809 6.79654 6.52807
#
# Compressibility (1/GPa) = 0.01830763
#
# Stress axis : x y z
#
# Youngs Moduli (GPa) = 105.51952 90.93983 104.08960
#
# Poissons Ratio (x) = -0.01189 0.34200
# Poissons Ratio (y) = -0.01380 0.28431
# Poissons Ratio (z) = 0.34670 0.24840
#
# Static dielectric constant tensor:
#      x y z
#    x 4.006370 0.000000 0.000000 
#    y 0.000000 4.205150 0.000000 
#    z 0.000000 0.000000 4.017690 
# 
# 
# High freq. dielectric constant tensor:
#      x y z
#    x 1.878620 0.000000 0.000000 
#    y 0.000000 1.890560 0.000000 
#    z 0.000000 0.000000 1.876210 
# 
# From -- ./inp_files/35740.got.cif
#   From: 2010.03.12/outbox.cif.g09.slc.cpg/sg24_18_cif.got.tgz:35740.got - 2010.04.14 03:06:53.
