data_PCOD8166619
_publ_section_title
;
Structure prediction by ZEFSAII (Michael W. Deem and Ramdas Pophale) SiO2 
 PCOD8166619
Probable space group: P M M 2
;
_chemical_formula_sum "Si O2"
_cell_formula_units_Z 20
_cell_length_a 9.051201
_cell_length_b 9.863045
_cell_length_c 14.341504
_cell_angle_alpha 90.000000
_cell_angle_beta 90.000000
_cell_angle_gamma 90.000000
_cell_volume 1280.300521
_symmetry_space_group_name_H-M "P M M 2"
_symmetry_group_IT_number 25
_symmetry_cell_setting 'orthorhombic'
loop_
_space_group_symop_operation_xyz
x,y,z
-x,-y,z
-x,y,z
x,-y,z
loop_
_atom_site_type_symbol
_atom_site_label
_atom_site_fract_x
_atom_site_fract_y
_atom_site_fract_z
Si Si1 0.831746 0.649401 0.470150
Si Si2 0.834689 0.648967 0.978409
Si Si3 0.172399 0.843862 0.137697
Si Si4 0.324546 0.500000 0.618771
Si Si5 0.673581 0.500000 0.832480
Si Si6 0.671604 0.158129 0.327620
O O1 0.828722 0.500000 0.420736
O O2 0.744828 0.634198 0.569086
O O3 0.751372 0.760427 0.408604
O O4 0.000000 0.695991 0.488515
O O5 0.838178 0.500000 0.027313
O O6 0.737197 0.635686 0.883772
O O7 0.000000 0.694933 0.950044
O O8 0.766407 0.756701 0.050712
O O9 0.260700 0.798197 0.228883
O O10 0.000000 0.814392 0.155614
O O11 0.202209 0.000000 0.113668
O O12 0.500000 0.500000 0.607125
O O13 0.274897 0.500000 0.725922
O O14 0.500000 0.500000 0.841998
O O15 0.500000 0.195228 0.327195
O O16 0.699451 0.000000 0.346511
#
# Coordination Sequence:
#
# PCOD8166619 Si02
#       6
#     4   4   4   2   2   4
#     4   9  19  32  49  73  94 121 158 196 235 278
#     4   8  16  29  45  67  91 118 152 192 229 266
#     4   9  17  30  47  66  92 126 159 191 228 270
#     4   9  17  31  50  71  94 117 147 192 242 287
#     4   9  17  29  48  71  92 117 149 186 234 281
#     4  10  20  32  47  69  98 131 161 191 232 279
#
# _framework density 15.621333999999999
#
# number of rings (size 3 to 8) (size 9 to 14) (size 15 to 20)
#    1.200    1.800    0.000    1.200    0.000    4.400 
#    0.000    2.000    0.000    1.200    0.000    5.600 
#    0.000    0.000    0.000    0.000    0.000    0.000 
#
# Total GULP energy -247806.566622 kJ/mol
# GULP energy per Si atom -12390.328331 kJ/mol
# Density = 1.558578 g / cm^3
# Si number density = 15.621334 Si / 1000 Ang^3
#
#
#
# Elastic Constant Matrix: (Units=GPa)
#
#
# Indices 1 2 3 4 5 6 
#
# 1 95.2050 36.9071 73.3218 0.0000 0.0000 0.0000
# 2 36.9071 50.7355 58.7747 0.0000 0.0000 0.0000
# 3 73.3218 58.7747 147.9506 0.0000 0.0000 0.0000
# 4 0.0000 0.0000 0.0000 7.2381 0.0000 0.0000
# 5 0.0000 0.0000 0.0000 0.0000 29.5999 0.0000
# 6 0.0000 0.0000 0.0000 0.0000 0.0000 22.1680
#
#
#
# Elastic Compliance Matrix: (Units=1/GPa)
#
#
# Indices 1 2 3 4 5 6 
#
# 1 0.017650 -0.005013 -0.006755 0.000000 0.000000 0.000000
# 2 -0.005013 0.037938 -0.012587 0.000000 0.000000 0.000000
# 3 -0.006755 -0.012587 0.015107 0.000000 0.000000 0.000000
# 4 0.000000 0.000000 0.000000 0.138159 0.000000 0.000000
# 5 0.000000 0.000000 0.000000 0.000000 0.033784 0.000000
# 6 0.000000 0.000000 0.000000 0.000000 0.000000 0.045110
#
#
# Mechanical properties :
#
#
# Convention : Reuss Voigt Hill
#
# Bulk Modulus (GPa) = 45.48763 70.21094 57.84929
# Shear Modulus (GPa) = 14.54392 20.12701 17.33547
#
# Velocity S-wave (km/s) = 3.05459 3.59337 3.33488
# Velocity P-wave (km/s) = 6.45157 7.89047 7.20702
#
# Compressibility (1/GPa) = 0.02198400
#
# Stress axis : x y z
#
# Youngs Moduli (GPa) = 56.65819 26.35870 66.19461
#
# Poissons Ratio (x) = 0.13215 0.44716
# Poissons Ratio (y) = 0.28406 0.83317
# Poissons Ratio (z) = 0.38274 0.33177
#
# Static dielectric constant tensor:
#      x y z
#    x 3.036300 0.000000 0.000000 
#    y 0.000000 2.832250 0.000000 
#    z 0.000000 0.000000 2.872150 
# 
# 
# High freq. dielectric constant tensor:
#      x y z
#    x 1.609640 0.000000 0.000000 
#    y 0.000000 1.577620 0.000000 
#    z 0.000000 0.000000 1.584600 
# 
# From -- ./inp_files/5429.got.cif
#   From: 2010.03.12/outbox.cif.g09.slc.cpg/sg25_3_cif.got.tgz:5429.got - 2010.04.14 03:30:10.
