data_PCOD8166269
_publ_section_title
;
Structure prediction by ZEFSAII (Michael W. Deem and Ramdas Pophale) SiO2 
 PCOD8166269
Probable space group: I 21 21 21
;
_chemical_formula_sum "Si O2"
_cell_formula_units_Z 28
_cell_length_a 4.982394
_cell_length_b 8.419655
_cell_length_c 27.615308
_cell_angle_alpha 90.000000
_cell_angle_beta 90.000000
_cell_angle_gamma 90.000000
_cell_volume 1158.463235
_symmetry_space_group_name_H-M "I 21 21 21"
_symmetry_group_IT_number 24
_symmetry_cell_setting 'orthorhombic'
loop_
_space_group_symop_operation_xyz
x,y,z
-x,1/2-y,z
x,-y,1/2-z
1/2-x,y,-z
1/2+x,1/2+y,1/2+z
1/2-x,-y,1/2+z
1/2+x,1/2-y,-z
-x,1/2+y,1/2-z
loop_
_atom_site_type_symbol
_atom_site_label
_atom_site_fract_x
_atom_site_fract_y
_atom_site_fract_z
Si Si1 0.913468 0.927030 0.550311
Si Si2 0.250000 0.853205 0.000000
Si Si3 0.418155 0.433395 0.351811
Si Si4 0.423242 0.935214 0.698650
O O1 0.750000 0.944359 0.500000
O O2 0.000000 0.750000 0.559849
O O3 0.779724 0.999362 0.598397
O O4 0.180017 0.034539 0.545288
O O5 0.500000 0.750000 0.982445
O O6 0.500000 0.250000 0.355840
O O7 0.680481 0.537864 0.339060
O O8 0.184305 0.457445 0.312733
O O9 0.500000 0.750000 0.699233
O O10 0.316989 0.000000 0.750000
#
# Coordination Sequence:
#
# PCOD8166269 Si02
#       4
#     8   4   8   8
#     4  12  27  47  74 105 148 198 249 301 365 432
#     4  12  26  44  70 100 138 188 242 298 356 418
#     4  12  28  48  76 110 148 192 248 301 364 436
#     4  12  26  50  79 111 149 190 240 301 370 437
#
# _framework density 24.169953
#
# number of rings (size 3 to 8) (size 9 to 14) (size 15 to 20)
#    0.000    0.000    2.857    6.857    4.000    1.143 
#    0.000    0.000    0.000    0.000    0.000    0.000 
#    0.000    0.000    0.000    0.000    0.000    0.000 
#
# Total GULP energy -173554.702457 kJ/mol
# GULP energy per Si atom -12396.764461 kJ/mol
# Density = 2.411494 g / cm^3
# Si number density = 24.169953 Si / 1000 Ang^3
#
#
#
# Elastic Constant Matrix: (Units=GPa)
#
#
# Indices 1 2 3 4 5 6 
#
# 1 115.9126 35.3714 29.0515 0.0000 0.0000 0.0000
# 2 35.3714 167.6602 53.6379 0.0000 0.0000 0.0000
# 3 29.0515 53.6379 129.1399 0.0000 0.0000 0.0000
# 4 0.0000 0.0000 0.0000 42.2675 0.0000 0.0000
# 5 0.0000 0.0000 0.0000 0.0000 41.7468 0.0000
# 6 0.0000 0.0000 0.0000 0.0000 0.0000 17.0080
#
#
#
# Elastic Compliance Matrix: (Units=1/GPa)
#
#
# Indices 1 2 3 4 5 6 
#
# 1 0.009466 -0.001517 -0.001499 0.000000 0.000000 0.000000
# 2 -0.001517 0.007122 -0.002617 0.000000 0.000000 0.000000
# 3 -0.001499 -0.002617 0.009168 0.000000 0.000000 0.000000
# 4 0.000000 0.000000 0.000000 0.023659 0.000000 0.000000
# 5 0.000000 0.000000 0.000000 0.000000 0.023954 0.000000
# 6 0.000000 0.000000 0.000000 0.000000 0.000000 0.058796
#
#
# Mechanical properties :
#
#
# Convention : Reuss Voigt Hill
#
# Bulk Modulus (GPa) = 69.01893 72.09270 70.55582
# Shear Modulus (GPa) = 33.72455 39.84791 36.78623
#
# Velocity S-wave (km/s) = 3.73944 4.06477 3.90549
# Velocity P-wave (km/s) = 6.87475 7.20569 7.04216
#
# Compressibility (1/GPa) = 0.01448878
#
# Stress axis : x y z
#
# Youngs Moduli (GPa) = 105.64131 140.41629 109.07966
#
# Poissons Ratio (x) = 0.21307 0.16354
# Poissons Ratio (y) = 0.16030 0.28542
# Poissons Ratio (z) = 0.15838 0.36742
#
# Static dielectric constant tensor:
#      x y z
#    x 4.397160 0.000000 0.000000 
#    y 0.000000 4.318140 0.000000 
#    z 0.000000 0.000000 4.436630 
# 
# 
# High freq. dielectric constant tensor:
#      x y z
#    x 1.958570 0.000000 0.000000 
#    y 0.000000 1.987200 0.000000 
#    z 0.000000 0.000000 1.964660 
# 
# From -- ./inp_files/36261.got.cif
#   From: 2010.03.12/outbox.cif.g09.slc.cpg/sg24_19_cif.got.tgz:36261.got - 2010.04.14 03:06:53.
