data_PCOD8166726
_publ_section_title
;
Structure prediction by ZEFSAII (Michael W. Deem and Ramdas Pophale) SiO2 
 PCOD8166726
Probable space group: P M M 2
;
_chemical_formula_sum "Si O2"
_cell_formula_units_Z 28
_cell_length_a 9.051679
_cell_length_b 9.060938
_cell_length_c 17.822026
_cell_angle_alpha 90.000000
_cell_angle_beta 90.000000
_cell_angle_gamma 90.000000
_cell_volume 1461.703799
_symmetry_space_group_name_H-M "P M M 2"
_symmetry_group_IT_number 25
_symmetry_cell_setting 'orthorhombic'
loop_
_space_group_symop_operation_xyz
x,y,z
-x,-y,z
-x,y,z
x,-y,z
loop_
_atom_site_type_symbol
_atom_site_label
_atom_site_fract_x
_atom_site_fract_y
_atom_site_fract_z
Si Si1 0.670929 0.167821 0.784000
Si Si2 0.828568 0.326619 0.359480
Si Si3 0.824278 0.165899 0.508851
Si Si4 0.825189 0.333100 0.654152
Si Si5 0.326010 0.170595 0.222705
Si Si6 0.670590 0.829577 0.956432
Si Si7 0.173571 0.329179 0.086143
O O1 0.500000 0.189331 0.764629
O O2 0.765981 0.274393 0.732668
O O3 0.701814 0.209435 0.870064
O O4 0.719565 0.000000 0.768573
O O5 0.802890 0.500000 0.364226
O O6 0.769361 0.256130 0.436613
O O7 0.734083 0.261916 0.292357
O O8 0.000000 0.288155 0.345571
O O9 0.760466 0.239932 0.584337
O O10 0.000000 0.167596 0.511496
O O11 0.762314 0.000000 0.503605
O O12 0.771780 0.500000 0.643141
O O13 0.000000 0.321822 0.656213
O O14 0.500000 0.192507 0.217316
O O15 0.255365 0.230457 0.146964
O O16 0.282468 0.000000 0.232705
O O17 0.500000 0.799647 0.976626
O O18 0.709423 0.000000 0.972884
O O19 0.774527 0.723224 0.004430
O O20 0.215418 0.500000 0.097726
O O21 0.000000 0.304407 0.094191
#
# Coordination Sequence:
#
# PCOD8166726 Si02
#       7
#     4   4   4   4   4   4   4
#     4   9  19  36  56  78 106 141 181 224 269 319
#     4  10  20  35  57  84 112 141 176 220 269 320
#     4   9  17  31  53  79 107 142 182 222 267 318
#     4  10  20  33  51  78 111 144 180 224 271 319
#     4  11  24  40  58  81 109 142 181 222 264 314
#     4   9  19  37  59  81 106 139 180 223 268 320
#     4  11  24  39  56  82 113 142 176 219 266 317
#
# _framework density 19.155728
#
# number of rings (size 3 to 8) (size 9 to 14) (size 15 to 20)
#    0.000    2.143    0.000    3.857    0.000   10.857 
#    0.000    5.000    0.000    4.286    0.000    0.000 
#    0.000    0.000    0.000    0.000    0.000    0.000 
#
# Total GULP energy -347291.341601 kJ/mol
# GULP energy per Si atom -12403.262200 kJ/mol
# Density = 1.911213 g / cm^3
# Si number density = 19.155728 Si / 1000 Ang^3
#
#
#
# Elastic Constant Matrix: (Units=GPa)
#
#
# Indices 1 2 3 4 5 6 
#
# 1 37.8826 45.3067 31.2981 0.0000 0.0000 0.0000
# 2 45.3067 119.2077 60.4632 0.0000 0.0000 0.0000
# 3 31.2981 60.4632 117.6238 0.0000 0.0000 0.0000
# 4 0.0000 0.0000 0.0000 30.3666 0.0000 0.0000
# 5 0.0000 0.0000 0.0000 0.0000 -124.5945 0.0000
# 6 0.0000 0.0000 0.0000 0.0000 0.0000 28.9760
#
#
#
# Elastic Compliance Matrix: (Units=1/GPa)
#
#
# Indices 1 2 3 4 5 6 
#
# 1 0.050334 -0.016688 -0.004815 0.000000 0.000000 0.000000
# 2 -0.016688 0.016880 -0.004237 0.000000 0.000000 0.000000
# 3 -0.004815 -0.004237 0.011961 0.000000 0.000000 0.000000
# 4 0.000000 0.000000 0.000000 0.032931 0.000000 0.000000
# 5 0.000000 0.000000 0.000000 0.000000 -0.008026 0.000000
# 6 0.000000 0.000000 0.000000 0.000000 0.000000 0.034511
#
#
# Mechanical properties :
#
#
# Convention : Reuss Voigt Hill
#
# Bulk Modulus (GPa) = 36.10684 60.98336 48.54510
# Shear Modulus (GPa) = 25.08767 -3.87397 10.60685
#
# Velocity S-wave (km/s) = 3.62286 -1.42364 2.35567
# Velocity P-wave (km/s) = 6.03243 5.40392 5.72680
#
# Compressibility (1/GPa) = 0.02769558
#
# Stress axis : x y z
#
# Youngs Moduli (GPa) = 19.86742 59.24159 83.60774
#
# Poissons Ratio (x) = 0.98862 0.40256
# Poissons Ratio (y) = 0.33155 0.35421
# Poissons Ratio (z) = 0.09566 0.25098
#
# Static dielectric constant tensor:
#      x y z
#    x 3.320990 0.000000 0.000000 
#    y 0.000000 3.636660 0.000000 
#    z 0.000000 0.000000 3.629860 
# 
# 
# High freq. dielectric constant tensor:
#      x y z
#    x 1.723190 0.000000 0.000000 
#    y 0.000000 1.755870 0.000000 
#    z 0.000000 0.000000 1.760800 
# 
# From -- ./inp_files/6127.got.cif
#   From: 2010.03.12/outbox.cif.g09.slc.cpg/sg25_4_cif.got.tgz:6127.got - 2010.04.14 03:30:10.
