data_PCOD8166230
_publ_section_title
;
Structure prediction by ZEFSAII (Michael W. Deem and Ramdas Pophale) SiO2 
 PCOD8166230
Probable space group: I 21 21 21
;
_chemical_formula_sum "Si O2"
_cell_formula_units_Z 56
_cell_length_a 13.352439
_cell_length_b 16.141178
_cell_length_c 12.009543
_cell_angle_alpha 90.000000
_cell_angle_beta 90.000000
_cell_angle_gamma 90.000000
_cell_volume 2588.345882
_symmetry_space_group_name_H-M "I 21 21 21"
_symmetry_group_IT_number 24
_symmetry_cell_setting 'orthorhombic'
loop_
_space_group_symop_operation_xyz
x,y,z
-x,1/2-y,z
x,-y,1/2-z
1/2-x,y,-z
1/2+x,1/2+y,1/2+z
1/2-x,-y,1/2+z
1/2+x,1/2-y,-z
-x,1/2+y,1/2-z
loop_
_atom_site_type_symbol
_atom_site_label
_atom_site_fract_x
_atom_site_fract_y
_atom_site_fract_z
Si Si1 0.250000 0.677493 0.500000
Si Si2 0.173275 0.137038 0.716227
Si Si3 0.163829 0.000000 0.250000
Si Si4 0.090243 0.799875 0.560493
Si Si5 0.992744 0.450883 0.071659
Si Si6 0.288807 0.314871 0.377660
Si Si7 0.308666 0.585019 0.702593
Si Si8 0.967872 0.057454 0.645216
O O1 0.153116 0.734952 0.486944
O O2 0.236436 0.617381 0.605049
O O3 0.269892 0.079158 0.718717
O O4 0.156172 0.158621 0.844975
O O5 0.192843 0.218490 0.644038
O O6 0.080176 0.090008 0.662078
O O7 0.097180 0.008139 0.139467
O O8 0.047741 0.865831 0.475925
O O9 0.000000 0.750000 0.619424
O O10 0.079627 0.429588 0.159348
O O11 0.034432 0.508669 0.972315
O O12 0.250000 0.329311 0.500000
O O13 0.197769 0.346480 0.299552
O O14 0.390546 0.366391 0.357207
O O15 0.262553 0.500000 0.750000
O O16 0.939249 0.000000 0.750000
#
# Coordination Sequence:
#
# PCOD8166230 Si02
#       8
#     4   8   4   8   8   8   8   8
#     4  12  26  44  74 110 146 198 240 320 364 444
#     4  12  26  50  74 111 145 195 253 305 365 448
#     4  12  28  50  74 104 150 194 252 310 376 434
#     4  12  23  44  75 112 145 184 250 306 371 424
#     4  12  27  46  77 107 149 197 247 314 365 443
#     4  12  29  48  77 108 154 201 239 305 378 454
#     4  12  27  47  71 109 150 190 250 299 378 440
#     4  12  26  48  76 112 149 198 252 302 365 445
#
# _framework density 21.635439999999999
#
# number of rings (size 3 to 8) (size 9 to 14) (size 15 to 20)
#    0.000    0.000    5.714    3.429    7.000    1.143 
#    0.000    0.000    0.000    0.000    0.000    0.000 
#    0.000    0.000    0.000    0.000    0.000    0.000 
#
# Total GULP energy -347280.554785 kJ/mol
# GULP energy per Si atom -12402.876957 kJ/mol
# Density = 2.158620 g / cm^3
# Si number density = 21.635440 Si / 1000 Ang^3
#
#
#
# Elastic Constant Matrix: (Units=GPa)
#
#
# Indices 1 2 3 4 5 6 
#
# 1 108.8265 53.3126 51.3669 0.0000 0.0000 0.0000
# 2 53.3126 130.7274 59.4446 0.0000 0.0000 0.0000
# 3 51.3669 59.4446 144.1700 0.0000 0.0000 0.0000
# 4 0.0000 0.0000 0.0000 15.8800 0.0000 0.0000
# 5 0.0000 0.0000 0.0000 0.0000 62.4392 0.0000
# 6 0.0000 0.0000 0.0000 0.0000 0.0000 -55.1572
#
#
#
# Elastic Compliance Matrix: (Units=1/GPa)
#
#
# Indices 1 2 3 4 5 6 
#
# 1 0.012376 -0.003744 -0.002866 0.000000 0.000000 0.000000
# 2 -0.003744 0.010547 -0.003015 0.000000 0.000000 0.000000
# 3 -0.002866 -0.003015 0.009200 0.000000 0.000000 0.000000
# 4 0.000000 0.000000 0.000000 0.062972 0.000000 0.000000
# 5 0.000000 0.000000 0.000000 0.000000 0.016016 0.000000
# 6 0.000000 0.000000 0.000000 0.000000 0.000000 -0.018130
#
#
# Mechanical properties :
#
#
# Convention : Reuss Voigt Hill
#
# Bulk Modulus (GPa) = 77.67418 79.10801 78.39110
# Shear Modulus (GPa) = 42.91041 19.27239 31.09140
#
# Velocity S-wave (km/s) = 4.45830 2.98783 3.79497
# Velocity P-wave (km/s) = 7.90451 6.96752 7.45076
#
# Compressibility (1/GPa) = 0.01287429
#
# Stress axis : x y z
#
# Youngs Moduli (GPa) = 80.80387 94.81112 108.69082
#
# Poissons Ratio (x) = 0.35496 0.31147
# Poissons Ratio (y) = 0.30252 0.32770
# Poissons Ratio (z) = 0.23156 0.28585
#
# Static dielectric constant tensor:
#      x y z
#    x 4.052450 0.000000 0.000000 
#    y 0.000000 4.324540 0.000000 
#    z 0.000000 0.000000 4.111730 
# 
# 
# High freq. dielectric constant tensor:
#      x y z
#    x 1.860970 0.000000 0.000000 
#    y 0.000000 1.867510 0.000000 
#    z 0.000000 0.000000 1.858450 
# 
# From -- ./inp_files/20907.got.cif
#   From: 2010.03.12/outbox.cif.g09.slc.cpg/sg24_11_cif.got.tgz:20907.got - 2010.04.14 03:06:53.
