data_PCOD8166093
_publ_section_title
;
Structure prediction by ZEFSAII (Michael W. Deem and Ramdas Pophale) SiO2 
 PCOD8166093
Probable space group: I 21 21 21
;
_chemical_formula_sum "Si O2"
_cell_formula_units_Z 48
_cell_length_a 9.761487
_cell_length_b 14.250976
_cell_length_c 16.800587
_cell_angle_alpha 90.000000
_cell_angle_beta 90.000000
_cell_angle_gamma 90.000000
_cell_volume 2337.141703
_symmetry_space_group_name_H-M "I 21 21 21"
_symmetry_group_IT_number 24
_symmetry_cell_setting 'orthorhombic'
loop_
_space_group_symop_operation_xyz
x,y,z
-x,1/2-y,z
x,-y,1/2-z
1/2-x,y,-z
1/2+x,1/2+y,1/2+z
1/2-x,-y,1/2+z
1/2+x,1/2-y,-z
-x,1/2+y,1/2-z
loop_
_atom_site_type_symbol
_atom_site_label
_atom_site_fract_x
_atom_site_fract_y
_atom_site_fract_z
Si Si1 0.450677 0.905780 0.195882
Si Si2 0.750000 0.091671 0.000000
Si Si3 0.156214 0.264762 0.119534
Si Si4 0.250000 0.115914 0.000000
Si Si5 0.286521 0.278432 0.285528
Si Si6 0.378008 0.681340 0.941357
Si Si7 0.498755 0.483993 0.471922
O O1 0.329045 0.831293 0.210488
O O2 0.591914 0.852650 0.209544
O O3 0.434952 0.000000 0.250000
O O4 0.440805 0.929259 0.102966
O O5 0.845264 0.150466 0.058035
O O6 0.642403 0.034473 0.054523
O O7 0.239307 0.178214 0.079992
O O8 0.227352 0.296496 0.199416
O O9 0.000000 0.250000 0.140789
O O10 0.385904 0.054578 0.999197
O O11 0.172356 0.302991 0.351450
O O12 0.500000 0.750000 0.965287
O O13 0.250000 0.697617 0.000000
O O14 0.449242 0.580235 0.953918
#
# Coordination Sequence:
#
# PCOD8166093 Si02
#       7
#     8   4   8   4   8   8   8
#     4  11  23  42  68 100 135 179 229 283 337 401
#     4  11  22  42  71  96 130 180 221 280 334 407
#     4  11  23  44  67  97 140 175 224 278 346 397
#     4  11  26  42  71 104 130 182 223 286 336 407
#     4  11  24  43  66 101 138 179 225 280 343 409
#     4  12  25  43  67  96 135 185 223 277 340 401
#     4  12  23  43  68  99 135 174 236 271 340 411
#
# _framework density 20.537908000000002
#
# number of rings (size 3 to 8) (size 9 to 14) (size 15 to 20)
#    0.000    0.667    4.167    3.500    3.500    1.333 
#    0.000    0.000    0.000    0.000    0.000    0.000 
#    0.000    0.000    0.000    0.000    0.000    0.000 
#
# Total GULP energy -297524.004457 kJ/mol
# GULP energy per Si atom -12396.833519 kJ/mol
# Density = 2.049116 g / cm^3
# Si number density = 20.537908 Si / 1000 Ang^3
#
#
#
# Elastic Constant Matrix: (Units=GPa)
#
#
# Indices 1 2 3 4 5 6 
#
# 1 69.8852 20.6045 -0.6797 0.0000 0.0000 0.0000
# 2 20.6045 105.6790 23.0742 0.0000 0.0000 0.0000
# 3 -0.6797 23.0742 102.6192 0.0000 0.0000 0.0000
# 4 0.0000 0.0000 0.0000 6.3983 0.0000 0.0000
# 5 0.0000 0.0000 0.0000 0.0000 20.9886 0.0000
# 6 0.0000 0.0000 0.0000 0.0000 0.0000 48.5495
#
#
#
# Elastic Compliance Matrix: (Units=1/GPa)
#
#
# Indices 1 2 3 4 5 6 
#
# 1 0.015246 -0.003149 0.000809 0.000000 0.000000 0.000000
# 2 -0.003149 0.010602 -0.002405 0.000000 0.000000 0.000000
# 3 0.000809 -0.002405 0.010291 0.000000 0.000000 0.000000
# 4 0.000000 0.000000 0.000000 0.156291 0.000000 0.000000
# 5 0.000000 0.000000 0.000000 0.000000 0.047645 0.000000
# 6 0.000000 0.000000 0.000000 0.000000 0.000000 0.020598
#
#
# Mechanical properties :
#
#
# Convention : Reuss Voigt Hill
#
# Bulk Modulus (GPa) = 37.52548 40.46460 38.99504
# Shear Modulus (GPa) = 17.91834 30.86624 24.39229
#
# Velocity S-wave (km/s) = 2.95693 3.88092 3.45000
# Velocity P-wave (km/s) = 5.47439 6.31088 5.90746
#
# Compressibility (1/GPa) = 0.02664856
#
# Stress axis : x y z
#
# Youngs Moduli (GPa) = 65.59303 94.32490 97.17396
#
# Poissons Ratio (x) = 0.29704 -0.07862
# Poissons Ratio (y) = 0.20656 0.23367
# Poissons Ratio (z) = -0.05307 0.22682
#
# Static dielectric constant tensor:
#      x y z
#    x 3.787540 0.000000 0.000000 
#    y 0.000000 4.035280 0.000000 
#    z 0.000000 0.000000 3.627470 
# 
# 
# High freq. dielectric constant tensor:
#      x y z
#    x 1.815580 0.000000 0.000000 
#    y 0.000000 1.817430 0.000000 
#    z 0.000000 0.000000 1.800020 
# 
# From -- ./inp_files/29519.got.cif
#   From: 2010.03.12/outbox.cif.g09.slc.cpg/sg24_15_cif.got.tgz:29519.got - 2010.04.14 03:06:53.
