data_PCOD8166268
_publ_section_title
;
Structure prediction by ZEFSAII (Michael W. Deem and Ramdas Pophale) SiO2 
 PCOD8166268
Probable space group: I 21 21 21
;
_chemical_formula_sum "Si O2"
_cell_formula_units_Z 40
_cell_length_a 6.112176
_cell_length_b 23.746436
_cell_length_c 11.698070
_cell_angle_alpha 90.000000
_cell_angle_beta 90.000000
_cell_angle_gamma 90.000000
_cell_volume 1697.885911
_symmetry_space_group_name_H-M "I 21 21 21"
_symmetry_group_IT_number 24
_symmetry_cell_setting 'orthorhombic'
loop_
_space_group_symop_operation_xyz
x,y,z
-x,1/2-y,z
x,-y,1/2-z
1/2-x,y,-z
1/2+x,1/2+y,1/2+z
1/2-x,-y,1/2+z
1/2+x,1/2-y,-z
-x,1/2+y,1/2-z
loop_
_atom_site_type_symbol
_atom_site_label
_atom_site_fract_x
_atom_site_fract_y
_atom_site_fract_z
Si Si1 0.000000 0.750000 0.382147
Si Si2 0.750000 0.847005 0.500000
Si Si3 0.918548 0.051694 0.412955
Si Si4 0.898527 0.097633 0.779425
Si Si5 0.750000 0.365252 0.500000
Si Si6 0.245864 0.000000 0.750000
Si Si7 0.347212 0.203497 0.293553
O O1 0.943588 0.804435 0.459826
O O2 0.797494 0.731736 0.304161
O O3 0.804918 0.893610 0.595022
O O4 0.750000 0.020113 0.500000
O O5 0.796221 0.079569 0.305372
O O6 0.031674 0.096567 0.500148
O O7 0.103014 0.010591 0.361712
O O8 0.985803 0.158970 0.755424
O O9 0.096728 0.053431 0.777188
O O10 0.793509 0.326706 0.390292
O O11 0.500000 0.250000 0.352706
#
# Coordination Sequence:
#
# PCOD8166268 Si02
#       7
#     4   4   8   8   4   4   8
#     4  12  26  50  76 114 160 200 256 324 386 488
#     4  12  26  50  80 112 156 206 256 320 390 476
#     4  12  25  53  79 110 158 205 267 333 392 466
#     4  12  27  54  76 116 154 211 263 322 396 472
#     4  12  26  44  80 110 158 206 258 330 382 472
#     4  12  28  54  78 118 156 210 270 330 400 468
#     4  12  26  46  76 117 154 205 257 314 401 467
#
# _framework density 23.558707999999999
#
# number of rings (size 3 to 8) (size 9 to 14) (size 15 to 20)
#    0.000    0.000    6.000    3.000    1.400    0.000 
#   18.000    0.000    0.000    0.000    0.000    0.000 
#    0.000    0.000    0.000    0.000    0.000    0.000 
#
# Total GULP energy -247879.452850 kJ/mol
# GULP energy per Si atom -12393.972643 kJ/mol
# Density = 2.350509 g / cm^3
# Si number density = 23.558708 Si / 1000 Ang^3
#
#
#
# Elastic Constant Matrix: (Units=GPa)
#
#
# Indices 1 2 3 4 5 6 
#
# 1 120.2614 52.9886 47.1115 -0.0002 -0.0001 -0.0001
# 2 52.9886 103.4030 33.7878 -0.0002 -0.0001 -0.0001
# 3 47.1115 33.7878 125.7266 -0.0012 -0.0001 0.0004
# 4 -0.0002 -0.0002 -0.0012 25.1469 -0.0004 -0.0002
# 5 -0.0001 -0.0001 -0.0001 -0.0004 36.5327 -0.0004
# 6 -0.0001 -0.0001 0.0004 -0.0002 -0.0004 27.0959
#
#
#
# Elastic Compliance Matrix: (Units=1/GPa)
#
#
# Indices 1 2 3 4 5 6 
#
# 1 0.011714 -0.005008 -0.003044 0.000000 0.000000 0.000000
# 2 -0.005008 0.012743 -0.001548 0.000000 0.000000 0.000000
# 3 -0.003044 -0.001548 0.009510 0.000000 0.000000 0.000000
# 4 0.000000 0.000000 0.000000 0.039766 0.000000 0.000000
# 5 0.000000 0.000000 0.000000 0.000000 0.027373 0.000000
# 6 0.000000 0.000000 0.000000 0.000000 0.000000 0.036906
#
#
# Mechanical properties :
#
#
# Convention : Reuss Voigt Hill
#
# Bulk Modulus (GPa) = 67.71401 68.57409 68.14405
# Shear Modulus (GPa) = 30.83845 32.12197 31.48021
#
# Velocity S-wave (km/s) = 3.62194 3.69655 3.65943
# Velocity P-wave (km/s) = 6.80414 6.88405 6.84422
#
# Compressibility (1/GPa) = 0.01476799
#
# Stress axis : x y z
#
# Youngs Moduli (GPa) = 85.36575 78.47283 105.15022
#
# Poissons Ratio (x) = 0.39303 0.32003
# Poissons Ratio (y) = 0.42755 0.16276
# Poissons Ratio (z) = 0.25981 0.12147
#
# Static dielectric constant tensor:
#      x y z
#    x 4.589680 0.000000 0.000020 
#    y 0.000000 4.500970 0.000000 
#    z 0.000020 0.000000 5.923300 
# 
# 
# High freq. dielectric constant tensor:
#      x y z
#    x 1.943640 0.000000 0.000000 
#    y 0.000000 1.938520 0.000000 
#    z 0.000000 0.000000 1.947700 
# 
# From -- ./inp_files/17664.got.cif
#   From: 2010.03.12/outbox.cif.g09.slc.cpg/sg24_9_cif.got.tgz:17664.got - 2010.04.14 03:06:53.
