data_PCOD8166847
_publ_section_title
;
Structure prediction by ZEFSAII (Michael W. Deem and Ramdas Pophale) SiO2 
 PCOD8166847
Probable space group: P M M 2
;
_chemical_formula_sum "Si O2"
_cell_formula_units_Z 20
_cell_length_a 8.896396
_cell_length_b 7.806450
_cell_length_c 14.727008
_cell_angle_alpha 90.000000
_cell_angle_beta 90.000000
_cell_angle_gamma 90.000000
_cell_volume 1022.779963
_symmetry_space_group_name_H-M "P M M 2"
_symmetry_group_IT_number 25
_symmetry_cell_setting 'orthorhombic'
loop_
_space_group_symop_operation_xyz
x,y,z
-x,-y,z
-x,y,z
x,-y,z
loop_
_atom_site_type_symbol
_atom_site_label
_atom_site_fract_x
_atom_site_fract_y
_atom_site_fract_z
Si Si1 0.326087 0.000000 0.162530
Si Si2 0.674560 0.000000 0.375256
Si Si3 0.834252 0.299110 0.681382
Si Si4 0.820472 0.695882 0.482982
Si Si5 0.176555 0.308412 0.058982
Si Si6 0.172085 0.804180 0.869147
O O1 0.296126 0.000000 0.268899
O O2 0.255834 0.173065 0.123468
O O3 0.500000 0.000000 0.137608
O O4 0.748531 0.826857 0.412770
O O5 0.500000 0.000000 0.400335
O O6 0.848458 0.500000 0.689253
O O7 0.758083 0.254422 0.584279
O O8 0.745660 0.231868 0.771706
O O9 0.000000 0.214085 0.680503
O O10 0.773931 0.500000 0.458267
O O11 0.000000 0.712117 0.480973
O O12 0.208437 0.500000 0.095839
O O13 0.000000 0.265593 0.058405
O O14 0.240132 0.297403 0.955272
O O15 0.000000 0.745274 0.856340
O O16 0.187868 0.000000 0.896459
#
# Coordination Sequence:
#
# PCOD8166847 Si02
#       6
#     2   2   4   4   4   4
#     4  11  25  43  58  77 108 144 187 233 280 339
#     4  11  25  41  58  79 106 146 187 229 284 339
#     4   8  14  25  44  76 114 145 176 215 261 315
#     4   9  19  36  59  87 115 144 182 229 276 321
#     4  10  20  36  60  87 114 144 181 228 278 324
#     4   9  15  24  45  80 117 147 176 214 263 319
#
# _framework density 19.554549999999999
#
# number of rings (size 3 to 8) (size 9 to 14) (size 15 to 20)
#    0.000    2.600    1.000    2.400    1.400    5.600 
#    0.000    4.000    0.000    2.400    0.000    2.800 
#    0.000    0.000    0.000    0.000    0.000    0.000 
#
# Total GULP energy -247792.734980 kJ/mol
# GULP energy per Si atom -12389.636749 kJ/mol
# Density = 1.951004 g / cm^3
# Si number density = 19.554550 Si / 1000 Ang^3
#
#
#
# Elastic Constant Matrix: (Units=GPa)
#
#
# Indices 1 2 3 4 5 6 
#
# 1 46.6748 43.5959 48.1263 0.0000 0.0000 0.0000
# 2 43.5959 121.2870 73.8421 0.0000 0.0000 0.0000
# 3 48.1263 73.8421 118.2131 0.0000 0.0000 0.0000
# 4 0.0000 0.0000 0.0000 28.4932 0.0000 0.0000
# 5 0.0000 0.0000 0.0000 0.0000 -12.0314 0.0000
# 6 0.0000 0.0000 0.0000 0.0000 0.0000 10.0457
#
#
#
# Elastic Compliance Matrix: (Units=1/GPa)
#
#
# Indices 1 2 3 4 5 6 
#
# 1 0.040576 -0.007306 -0.011955 0.000000 0.000000 0.000000
# 2 -0.007306 0.014620 -0.006158 0.000000 0.000000 0.000000
# 3 -0.011955 -0.006158 0.017173 0.000000 0.000000 0.000000
# 4 0.000000 0.000000 0.000000 0.035096 0.000000 0.000000
# 5 0.000000 0.000000 0.000000 0.000000 -0.083116 0.000000
# 6 0.000000 0.000000 0.000000 0.000000 0.000000 0.099545
#
#
# Mechanical properties :
#
#
# Convention : Reuss Voigt Hill
#
# Bulk Modulus (GPa) = 46.44614 68.58927 57.51770
# Shear Modulus (GPa) = 27.48605 13.34222 20.41414
#
# Velocity S-wave (km/s) = 3.75321 2.61494 3.23454
# Velocity P-wave (km/s) = 6.52578 6.65351 6.58995
#
# Compressibility (1/GPa) = 0.02153032
#
# Stress axis : x y z
#
# Youngs Moduli (GPa) = 24.64505 68.39815 58.23040
#
# Poissons Ratio (x) = 0.49973 0.69616
# Poissons Ratio (y) = 0.18006 0.35859
# Poissons Ratio (z) = 0.29464 0.42121
#
# Static dielectric constant tensor:
#      x y z
#    x 3.046040 0.000000 0.000000 
#    y 0.000000 3.574110 0.000000 
#    z 0.000000 0.000000 3.867390 
# 
# 
# High freq. dielectric constant tensor:
#      x y z
#    x 1.692800 0.000000 0.000000 
#    y 0.000000 1.771630 0.000000 
#    z 0.000000 0.000000 1.778450 
# 
# From -- ./inp_files/5155.got.cif
#   From: 2010.03.12/outbox.cif.g09.slc.cpg/sg25_3_cif.got.tgz:5155.got - 2010.04.14 03:30:10.
