data_PCOD8166168
_publ_section_title
;
Structure prediction by ZEFSAII (Michael W. Deem and Ramdas Pophale) SiO2 
 PCOD8166168
Probable space group: I 21 21 21
;
_chemical_formula_sum "Si O2"
_cell_formula_units_Z 40
_cell_length_a 8.586170
_cell_length_b 26.739136
_cell_length_c 7.706247
_cell_angle_alpha 90.000000
_cell_angle_beta 90.000000
_cell_angle_gamma 90.000000
_cell_volume 1769.252337
_symmetry_space_group_name_H-M "I 21 21 21"
_symmetry_group_IT_number 24
_symmetry_cell_setting 'orthorhombic'
loop_
_space_group_symop_operation_xyz
x,y,z
-x,1/2-y,z
x,-y,1/2-z
1/2-x,y,-z
1/2+x,1/2+y,1/2+z
1/2-x,-y,1/2+z
1/2+x,1/2-y,-z
-x,1/2+y,1/2-z
loop_
_atom_site_type_symbol
_atom_site_label
_atom_site_fract_x
_atom_site_fract_y
_atom_site_fract_z
Si Si1 0.617928 0.539550 0.375115
Si Si2 0.429097 0.697647 0.540263
Si Si3 0.089220 0.857529 0.773112
Si Si4 0.597249 0.968308 0.910451
Si Si5 0.948705 0.365532 0.341468
O O1 0.706381 0.500000 0.250000
O O2 0.750000 0.562361 0.500000
O O3 0.538602 0.585563 0.272347
O O4 0.483177 0.508123 0.464183
O O5 0.500000 0.750000 0.601885
O O6 0.250000 0.704928 0.500000
O O7 0.520701 0.679868 0.368866
O O8 0.437378 0.659437 0.701600
O O9 0.275552 0.854834 0.774373
O O10 0.024512 0.843430 0.964489
O O11 0.479181 0.924917 0.848264
O O12 0.658794 0.000000 0.750000
O O13 0.750000 0.944172 0.000000
#
# Coordination Sequence:
#
# PCOD8166168 Si02
#       5
#     8   8   8   8   8
#     4  12  22  38  65  99 140 190 238 288 348 419
#     4  12  28  49  78 106 139 178 229 296 365 437
#     4  11  24  45  74 104 144 187 239 293 352 428
#     4  12  26  40  61  97 146 192 240 293 349 413
#     4  11  25  46  71 103 142 189 237 294 355 423
#
# _framework density 22.608419999999999
#
# number of rings (size 3 to 8) (size 9 to 14) (size 15 to 20)
#    0.000    0.400    2.000    7.800    2.800    2.400 
#    0.000    0.000    0.000    0.000    0.000    0.000 
#    0.000    0.000    0.000    0.000    0.000    0.000 
#
# Total GULP energy -248060.708800 kJ/mol
# GULP energy per Si atom -12403.035440 kJ/mol
# Density = 2.255696 g / cm^3
# Si number density = 22.608420 Si / 1000 Ang^3
#
#
#
# Elastic Constant Matrix: (Units=GPa)
#
#
# Indices 1 2 3 4 5 6 
#
# 1 111.2195 22.9639 43.7466 -0.0044 0.0081 0.0010
# 2 22.9639 86.1515 42.9290 -0.0017 -0.0012 0.0009
# 3 43.7466 42.9290 144.1394 -0.0124 0.0369 0.0554
# 4 -0.0044 -0.0017 -0.0124 30.2229 0.0045 0.0029
# 5 0.0081 -0.0012 0.0369 0.0045 29.7739 0.0077
# 6 0.0010 0.0009 0.0554 0.0029 0.0077 26.4176
#
#
#
# Elastic Compliance Matrix: (Units=1/GPa)
#
#
# Indices 1 2 3 4 5 6 
#
# 1 0.010352 -0.001402 -0.002724 0.000000 0.000000 0.000005
# 2 -0.001402 0.013820 -0.003691 -0.000001 0.000006 0.000007
# 3 -0.002724 -0.003691 0.008864 0.000003 -0.000010 -0.000018
# 4 0.000000 -0.000001 0.000003 0.033088 -0.000005 -0.000004
# 5 0.000000 0.000006 -0.000010 -0.000005 0.033586 -0.000010
# 6 0.000005 0.000007 -0.000018 -0.000004 -0.000010 0.037854
#
#
# Mechanical properties :
#
#
# Convention : Reuss Voigt Hill
#
# Bulk Modulus (GPa) = 57.46313 62.30991 59.88652
# Shear Modulus (GPa) = 31.44688 32.74095 32.09391
#
# Velocity S-wave (km/s) = 3.73357 3.80962 3.77179
# Velocity P-wave (km/s) = 6.63762 6.85356 6.74645
#
# Compressibility (1/GPa) = 0.01740246
#
# Stress axis : x y z
#
# Youngs Moduli (GPa) = 96.59705 72.35824 112.81875
#
# Poissons Ratio (x) = 0.10144 0.30737
# Poissons Ratio (y) = 0.13541 0.41637
# Poissons Ratio (z) = 0.26317 0.26704
#
# Static dielectric constant tensor:
#      x y z
#    x 3.863390 0.000000 0.000010 
#    y 0.000000 3.920690 0.000050 
#    z 0.000010 0.000050 5.030410 
# 
# 
# High freq. dielectric constant tensor:
#      x y z
#    x 1.886780 0.000000 0.000000 
#    y 0.000000 1.875390 0.000000 
#    z 0.000000 0.000000 1.918310 
# 
# From -- ./inp_files/9254.got.cif
#   From: 2010.03.12/outbox.cif.g09.slc.cpg/sg24_5_cif.got.tgz:9254.got - 2010.04.14 03:06:53.
