data_PCOD8166071
_publ_section_title
;
Structure prediction by ZEFSAII (Michael W. Deem and Ramdas Pophale) SiO2 
 PCOD8166071
Probable space group: I 21 21 21
;
_chemical_formula_sum "Si O2"
_cell_formula_units_Z 48
_cell_length_a 31.086506
_cell_length_b 9.388847
_cell_length_c 8.707722
_cell_angle_alpha 90.000000
_cell_angle_beta 90.000000
_cell_angle_gamma 90.000000
_cell_volume 2541.491896
_symmetry_space_group_name_H-M "I 21 21 21"
_symmetry_group_IT_number 24
_symmetry_cell_setting 'orthorhombic'
loop_
_space_group_symop_operation_xyz
x,y,z
-x,1/2-y,z
x,-y,1/2-z
1/2-x,y,-z
1/2+x,1/2+y,1/2+z
1/2-x,-y,1/2+z
1/2+x,1/2-y,-z
-x,1/2+y,1/2-z
loop_
_atom_site_type_symbol
_atom_site_label
_atom_site_fract_x
_atom_site_fract_y
_atom_site_fract_z
Si Si1 0.104974 0.030294 0.426398
Si Si2 0.295762 0.471998 0.072287
Si Si3 0.568918 0.984928 0.431972
Si Si4 0.860540 0.204665 0.547152
Si Si5 0.631776 0.249478 0.092804
Si Si6 0.482435 0.910614 0.097974
O O1 0.128159 0.903325 0.517590
O O2 0.096327 0.000000 0.250000
O O3 0.139351 0.158223 0.438127
O O4 0.060491 0.087367 0.498115
O O5 0.289853 0.500000 0.250000
O O6 0.317135 0.617629 0.009543
O O7 0.326085 0.336423 0.036025
O O8 0.250000 0.441105 0.000000
O O9 0.599737 0.104994 0.500805
O O10 0.520481 0.006532 0.495563
O O11 0.566767 0.000000 0.250000
O O12 0.588560 0.830053 0.467209
O O13 0.865830 0.256475 0.723157
O O14 0.500000 0.750000 0.134819
O O15 0.471213 0.000000 0.250000
#
# Coordination Sequence:
#
# PCOD8166071 Si02
#       6
#     8   8   8   8   8   8
#     4  12  25  37  51  82 120 154 185 237 294 327
#     4   9  19  36  64  93 115 139 180 232 286 344
#     4   8  16  32  57  80 100 136 196 241 268 310
#     4   9  17  37  60  80 108 147 193 229 269 335
#     4   9  19  37  60  82 106 150 195 231 267 342
#     4  11  22  37  60  83 107 149 200 244 274 331
#
# _framework density 18.886544000000001
#
# number of rings (size 3 to 8) (size 9 to 14) (size 15 to 20)
#    0.000    2.333    1.667    3.500    4.667    1.333 
#    3.000    3.333    0.000    0.000    0.000    0.000 
#    0.000    0.000    0.000    0.000    0.000    0.000 
#
# Total GULP energy -297380.956265 kJ/mol
# GULP energy per Si atom -12390.873178 kJ/mol
# Density = 1.884356 g / cm^3
# Si number density = 18.886544 Si / 1000 Ang^3
#
#
#
# Elastic Constant Matrix: (Units=GPa)
#
#
# Indices 1 2 3 4 5 6 
#
# 1 109.4202 37.4918 20.6161 0.0000 0.0000 0.0000
# 2 37.4918 115.5872 31.3445 0.0000 0.0000 0.0000
# 3 20.6161 31.3445 47.0376 0.0000 0.0000 0.0000
# 4 0.0000 0.0000 0.0000 18.2976 0.0000 0.0000
# 5 0.0000 0.0000 0.0000 0.0000 23.0890 0.0000
# 6 0.0000 0.0000 0.0000 0.0000 0.0000 19.6589
#
#
#
# Elastic Compliance Matrix: (Units=1/GPa)
#
#
# Indices 1 2 3 4 5 6 
#
# 1 0.010590 -0.002656 -0.002871 0.000000 0.000000 0.000000
# 2 -0.002656 0.011226 -0.006316 0.000000 0.000000 0.000000
# 3 -0.002871 -0.006316 0.026727 0.000000 0.000000 0.000000
# 4 0.000000 0.000000 0.000000 0.054652 0.000000 0.000000
# 5 0.000000 0.000000 0.000000 0.000000 0.043311 0.000000
# 6 0.000000 0.000000 0.000000 0.000000 0.000000 0.050868
#
#
# Mechanical properties :
#
#
# Convention : Reuss Voigt Hill
#
# Bulk Modulus (GPa) = 40.23345 50.10555 45.16950
# Shear Modulus (GPa) = 21.80100 24.38192 23.09146
#
# Velocity S-wave (km/s) = 3.40121 3.59690 3.50042
# Velocity P-wave (km/s) = 6.06409 6.62100 6.34866
#
# Compressibility (1/GPa) = 0.02485494
#
# Stress axis : x y z
#
# Youngs Moduli (GPa) = 94.42614 89.07925 37.41504
#
# Poissons Ratio (x) = 0.23663 0.10744
# Poissons Ratio (y) = 0.25083 0.23633
# Poissons Ratio (z) = 0.27114 0.56266
#
# Static dielectric constant tensor:
#      x y z
#    x 2.475830 0.000000 0.000000 
#    y 0.000000 3.644610 0.000000 
#    z 0.000000 0.000000 3.050100 
# 
# 
# High freq. dielectric constant tensor:
#      x y z
#    x 1.730160 0.000000 0.000000 
#    y 0.000000 1.745500 0.000000 
#    z 0.000000 0.000000 1.693270 
# 
# From -- ./inp_files/16831.got.cif
#   From: 2010.03.12/outbox.cif.g09.slc.cpg/sg24_9_cif.got.tgz:16831.got - 2010.04.14 03:06:53.
