data_PCOD8166964
_publ_section_title
;
Structure prediction by ZEFSAII (Michael W. Deem and Ramdas Pophale) SiO2 
 PCOD8166964
Probable space group: P M M 2
;
_chemical_formula_sum "Si O2"
_cell_formula_units_Z 24
_cell_length_a 8.558133
_cell_length_b 11.699265
_cell_length_c 12.612959
_cell_angle_alpha 90.000000
_cell_angle_beta 90.000000
_cell_angle_gamma 90.000000
_cell_volume 1262.858215
_symmetry_space_group_name_H-M "P M M 2"
_symmetry_group_IT_number 25
_symmetry_cell_setting 'orthorhombic'
loop_
_space_group_symop_operation_xyz
x,y,z
-x,-y,z
-x,y,z
x,-y,z
loop_
_atom_site_type_symbol
_atom_site_label
_atom_site_fract_x
_atom_site_fract_y
_atom_site_fract_z
Si Si1 0.317330 0.237078 0.018700
Si Si2 0.818713 0.632127 0.208466
Si Si3 0.318032 0.230352 0.635216
Si Si4 0.817475 0.000000 0.713498
Si Si5 0.819539 0.632898 0.823928
Si Si6 0.186595 0.000000 0.954700
Si Si7 0.682026 0.369098 0.431880
O O1 0.500000 0.240288 0.992000
O O2 0.286793 0.288450 0.134484
O O3 0.221856 0.312665 0.935876
O O4 0.254537 0.108543 0.015847
O O5 0.774474 0.500000 0.187924
O O6 0.781172 0.665599 0.329230
O O7 0.000000 0.654908 0.185028
O O8 0.500000 0.205872 0.629449
O O9 0.233090 0.110291 0.648152
O O10 0.285497 0.313290 0.732998
O O11 0.258382 0.290018 0.527814
O O12 0.749403 0.000000 0.833297
O O13 0.000000 0.000000 0.724680
O O14 0.782207 0.500000 0.830716
O O15 0.000000 0.658034 0.798289
O O16 0.000000 0.000000 0.959743
O O17 0.500000 0.349877 0.407391
O O18 0.714402 0.500000 0.464612
#
# Coordination Sequence:
#
# PCOD8166964 Si02
#       7
#     4   4   4   2   4   2   4
#     4  12  24  38  60  87 116 151 195 242 291 347
#     4  10  21  38  61  88 119 156 196 239 290 347
#     4  11  22  37  60  87 117 152 195 243 291 344
#     4  11  23  39  60  83 115 158 198 240 292 347
#     4  11  23  37  55  83 119 154 190 236 289 347
#     4  11  23  41  62  83 115 156 196 240 292 347
#     4   9  19  37  60  87 119 153 191 239 294 348
#
# _framework density 19.004508999999999
#
# number of rings (size 3 to 8) (size 9 to 14) (size 15 to 20)
#    0.000    1.333    1.667    4.500    0.000    7.000 
#    0.000    2.500    0.000    3.000    0.000    0.000 
#    0.000    0.000    0.000    0.000    0.000    0.000 
#
# Total GULP energy -297747.933321 kJ/mol
# GULP energy per Si atom -12406.163888 kJ/mol
# Density = 1.896125 g / cm^3
# Si number density = 19.004509 Si / 1000 Ang^3
#
#
#
# Elastic Constant Matrix: (Units=GPa)
#
#
# Indices 1 2 3 4 5 6 
#
# 1 37.8097 30.9060 14.6982 0.0000 0.0000 0.0000
# 2 30.9060 132.7435 63.3494 0.0000 0.0000 0.0000
# 3 14.6982 63.3494 108.5953 0.0000 0.0000 0.0000
# 4 0.0000 0.0000 0.0000 19.9143 0.0000 0.0000
# 5 0.0000 0.0000 0.0000 0.0000 32.0499 0.0000
# 6 0.0000 0.0000 0.0000 0.0000 0.0000 29.5133
#
#
#
# Elastic Compliance Matrix: (Units=1/GPa)
#
#
# Indices 1 2 3 4 5 6 
#
# 1 0.032665 -0.007615 0.000021 0.000000 0.000000 0.000000
# 2 -0.007615 0.012215 -0.006095 0.000000 0.000000 0.000000
# 3 0.000021 -0.006095 0.012761 0.000000 0.000000 0.000000
# 4 0.000000 0.000000 0.000000 0.050215 0.000000 0.000000
# 5 0.000000 0.000000 0.000000 0.000000 0.031201 0.000000
# 6 0.000000 0.000000 0.000000 0.000000 0.000000 0.033883
#
#
# Mechanical properties :
#
#
# Convention : Reuss Voigt Hill
#
# Bulk Modulus (GPa) = 33.04369 55.22842 44.13606
# Shear Modulus (GPa) = 23.76356 27.64184 25.70270
#
# Velocity S-wave (km/s) = 3.53996 3.81791 3.68156
# Velocity P-wave (km/s) = 5.84238 6.96843 6.43011
#
# Compressibility (1/GPa) = 0.03026296
#
# Stress axis : x y z
#
# Youngs Moduli (GPa) = 30.61401 81.86594 78.36285
#
# Poissons Ratio (x) = 0.62344 -0.00167
# Poissons Ratio (y) = 0.23314 0.47762
# Poissons Ratio (z) = -0.00065 0.49897
#
# Static dielectric constant tensor:
#      x y z
#    x 3.495950 0.000000 0.000000 
#    y 0.000000 3.575330 0.000000 
#    z 0.000000 0.000000 3.515300 
# 
# 
# High freq. dielectric constant tensor:
#      x y z
#    x 1.747570 0.000000 0.000000 
#    y 0.000000 1.741930 0.000000 
#    z 0.000000 0.000000 1.738960 
# 
# From -- ./inp_files/3954.got.cif
#   From: 2010.03.12/outbox.cif.g09.slc.cpg/sg25_2_cif.got.tgz:3954.got - 2010.04.14 03:30:10.
