data_PCOD8166539
_publ_section_title
;
Structure prediction by ZEFSAII (Michael W. Deem and Ramdas Pophale) SiO2 
 PCOD8166539
Probable space group: P M M 2
;
_chemical_formula_sum "Si O2"
_cell_formula_units_Z 32
_cell_length_a 8.758314
_cell_length_b 14.658692
_cell_length_c 12.531011
_cell_angle_alpha 90.000000
_cell_angle_beta 90.000000
_cell_angle_gamma 90.000000
_cell_volume 1608.799203
_symmetry_space_group_name_H-M "P M M 2"
_symmetry_group_IT_number 25
_symmetry_cell_setting 'orthorhombic'
loop_
_space_group_symop_operation_xyz
x,y,z
-x,-y,z
-x,y,z
x,-y,z
loop_
_atom_site_type_symbol
_atom_site_label
_atom_site_fract_x
_atom_site_fract_y
_atom_site_fract_z
Si Si1 0.823653 0.602381 0.153430
Si Si2 0.181932 0.895485 0.876770
Si Si3 0.824336 0.176998 0.438082
Si Si4 0.319631 0.776436 0.064528
Si Si5 0.672564 0.098905 0.257058
Si Si6 0.822168 0.789636 0.673479
Si Si7 0.822312 0.401445 0.595876
Si Si8 0.321289 0.640285 0.377589
O O1 0.804105 0.500000 0.106571
O O2 0.737109 0.672083 0.073563
O O3 0.758052 0.601522 0.272568
O O4 0.000000 0.631279 0.157517
O O5 0.250923 0.848575 0.768987
O O6 0.000000 0.897059 0.876054
O O7 0.243338 0.000000 0.885551
O O8 0.238409 0.831872 0.971484
O O9 0.781150 0.092784 0.362198
O O10 0.786999 0.158197 0.562228
O O11 0.714537 0.253666 0.389576
O O12 0.000000 0.205975 0.426509
O O13 0.500000 0.778962 0.045320
O O14 0.271342 0.824983 0.174455
O O15 0.500000 0.118732 0.293460
O O16 0.684634 0.000000 0.200680
O O17 0.758635 0.684450 0.665407
O O18 0.000000 0.784340 0.697306
O O19 0.799021 0.500000 0.654727
O O20 0.739099 0.410344 0.482664
O O21 0.000000 0.382529 0.572209
O O22 0.500000 0.623347 0.365242
#
# Coordination Sequence:
#
# PCOD8166539 Si02
#       8
#     4   4   4   4   4   4   4   4
#     4  11  23  38  58  85 116 151 193 238 283 338
#     4  10  21  39  63  86 111 149 198 248 295 346
#     4  10  19  33  55  82 115 153 193 237 285 337
#     4  11  23  40  61  84 115 152 191 240 293 346
#     4  10  21  36  54  80 115 152 186 228 290 354
#     4   8  17  34  55  81 111 144 190 245 292 337
#     4   9  17  31  52  78 110 150 194 239 287 340
#     4  11  20  31  50  79 117 158 194 230 279 338
#
# _framework density 19.890612000000001
#
# number of rings (size 3 to 8) (size 9 to 14) (size 15 to 20)
#    0.000    2.000    1.250    3.750    0.000    4.750 
#    0.000    5.000    0.000    2.250    0.000    0.000 
#    0.000    0.000    0.000    0.000    0.000    0.000 
#
# Total GULP energy -396564.468754 kJ/mol
# GULP energy per Si atom -12392.639649 kJ/mol
# Density = 1.984534 g / cm^3
# Si number density = 19.890612 Si / 1000 Ang^3
#
#
#
# Elastic Constant Matrix: (Units=GPa)
#
#
# Indices 1 2 3 4 5 6 
#
# 1 48.9069 27.4376 25.4562 0.0000 0.0000 0.0000
# 2 27.4376 132.3268 62.4283 0.0000 0.0000 0.0000
# 3 25.4562 62.4283 108.0954 0.0000 0.0000 0.0000
# 4 0.0000 0.0000 0.0000 18.9139 0.0000 0.0000
# 5 0.0000 0.0000 0.0000 0.0000 11.6430 0.0000
# 6 0.0000 0.0000 0.0000 0.0000 0.0000 20.9815
#
#
#
# Elastic Compliance Matrix: (Units=1/GPa)
#
#
# Indices 1 2 3 4 5 6 
#
# 1 0.024256 -0.003209 -0.003859 0.000000 0.000000 0.000000
# 2 -0.003209 0.010812 -0.005488 0.000000 0.000000 0.000000
# 3 -0.003859 -0.005488 0.013330 0.000000 0.000000 0.000000
# 4 0.000000 0.000000 0.000000 0.052871 0.000000 0.000000
# 5 0.000000 0.000000 0.000000 0.000000 0.085888 0.000000
# 6 0.000000 0.000000 0.000000 0.000000 0.000000 0.047661
#
#
# Mechanical properties :
#
#
# Convention : Reuss Voigt Hill
#
# Bulk Modulus (GPa) = 42.94671 57.77481 50.36076
# Shear Modulus (GPa) = 18.67820 21.90814 20.29317
#
# Velocity S-wave (km/s) = 3.06771 3.32238 3.19758
# Velocity P-wave (km/s) = 5.84689 6.62019 6.24552
#
# Compressibility (1/GPa) = 0.02328467
#
# Stress axis : x y z
#
# Youngs Moduli (GPa) = 41.22720 92.49270 75.02107
#
# Poissons Ratio (x) = 0.29679 0.28951
# Poissons Ratio (y) = 0.13229 0.41175
# Poissons Ratio (z) = 0.15910 0.50764
#
# Static dielectric constant tensor:
#      x y z
#    x 3.434110 0.000000 0.000000 
#    y 0.000000 3.910650 0.000000 
#    z 0.000000 0.000000 3.539200 
# 
# 
# High freq. dielectric constant tensor:
#      x y z
#    x 1.759550 0.000000 0.000000 
#    y 0.000000 1.790690 0.000000 
#    z 0.000000 0.000000 1.753220 
# 
# From -- ./inp_files/4306.got.cif
#   From: 2010.03.12/outbox.cif.g09.slc.cpg/sg25_3_cif.got.tgz:4306.got - 2010.04.14 03:30:10.
