data_PCOD8166718
_publ_section_title
;
Structure prediction by ZEFSAII (Michael W. Deem and Ramdas Pophale) SiO2 
 PCOD8166718
Probable space group: P M M 2
;
_chemical_formula_sum "Si O2"
_cell_formula_units_Z 32
_cell_length_a 13.936377
_cell_length_b 13.156598
_cell_length_c 8.579023
_cell_angle_alpha 90.000000
_cell_angle_beta 90.000000
_cell_angle_gamma 90.000000
_cell_volume 1573.009420
_symmetry_space_group_name_H-M "P M M 2"
_symmetry_group_IT_number 25
_symmetry_cell_setting 'orthorhombic'
loop_
_space_group_symop_operation_xyz
x,y,z
-x,-y,z
-x,y,z
x,-y,z
loop_
_atom_site_type_symbol
_atom_site_label
_atom_site_fract_x
_atom_site_fract_y
_atom_site_fract_z
Si Si1 0.613127 0.618918 0.895340
Si Si2 0.891027 0.795944 0.907597
Si Si3 0.738967 0.754071 0.668993
Si Si4 0.610968 0.700072 0.232418
Si Si5 0.220620 0.383268 0.403424
Si Si6 0.895162 0.117675 0.237829
Si Si7 0.698941 0.880170 0.389104
Si Si8 0.889996 0.610745 0.107576
O O1 0.500000 0.630934 0.872340
O O2 0.643062 0.500000 0.884737
O O3 0.663770 0.686493 0.764365
O O4 0.645845 0.666028 0.060944
O O5 0.814107 0.818421 0.773259
O O6 0.000000 0.816159 0.848774
O O7 0.867371 0.863828 0.057772
O O8 0.875865 0.677865 0.954128
O O9 0.801353 0.678031 0.560665
O O10 0.681640 0.837516 0.564212
O O11 0.500000 0.675214 0.254338
O O12 0.667319 0.632527 0.359914
O O13 0.631481 0.820117 0.265443
O O14 0.194559 0.500000 0.431699
O O15 0.159374 0.337743 0.258542
O O16 0.809005 0.151711 0.350733
O O17 0.000000 0.170659 0.273113
O O18 0.908530 0.000000 0.263500
O O19 0.676941 0.000000 0.376913
O O20 0.844139 0.500000 0.073508
O O21 0.000000 0.600570 0.151940
#
# Coordination Sequence:
#
# PCOD8166718 Si02
#       8
#     4   4   4   4   4   4   4   4
#     4  10  21  38  60  84 110 140 175 223 280 328
#     4  10  20  33  51  76 107 142 178 218 265 316
#     4  11  22  34  50  79 114 146 178 214 265 332
#     4  10  21  38  60  83 104 133 182 233 273 321
#     4  10  20  33  52  78 107 141 181 227 276 322
#     4   9  18  35  59  82 102 131 178 231 274 312
#     4  10  22  39  58  81 111 147 183 222 270 321
#     4   9  18  33  52  73 101 143 191 229 261 308
#
# _framework density 20.343170000000001
#
# number of rings (size 3 to 8) (size 9 to 14) (size 15 to 20)
#    0.000    2.125    0.000    3.750    0.000    6.500 
#    0.000    0.625    0.000    0.750    0.000    0.000 
#    0.000    0.000    0.000    0.000    0.000    0.000 
#
# Total GULP energy -396637.607911 kJ/mol
# GULP energy per Si atom -12394.925247 kJ/mol
# Density = 2.029687 g / cm^3
# Si number density = 20.343170 Si / 1000 Ang^3
#
#
#
# Elastic Constant Matrix: (Units=GPa)
#
#
# Indices 1 2 3 4 5 6 
#
# 1 54.8965 -1.6363 28.4539 0.0000 0.0000 0.0000
# 2 -1.6363 57.1952 12.3806 0.0000 0.0000 0.0000
# 3 28.4539 12.3806 84.0829 0.0000 0.0000 0.0000
# 4 0.0000 0.0000 0.0000 26.3155 0.0000 0.0000
# 5 0.0000 0.0000 0.0000 0.0000 19.5354 0.0000
# 6 0.0000 0.0000 0.0000 0.0000 0.0000 24.2002
#
#
#
# Elastic Compliance Matrix: (Units=1/GPa)
#
#
# Indices 1 2 3 4 5 6 
#
# 1 0.022394 0.002356 -0.007925 0.000000 0.000000 0.000000
# 2 0.002356 0.018307 -0.003493 0.000000 0.000000 0.000000
# 3 -0.007925 -0.003493 0.015089 0.000000 0.000000 0.000000
# 4 0.000000 0.000000 0.000000 0.038000 0.000000 0.000000
# 5 0.000000 0.000000 0.000000 0.000000 0.051189 0.000000
# 6 0.000000 0.000000 0.000000 0.000000 0.000000 0.041322
#
#
# Mechanical properties :
#
#
# Convention : Reuss Voigt Hill
#
# Bulk Modulus (GPa) = 26.54850 30.50788 28.52819
# Shear Modulus (GPa) = 23.04340 24.47532 23.75936
#
# Velocity S-wave (km/s) = 3.36926 3.47237 3.42120
# Velocity P-wave (km/s) = 5.31174 5.57724 5.44611
#
# Compressibility (1/GPa) = 0.03766691
#
# Stress axis : x y z
#
# Youngs Moduli (GPa) = 44.65463 54.62243 66.27247
#
# Poissons Ratio (x) = -0.12870 0.52522
# Poissons Ratio (y) = -0.10521 0.23149
# Poissons Ratio (z) = 0.35389 0.19079
#
# Static dielectric constant tensor:
#      x y z
#    x 4.294170 0.000000 0.000000 
#    y 0.000000 3.764280 0.000000 
#    z 0.000000 0.000000 3.632150 
# 
# 
# High freq. dielectric constant tensor:
#      x y z
#    x 1.791020 0.000000 0.000000 
#    y 0.000000 1.798180 0.000000 
#    z 0.000000 0.000000 1.782980 
# 
# From -- ./inp_files/3308.got.cif
#   From: 2010.03.12/outbox.cif.g09.slc.cpg/sg25_2_cif.got.tgz:3308.got - 2010.04.14 03:30:10.
