data_PCOD8166323
_publ_section_title
;
Structure prediction by ZEFSAII (Michael W. Deem and Ramdas Pophale) SiO2 
 PCOD8166323
Probable space group: P M M 2
;
_chemical_formula_sum "Si O2"
_cell_formula_units_Z 32
_cell_length_a 19.326725
_cell_length_b 9.303794
_cell_length_c 10.424347
_cell_angle_alpha 90.000000
_cell_angle_beta 90.000000
_cell_angle_gamma 90.000000
_cell_volume 1874.421308
_symmetry_space_group_name_H-M "P M M 2"
_symmetry_group_IT_number 25
_symmetry_cell_setting 'orthorhombic'
loop_
_space_group_symop_operation_xyz
x,y,z
-x,-y,z
-x,y,z
x,-y,z
loop_
_atom_site_type_symbol
_atom_site_label
_atom_site_fract_x
_atom_site_fract_y
_atom_site_fract_z
Si Si1 0.706210 0.171362 0.697670
Si Si2 0.784777 0.170636 0.447688
Si Si3 0.420921 0.335282 0.309196
Si Si4 0.924753 0.170956 0.341261
Si Si5 0.421252 0.332081 0.603521
Si Si6 0.699338 0.170220 0.202521
Si Si7 0.219171 0.829126 0.953491
Si Si8 0.075778 0.170979 0.051244
O O1 0.750922 0.230095 0.577647
O O2 0.629955 0.240313 0.693040
O O3 0.745706 0.228189 0.823818
O O4 0.698241 0.000000 0.696943
O O5 0.863710 0.229028 0.433681
O O6 0.742477 0.225321 0.324850
O O7 0.784396 0.000000 0.451557
O O8 0.500000 0.314551 0.267930
O O9 0.398198 0.500000 0.294953
O O10 0.410348 0.284937 0.456046
O O11 0.376496 0.238923 0.212229
O O12 0.913011 0.226962 0.196370
O O13 0.000000 0.223557 0.392508
O O14 0.922322 0.000000 0.338502
O O15 0.500000 0.298367 0.645748
O O16 0.405334 0.500000 0.620480
O O17 0.691677 0.000000 0.200984
O O18 0.736552 0.226718 0.074274
O O19 0.218319 0.000000 0.953340
O O20 0.139653 0.771373 0.964443
O O21 0.000000 0.223942 0.999932
O O22 0.076977 0.000000 0.051700
#
# Coordination Sequence:
#
# PCOD8166323 Si02
#       8
#     4   4   4   4   4   4   4   4
#     4  10  19  30  45  68  96 123 151 188 230 268
#     4   9  15  24  39  62  89 115 149 188 223 261
#     4   9  18  32  49  70  94 116 144 189 236 271
#     4   8  12  19  34  57  86 120 154 186 222 265
#     4   9  18  33  51  69  90 117 150 188 228 272
#     4  10  17  28  47  68  91 119 151 185 224 272
#     4   9  17  28  41  63  96 127 152 186 229 266
#     4   8  12  20  36  57  84 121 157 182 216 271
#
# _framework density 17.071936000000001
#
# number of rings (size 3 to 8) (size 9 to 14) (size 15 to 20)
#    0.000    3.000    2.500    1.500    0.000    0.500 
#    0.000    3.125    0.000    7.500    0.000    0.000 
#    0.000    6.000    0.000    0.000    0.000    0.000 
#
# Total GULP energy -396569.022589 kJ/mol
# GULP energy per Si atom -12392.781956 kJ/mol
# Density = 1.703308 g / cm^3
# Si number density = 17.071936 Si / 1000 Ang^3
#
#
#
# Elastic Constant Matrix: (Units=GPa)
#
#
# Indices 1 2 3 4 5 6 
#
# 1 157.9856 30.0425 72.5923 0.0000 0.0000 0.0000
# 2 30.0425 17.3505 18.3540 0.0000 0.0000 0.0000
# 3 72.5923 18.3540 110.3999 0.0000 0.0000 0.0000
# 4 0.0000 0.0000 0.0000 10.7935 0.0000 0.0000
# 5 0.0000 0.0000 0.0000 0.0000 30.3610 0.0000
# 6 0.0000 0.0000 0.0000 0.0000 0.0000 2.1347
#
#
#
# Elastic Compliance Matrix: (Units=1/GPa)
#
#
# Indices 1 2 3 4 5 6 
#
# 1 0.011408 -0.014340 -0.005117 0.000000 0.000000 0.000000
# 2 -0.014340 0.087959 -0.005194 0.000000 0.000000 0.000000
# 3 -0.005117 -0.005194 0.013286 0.000000 0.000000 0.000000
# 4 0.000000 0.000000 0.000000 0.092648 0.000000 0.000000
# 5 0.000000 0.000000 0.000000 0.000000 0.032937 0.000000
# 6 0.000000 0.000000 0.000000 0.000000 0.000000 0.468447
#
#
# Mechanical properties :
#
#
# Convention : Reuss Voigt Hill
#
# Bulk Modulus (GPa) = 15.78501 58.63483 37.20992
# Shear Modulus (GPa) = 6.43414 19.64098 13.03756
#
# Velocity S-wave (km/s) = 1.94346 3.39556 2.76648
# Velocity P-wave (km/s) = 3.78183 7.05644 5.66108
#
# Compressibility (1/GPa) = 0.06335123
#
# Stress axis : x y z
#
# Youngs Moduli (GPa) = 87.65979 11.36888 75.26596
#
# Poissons Ratio (x) = 0.16303 0.38514
# Poissons Ratio (y) = 1.25701 0.39096
# Poissons Ratio (z) = 0.44856 0.05905
#
# Static dielectric constant tensor:
#      x y z
#    x 3.555300 0.000000 0.000000 
#    y 0.000000 2.598410 0.000000 
#    z 0.000000 0.000000 3.155560 
# 
# 
# High freq. dielectric constant tensor:
#      x y z
#    x 1.678810 0.000000 0.000000 
#    y 0.000000 1.597430 0.000000 
#    z 0.000000 0.000000 1.634590 
# 
# From -- ./inp_files/3532.got.cif
#   From: 2010.03.12/outbox.cif.g09.slc.cpg/sg25_2_cif.got.tgz:3532.got - 2010.04.14 03:30:10.
