data_PCOD8166458
_publ_section_title
;
Structure prediction by ZEFSAII (Michael W. Deem and Ramdas Pophale) SiO2 
 PCOD8166458
Probable space group: P M M 2
;
_chemical_formula_sum "Si O2"
_cell_formula_units_Z 32
_cell_length_a 15.128738
_cell_length_b 8.855478
_cell_length_c 15.266300
_cell_angle_alpha 90.000000
_cell_angle_beta 90.000000
_cell_angle_gamma 90.000000
_cell_volume 2045.259896
_symmetry_space_group_name_H-M "P M M 2"
_symmetry_group_IT_number 25
_symmetry_cell_setting 'orthorhombic'
loop_
_space_group_symop_operation_xyz
x,y,z
-x,-y,z
-x,y,z
x,-y,z
loop_
_atom_site_type_symbol
_atom_site_label
_atom_site_fract_x
_atom_site_fract_y
_atom_site_fract_z
Si Si1 0.104697 0.671934 0.813130
Si Si2 0.894658 0.170383 0.637176
Si Si3 0.403257 0.830794 0.153565
Si Si4 0.895784 0.825639 0.285897
Si Si5 0.773572 0.677548 0.145688
Si Si6 0.104997 0.330219 0.463443
Si Si7 0.407050 0.169010 0.945547
Si Si8 0.781573 0.819407 0.957521
O O1 0.137420 0.500000 0.817845
O O2 0.140531 0.743861 0.723154
O O3 0.140821 0.764275 0.895334
O O4 0.000000 0.683102 0.817683
O O5 0.856604 0.254288 0.551542
O O6 0.000000 0.171027 0.635361
O O7 0.858172 0.000000 0.638638
O O8 0.500000 0.771830 0.186888
O O9 0.322752 0.724379 0.184295
O O10 0.386800 0.000000 0.189793
O O11 0.403988 0.835181 0.049623
O O12 0.848747 0.725722 0.213073
O O13 0.863924 0.768191 0.380845
O O14 0.000000 0.802301 0.274339
O O15 0.868803 0.000000 0.276012
O O16 0.775679 0.500000 0.131732
O O17 0.797116 0.756245 0.054209
O O18 0.142639 0.500000 0.455208
O O19 0.000000 0.333846 0.468793
O O20 0.500000 0.251979 0.915876
O O21 0.313072 0.241963 0.917142
O O22 0.411459 0.000000 0.907987
O O23 0.780887 0.000000 0.963352
#
# Coordination Sequence:
#
# PCOD8166458 Si02
#       8
#     4   4   4   4   4   4   4   4
#     4  10  20  32  44  60  85 116 148 183 221 256
#     4   9  16  27  44  64  84 108 140 176 214 258
#     4   8  14  27  46  64  83 109 141 177 217 260
#     4  10  20  33  47  62  83 115 154 189 218 255
#     4  11  21  31  44  63  89 118 148 184 223 262
#     4   9  16  27  44  65  87 109 135 173 222 266
#     4   7  11  22  41  62  80 100 130 169 212 254
#     4  10  19  31  46  62  83 114 150 183 215 256
#
# _framework density 15.645934
#
# number of rings (size 3 to 8) (size 9 to 14) (size 15 to 20)
#    0.000    2.750    0.000    4.500    0.000    5.250 
#    0.000    0.000    0.000    1.125    0.000    0.000 
#    0.000    1.000    0.000    6.000    0.000    5.125 
#
# Total GULP energy -396507.789458 kJ/mol
# GULP energy per Si atom -12390.868421 kJ/mol
# Density = 1.561032 g / cm^3
# Si number density = 15.645934 Si / 1000 Ang^3
#
#
#
# Elastic Constant Matrix: (Units=GPa)
#
#
# Indices 1 2 3 4 5 6 
#
# 1 41.7206 29.8361 31.5620 0.0000 0.0000 0.0000
# 2 29.8361 98.9455 38.2054 0.0000 0.0000 0.0000
# 3 31.5620 38.2054 84.4352 0.0000 0.0000 0.0000
# 4 0.0000 0.0000 0.0000 26.4059 0.0000 0.0000
# 5 0.0000 0.0000 0.0000 0.0000 0.3234 0.0000
# 6 0.0000 0.0000 0.0000 0.0000 0.0000 16.6405
#
#
#
# Elastic Compliance Matrix: (Units=1/GPa)
#
#
# Indices 1 2 3 4 5 6 
#
# 1 0.037092 -0.007066 -0.010668 0.000000 0.000000 0.000000
# 2 -0.007066 0.013592 -0.003509 0.000000 0.000000 0.000000
# 3 -0.010668 -0.003509 0.017419 0.000000 0.000000 0.000000
# 4 0.000000 0.000000 0.000000 0.037870 0.000000 0.000000
# 5 0.000000 0.000000 0.000000 0.000000 3.091956 0.000000
# 6 0.000000 0.000000 0.000000 0.000000 0.000000 0.060094
#
#
# Mechanical properties :
#
#
# Convention : Reuss Voigt Hill
#
# Bulk Modulus (GPa) = 39.03529 47.14538 43.09034
# Shear Modulus (GPa) = 1.51101 17.04048 9.27574
#
# Velocity S-wave (km/s) = 0.98379 3.30378 2.43750
# Velocity P-wave (km/s) = 5.12775 6.68965 5.96008
#
# Compressibility (1/GPa) = 0.02561784
#
# Stress axis : x y z
#
# Youngs Moduli (GPa) = 26.95968 73.57228 57.40881
#
# Poissons Ratio (x) = 0.51984 0.61244
# Poissons Ratio (y) = 0.19049 0.20145
# Poissons Ratio (z) = 0.28761 0.25817
#
# Static dielectric constant tensor:
#      x y z
#    x 3.200490 0.000000 0.000000 
#    y 0.000000 3.057980 0.000000 
#    z 0.000000 0.000000 2.817390 
# 
# 
# High freq. dielectric constant tensor:
#      x y z
#    x 1.575370 0.000000 0.000000 
#    y 0.000000 1.604230 0.000000 
#    z 0.000000 0.000000 1.572890 
# 
# From -- ./inp_files/5757.got.cif
#   From: 2010.03.12/outbox.cif.g09.slc.cpg/sg25_3_cif.got.tgz:5757.got - 2010.04.14 03:30:10.
