data_PCOD8166005
_publ_section_title
;
Structure prediction by ZEFSAII (Michael W. Deem and Ramdas Pophale) SiO2 
 PCOD8166005
Probable space group: I 21 21 21
;
_chemical_formula_sum "Si O2"
_cell_formula_units_Z 48
_cell_length_a 32.854672
_cell_length_b 8.791902
_cell_length_c 8.065604
_cell_angle_alpha 90.000000
_cell_angle_beta 90.000000
_cell_angle_gamma 90.000000
_cell_volume 2329.790499
_symmetry_space_group_name_H-M "I 21 21 21"
_symmetry_group_IT_number 24
_symmetry_cell_setting 'orthorhombic'
loop_
_space_group_symop_operation_xyz
x,y,z
-x,1/2-y,z
x,-y,1/2-z
1/2-x,y,-z
1/2+x,1/2+y,1/2+z
1/2-x,-y,1/2+z
1/2+x,1/2-y,-z
-x,1/2+y,1/2-z
loop_
_atom_site_type_symbol
_atom_site_label
_atom_site_fract_x
_atom_site_fract_y
_atom_site_fract_z
Si Si1 0.786265 0.603534 0.604581
Si Si2 0.855354 0.164535 0.830755
Si Si3 0.916069 0.365452 0.642792
Si Si4 0.120394 0.668166 0.295033
Si Si5 0.153283 0.913786 0.091069
Si Si6 0.042054 0.829857 0.191710
O O1 0.767739 0.500000 0.750000
O O2 0.750000 0.685911 0.500000
O O3 0.816695 0.723103 0.694701
O O4 0.804806 0.485978 0.468378
O O5 0.897529 0.225574 0.749637
O O6 0.845696 0.000000 0.750000
O O7 0.858489 0.163867 0.027857
O O8 0.937041 0.500000 0.750000
O O9 0.877716 0.446805 0.556895
O O10 0.947924 0.308398 0.504767
O O11 0.108289 0.500000 0.250000
O O12 0.151787 0.736884 0.153802
O O13 0.078126 0.758926 0.300563
O O14 0.135370 0.000000 0.250000
O O15 0.000000 0.750000 0.232615
O O16 0.036530 0.000000 0.250000
#
# Coordination Sequence:
#
# PCOD8166005 Si02
#       6
#     8   8   8   8   8   8
#     4  12  25  42  66  96 130 170 221 275 329 392
#     4  12  23  41  66  96 130 166 219 277 326 388
#     4  11  19  39  66  95 124 167 219 266 310 384
#     4  11  23  39  67  96 126 168 219 270 323 395
#     4  11  18  37  65  94 121 163 218 258 314 381
#     4  11  24  41  64  93 134 173 213 266 329 394
#
# _framework density 20.602710999999999
#
# number of rings (size 3 to 8) (size 9 to 14) (size 15 to 20)
#    0.000    0.667    5.000    6.000    0.000    0.000 
#    0.000    7.500    0.000    0.000    0.000    0.000 
#    0.000    0.000    0.000    0.000    0.000    0.000 
#
# Total GULP energy -297389.695235 kJ/mol
# GULP energy per Si atom -12391.237301 kJ/mol
# Density = 2.055582 g / cm^3
# Si number density = 20.602711 Si / 1000 Ang^3
#
#
#
# Elastic Constant Matrix: (Units=GPa)
#
#
# Indices 1 2 3 4 5 6 
#
# 1 71.3785 36.9187 13.0080 0.0000 0.0000 0.0000
# 2 36.9187 131.0118 28.4586 0.0000 0.0000 0.0000
# 3 13.0080 28.4586 74.7095 0.0000 0.0000 0.0000
# 4 0.0000 0.0000 0.0000 39.3023 0.0000 0.0000
# 5 0.0000 0.0000 0.0000 0.0000 573.8143 0.0000
# 6 0.0000 0.0000 0.0000 0.0000 0.0000 22.7276
#
#
#
# Elastic Compliance Matrix: (Units=1/GPa)
#
#
# Indices 1 2 3 4 5 6 
#
# 1 0.016498 -0.004388 -0.001201 0.000000 0.000000 0.000000
# 2 -0.004388 0.009489 -0.002850 0.000000 0.000000 0.000000
# 3 -0.001201 -0.002850 0.014680 0.000000 0.000000 0.000000
# 4 0.000000 0.000000 0.000000 0.025444 0.000000 0.000000
# 5 0.000000 0.000000 0.000000 0.000000 0.001743 0.000000
# 6 0.000000 0.000000 0.000000 0.000000 0.000000 0.043999
#
#
# Mechanical properties :
#
#
# Convention : Reuss Voigt Hill
#
# Bulk Modulus (GPa) = 42.03844 48.20783 45.12314
# Shear Modulus (GPa) = 36.58669 140.41649 88.50159
#
# Velocity S-wave (km/s) = 4.21862 8.26452 6.56121
# Velocity P-wave (km/s) = 6.64662 10.70137 8.90778
#
# Compressibility (1/GPa) = 0.02378775
#
# Stress axis : x y z
#
# Youngs Moduli (GPa) = 60.61183 105.38869 68.11957
#
# Poissons Ratio (x) = 0.46248 0.08181
# Poissons Ratio (y) = 0.26598 0.19417
# Poissons Ratio (z) = 0.07279 0.30040
#
# Static dielectric constant tensor:
#      x y z
#    x 3.446980 0.000000 0.000000 
#    y 0.000000 3.515790 0.000000 
#    z 0.000000 0.000000 3.231900 
# 
# 
# High freq. dielectric constant tensor:
#      x y z
#    x 1.775250 0.000000 0.000000 
#    y 0.000000 1.804750 0.000000 
#    z 0.000000 0.000000 1.827650 
# 
# From -- ./inp_files/16797.got.cif
#   From: 2010.03.12/outbox.cif.g09.slc.cpg/sg24_9_cif.got.tgz:16797.got - 2010.04.14 03:06:53.
