data_PCOD8166682
_publ_section_title
;
Structure prediction by ZEFSAII (Michael W. Deem and Ramdas Pophale) SiO2 
 PCOD8166682
Probable space group: P M M 2
;
_chemical_formula_sum "Si O2"
_cell_formula_units_Z 28
_cell_length_a 9.532718
_cell_length_b 9.340433
_cell_length_c 18.137073
_cell_angle_alpha 90.000000
_cell_angle_beta 90.000000
_cell_angle_gamma 90.000000
_cell_volume 1614.919789
_symmetry_space_group_name_H-M "P M M 2"
_symmetry_group_IT_number 25
_symmetry_cell_setting 'orthorhombic'
loop_
_space_group_symop_operation_xyz
x,y,z
-x,-y,z
-x,y,z
x,-y,z
loop_
_atom_site_type_symbol
_atom_site_label
_atom_site_fract_x
_atom_site_fract_y
_atom_site_fract_z
Si Si1 0.334046 0.842659 0.172350
Si Si2 0.833320 0.162158 0.744051
Si Si3 0.663164 0.167348 0.007223
Si Si4 0.656236 0.329390 0.465820
Si Si5 0.165137 0.333227 0.886923
Si Si6 0.835878 0.333890 0.602522
Si Si7 0.667152 0.658329 0.305158
O O1 0.500000 0.850592 0.181758
O O2 0.267329 0.746982 0.237238
O O3 0.268691 0.000000 0.181330
O O4 0.299479 0.784300 0.090687
O O5 0.779606 0.250157 0.814665
O O6 0.777923 0.241974 0.671022
O O7 0.000000 0.161231 0.743193
O O8 0.774119 0.000000 0.746786
O O9 0.500000 0.194620 0.990003
O O10 0.756753 0.267411 0.956487
O O11 0.699343 0.000000 0.995176
O O12 0.500000 0.271865 0.483545
O O13 0.654201 0.500000 0.462126
O O14 0.760299 0.274863 0.529259
O O15 0.707461 0.273700 0.385128
O O16 0.202807 0.500000 0.878381
O O17 0.000000 0.310713 0.898044
O O18 0.800486 0.500000 0.617726
O O19 0.000000 0.310849 0.590603
O O20 0.500000 0.652031 0.299746
O O21 0.731114 0.500000 0.297926
#
# Coordination Sequence:
#
# PCOD8166682 Si02
#       7
#     4   4   4   4   4   4   4
#     4   8  14  25  41  62  88 116 146 181 219 258
#     4   9  17  30  48  67  87 115 150 184 220 265
#     4   9  18  32  49  70  96 124 154 189 230 276
#     4   8  14  25  41  62  88 115 142 175 217 262
#     4  10  20  33  50  72  95 119 152 192 230 272
#     4   9  16  27  45  66  85 108 143 184 220 257
#     4   8  13  22  38  59  81 109 147 183 212 251
#
# _framework density 17.338322000000002
#
# number of rings (size 3 to 8) (size 9 to 14) (size 15 to 20)
#    0.000    3.286    0.000    2.571    0.000    3.429 
#    0.000    2.857    0.000    4.714    0.000    2.000 
#    0.000    0.000    0.000    0.000    0.000    0.000 
#
# Total GULP energy -347021.276038 kJ/mol
# GULP energy per Si atom -12393.617001 kJ/mol
# Density = 1.729886 g / cm^3
# Si number density = 17.338322 Si / 1000 Ang^3
#
#
#
# Elastic Constant Matrix: (Units=GPa)
#
#
# Indices 1 2 3 4 5 6 
#
# 1 30.1392 29.6444 43.5718 0.0000 0.0000 0.0000
# 2 29.6444 95.7801 82.1403 0.0000 0.0000 0.0000
# 3 43.5718 82.1403 181.1585 0.0000 0.0000 0.0000
# 4 0.0000 0.0000 0.0000 23.7876 0.0000 0.0000
# 5 0.0000 0.0000 0.0000 0.0000 5.3482 0.0000
# 6 0.0000 0.0000 0.0000 0.0000 0.0000 16.1614
#
#
#
# Elastic Compliance Matrix: (Units=1/GPa)
#
#
# Indices 1 2 3 4 5 6 
#
# 1 0.055589 -0.009390 -0.009112 0.000000 0.000000 0.000000
# 2 -0.009390 0.018670 -0.006207 0.000000 0.000000 0.000000
# 3 -0.009112 -0.006207 0.010526 0.000000 0.000000 0.000000
# 4 0.000000 0.000000 0.000000 0.042039 0.000000 0.000000
# 5 0.000000 0.000000 0.000000 0.000000 0.186980 0.000000
# 6 0.000000 0.000000 0.000000 0.000000 0.000000 0.061876
#
#
# Mechanical properties :
#
#
# Convention : Reuss Voigt Hill
#
# Bulk Modulus (GPa) = 28.27571 68.64342 48.45957
# Shear Modulus (GPa) = 11.44462 19.17419 15.30940
#
# Velocity S-wave (km/s) = 2.57198 3.32909 2.97472
# Velocity P-wave (km/s) = 5.01635 7.37927 6.30941
#
# Compressibility (1/GPa) = 0.03536604
#
# Stress axis : x y z
#
# Youngs Moduli (GPa) = 17.98908 53.56288 95.00370
#
# Poissons Ratio (x) = 0.50297 0.86572
# Poissons Ratio (y) = 0.16892 0.58965
# Poissons Ratio (z) = 0.16393 0.33244
#
# Static dielectric constant tensor:
#      x y z
#    x 2.840840 0.000000 0.000000 
#    y 0.000000 3.297400 0.000000 
#    z 0.000000 0.000000 3.567000 
# 
# 
# High freq. dielectric constant tensor:
#      x y z
#    x 1.616130 0.000000 0.000000 
#    y 0.000000 1.655660 0.000000 
#    z 0.000000 0.000000 1.688250 
# 
# From -- ./inp_files/6241.got.cif
#   From: 2010.03.12/outbox.cif.g09.slc.cpg/sg25_4_cif.got.tgz:6241.got - 2010.04.14 03:30:10.
