data_PCOD8166263
_publ_section_title
;
Structure prediction by ZEFSAII (Michael W. Deem and Ramdas Pophale) SiO2 
 PCOD8166263
Probable space group: I 21 21 21
;
_chemical_formula_sum "Si O2"
_cell_formula_units_Z 20
_cell_length_a 15.519080
_cell_length_b 4.877014
_cell_length_c 11.175447
_cell_angle_alpha 90.000000
_cell_angle_beta 90.000000
_cell_angle_gamma 90.000000
_cell_volume 845.833492
_symmetry_space_group_name_H-M "I 21 21 21"
_symmetry_group_IT_number 24
_symmetry_cell_setting 'orthorhombic'
loop_
_space_group_symop_operation_xyz
x,y,z
-x,1/2-y,z
x,-y,1/2-z
1/2-x,y,-z
1/2+x,1/2+y,1/2+z
1/2-x,-y,1/2+z
1/2+x,1/2-y,-z
-x,1/2+y,1/2-z
loop_
_atom_site_type_symbol
_atom_site_label
_atom_site_fract_x
_atom_site_fract_y
_atom_site_fract_z
Si Si1 0.406349 0.628480 0.372014
Si Si2 0.653024 0.363458 0.507708
Si Si3 0.561440 0.500000 0.750000
O O1 0.500000 0.750000 0.347265
O O2 0.367467 0.500000 0.250000
O O3 0.410618 0.381841 0.467697
O O4 0.347758 0.875813 0.419089
O O5 0.750000 0.247691 0.500000
O O6 0.624486 0.444142 0.639850
O O7 0.500000 0.750000 0.715038
#
# Coordination Sequence:
#
# PCOD8166263 Si02
#       3
#     8   8   4
#     4  12  25  45  75 105 141 190 239 296 361 442
#     4  12  27  46  72 107 150 187 244 304 366 429
#     4  12  26  46  76 102 144 198 246 296 362 450
#
# _framework density 23.645315
#
# number of rings (size 3 to 8) (size 9 to 14) (size 15 to 20)
#    0.000    0.000    0.000   12.000    5.600    0.000 
#    0.000    0.000    0.000    0.000    0.000    0.000 
#    0.000    0.000    0.000    0.000    0.000    0.000 
#
# Total GULP energy -124067.238163 kJ/mol
# GULP energy per Si atom -12406.723816 kJ/mol
# Density = 2.359150 g / cm^3
# Si number density = 23.645315 Si / 1000 Ang^3
#
#
#
# Elastic Constant Matrix: (Units=GPa)
#
#
# Indices 1 2 3 4 5 6 
#
# 1 86.4361 21.6328 43.8945 0.0000 0.0000 0.0000
# 2 21.6328 158.4483 47.4271 0.0000 0.0000 0.0000
# 3 43.8945 47.4271 113.8332 0.0000 0.0000 0.0000
# 4 0.0000 0.0000 0.0000 41.6174 0.0000 0.0000
# 5 0.0000 0.0000 0.0000 0.0000 41.4610 0.0000
# 6 0.0000 0.0000 0.0000 0.0000 0.0000 35.1632
#
#
#
# Elastic Compliance Matrix: (Units=1/GPa)
#
#
# Indices 1 2 3 4 5 6 
#
# 1 0.014403 -0.000347 -0.005409 0.000000 0.000000 0.000000
# 2 -0.000347 0.007219 -0.002874 0.000000 0.000000 0.000000
# 3 -0.005409 -0.002874 0.012068 0.000000 0.000000 0.000000
# 4 0.000000 0.000000 0.000000 0.024028 0.000000 0.000000
# 5 0.000000 0.000000 0.000000 0.000000 0.024119 0.000000
# 6 0.000000 0.000000 0.000000 0.000000 0.000000 0.028439
#
#
# Mechanical properties :
#
#
# Convention : Reuss Voigt Hill
#
# Bulk Modulus (GPa) = 60.86670 64.95849 62.91259
# Shear Modulus (GPa) = 37.59037 40.03254 38.81146
#
# Velocity S-wave (km/s) = 3.99150 4.11912 4.05582
# Velocity P-wave (km/s) = 6.85859 7.08199 6.97118
#
# Compressibility (1/GPa) = 0.01642935
#
# Stress axis : x y z
#
# Youngs Moduli (GPa) = 69.42962 138.52745 82.86487
#
# Poissons Ratio (x) = 0.04812 0.44823
# Poissons Ratio (y) = 0.02412 0.23813
# Poissons Ratio (z) = 0.37556 0.39808
#
# Static dielectric constant tensor:
#      x y z
#    x 3.929820 0.000000 0.000000 
#    y 0.000000 4.669850 0.000000 
#    z 0.000000 0.000000 4.315090 
# 
# 
# High freq. dielectric constant tensor:
#      x y z
#    x 1.923580 0.000000 0.000000 
#    y 0.000000 1.961700 0.000000 
#    z 0.000000 0.000000 1.949280 
# 
# From -- ./inp_files/1608.got.cif
#   From: 2010.03.12/outbox.cif.g09.slc.cpg/sg24_1_cif.got.tgz:1608.got - 2010.04.14 03:06:53.
