data_PCOD8166529
_publ_section_title
;
Structure prediction by ZEFSAII (Michael W. Deem and Ramdas Pophale) SiO2 
 PCOD8166529
Probable space group: P M M 2
;
_chemical_formula_sum "Si O2"
_cell_formula_units_Z 24
_cell_length_a 7.962165
_cell_length_b 9.434651
_cell_length_c 17.089458
_cell_angle_alpha 90.000000
_cell_angle_beta 90.000000
_cell_angle_gamma 90.000000
_cell_volume 1283.764323
_symmetry_space_group_name_H-M "P M M 2"
_symmetry_group_IT_number 25
_symmetry_cell_setting 'orthorhombic'
loop_
_space_group_symop_operation_xyz
x,y,z
-x,-y,z
-x,y,z
x,-y,z
loop_
_atom_site_type_symbol
_atom_site_label
_atom_site_fract_x
_atom_site_fract_y
_atom_site_fract_z
Si Si1 0.310330 0.668558 0.921920
Si Si2 0.193120 0.338259 0.755805
Si Si3 0.814303 0.668169 0.086082
Si Si4 0.308645 0.157594 0.615724
Si Si5 0.500000 0.330829 0.189477
Si Si6 0.185728 0.168047 0.453174
Si Si7 0.500000 0.169480 0.351515
O O1 0.500000 0.724358 0.923935
O O2 0.303256 0.500000 0.923631
O O3 0.223307 0.724852 0.842619
O O4 0.215542 0.728689 0.998440
O O5 0.256230 0.500000 0.752898
O O6 0.297523 0.252323 0.692558
O O7 0.000000 0.325099 0.733520
O O8 0.806893 0.500000 0.083017
O O9 0.666836 0.720875 0.143395
O O10 0.000000 0.719057 0.114717
O O11 0.500000 0.149077 0.588214
O O12 0.208944 0.225055 0.542025
O O13 0.240363 0.000000 0.635681
O O14 0.500000 0.500000 0.202572
O O15 0.500000 0.248328 0.269867
O O16 0.332501 0.224036 0.396330
O O17 0.000000 0.215484 0.422953
O O18 0.200985 0.000000 0.456870
O O19 0.500000 0.000000 0.339781
#
# Coordination Sequence:
#
# PCOD8166529 Si02
#       7
#     4   4   4   4   2   4   2
#     4   9  15  26  45  69  98 133 172 208 242 285
#     4  10  20  31  45  72 107 138 171 211 254 299
#     4   9  16  28  48  73 101 133 168 204 243 293
#     4  10  19  33  53  75  99 131 174 216 252 297
#     4  10  20  34  52  77 104 128 158 203 256 300
#     4   9  17  32  55  78  99 128 168 210 246 289
#     4  10  20  36  56  77 100 128 164 203 246 304
#
# _framework density 18.69502
#
# number of rings (size 3 to 8) (size 9 to 14) (size 15 to 20)
#    0.000    2.500    1.667    1.500    0.000    4.667 
#    0.000    0.833    0.000    2.000    0.000    0.000 
#    0.000    0.000    0.000    0.000    0.000    0.000 
#
# Total GULP energy -297474.875180 kJ/mol
# GULP energy per Si atom -12394.786466 kJ/mol
# Density = 1.865247 g / cm^3
# Si number density = 18.695020 Si / 1000 Ang^3
#
#
#
# Elastic Constant Matrix: (Units=GPa)
#
#
# Indices 1 2 3 4 5 6 
#
# 1 140.0140 19.7210 69.0128 0.0000 0.0000 0.0000
# 2 19.7210 25.4405 32.3963 0.0000 0.0000 0.0000
# 3 69.0128 32.3963 151.8862 0.0000 0.0000 0.0000
# 4 0.0000 0.0000 0.0000 76.8972 0.0000 0.0000
# 5 0.0000 0.0000 0.0000 0.0000 25.3691 0.0000
# 6 0.0000 0.0000 0.0000 0.0000 0.0000 11.7393
#
#
#
# Elastic Compliance Matrix: (Units=1/GPa)
#
#
# Indices 1 2 3 4 5 6 
#
# 1 0.009319 -0.002515 -0.003698 0.000000 0.000000 0.000000
# 2 -0.002515 0.054644 -0.010512 0.000000 0.000000 0.000000
# 3 -0.003698 -0.010512 0.010506 0.000000 0.000000 0.000000
# 4 0.000000 0.000000 0.000000 0.013004 0.000000 0.000000
# 5 0.000000 0.000000 0.000000 0.000000 0.039418 0.000000
# 6 0.000000 0.000000 0.000000 0.000000 0.000000 0.085184
#
#
# Mechanical properties :
#
#
# Convention : Reuss Voigt Hill
#
# Bulk Modulus (GPa) = 24.37932 62.17789 43.27861
# Shear Modulus (GPa) = 19.29022 35.88183 27.58603
#
# Velocity S-wave (km/s) = 3.21571 4.38576 3.84550
# Velocity P-wave (km/s) = 5.18233 7.67970 6.55112
#
# Compressibility (1/GPa) = 0.04101837
#
# Stress axis : x y z
#
# Youngs Moduli (GPa) = 107.30681 18.30043 95.18089
#
# Poissons Ratio (x) = 0.04603 0.35197
# Poissons Ratio (y) = 0.26988 1.00058
# Poissons Ratio (z) = 0.39681 0.19238
#
# Static dielectric constant tensor:
#      x y z
#    x 3.707160 0.000000 0.000000 
#    y 0.000000 2.822280 0.000000 
#    z 0.000000 0.000000 3.462660 
# 
# 
# High freq. dielectric constant tensor:
#      x y z
#    x 1.744870 0.000000 0.000000 
#    y 0.000000 1.654230 0.000000 
#    z 0.000000 0.000000 1.730610 
# 
# From -- ./inp_files/3992.got.cif
#   From: 2010.03.12/outbox.cif.g09.slc.cpg/sg25_2_cif.got.tgz:3992.got - 2010.04.14 03:30:10.
