data_PCOD8166916
_publ_section_title
;
Structure prediction by ZEFSAII (Michael W. Deem and Ramdas Pophale) SiO2 
 PCOD8166916
Probable space group: P M M 2
;
_chemical_formula_sum "Si O2"
_cell_formula_units_Z 20
_cell_length_a 8.935443
_cell_length_b 7.693199
_cell_length_c 14.453398
_cell_angle_alpha 90.000000
_cell_angle_beta 90.000000
_cell_angle_gamma 90.000000
_cell_volume 993.557525
_symmetry_space_group_name_H-M "P M M 2"
_symmetry_group_IT_number 25
_symmetry_cell_setting 'orthorhombic'
loop_
_space_group_symop_operation_xyz
x,y,z
-x,-y,z
-x,y,z
x,-y,z
loop_
_atom_site_type_symbol
_atom_site_label
_atom_site_fract_x
_atom_site_fract_y
_atom_site_fract_z
Si Si1 0.170919 0.703765 0.041020
Si Si2 0.171742 0.695477 0.397943
Si Si3 0.331682 0.802839 0.222082
Si Si4 0.324243 0.698164 0.850502
Si Si5 0.677040 0.000000 0.716994
Si Si6 0.322112 0.000000 0.508855
O O1 0.185472 0.500000 0.058183
O O2 0.261703 0.800373 0.120489
O O3 0.000000 0.766531 0.043241
O O4 0.240287 0.756679 0.943023
O O5 0.187064 0.500000 0.437771
O O6 0.232645 0.692580 0.293142
O O7 0.000000 0.756547 0.396428
O O8 0.265935 0.824818 0.461052
O O9 0.500000 0.726890 0.218646
O O10 0.334197 0.000000 0.258425
O O11 0.500000 0.718593 0.868855
O O12 0.283523 0.500000 0.822614
O O13 0.267938 0.825647 0.769223
O O14 0.500000 0.000000 0.712346
O O15 0.741702 0.000000 0.613383
O O16 0.500000 0.000000 0.505023
#
# Coordination Sequence:
#
# PCOD8166916 Si02
#       6
#     4   4   4   4   2   2
#     4  10  21  36  54  81 118 157 196 238 287 347
#     4  11  24  42  64  89 121 161 200 244 300 359
#     4  11  23  37  57  87 120 156 199 246 293 347
#     4   9  18  35  58  83 114 152 193 240 290 341
#     4   9  20  37  60  87 114 145 191 244 296 353
#     4  11  23  41  64  93 122 153 197 252 306 359
#
# _framework density 20.129686
#
# number of rings (size 3 to 8) (size 9 to 14) (size 15 to 20)
#    0.000    1.800    1.000    2.700    1.400    7.200 
#    0.000    4.000    0.000    2.400    0.000    0.000 
#    0.000    0.000    0.000    0.000    0.000    0.000 
#
# Total GULP energy -248068.505180 kJ/mol
# GULP energy per Si atom -12403.425259 kJ/mol
# Density = 2.008387 g / cm^3
# Si number density = 20.129686 Si / 1000 Ang^3
#
#
#
# Elastic Constant Matrix: (Units=GPa)
#
#
# Indices 1 2 3 4 5 6 
#
# 1 113.4933 39.2583 54.0871 0.0000 0.0000 0.0000
# 2 39.2583 100.5300 57.1380 0.0000 0.0000 0.0000
# 3 54.0871 57.1380 142.5611 0.0000 0.0000 0.0000
# 4 0.0000 0.0000 0.0000 24.0318 0.0000 0.0000
# 5 0.0000 0.0000 0.0000 0.0000 3.6106 0.0000
# 6 0.0000 0.0000 0.0000 0.0000 0.0000 21.0981
#
#
#
# Elastic Compliance Matrix: (Units=1/GPa)
#
#
# Indices 1 2 3 4 5 6 
#
# 1 0.011237 -0.002545 -0.003243 0.000000 0.000000 0.000000
# 2 -0.002545 0.013458 -0.004428 0.000000 0.000000 0.000000
# 3 -0.003243 -0.004428 0.010020 0.000000 0.000000 0.000000
# 4 0.000000 0.000000 0.000000 0.041612 0.000000 0.000000
# 5 0.000000 0.000000 0.000000 0.000000 0.276964 0.000000
# 6 0.000000 0.000000 0.000000 0.000000 0.000000 0.047398
#
#
# Mechanical properties :
#
#
# Convention : Reuss Voigt Hill
#
# Bulk Modulus (GPa) = 70.01893 73.06124 71.54009
# Shear Modulus (GPa) = 11.74033 23.48817 17.61425
#
# Velocity S-wave (km/s) = 2.41765 3.41961 2.96131
# Velocity P-wave (km/s) = 6.53091 7.20873 6.87817
#
# Compressibility (1/GPa) = 0.01428185
#
# Stress axis : x y z
#
# Youngs Moduli (GPa) = 88.99157 74.30501 99.80083
#
# Poissons Ratio (x) = 0.18909 0.32369
# Poissons Ratio (y) = 0.22647 0.44196
# Poissons Ratio (z) = 0.28863 0.32906
#
# Static dielectric constant tensor:
#      x y z
#    x 3.644960 0.000000 0.000000 
#    y 0.000000 3.677470 0.000000 
#    z 0.000000 0.000000 3.685610 
# 
# 
# High freq. dielectric constant tensor:
#      x y z
#    x 1.782990 0.000000 0.000000 
#    y 0.000000 1.793660 0.000000 
#    z 0.000000 0.000000 1.780940 
# 
# From -- ./inp_files/5191.got.cif
#   From: 2010.03.12/outbox.cif.g09.slc.cpg/sg25_3_cif.got.tgz:5191.got - 2010.04.14 03:30:10.
