data_PCOD8166260
_publ_section_title
;
Structure prediction by ZEFSAII (Michael W. Deem and Ramdas Pophale) SiO2 
 PCOD8166260
Probable space group: I 21 21 21
;
_chemical_formula_sum "Si O2"
_cell_formula_units_Z 36
_cell_length_a 9.118423
_cell_length_b 8.305898
_cell_length_c 21.410463
_cell_angle_alpha 90.000000
_cell_angle_beta 90.000000
_cell_angle_gamma 90.000000
_cell_volume 1621.557628
_symmetry_space_group_name_H-M "I 21 21 21"
_symmetry_group_IT_number 24
_symmetry_cell_setting 'orthorhombic'
loop_
_space_group_symop_operation_xyz
x,y,z
-x,1/2-y,z
x,-y,1/2-z
1/2-x,y,-z
1/2+x,1/2+y,1/2+z
1/2-x,-y,1/2+z
1/2+x,1/2-y,-z
-x,1/2+y,1/2-z
loop_
_atom_site_type_symbol
_atom_site_label
_atom_site_fract_x
_atom_site_fract_y
_atom_site_fract_z
Si Si1 0.653493 0.681076 0.438907
Si Si2 0.917115 0.402746 0.309205
Si Si3 0.398484 0.395435 0.908592
Si Si4 0.250000 0.372296 0.500000
Si Si5 0.141222 0.835195 0.888441
O O1 0.500000 0.750000 0.461104
O O2 0.750000 0.641144 0.500000
O O3 0.740138 0.810820 0.394383
O O4 0.617854 0.523155 0.399494
O O5 0.856682 0.500000 0.250000
O O6 0.784436 0.321764 0.346374
O O7 0.000000 0.250000 0.281247
O O8 0.025902 0.512643 0.351013
O O9 0.500000 0.250000 0.931575
O O10 0.373428 0.518365 0.966098
O O11 0.163295 0.261318 0.547702
O O12 0.000000 0.750000 0.855541
#
# Coordination Sequence:
#
# PCOD8166260 Si02
#       5
#     8   8   8   4   8
#     4  12  26  42  67 106 157 202 244 306 387 485
#     4  12  28  53  80 110 146 209 276 329 385 473
#     4  12  25  44  74 111 151 201 254 319 394 473
#     4  12  26  40  70 116 160 192 246 308 412 478
#     4  12  28  45  72 111 155 203 245 329 404 474
#
# _framework density 22.200873999999999
#
# number of rings (size 3 to 8) (size 9 to 14) (size 15 to 20)
#    0.000    0.000    6.667    2.667    6.222    0.000 
#    0.000    2.222    0.000    0.000    0.000    0.000 
#    0.000    0.000    0.000    0.000    0.000    0.000 
#
# Total GULP energy -223114.807453 kJ/mol
# GULP energy per Si atom -12395.267081 kJ/mol
# Density = 2.215034 g / cm^3
# Si number density = 22.200874 Si / 1000 Ang^3
#
#
#
# Elastic Constant Matrix: (Units=GPa)
#
#
# Indices 1 2 3 4 5 6 
#
# 1 142.4834 57.4524 34.0073 0.0000 0.0000 0.0000
# 2 57.4524 123.9535 36.3559 0.0000 0.0000 0.0000
# 3 34.0073 36.3559 81.4184 0.0000 0.0000 0.0000
# 4 0.0000 0.0000 0.0000 -4.8712 0.0000 0.0000
# 5 0.0000 0.0000 0.0000 0.0000 9.4955 0.0000
# 6 0.0000 0.0000 0.0000 0.0000 0.0000 49.5206
#
#
#
# Elastic Compliance Matrix: (Units=1/GPa)
#
#
# Indices 1 2 3 4 5 6 
#
# 1 0.008953 -0.003513 -0.002171 0.000000 0.000000 0.000000
# 2 -0.003513 0.010662 -0.003294 0.000000 0.000000 0.000000
# 3 -0.002171 -0.003294 0.014660 0.000000 0.000000 0.000000
# 4 0.000000 0.000000 0.000000 -0.205289 0.000000 0.000000
# 5 0.000000 0.000000 0.000000 0.000000 0.105313 0.000000
# 6 0.000000 0.000000 0.000000 0.000000 0.000000 0.020194
#
#
# Mechanical properties :
#
#
# Convention : Reuss Voigt Hill
#
# Bulk Modulus (GPa) = 61.27568 67.05405 64.16486
# Shear Modulus (GPa) = -226.10471 25.49830 -100.30320
#
# Velocity S-wave (km/s) = -10.10277 3.39267 -6.72889
# Velocity P-wave (km/s) = 10.41286 6.75395 5.60409
#
# Compressibility (1/GPa) = 0.01631969
#
# Stress axis : x y z
#
# Youngs Moduli (GPa) = 111.69423 93.79282 68.21452
#
# Poissons Ratio (x) = 0.32949 0.14809
# Poissons Ratio (y) = 0.39238 0.22466
# Poissons Ratio (z) = 0.24248 0.30891
#
# Static dielectric constant tensor:
#      x y z
#    x 4.664190 0.000000 0.000000 
#    y 0.000000 4.627200 0.000000 
#    z 0.000000 0.000000 3.645390 
# 
# 
# High freq. dielectric constant tensor:
#      x y z
#    x 1.887210 0.000000 0.000000 
#    y 0.000000 1.905170 0.000000 
#    z 0.000000 0.000000 1.829590 
# 
# From -- ./inp_files/14813.got.cif
#   From: 2010.03.12/outbox.cif.g09.slc.cpg/sg24_8_cif.got.tgz:14813.got - 2010.04.14 03:06:53.
