data_PCOD8166383
_publ_section_title
;
Structure prediction by ZEFSAII (Michael W. Deem and Ramdas Pophale) SiO2 
 PCOD8166383
Probable space group: P M M 2
;
_chemical_formula_sum "Si O2"
_cell_formula_units_Z 32
_cell_length_a 8.821223
_cell_length_b 14.645013
_cell_length_c 12.465705
_cell_angle_alpha 90.000000
_cell_angle_beta 90.000000
_cell_angle_gamma 90.000000
_cell_volume 1610.406103
_symmetry_space_group_name_H-M "P M M 2"
_symmetry_group_IT_number 25
_symmetry_cell_setting 'orthorhombic'
loop_
_space_group_symop_operation_xyz
x,y,z
-x,-y,z
-x,y,z
x,-y,z
loop_
_atom_site_type_symbol
_atom_site_label
_atom_site_fract_x
_atom_site_fract_y
_atom_site_fract_z
Si Si1 0.327977 0.669301 0.751070
Si Si2 0.822374 0.273536 0.132127
Si Si3 0.820212 0.294042 0.539266
Si Si4 0.819373 0.603818 0.328734
Si Si5 0.174162 0.902821 0.595734
Si Si6 0.672829 0.600187 0.970785
Si Si7 0.674740 0.101673 0.045340
Si Si8 0.825750 0.154541 0.830743
O O1 0.500000 0.676586 0.710830
O O2 0.226595 0.650574 0.646069
O O3 0.306080 0.592047 0.841747
O O4 0.281130 0.759336 0.814793
O O5 0.759402 0.335391 0.229789
O O6 0.741887 0.174801 0.130099
O O7 0.000000 0.257009 0.143544
O O8 0.786775 0.326618 0.022045
O O9 0.756690 0.347635 0.436350
O O10 0.751719 0.189897 0.545896
O O11 0.000000 0.289423 0.536701
O O12 0.755944 0.500000 0.321329
O O13 0.000000 0.601157 0.329269
O O14 0.188151 0.906448 0.724384
O O15 0.000000 0.901326 0.560916
O O16 0.246445 0.000000 0.554172
O O17 0.500000 0.629439 0.997463
O O18 0.708991 0.500000 0.018358
O O19 0.500000 0.125493 0.022458
O O20 0.691119 0.000000 0.095391
O O21 0.767040 0.100873 0.934222
O O22 0.000000 0.184587 0.849337
#
# Coordination Sequence:
#
# PCOD8166383 Si02
#       8
#     4   4   4   4   4   4   4   4
#     4  10  19  32  51  77 115 153 183 226 283 337
#     4  11  22  37  59  83 109 143 191 245 289 338
#     4   9  18  33  54  78 105 141 186 232 282 338
#     4   9  19  37  59  83 110 141 183 241 299 342
#     4   8  14  25  44  73 106 137 173 217 264 316
#     4  10  21  36  54  78 112 151 184 224 287 352
#     4  11  23  37  54  79 114 154 189 225 280 345
#     4  10  18  30  51  78 109 148 191 231 273 325
#
# _framework density 19.870764000000001
#
# number of rings (size 3 to 8) (size 9 to 14) (size 15 to 20)
#    0.000    2.250    1.250    3.000    0.000    3.250 
#    0.000    1.875    0.000    7.125    0.000    0.000 
#    0.000    0.000    0.000    0.000    0.000    0.000 
#
# Total GULP energy -396563.995169 kJ/mol
# GULP energy per Si atom -12392.624849 kJ/mol
# Density = 1.982554 g / cm^3
# Si number density = 19.870764 Si / 1000 Ang^3
#
#
#
# Elastic Constant Matrix: (Units=GPa)
#
#
# Indices 1 2 3 4 5 6 
#
# 1 37.2049 27.4861 19.8860 0.0000 0.0000 0.0000
# 2 27.4861 133.8253 58.9103 0.0000 0.0000 0.0000
# 3 19.8860 58.9103 109.6616 0.0000 0.0000 0.0000
# 4 0.0000 0.0000 0.0000 22.8737 0.0000 0.0000
# 5 0.0000 0.0000 0.0000 0.0000 13.3413 0.0000
# 6 0.0000 0.0000 0.0000 0.0000 0.0000 20.5899
#
#
#
# Elastic Compliance Matrix: (Units=1/GPa)
#
#
# Indices 1 2 3 4 5 6 
#
# 1 0.032430 -0.005333 -0.003016 0.000000 0.000000 0.000000
# 2 -0.005333 0.010664 -0.004761 0.000000 0.000000 0.000000
# 3 -0.003016 -0.004761 0.012224 0.000000 0.000000 0.000000
# 4 0.000000 0.000000 0.000000 0.043718 0.000000 0.000000
# 5 0.000000 0.000000 0.000000 0.000000 0.074955 0.000000
# 6 0.000000 0.000000 0.000000 0.000000 0.000000 0.048568
#
#
# Mechanical properties :
#
#
# Convention : Reuss Voigt Hill
#
# Bulk Modulus (GPa) = 34.36825 54.80628 44.58727
# Shear Modulus (GPa) = 19.34395 22.98829 21.16612
#
# Velocity S-wave (km/s) = 3.12346 3.40500 3.26726
# Velocity P-wave (km/s) = 5.50831 6.56505 6.05976
#
# Compressibility (1/GPa) = 0.02909662
#
# Stress axis : x y z
#
# Youngs Moduli (GPa) = 30.83551 93.77511 81.80801
#
# Poissons Ratio (x) = 0.50012 0.24672
# Poissons Ratio (y) = 0.16445 0.38953
# Poissons Ratio (z) = 0.09300 0.44651
#
# Static dielectric constant tensor:
#      x y z
#    x 3.324480 0.000000 0.000000 
#    y 0.000000 3.898800 0.000000 
#    z 0.000000 0.000000 3.575690 
# 
# 
# High freq. dielectric constant tensor:
#      x y z
#    x 1.746970 0.000000 0.000000 
#    y 0.000000 1.784460 0.000000 
#    z 0.000000 0.000000 1.753320 
# 
# From -- ./inp_files/4176.got.cif
#   From: 2010.03.12/outbox.cif.g09.slc.cpg/sg25_3_cif.got.tgz:4176.got - 2010.04.14 03:30:10.
