data_PCOD8166741
_publ_section_title
;
Structure prediction by ZEFSAII (Michael W. Deem and Ramdas Pophale) SiO2 
 PCOD8166741
Probable space group: P M M 2
;
_chemical_formula_sum "Si O2"
_cell_formula_units_Z 24
_cell_length_a 8.832538
_cell_length_b 11.626998
_cell_length_c 12.746035
_cell_angle_alpha 90.000000
_cell_angle_beta 90.000000
_cell_angle_gamma 90.000000
_cell_volume 1308.965557
_symmetry_space_group_name_H-M "P M M 2"
_symmetry_group_IT_number 25
_symmetry_cell_setting 'orthorhombic'
loop_
_space_group_symop_operation_xyz
x,y,z
-x,-y,z
-x,y,z
x,-y,z
loop_
_atom_site_type_symbol
_atom_site_label
_atom_site_fract_x
_atom_site_fract_y
_atom_site_fract_z
Si Si1 0.821736 0.869292 0.757800
Si Si2 0.675691 0.724160 0.170047
Si Si3 0.672773 0.133398 0.376989
Si Si4 0.822448 0.271569 0.555948
Si Si5 0.320857 0.129988 0.972708
Si Si6 0.822143 0.500000 0.251866
Si Si7 0.321213 0.500000 0.481407
O O1 0.767674 0.789445 0.662431
O O2 0.745123 0.822299 0.863614
O O3 0.000000 0.863139 0.772276
O O4 0.769064 0.000000 0.734261
O O5 0.500000 0.689091 0.161147
O O6 0.702588 0.811599 0.264570
O O7 0.774653 0.610766 0.185431
O O8 0.735179 0.787051 0.065447
O O9 0.500000 0.155214 0.413455
O O10 0.787031 0.188144 0.459513
O O11 0.710097 0.000000 0.367126
O O12 0.731843 0.389576 0.545861
O O13 0.000000 0.298094 0.556800
O O14 0.500000 0.130654 0.966483
O O15 0.261669 0.000000 0.993301
O O16 0.743219 0.500000 0.364498
O O17 0.000000 0.500000 0.270907
O O18 0.500000 0.500000 0.471037
#
# Coordination Sequence:
#
# PCOD8166741 Si02
#       7
#     4   4   4   4   4   2   2
#     4   9  19  36  57  82 115 151 183 224 280 334
#     4  10  20  36  57  81 113 149 186 230 280 329
#     4  10  20  33  53  82 114 147 182 224 279 339
#     4  11  22  37  57  82 112 147 189 234 281 335
#     4   9  18  34  58  86 114 146 186 230 275 328
#     4  12  24  38  57  82 111 148 191 231 275 335
#     4  12  24  40  59  80 109 148 189 233 285 339
#
# _framework density 18.335089
#
# number of rings (size 3 to 8) (size 9 to 14) (size 15 to 20)
#    0.000    1.833    1.667    3.000    0.000    5.000 
#    0.000    2.500    0.000    3.000    0.000    0.000 
#    0.000    0.000    0.000    0.000    0.000    0.000 
#
# Total GULP energy -297693.670019 kJ/mol
# GULP energy per Si atom -12403.902917 kJ/mol
# Density = 1.829336 g / cm^3
# Si number density = 18.335089 Si / 1000 Ang^3
#
#
#
# Elastic Constant Matrix: (Units=GPa)
#
#
# Indices 1 2 3 4 5 6 
#
# 1 72.0671 48.5238 49.5820 0.0000 0.0000 0.0000
# 2 48.5238 136.5933 75.6428 0.0000 0.0000 0.0000
# 3 49.5820 75.6428 148.2132 0.0000 0.0000 0.0000
# 4 0.0000 0.0000 0.0000 60.6144 0.0000 0.0000
# 5 0.0000 0.0000 0.0000 0.0000 26.3456 0.0000
# 6 0.0000 0.0000 0.0000 0.0000 0.0000 27.2374
#
#
#
# Elastic Compliance Matrix: (Units=1/GPa)
#
#
# Indices 1 2 3 4 5 6 
#
# 1 0.020009 -0.004741 -0.004274 0.000000 0.000000 0.000000
# 2 -0.004741 0.011329 -0.004196 0.000000 0.000000 0.000000
# 3 -0.004274 -0.004196 0.010318 0.000000 0.000000 0.000000
# 4 0.000000 0.000000 0.000000 0.016498 0.000000 0.000000
# 5 0.000000 0.000000 0.000000 0.000000 0.037957 0.000000
# 6 0.000000 0.000000 0.000000 0.000000 0.000000 0.036714
#
#
# Mechanical properties :
#
#
# Convention : Reuss Voigt Hill
#
# Bulk Modulus (GPa) = 65.64216 78.26342 71.95279
# Shear Modulus (GPa) = 30.42771 35.04782 32.73776
#
# Velocity S-wave (km/s) = 4.07816 4.37683 4.23013
# Velocity P-wave (km/s) = 7.61934 8.26559 7.94903
#
# Compressibility (1/GPa) = 0.01523411
#
# Stress axis : x y z
#
# Youngs Moduli (GPa) = 49.97852 88.27067 96.91691
#
# Poissons Ratio (x) = 0.41851 0.41420
# Poissons Ratio (y) = 0.23696 0.40664
# Poissons Ratio (z) = 0.21360 0.37036
#
# Static dielectric constant tensor:
#      x y z
#    x 3.317510 0.000000 0.000000 
#    y 0.000000 3.510220 0.000000 
#    z 0.000000 0.000000 3.453450 
# 
# 
# High freq. dielectric constant tensor:
#      x y z
#    x 1.706550 0.000000 0.000000 
#    y 0.000000 1.714210 0.000000 
#    z 0.000000 0.000000 1.712900 
# 
# From -- ./inp_files/3959.got.cif
#   From: 2010.03.12/outbox.cif.g09.slc.cpg/sg25_2_cif.got.tgz:3959.got - 2010.04.14 03:30:10.
