data_PCOD8166542
_publ_section_title
;
Structure prediction by ZEFSAII (Michael W. Deem and Ramdas Pophale) SiO2 
 PCOD8166542
Probable space group: P M M 2
;
_chemical_formula_sum "Si O2"
_cell_formula_units_Z 24
_cell_length_a 14.154407
_cell_length_b 8.696721
_cell_length_c 10.288510
_cell_angle_alpha 90.000000
_cell_angle_beta 90.000000
_cell_angle_gamma 90.000000
_cell_volume 1266.483981
_symmetry_space_group_name_H-M "P M M 2"
_symmetry_group_IT_number 25
_symmetry_cell_setting 'orthorhombic'
loop_
_space_group_symop_operation_xyz
x,y,z
-x,-y,z
-x,y,z
x,-y,z
loop_
_atom_site_type_symbol
_atom_site_label
_atom_site_fract_x
_atom_site_fract_y
_atom_site_fract_z
Si Si1 0.897084 0.817085 0.492250
Si Si2 0.705644 0.817855 0.379127
Si Si3 0.712421 0.678506 0.882017
Si Si4 0.606569 0.817639 0.122843
Si Si5 0.893083 0.179062 0.788393
Si Si6 0.610069 0.821947 0.643732
O O1 0.812312 0.752859 0.402041
O O2 0.879785 0.763967 0.640253
O O3 0.000000 0.756030 0.443437
O O4 0.897735 0.000000 0.490632
O O5 0.662200 0.747575 0.247246
O O6 0.638938 0.770526 0.499030
O O7 0.709934 0.000000 0.367104
O O8 0.702478 0.500000 0.912113
O O9 0.822611 0.725761 0.880373
O O10 0.666533 0.717910 0.744074
O O11 0.659069 0.771655 0.992571
O O12 0.500000 0.751553 0.121910
O O13 0.603465 0.000000 0.132076
O O14 0.000000 0.210681 0.835382
O O15 0.867973 0.000000 0.800424
O O16 0.500000 0.792602 0.663137
O O17 0.636808 0.000000 0.667565
#
# Coordination Sequence:
#
# PCOD8166542 Si02
#       6
#     4   4   4   4   4   4
#     4   8  13  24  49  84 113 133 160 211 274 327
#     4   9  16  30  54  82 108 134 175 231 284 328
#     4  12  24  36  52  77 112 151 185 221 272 329
#     4  10  21  37  56  77 105 146 192 234 277 325
#     4   9  17  33  59  86 110 139 178 224 273 323
#     4  10  19  33  56  82 106 135 179 236 286 326
#
# _framework density 18.950102999999999
#
# number of rings (size 3 to 8) (size 9 to 14) (size 15 to 20)
#    0.000    2.333    1.667    3.500    0.000    5.000 
#    0.000    1.667    0.000    5.000    0.000    0.000 
#    0.000    0.000    0.000    0.000    0.000    0.000 
#
# Total GULP energy -297543.473587 kJ/mol
# GULP energy per Si atom -12397.644733 kJ/mol
# Density = 1.890697 g / cm^3
# Si number density = 18.950103 Si / 1000 Ang^3
#
#
#
# Elastic Constant Matrix: (Units=GPa)
#
#
# Indices 1 2 3 4 5 6 
#
# 1 152.9252 16.7554 51.2597 0.0000 0.0000 0.0000
# 2 16.7554 18.2738 6.2565 0.0000 0.0000 0.0000
# 3 51.2597 6.2565 84.9539 0.0000 0.0000 0.0000
# 4 0.0000 0.0000 0.0000 2.3037 0.0000 0.0000
# 5 0.0000 0.0000 0.0000 0.0000 34.2096 0.0000
# 6 0.0000 0.0000 0.0000 0.0000 0.0000 10.0650
#
#
#
# Elastic Compliance Matrix: (Units=1/GPa)
#
#
# Indices 1 2 3 4 5 6 
#
# 1 0.008886 -0.006475 -0.004885 0.000000 0.000000 0.000000
# 2 -0.006475 0.060857 -0.000575 0.000000 0.000000 0.000000
# 3 -0.004885 -0.000575 0.014761 0.000000 0.000000 0.000000
# 4 0.000000 0.000000 0.000000 0.434080 0.000000 0.000000
# 5 0.000000 0.000000 0.000000 0.000000 0.029232 0.000000
# 6 0.000000 0.000000 0.000000 0.000000 0.000000 0.099354
#
#
# Mechanical properties :
#
#
# Convention : Reuss Voigt Hill
#
# Bulk Modulus (GPa) = 16.49237 44.96624 30.72930
# Shear Modulus (GPa) = 7.23326 21.44107 14.33717
#
# Velocity S-wave (km/s) = 1.95583 3.36735 2.75357
# Velocity P-wave (km/s) = 3.71784 6.23691 5.13426
#
# Compressibility (1/GPa) = 0.06063411
#
# Stress axis : x y z
#
# Youngs Moduli (GPa) = 112.53729 16.43198 67.74700
#
# Poissons Ratio (x) = 0.10640 0.33093
# Poissons Ratio (y) = 0.72870 0.03895
# Poissons Ratio (z) = 0.54972 0.00945
#
# Static dielectric constant tensor:
#      x y z
#    x 3.975500 0.000000 0.000000 
#    y 0.000000 2.971950 0.000000 
#    z 0.000000 0.000000 3.411980 
# 
# 
# High freq. dielectric constant tensor:
#      x y z
#    x 1.760930 0.000000 0.000000 
#    y 0.000000 1.683710 0.000000 
#    z 0.000000 0.000000 1.720570 
# 
# From -- ./inp_files/3078.got.cif
#   From: 2010.03.12/outbox.cif.g09.slc.cpg/sg25_2_cif.got.tgz:3078.got - 2010.04.14 03:30:10.
