data_PCOD8166492
_publ_section_title
;
Structure prediction by ZEFSAII (Michael W. Deem and Ramdas Pophale) SiO2 
 PCOD8166492
Probable space group: P M M 2
;
_chemical_formula_sum "Si O2"
_cell_formula_units_Z 32
_cell_length_a 9.253039
_cell_length_b 13.218400
_cell_length_c 14.353446
_cell_angle_alpha 90.000000
_cell_angle_beta 90.000000
_cell_angle_gamma 90.000000
_cell_volume 1755.575301
_symmetry_space_group_name_H-M "P M M 2"
_symmetry_group_IT_number 25
_symmetry_cell_setting 'orthorhombic'
loop_
_space_group_symop_operation_xyz
x,y,z
-x,-y,z
-x,y,z
x,-y,z
loop_
_atom_site_type_symbol
_atom_site_label
_atom_site_fract_x
_atom_site_fract_y
_atom_site_fract_z
Si Si1 0.334978 0.255697 0.490990
Si Si2 0.344213 0.381397 0.319253
Si Si3 0.330075 0.716381 0.017521
Si Si4 0.331923 0.615013 0.665609
Si Si5 0.844642 0.615863 0.161163
Si Si6 0.331298 0.115363 0.166329
Si Si7 0.166070 0.881440 0.354560
Si Si8 0.829506 0.616533 0.855884
O O1 0.500000 0.215887 0.495888
O O2 0.319229 0.353277 0.425428
O O3 0.284762 0.299556 0.590582
O O4 0.235109 0.168177 0.447613
O O5 0.500000 0.339883 0.284375
O O6 0.340721 0.500000 0.309744
O O7 0.221942 0.331695 0.253612
O O8 0.500000 0.708371 0.999934
O O9 0.270871 0.623634 0.078652
O O10 0.287281 0.818113 0.075265
O O11 0.248153 0.701845 0.919606
O O12 0.500000 0.629199 0.692863
O O13 0.307546 0.500000 0.628510
O O14 0.230475 0.635566 0.753228
O O15 0.872048 0.500000 0.181906
O O16 0.000000 0.667301 0.137411
O O17 0.500000 0.127417 0.187576
O O18 0.248699 0.150903 0.259800
O O19 0.290485 0.000000 0.141147
O O20 0.000000 0.847593 0.345661
O O21 0.180909 0.000000 0.370391
O O22 0.796116 0.500000 0.886930
O O23 0.000000 0.636683 0.857977
#
# Coordination Sequence:
#
# PCOD8166492 Si02
#       8
#     4   4   4   4   4   4   4   4
#     4  10  19  31  51  76  99 128 167 207 249 296
#     4   9  17  29  44  65  96 130 161 194 235 288
#     4  11  21  32  51  75  96 125 166 208 251 298
#     4   9  18  34  55  78 104 133 167 208 251 297
#     4  10  20  31  42  62  96 133 164 196 237 287
#     4   9  19  36  55  75 101 132 167 209 255 302
#     4  10  21  35  51  74 104 137 172 210 253 300
#     4  10  21  36  53  75 104 136 168 204 249 300
#
# _framework density 18.227644000000002
#
# number of rings (size 3 to 8) (size 9 to 14) (size 15 to 20)
#    0.000    2.250    0.000    3.000    0.000   10.250 
#    0.000    0.000    0.000    4.500    0.000    1.750 
#    0.000    0.000    0.000    0.000    0.000    0.000 
#
# Total GULP energy -396504.175846 kJ/mol
# GULP energy per Si atom -12390.755495 kJ/mol
# Density = 1.818616 g / cm^3
# Si number density = 18.227644 Si / 1000 Ang^3
#
#
#
# Elastic Constant Matrix: (Units=GPa)
#
#
# Indices 1 2 3 4 5 6 
#
# 1 109.0510 49.3714 64.3055 0.0000 0.0000 0.0000
# 2 49.3714 70.2082 48.9812 0.0000 0.0000 0.0000
# 3 64.3055 48.9812 111.0436 0.0000 0.0000 0.0000
# 4 0.0000 0.0000 0.0000 30.6510 0.0000 0.0000
# 5 0.0000 0.0000 0.0000 0.0000 12.5791 0.0000
# 6 0.0000 0.0000 0.0000 0.0000 0.0000 13.8614
#
#
#
# Elastic Compliance Matrix: (Units=1/GPa)
#
#
# Indices 1 2 3 4 5 6 
#
# 1 0.015941 -0.006890 -0.006192 0.000000 0.000000 0.000000
# 2 -0.006890 0.023553 -0.006399 0.000000 0.000000 0.000000
# 3 -0.006192 -0.006399 0.015414 0.000000 0.000000 0.000000
# 4 0.000000 0.000000 0.000000 0.032625 0.000000 0.000000
# 5 0.000000 0.000000 0.000000 0.000000 0.079497 0.000000
# 6 0.000000 0.000000 0.000000 0.000000 0.000000 0.072143
#
#
# Mechanical properties :
#
#
# Convention : Reuss Voigt Hill
#
# Bulk Modulus (GPa) = 62.71484 68.40210 65.55847
# Shear Modulus (GPa) = 17.63978 19.92794 18.78386
#
# Velocity S-wave (km/s) = 3.11424 3.31007 3.21365
# Velocity P-wave (km/s) = 6.88567 7.22612 7.05795
#
# Compressibility (1/GPa) = 0.01594519
#
# Stress axis : x y z
#
# Youngs Moduli (GPa) = 62.73253 42.45787 64.87545
#
# Poissons Ratio (x) = 0.29252 0.40173
# Poissons Ratio (y) = 0.43220 0.41516
# Poissons Ratio (z) = 0.38846 0.27170
#
# Static dielectric constant tensor:
#      x y z
#    x 3.703270 0.000000 0.000000 
#    y 0.000000 3.283840 0.000000 
#    z 0.000000 0.000000 3.302880 
# 
# 
# High freq. dielectric constant tensor:
#      x y z
#    x 1.714860 0.000000 0.000000 
#    y 0.000000 1.692370 0.000000 
#    z 0.000000 0.000000 1.692040 
# 
# From -- ./inp_files/5741.got.cif
#   From: 2010.03.12/outbox.cif.g09.slc.cpg/sg25_3_cif.got.tgz:5741.got - 2010.04.14 03:30:10.
