data_PCOD8166794
_publ_section_title
;
Structure prediction by ZEFSAII (Michael W. Deem and Ramdas Pophale) SiO2 
 PCOD8166794
Probable space group: P M M 2
;
_chemical_formula_sum "Si O2"
_cell_formula_units_Z 24
_cell_length_a 9.289664
_cell_length_b 8.789232
_cell_length_c 15.337413
_cell_angle_alpha 90.000000
_cell_angle_beta 90.000000
_cell_angle_gamma 90.000000
_cell_volume 1252.284620
_symmetry_space_group_name_H-M "P M M 2"
_symmetry_group_IT_number 25
_symmetry_cell_setting 'orthorhombic'
loop_
_space_group_symop_operation_xyz
x,y,z
-x,-y,z
-x,y,z
x,-y,z
loop_
_atom_site_type_symbol
_atom_site_label
_atom_site_fract_x
_atom_site_fract_y
_atom_site_fract_z
Si Si1 0.167164 0.676926 0.810340
Si Si2 0.659828 0.680860 0.285921
Si Si3 0.162043 0.680812 0.123509
Si Si4 0.329726 0.328137 0.479432
Si Si5 0.333340 0.821942 0.965642
Si Si6 0.164815 0.174595 0.630913
O O1 0.199136 0.500000 0.825224
O O2 0.264345 0.775436 0.874229
O O3 0.211054 0.721509 0.712331
O O4 0.000000 0.715448 0.827864
O O5 0.500000 0.747057 0.267427
O O6 0.652209 0.500000 0.282307
O O7 0.768298 0.744991 0.212882
O O8 0.713471 0.728981 0.382307
O O9 0.160932 0.500000 0.123995
O O10 0.000000 0.744988 0.116149
O O11 0.254561 0.733904 0.042317
O O12 0.500000 0.322689 0.490103
O O13 0.273465 0.500000 0.495302
O O14 0.259720 0.214734 0.547781
O O15 0.500000 0.774557 0.965433
O O16 0.312964 0.000000 0.980134
O O17 0.000000 0.205578 0.605844
O O18 0.190978 0.000000 0.656808
#
# Coordination Sequence:
#
# PCOD8166794 Si02
#       6
#     4   4   4   4   4   4
#     4  10  21  38  60  83 105 134 175 220 266 316
#     4   8  15  30  52  77 106 140 178 221 266 310
#     4  10  20  34  55  83 110 138 176 220 266 316
#     4   9  18  33  54  80 108 140 180 223 266 313
#     4  11  24  39  55  78 108 142 178 215 260 315
#     4  10  21  36  54  78 109 144 179 216 262 315
#
# _framework density 19.164973
#
# number of rings (size 3 to 8) (size 9 to 14) (size 15 to 20)
#    0.000    2.333    0.000    3.500    0.000    8.000 
#    0.000    2.500    0.000    1.000    0.000    0.000 
#    0.000    0.000    0.000    0.000    0.000    0.000 
#
# Total GULP energy -297634.109748 kJ/mol
# GULP energy per Si atom -12401.421239 kJ/mol
# Density = 1.912135 g / cm^3
# Si number density = 19.164973 Si / 1000 Ang^3
#
#
#
# Elastic Constant Matrix: (Units=GPa)
#
#
# Indices 1 2 3 4 5 6 
#
# 1 93.3549 20.2003 61.0006 0.0000 0.0000 0.0000
# 2 20.2003 26.6830 11.7745 0.0000 0.0000 0.0000
# 3 61.0006 11.7745 121.6260 0.0000 0.0000 0.0000
# 4 0.0000 0.0000 0.0000 9.8732 0.0000 0.0000
# 5 0.0000 0.0000 0.0000 0.0000 40.4114 0.0000
# 6 0.0000 0.0000 0.0000 0.0000 0.0000 24.8893
#
#
#
# Elastic Compliance Matrix: (Units=1/GPa)
#
#
# Indices 1 2 3 4 5 6 
#
# 1 0.018261 -0.010220 -0.008169 0.000000 0.000000 0.000000
# 2 -0.010220 0.044869 0.000782 0.000000 0.000000 0.000000
# 3 -0.008169 0.000782 0.012244 0.000000 0.000000 0.000000
# 4 0.000000 0.000000 0.000000 0.101284 0.000000 0.000000
# 5 0.000000 0.000000 0.000000 0.000000 0.024746 0.000000
# 6 0.000000 0.000000 0.000000 0.000000 0.000000 0.040178
#
#
# Mechanical properties :
#
#
# Convention : Reuss Voigt Hill
#
# Bulk Modulus (GPa) = 24.90093 47.51276 36.20685
# Shear Modulus (GPa) = 17.23055 24.94733 21.08894
#
# Velocity S-wave (km/s) = 3.00169 3.61184 3.32081
# Velocity P-wave (km/s) = 5.00347 6.49917 5.79974
#
# Compressibility (1/GPa) = 0.04015914
#
# Stress axis : x y z
#
# Youngs Moduli (GPa) = 54.76063 22.28720 81.67562
#
# Poissons Ratio (x) = 0.22777 0.66724
# Poissons Ratio (y) = 0.55964 -0.06386
# Poissons Ratio (z) = 0.44736 -0.01743
#
# Static dielectric constant tensor:
#      x y z
#    x 3.210750 0.000000 0.000000 
#    y 0.000000 3.313090 0.000000 
#    z 0.000000 0.000000 3.661360 
# 
# 
# High freq. dielectric constant tensor:
#      x y z
#    x 1.744430 0.000000 0.000000 
#    y 0.000000 1.726060 0.000000 
#    z 0.000000 0.000000 1.759440 
# 
# From -- ./inp_files/5229.got.cif
#   From: 2010.03.12/outbox.cif.g09.slc.cpg/sg25_3_cif.got.tgz:5229.got - 2010.04.14 03:30:10.
