data_PCOD8166951
_publ_section_title
;
Structure prediction by ZEFSAII (Michael W. Deem and Ramdas Pophale) SiO2 
 PCOD8166951
Probable space group: P M M 2
;
_chemical_formula_sum "Si O2"
_cell_formula_units_Z 24
_cell_length_a 8.784259
_cell_length_b 11.624774
_cell_length_c 12.624913
_cell_angle_alpha 90.000000
_cell_angle_beta 90.000000
_cell_angle_gamma 90.000000
_cell_volume 1289.193315
_symmetry_space_group_name_H-M "P M M 2"
_symmetry_group_IT_number 25
_symmetry_cell_setting 'orthorhombic'
loop_
_space_group_symop_operation_xyz
x,y,z
-x,-y,z
-x,y,z
x,-y,z
loop_
_atom_site_type_symbol
_atom_site_label
_atom_site_fract_x
_atom_site_fract_y
_atom_site_fract_z
Si Si1 0.178715 0.500000 0.411170
Si Si2 0.675048 0.500000 0.639350
Si Si3 0.825558 0.135139 0.529234
Si Si4 0.822410 0.867085 0.916496
Si Si5 0.675651 0.132047 0.135984
Si Si6 0.321435 0.269504 0.341947
Si Si7 0.677340 0.253155 0.724361
O O1 0.227693 0.500000 0.533080
O O2 0.238251 0.390428 0.348106
O O3 0.000000 0.500000 0.408299
O O4 0.500000 0.500000 0.603150
O O5 0.713522 0.388237 0.709402
O O6 0.719575 0.190961 0.441370
O O7 0.776088 0.178404 0.643920
O O8 0.000000 0.170933 0.508946
O O9 0.803079 0.000000 0.525026
O O10 0.725843 0.783656 0.841593
O O11 0.000000 0.844677 0.898745
O O12 0.779812 0.000000 0.893221
O O13 0.778750 0.834466 0.036178
O O14 0.500000 0.155647 0.107408
O O15 0.731352 0.208258 0.234267
O O16 0.700601 0.000000 0.168838
O O17 0.500000 0.290892 0.343996
O O18 0.500000 0.227196 0.706425
#
# Coordination Sequence:
#
# PCOD8166951 Si02
#       7
#     2   2   4   4   4   4   4
#     4  12  24  38  59  84 115 156 195 237 291 345
#     4  10  22  40  59  82 111 150 195 241 287 339
#     4  11  23  36  53  83 120 151 185 235 292 349
#     4  10  21  37  58  85 118 152 187 234 291 347
#     4   9  19  37  61  87 114 148 191 236 285 342
#     4  11  22  38  60  85 115 151 195 241 286 342
#     4  11  22  37  59  83 112 150 195 240 286 344
#
# _framework density 18.616292999999999
#
# number of rings (size 3 to 8) (size 9 to 14) (size 15 to 20)
#    0.000    1.500    1.667    3.750    0.000    7.000 
#    0.000    2.500    0.000    2.000    0.000    0.000 
#    0.000    0.000    0.000    0.000    0.000    0.000 
#
# Total GULP energy -297736.046819 kJ/mol
# GULP energy per Si atom -12405.668617 kJ/mol
# Density = 1.857392 g / cm^3
# Si number density = 18.616293 Si / 1000 Ang^3
#
#
#
# Elastic Constant Matrix: (Units=GPa)
#
#
# Indices 1 2 3 4 5 6 
#
# 1 73.8995 52.8810 35.7195 0.0000 0.0000 0.0000
# 2 52.8810 111.5087 64.8905 0.0000 0.0000 0.0000
# 3 35.7195 64.8905 111.5957 0.0000 0.0000 0.0000
# 4 0.0000 0.0000 0.0000 34.6814 0.0000 0.0000
# 5 0.0000 0.0000 0.0000 0.0000 22.6833 0.0000
# 6 0.0000 0.0000 0.0000 0.0000 0.0000 25.2565
#
#
#
# Elastic Compliance Matrix: (Units=1/GPa)
#
#
# Indices 1 2 3 4 5 6 
#
# 1 0.020623 -0.008976 -0.001382 0.000000 0.000000 0.000000
# 2 -0.008976 0.017461 -0.007280 0.000000 0.000000 0.000000
# 3 -0.001382 -0.007280 0.013636 0.000000 0.000000 0.000000
# 4 0.000000 0.000000 0.000000 0.028834 0.000000 0.000000
# 5 0.000000 0.000000 0.000000 0.000000 0.044085 0.000000
# 6 0.000000 0.000000 0.000000 0.000000 0.000000 0.039594
#
#
# Mechanical properties :
#
#
# Convention : Reuss Voigt Hill
#
# Bulk Modulus (GPa) = 60.80979 67.10954 63.95966
# Shear Modulus (GPa) = 24.39135 26.09176 25.24155
#
# Velocity S-wave (km/s) = 3.62362 3.74780 3.68623
# Velocity P-wave (km/s) = 7.08824 7.40642 7.24908
#
# Compressibility (1/GPa) = 0.01644472
#
# Stress axis : x y z
#
# Youngs Moduli (GPa) = 48.49020 57.26960 73.33272
#
# Poissons Ratio (x) = 0.51405 0.10131
# Poissons Ratio (y) = 0.43525 0.53389
# Poissons Ratio (z) = 0.06699 0.41694
#
# Static dielectric constant tensor:
#      x y z
#    x 3.487440 0.000000 0.000000 
#    y 0.000000 3.537410 0.000000 
#    z 0.000000 0.000000 3.383770 
# 
# 
# High freq. dielectric constant tensor:
#      x y z
#    x 1.733010 0.000000 0.000000 
#    y 0.000000 1.724980 0.000000 
#    z 0.000000 0.000000 1.722570 
# 
# From -- ./inp_files/3939.got.cif
#   From: 2010.03.12/outbox.cif.g09.slc.cpg/sg25_2_cif.got.tgz:3939.got - 2010.04.14 03:30:10.
