data_PCOD8166049
_publ_section_title
;
Structure prediction by ZEFSAII (Michael W. Deem and Ramdas Pophale) SiO2 
 PCOD8166049
Probable space group: I 21 21 21
;
_chemical_formula_sum "Si O2"
_cell_formula_units_Z 64
_cell_length_a 8.955864
_cell_length_b 18.189832
_cell_length_c 19.062538
_cell_angle_alpha 90.000000
_cell_angle_beta 90.000000
_cell_angle_gamma 90.000000
_cell_volume 3105.395364
_symmetry_space_group_name_H-M "I 21 21 21"
_symmetry_group_IT_number 24
_symmetry_cell_setting 'orthorhombic'
loop_
_space_group_symop_operation_xyz
x,y,z
-x,1/2-y,z
x,-y,1/2-z
1/2-x,y,-z
1/2+x,1/2+y,1/2+z
1/2-x,-y,1/2+z
1/2+x,1/2-y,-z
-x,1/2+y,1/2-z
loop_
_atom_site_type_symbol
_atom_site_label
_atom_site_fract_x
_atom_site_fract_y
_atom_site_fract_z
Si Si1 0.601843 0.692067 0.230418
Si Si2 0.872988 0.204142 0.266617
Si Si3 0.910515 0.820785 0.385527
Si Si4 0.890992 0.968883 0.453010
Si Si5 0.905637 0.948331 0.185260
Si Si6 0.125299 0.956184 0.551671
Si Si7 0.758307 0.453206 0.682419
Si Si8 0.553590 0.173942 0.122133
O O1 0.500000 0.750000 0.185442
O O2 0.742334 0.740460 0.255957
O O3 0.651736 0.623476 0.183783
O O4 0.502903 0.666971 0.297247
O O5 0.954746 0.173438 0.196298
O O6 0.824663 0.131330 0.309299
O O7 0.000000 0.250000 0.309044
O O8 0.967518 0.893087 0.425406
O O9 0.730799 0.824069 0.388402
O O10 0.000000 0.750000 0.417490
O O11 0.750000 0.950770 0.500000
O O12 0.016874 0.006740 0.502537
O O13 0.844633 0.018703 0.387169
O O14 0.083102 0.937518 0.183155
O O15 0.856141 0.000000 0.250000
O O16 0.250000 0.922924 0.500000
O O17 0.020010 0.892385 0.580610
O O18 0.198134 0.004141 0.612570
O O19 0.806378 0.500000 0.750000
O O20 0.500000 0.250000 0.088322
#
# Coordination Sequence:
#
# PCOD8166049 Si02
#       8
#     8   8   8   8   8   8   8   8
#     4  11  22  40  66 103 137 169 223 287 351 399
#     4  11  21  38  67 101 134 170 221 290 338 396
#     4  11  24  41  65  95 138 185 226 267 332 413
#     4  12  26  46  63  98 143 180 231 282 339 402
#     4  11  23  40  71 100 130 181 240 277 333 410
#     4  12  26  43  68  98 140 183 223 281 347 407
#     4  11  23  41  71 100 130 182 233 281 337 411
#     4  11  23  42  62  97 141 180 224 272 332 414
#
# _framework density 20.609293000000001
#
# number of rings (size 3 to 8) (size 9 to 14) (size 15 to 20)
#    0.000    0.750    8.750    0.000    1.750    1.500 
#    0.000    2.500    0.000    4.500    0.000    0.000 
#    0.000    0.000    0.000    0.000    0.000    0.000 
#
# Total GULP energy -396507.122700 kJ/mol
# GULP energy per Si atom -12390.847584 kJ/mol
# Density = 2.056239 g / cm^3
# Si number density = 20.609293 Si / 1000 Ang^3
#
#
#
# Elastic Constant Matrix: (Units=GPa)
#
#
# Indices 1 2 3 4 5 6 
#
# 1 83.3607 30.9408 22.2399 0.0000 0.0000 0.0000
# 2 30.9408 113.6256 44.5210 0.0000 0.0000 0.0000
# 3 22.2399 44.5210 93.1777 0.0000 0.0000 0.0000
# 4 0.0000 0.0000 0.0000 14.9199 0.0000 0.0000
# 5 0.0000 0.0000 0.0000 0.0000 29.5786 0.0000
# 6 0.0000 0.0000 0.0000 0.0000 0.0000 28.8024
#
#
#
# Elastic Compliance Matrix: (Units=1/GPa)
#
#
# Indices 1 2 3 4 5 6 
#
# 1 0.013590 -0.002989 -0.001815 0.000000 0.000000 0.000000
# 2 -0.002989 0.011486 -0.004774 0.000000 0.000000 0.000000
# 3 -0.001815 -0.004774 0.013447 0.000000 0.000000 0.000000
# 4 0.000000 0.000000 0.000000 0.067025 0.000000 0.000000
# 5 0.000000 0.000000 0.000000 0.000000 0.033808 0.000000
# 6 0.000000 0.000000 0.000000 0.000000 0.000000 0.034719
#
#
# Mechanical properties :
#
#
# Convention : Reuss Voigt Hill
#
# Bulk Modulus (GPa) = 51.64204 53.95195 52.79700
# Shear Modulus (GPa) = 25.03917 27.49099 26.26508
#
# Velocity S-wave (km/s) = 3.48939 3.65624 3.57379
# Velocity P-wave (km/s) = 6.43012 6.63773 6.53475
#
# Compressibility (1/GPa) = 0.01936407
#
# Stress axis : x y z
#
# Youngs Moduli (GPa) = 73.58393 87.06596 74.36757
#
# Poissons Ratio (x) = 0.26027 0.13500
# Poissons Ratio (y) = 0.21996 0.35506
# Poissons Ratio (z) = 0.13358 0.41569
#
# Static dielectric constant tensor:
#      x y z
#    x 3.864850 0.000000 0.000000 
#    y 0.000000 3.820220 0.000000 
#    z 0.000000 0.000000 3.694560 
# 
# 
# High freq. dielectric constant tensor:
#      x y z
#    x 1.819750 0.000000 0.000000 
#    y 0.000000 1.798160 0.000000 
#    z 0.000000 0.000000 1.783450 
# 
# From -- ./inp_files/32947.got.cif
#   From: 2010.03.12/outbox.cif.g09.slc.cpg/sg24_17_cif.got.tgz:32947.got - 2010.04.14 03:06:53.
