data_PCOD8166169
_publ_section_title
;
Structure prediction by ZEFSAII (Michael W. Deem and Ramdas Pophale) SiO2 
 PCOD8166169
Probable space group: I 21 21 21
;
_chemical_formula_sum "Si O2"
_cell_formula_units_Z 64
_cell_length_a 18.382328
_cell_length_b 11.290720
_cell_length_c 14.387069
_cell_angle_alpha 90.000000
_cell_angle_beta 90.000000
_cell_angle_gamma 90.000000
_cell_volume 2986.032119
_symmetry_space_group_name_H-M "I 21 21 21"
_symmetry_group_IT_number 24
_symmetry_cell_setting 'orthorhombic'
loop_
_space_group_symop_operation_xyz
x,y,z
-x,1/2-y,z
x,-y,1/2-z
1/2-x,y,-z
1/2+x,1/2+y,1/2+z
1/2-x,-y,1/2+z
1/2+x,1/2-y,-z
-x,1/2+y,1/2-z
loop_
_atom_site_type_symbol
_atom_site_label
_atom_site_fract_x
_atom_site_fract_y
_atom_site_fract_z
Si Si1 0.819274 0.863581 0.252535
Si Si2 0.329848 0.966833 0.515624
Si Si3 0.321229 0.228196 0.558671
Si Si4 0.556078 0.911972 0.416292
Si Si5 0.844174 0.814099 0.729998
Si Si6 0.594663 0.577155 0.338555
Si Si7 0.084101 0.253864 0.088773
Si Si8 0.071477 0.319924 0.584484
O O1 0.823764 0.798624 0.154222
O O2 0.737329 0.855067 0.288307
O O3 0.872470 0.800969 0.323901
O O4 0.843283 0.000000 0.250000
O O5 0.250000 0.909311 0.500000
O O6 0.362429 0.002039 0.414091
O O7 0.384181 0.875632 0.565276
O O8 0.321396 0.086423 0.576426
O O9 0.250000 0.266232 0.500000
O O10 0.395414 0.259457 0.506132
O O11 0.607097 0.906082 0.326714
O O12 0.476102 0.863876 0.387486
O O13 0.592426 0.838979 0.499761
O O14 0.547663 0.048488 0.444360
O O15 0.852087 0.681378 0.692079
O O16 0.866904 0.818417 0.836975
O O17 0.570419 0.500000 0.250000
O O18 0.000000 0.250000 0.118118
O O19 0.000000 0.250000 0.619453
#
# Coordination Sequence:
#
# PCOD8166169 Si02
#       8
#     8   8   8   8   8   8   8   8
#     4  12  28  50  71 104 138 188 246 295 362 435
#     4  11  24  46  71 105 138 188 242 293 371 431
#     4  11  25  48  72 100 144 181 238 307 358 426
#     4  12  23  42  66 105 148 186 233 293 354 430
#     4  12  23  41  68 107 144 183 235 284 365 436
#     4  12  23  40  70 107 151 190 235 297 358 434
#     4  12  26  49  73  98 142 190 239 300 354 432
#     4  12  24  40  70 105 140 190 233 291 370 425
#
# _framework density 21.433122999999998
#
# number of rings (size 3 to 8) (size 9 to 14) (size 15 to 20)
#    0.000    0.250    3.750    6.750    1.750    1.000 
#    2.250    0.000    0.000    0.000    0.000    0.000 
#    0.000    0.000    0.000    0.000    0.000    0.000 
#
# Total GULP energy -396978.411436 kJ/mol
# GULP energy per Si atom -12405.575357 kJ/mol
# Density = 2.138434 g / cm^3
# Si number density = 21.433123 Si / 1000 Ang^3
#
#
#
# Elastic Constant Matrix: (Units=GPa)
#
#
# Indices 1 2 3 4 5 6 
#
# 1 128.2134 22.1048 53.9845 0.0000 0.0000 0.0000
# 2 22.1048 126.2738 52.6136 0.0000 0.0000 0.0000
# 3 53.9845 52.6136 128.2293 0.0000 0.0000 0.0000
# 4 0.0000 0.0000 0.0000 37.4932 0.0000 0.0000
# 5 0.0000 0.0000 0.0000 0.0000 41.9511 0.0000
# 6 0.0000 0.0000 0.0000 0.0000 0.0000 30.5042
#
#
#
# Elastic Compliance Matrix: (Units=1/GPa)
#
#
# Indices 1 2 3 4 5 6 
#
# 1 0.009480 0.000004 -0.003993 0.000000 0.000000 0.000000
# 2 0.000004 0.009552 -0.003921 0.000000 0.000000 0.000000
# 3 -0.003993 -0.003921 0.011088 0.000000 0.000000 0.000000
# 4 0.000000 0.000000 0.000000 0.026672 0.000000 0.000000
# 5 0.000000 0.000000 0.000000 0.000000 0.023837 0.000000
# 6 0.000000 0.000000 0.000000 0.000000 0.000000 0.032782
#
#
# Mechanical properties :
#
#
# Convention : Reuss Voigt Hill
#
# Bulk Modulus (GPa) = 69.92463 71.12471 70.52467
# Shear Modulus (GPa) = 37.31386 38.92393 38.11890
#
# Velocity S-wave (km/s) = 4.17699 4.26615 4.22181
# Velocity P-wave (km/s) = 7.48053 7.58441 7.53265
#
# Compressibility (1/GPa) = 0.01430111
#
# Stress axis : x y z
#
# Youngs Moduli (GPa) = 105.48590 104.68594 90.18465
#
# Poissons Ratio (x) = -0.00043 0.36008
# Poissons Ratio (y) = -0.00043 0.35363
# Poissons Ratio (z) = 0.42118 0.41049
#
# Static dielectric constant tensor:
#      x y z
#    x 3.975880 0.000000 0.000000 
#    y 0.000000 3.923900 0.000000 
#    z 0.000000 0.000000 3.821980 
# 
# 
# High freq. dielectric constant tensor:
#      x y z
#    x 1.849300 0.000000 0.000000 
#    y 0.000000 1.853900 0.000000 
#    z 0.000000 0.000000 1.833840 
# 
# From -- ./inp_files/27231.got.cif
#   From: 2010.03.12/outbox.cif.g09.slc.cpg/sg24_14_cif.got.tgz:27231.got - 2010.04.14 03:06:53.
