data_PCOD8166137
_publ_section_title
;
Structure prediction by ZEFSAII (Michael W. Deem and Ramdas Pophale) SiO2 
 PCOD8166137
Probable space group: I 21 21 21
;
_chemical_formula_sum "Si O2"
_cell_formula_units_Z 48
_cell_length_a 9.028256
_cell_length_b 16.661629
_cell_length_c 13.889278
_cell_angle_alpha 90.000000
_cell_angle_beta 90.000000
_cell_angle_gamma 90.000000
_cell_volume 2089.300921
_symmetry_space_group_name_H-M "I 21 21 21"
_symmetry_group_IT_number 24
_symmetry_cell_setting 'orthorhombic'
loop_
_space_group_symop_operation_xyz
x,y,z
-x,1/2-y,z
x,-y,1/2-z
1/2-x,y,-z
1/2+x,1/2+y,1/2+z
1/2-x,-y,1/2+z
1/2+x,1/2-y,-z
-x,1/2+y,1/2-z
loop_
_atom_site_type_symbol
_atom_site_label
_atom_site_fract_x
_atom_site_fract_y
_atom_site_fract_z
Si Si1 0.627565 0.191647 0.278510
Si Si2 0.200066 0.895951 0.600895
Si Si3 0.879241 0.071933 0.559439
Si Si4 0.144446 0.935520 0.076378
Si Si5 0.363720 0.804831 0.769341
Si Si6 0.844412 0.899144 0.593708
O O1 0.500000 0.250000 0.240149
O O2 0.559562 0.129891 0.356790
O O3 0.754880 0.245406 0.328193
O O4 0.708653 0.148355 0.188206
O O5 0.250000 0.859624 0.500000
O O6 0.269971 0.838864 0.680638
O O7 0.022934 0.891364 0.597423
O O8 0.265888 0.986479 0.615323
O O9 0.750000 0.117386 0.500000
O O10 0.001929 0.038812 0.485332
O O11 0.806652 0.992972 0.607742
O O12 0.089842 0.878183 0.161892
O O13 0.250000 0.888917 0.000000
O O14 0.500000 0.750000 0.734418
O O15 0.750000 0.867326 0.500000
#
# Coordination Sequence:
#
# PCOD8166137 Si02
#       6
#     8   8   8   8   8   8
#     4  12  26  44  68 102 143 189 231 292 368 430
#     4  11  24  48  72 100 135 186 241 296 352 417
#     4  11  24  44  71 101 139 183 240 296 349 422
#     4  11  23  44  75 104 136 191 244 294 352 425
#     4  12  28  44  68 108 151 188 232 291 366 436
#     4  11  25  47  73 101 133 183 249 297 347 420
#
# _framework density 22.974193
#
# number of rings (size 3 to 8) (size 9 to 14) (size 15 to 20)
#    0.000    0.667    5.000    3.000    2.333    6.000 
#    0.000    3.333    0.000    0.000    0.000    0.000 
#    0.000    0.000    0.000    0.000    0.000    0.000 
#
# Total GULP energy -297336.788436 kJ/mol
# GULP energy per Si atom -12389.032851 kJ/mol
# Density = 2.292190 g / cm^3
# Si number density = 22.974193 Si / 1000 Ang^3
#
#
#
# Elastic Constant Matrix: (Units=GPa)
#
#
# Indices 1 2 3 4 5 6 
#
# 1 115.4612 47.0485 38.5235 0.0000 0.0000 0.0000
# 2 47.0485 101.4933 54.1296 0.0000 0.0000 0.0000
# 3 38.5235 54.1296 105.5410 0.0001 0.0000 0.0000
# 4 0.0000 0.0000 0.0001 22.7138 0.0000 0.0000
# 5 0.0000 0.0000 0.0000 0.0000 35.0354 0.0000
# 6 0.0000 0.0000 0.0000 0.0000 0.0000 34.8973
#
#
#
# Elastic Compliance Matrix: (Units=1/GPa)
#
#
# Indices 1 2 3 4 5 6 
#
# 1 0.010953 -0.004054 -0.001919 0.000000 0.000000 0.000000
# 2 -0.004054 0.015063 -0.006246 0.000000 0.000000 0.000000
# 3 -0.001919 -0.006246 0.013379 0.000000 0.000000 0.000000
# 4 0.000000 0.000000 0.000000 0.044026 0.000000 0.000000
# 5 0.000000 0.000000 0.000000 0.000000 0.028543 0.000000
# 6 0.000000 0.000000 0.000000 0.000000 0.000000 0.028655
#
#
# Mechanical properties :
#
#
# Convention : Reuss Voigt Hill
#
# Bulk Modulus (GPa) = 66.85509 66.87765 66.86637
# Shear Modulus (GPa) = 29.40442 30.71557 30.06000
#
# Velocity S-wave (km/s) = 3.58143 3.66041 3.62114
# Velocity P-wave (km/s) = 6.80187 6.85842 6.83021
#
# Compressibility (1/GPa) = 0.01495772
#
# Stress axis : x y z
#
# Youngs Moduli (GPa) = 91.29846 66.38647 74.74573
#
# Poissons Ratio (x) = 0.26914 0.14342
# Poissons Ratio (y) = 0.37014 0.46685
# Poissons Ratio (z) = 0.17518 0.41464
#
# Static dielectric constant tensor:
#      x y z
#    x 4.268020 0.000000 0.000000 
#    y 0.000000 4.132260 0.000000 
#    z 0.000000 0.000000 4.037900 
# 
# 
# High freq. dielectric constant tensor:
#      x y z
#    x 1.917110 0.000000 0.000000 
#    y 0.000000 1.909530 0.000000 
#    z 0.000000 0.000000 1.898820 
# 
# From -- ./inp_files/24782.got.cif
#   From: 2010.03.12/outbox.cif.g09.slc.cpg/sg24_13_cif.got.tgz:24782.got - 2010.04.14 03:06:53.
