data_PCOD8166233
_publ_section_title
;
Structure prediction by ZEFSAII (Michael W. Deem and Ramdas Pophale) SiO2 
 PCOD8166233
Probable space group: I 21 21 21
;
_chemical_formula_sum "Si O2"
_cell_formula_units_Z 36
_cell_length_a 18.795597
_cell_length_b 16.457070
_cell_length_c 4.834530
_cell_angle_alpha 90.000000
_cell_angle_beta 90.000000
_cell_angle_gamma 90.000000
_cell_volume 1495.419022
_symmetry_space_group_name_H-M "I 21 21 21"
_symmetry_group_IT_number 24
_symmetry_cell_setting 'orthorhombic'
loop_
_space_group_symop_operation_xyz
x,y,z
-x,1/2-y,z
x,-y,1/2-z
1/2-x,y,-z
1/2+x,1/2+y,1/2+z
1/2-x,-y,1/2+z
1/2+x,1/2-y,-z
-x,1/2+y,1/2-z
loop_
_atom_site_type_symbol
_atom_site_label
_atom_site_fract_x
_atom_site_fract_y
_atom_site_fract_z
Si Si1 0.404665 0.912709 0.376041
Si Si2 0.250000 0.446594 0.000000
Si Si3 0.674365 0.652059 0.901458
Si Si4 0.541780 0.827086 0.255241
Si Si5 0.861949 0.175587 0.251602
O O1 0.366036 0.903276 0.672657
O O2 0.489829 0.898825 0.370164
O O3 0.385319 0.000000 0.250000
O O4 0.374506 0.844022 0.171714
O O5 0.282481 0.500000 0.250000
O O6 0.187094 0.394756 0.132663
O O7 0.686058 0.745238 0.811750
O O8 0.750000 0.614367 0.000000
O O9 0.500000 0.750000 0.128698
O O10 0.582371 0.795046 0.523958
O O11 0.596439 0.858949 0.020958
#
# Coordination Sequence:
#
# PCOD8166233 Si02
#       5
#     8   4   8   8   8
#     4  12  27  46  71 108 152 190 244 317 373 428
#     4  12  30  50  72 112 156 192 244 314 378 440
#     4  12  26  45  76 106 140 198 253 296 367 446
#     4  12  23  45  76 111 142 194 255 305 364 443
#     4  12  26  45  80 106 146 197 253 298 367 452
#
# _framework density 24.073519000000001
#
# number of rings (size 3 to 8) (size 9 to 14) (size 15 to 20)
#    0.000    0.000    4.444    4.667    7.778    4.444 
#    0.000    0.000    0.000    0.000    0.000    0.000 
#    0.000    0.000    0.000    0.000    0.000    0.000 
#
# Total GULP energy -223211.891816 kJ/mol
# GULP energy per Si atom -12400.660656 kJ/mol
# Density = 2.401873 g / cm^3
# Si number density = 24.073519 Si / 1000 Ang^3
#
#
#
# Elastic Constant Matrix: (Units=GPa)
#
#
# Indices 1 2 3 4 5 6 
#
# 1 130.1057 33.8695 58.0139 0.0000 0.0000 0.0000
# 2 33.8695 74.3537 11.0918 0.0000 0.0000 0.0000
# 3 58.0139 11.0918 142.0087 0.0000 0.0000 0.0000
# 4 0.0000 0.0000 0.0000 36.8020 0.0000 0.0000
# 5 0.0000 0.0000 0.0000 0.0000 60.6164 0.0000
# 6 0.0000 0.0000 0.0000 0.0000 0.0000 18.9556
#
#
#
# Elastic Compliance Matrix: (Units=1/GPa)
#
#
# Indices 1 2 3 4 5 6 
#
# 1 0.010560 -0.004216 -0.003985 0.000000 0.000000 0.000000
# 2 -0.004216 0.015291 0.000528 0.000000 0.000000 0.000000
# 3 -0.003985 0.000528 0.008628 0.000000 0.000000 0.000000
# 4 0.000000 0.000000 0.000000 0.027172 0.000000 0.000000
# 5 0.000000 0.000000 0.000000 0.000000 0.016497 0.000000
# 6 0.000000 0.000000 0.000000 0.000000 0.000000 0.052755
#
#
# Mechanical properties :
#
#
# Convention : Reuss Voigt Hill
#
# Bulk Modulus (GPa) = 52.26272 61.37984 56.82128
# Shear Modulus (GPa) = 32.75935 39.50766 36.13351
#
# Velocity S-wave (km/s) = 3.69291 4.05548 3.87843
# Velocity P-wave (km/s) = 6.31983 6.89067 6.61141
#
# Compressibility (1/GPa) = 0.01913410
#
# Stress axis : x y z
#
# Youngs Moduli (GPa) = 94.69302 65.39818 115.89501
#
# Poissons Ratio (x) = 0.27572 0.46183
# Poissons Ratio (y) = 0.39923 -0.06120
# Poissons Ratio (z) = 0.37734 -0.03453
#
# Static dielectric constant tensor:
#      x y z
#    x 4.370940 0.000000 0.000000 
#    y 0.000000 4.029320 0.000000 
#    z 0.000000 0.000000 4.660460 
# 
# 
# High freq. dielectric constant tensor:
#      x y z
#    x 1.960670 0.000000 0.000000 
#    y 0.000000 1.942940 0.000000 
#    z 0.000000 0.000000 1.975340 
# 
# From -- ./inp_files/3360.got.cif
#   From: 2010.03.12/outbox.cif.g09.slc.cpg/sg24_2_cif.got.tgz:3360.got - 2010.04.14 03:06:53.
