data_PCOD8166581
_publ_section_title
;
Structure prediction by ZEFSAII (Michael W. Deem and Ramdas Pophale) SiO2 
 PCOD8166581
Probable space group: P M M 2
;
_chemical_formula_sum "Si O2"
_cell_formula_units_Z 32
_cell_length_a 9.655239
_cell_length_b 9.426988
_cell_length_c 20.651046
_cell_angle_alpha 90.000000
_cell_angle_beta 90.000000
_cell_angle_gamma 90.000000
_cell_volume 1879.654535
_symmetry_space_group_name_H-M "P M M 2"
_symmetry_group_IT_number 25
_symmetry_cell_setting 'orthorhombic'
loop_
_space_group_symop_operation_xyz
x,y,z
-x,-y,z
-x,y,z
x,-y,z
loop_
_atom_site_type_symbol
_atom_site_label
_atom_site_fract_x
_atom_site_fract_y
_atom_site_fract_z
Si Si1 0.334965 0.657879 0.986130
Si Si2 0.339650 0.833971 0.865079
Si Si3 0.660504 0.831792 0.487737
Si Si4 0.155146 0.168482 0.605500
Si Si5 0.653822 0.669218 0.127702
Si Si6 0.838852 0.334606 0.385387
Si Si7 0.155484 0.168391 0.748853
Si Si8 0.152429 0.332113 0.239250
O O1 0.500000 0.655101 0.987652
O O2 0.277531 0.500000 0.972250
O O3 0.280093 0.760938 0.929862
O O4 0.284832 0.712586 0.057011
O O5 0.500000 0.797751 0.854362
O O6 0.259215 0.770476 0.802979
O O7 0.313707 0.000000 0.873387
O O8 0.500000 0.785955 0.489327
O O9 0.733347 0.775919 0.553618
O O10 0.737718 0.759143 0.428362
O O11 0.676079 0.000000 0.480312
O O12 0.197210 0.224652 0.677172
O O13 0.000000 0.222646 0.587485
O O14 0.154469 0.000000 0.606275
O O15 0.500000 0.731828 0.137117
O O16 0.648730 0.500000 0.131439
O O17 0.746546 0.734739 0.185266
O O18 0.812248 0.500000 0.399481
O O19 0.797950 0.295353 0.311711
O O20 0.000000 0.297472 0.398705
O O21 0.000000 0.218156 0.765690
O O22 0.164614 0.000000 0.748874
O O23 0.146494 0.500000 0.231385
O O24 0.000000 0.267979 0.227403
#
# Coordination Sequence:
#
# PCOD8166581 Si02
#       8
#     4   4   4   4   4   4   4   4
#     4   8  14  25  40  58  82 111 139 166 201 249
#     4   9  16  25  40  62  83 104 135 174 210 244
#     4  10  20  31  45  69  97 120 145 182 225 265
#     4   8  14  26  44  63  83 111 146 179 212 254
#     4   8  13  22  38  58  77 102 139 175 204 242
#     4   9  18  32  49  68  90 119 153 184 218 265
#     4   8  14  25  41  61  84 109 138 173 212 251
#     4   8  14  25  41  62  86 108 135 176 218 250
#
# _framework density 17.024405000000002
#
# number of rings (size 3 to 8) (size 9 to 14) (size 15 to 20)
#    0.000    3.500    0.000    2.625    0.000    2.000 
#    0.000    4.375    0.000    2.625    0.000    5.250 
#    0.000    0.000    0.000    0.000    0.000    0.000 
#
# Total GULP energy -396536.015167 kJ/mol
# GULP energy per Si atom -12391.750474 kJ/mol
# Density = 1.698566 g / cm^3
# Si number density = 17.024405 Si / 1000 Ang^3
#
#
#
# Elastic Constant Matrix: (Units=GPa)
#
#
# Indices 1 2 3 4 5 6 
#
# 1 97.2456 25.6256 90.2677 0.0000 0.0000 0.0000
# 2 25.6256 20.9921 33.9073 0.0000 0.0000 0.0000
# 3 90.2677 33.9073 173.8493 0.0000 0.0000 0.0000
# 4 0.0000 0.0000 0.0000 19.6444 0.0000 0.0000
# 5 0.0000 0.0000 0.0000 0.0000 33.9774 0.0000
# 6 0.0000 0.0000 0.0000 0.0000 0.0000 14.5044
#
#
#
# Elastic Compliance Matrix: (Units=1/GPa)
#
#
# Indices 1 2 3 4 5 6 
#
# 1 0.021785 -0.012151 -0.008942 0.000000 0.000000 0.000000
# 2 -0.012151 0.076324 -0.008577 0.000000 0.000000 0.000000
# 3 -0.008942 -0.008577 0.012068 0.000000 0.000000 0.000000
# 4 0.000000 0.000000 0.000000 0.050905 0.000000 0.000000
# 5 0.000000 0.000000 0.000000 0.000000 0.029431 0.000000
# 6 0.000000 0.000000 0.000000 0.000000 0.000000 0.068944
#
#
# Mechanical properties :
#
#
# Convention : Reuss Voigt Hill
#
# Bulk Modulus (GPa) = 19.67040 65.74312 42.70676
# Shear Modulus (GPa) = 14.89236 23.11101 19.00168
#
# Velocity S-wave (km/s) = 2.96085 3.68845 3.34450
# Velocity P-wave (km/s) = 4.82371 7.53926 6.32885
#
# Compressibility (1/GPa) = 0.05083781
#
# Stress axis : x y z
#
# Youngs Moduli (GPa) = 45.90276 13.10205 82.86582
#
# Poissons Ratio (x) = 0.15920 0.74095
# Poissons Ratio (y) = 0.55776 0.71074
# Poissons Ratio (z) = 0.41044 0.11238
#
# Static dielectric constant tensor:
#      x y z
#    x 3.288510 0.000000 0.000000 
#    y 0.000000 2.790070 0.000000 
#    z 0.000000 0.000000 3.624770 
# 
# 
# High freq. dielectric constant tensor:
#      x y z
#    x 1.643330 0.000000 0.000000 
#    y 0.000000 1.596820 0.000000 
#    z 0.000000 0.000000 1.674130 
# 
# From -- ./inp_files/6299.got.cif
#   From: 2010.03.12/outbox.cif.g09.slc.cpg/sg25_4_cif.got.tgz:6299.got - 2010.04.14 03:30:10.
