data_PCOD8166312
_publ_section_title
;
Structure prediction by ZEFSAII (Michael W. Deem and Ramdas Pophale) SiO2 
 PCOD8166312
Probable space group: P M M 2
;
_chemical_formula_sum "Si O2"
_cell_formula_units_Z 32
_cell_length_a 8.986842
_cell_length_b 14.351741
_cell_length_c 15.762348
_cell_angle_alpha 90.000000
_cell_angle_beta 90.000000
_cell_angle_gamma 90.000000
_cell_volume 2032.977659
_symmetry_space_group_name_H-M "P M M 2"
_symmetry_group_IT_number 25
_symmetry_cell_setting 'orthorhombic'
loop_
_space_group_symop_operation_xyz
x,y,z
-x,-y,z
-x,y,z
x,-y,z
loop_
_atom_site_type_symbol
_atom_site_label
_atom_site_fract_x
_atom_site_fract_y
_atom_site_fract_z
Si Si1 0.327474 0.605550 0.771440
Si Si2 0.321915 0.895267 0.345325
Si Si3 0.322884 0.792903 0.510566
Si Si4 0.175427 0.218978 0.831878
Si Si5 0.173027 0.108007 0.665540
Si Si6 0.677539 0.893741 0.980409
Si Si7 0.662695 0.889632 0.164027
Si Si8 0.323385 0.399175 0.578703
O O1 0.500000 0.633794 0.778492
O O2 0.302796 0.500000 0.803740
O O3 0.229876 0.674405 0.828646
O O4 0.269916 0.615528 0.675010
O O5 0.500000 0.893840 0.340855
O O6 0.262553 0.828082 0.419719
O O7 0.257147 0.860136 0.253168
O O8 0.266415 0.000000 0.365565
O O9 0.500000 0.797353 0.514693
O O10 0.263391 0.859351 0.583966
O O11 0.263819 0.686691 0.522202
O O12 0.228745 0.164467 0.747796
O O13 0.248217 0.173297 0.913447
O O14 0.000000 0.214853 0.842238
O O15 0.000000 0.126447 0.648416
O O16 0.206672 0.000000 0.682448
O O17 0.500000 0.883369 0.978569
O O18 0.723400 0.000000 0.959873
O O19 0.741266 0.863999 0.074395
O O20 0.500000 0.842530 0.162767
O O21 0.643517 0.000000 0.167406
O O22 0.500000 0.401312 0.577960
O O23 0.263651 0.500000 0.544846
#
# Coordination Sequence:
#
# PCOD8166312 Si02
#       8
#     4   4   4   4   4   4   4   4
#     4   9  17  31  49  65  84 112 146 185 224 258
#     4   8  13  21  36  62  90 109 133 176 222 255
#     4  10  17  26  44  66  84 108 147 184 210 248
#     4  11  21  31  44  63  89 118 146 180 222 265
#     4  10  21  33  40  52  84 124 148 165 204 257
#     4   9  17  29  46  65  84 113 153 188 217 259
#     4   7  11  22  39  59  84 110 137 176 223 261
#     4   8  14  25  41  61  85 110 137 176 219 249
#
# _framework density 15.740459
#
# number of rings (size 3 to 8) (size 9 to 14) (size 15 to 20)
#    0.000    3.000    1.250    3.375    0.000    2.250 
#    0.000    0.000    0.000    1.125    0.000    2.625 
#    0.000    5.000    0.000    0.000    0.000    0.125 
#
# Total GULP energy -396469.994227 kJ/mol
# GULP energy per Si atom -12389.687320 kJ/mol
# Density = 1.570463 g / cm^3
# Si number density = 15.740459 Si / 1000 Ang^3
#
#
#
# Elastic Constant Matrix: (Units=GPa)
#
#
# Indices 1 2 3 4 5 6 
#
# 1 18.4522 20.4517 23.9931 0.0000 0.0000 0.0000
# 2 20.4517 100.9324 61.9082 0.0000 0.0000 0.0000
# 3 23.9931 61.9082 135.8863 0.0000 0.0000 0.0000
# 4 0.0000 0.0000 0.0000 11.9999 0.0000 0.0000
# 5 0.0000 0.0000 0.0000 0.0000 7.7297 0.0000
# 6 0.0000 0.0000 0.0000 0.0000 0.0000 13.2085
#
#
#
# Elastic Compliance Matrix: (Units=1/GPa)
#
#
# Indices 1 2 3 4 5 6 
#
# 1 0.077104 -0.010094 -0.009016 0.000000 0.000000 0.000000
# 2 -0.010094 0.015071 -0.005084 0.000000 0.000000 0.000000
# 3 -0.009016 -0.005084 0.011267 0.000000 0.000000 0.000000
# 4 0.000000 0.000000 0.000000 0.083334 0.000000 0.000000
# 5 0.000000 0.000000 0.000000 0.000000 0.129371 0.000000
# 6 0.000000 0.000000 0.000000 0.000000 0.000000 0.075709
#
#
# Mechanical properties :
#
#
# Convention : Reuss Voigt Hill
#
# Bulk Modulus (GPa) = 18.16331 51.99744 35.08038
# Shear Modulus (GPa) = 10.90286 16.51547 13.70916
#
# Velocity S-wave (km/s) = 2.63471 3.24271 2.95439
# Velocity P-wave (km/s) = 4.56288 6.86485 5.82864
#
# Compressibility (1/GPa) = 0.05505604
#
# Stress axis : x y z
#
# Youngs Moduli (GPa) = 12.96948 66.35141 88.75325
#
# Poissons Ratio (x) = 0.66973 0.80016
# Poissons Ratio (y) = 0.13091 0.45123
# Poissons Ratio (z) = 0.11693 0.33734
#
# Static dielectric constant tensor:
#      x y z
#    x 2.620570 0.000000 0.000000 
#    y 0.000000 3.110800 0.000000 
#    z 0.000000 0.000000 3.285910 
# 
# 
# High freq. dielectric constant tensor:
#      x y z
#    x 1.566530 0.000000 0.000000 
#    y 0.000000 1.589600 0.000000 
#    z 0.000000 0.000000 1.600840 
# 
# From -- ./inp_files/5703.got.cif
#   From: 2010.03.12/outbox.cif.g09.slc.cpg/sg25_3_cif.got.tgz:5703.got - 2010.04.14 03:30:10.
