data_PCOD8166171
_publ_section_title
;
Structure prediction by ZEFSAII (Michael W. Deem and Ramdas Pophale) SiO2 
 PCOD8166171
Probable space group: I 21 21 21
;
_chemical_formula_sum "Si O2"
_cell_formula_units_Z 32
_cell_length_a 7.560113
_cell_length_b 17.778533
_cell_length_c 10.976729
_cell_angle_alpha 90.000000
_cell_angle_beta 90.000000
_cell_angle_gamma 90.000000
_cell_volume 1475.357101
_symmetry_space_group_name_H-M "I 21 21 21"
_symmetry_group_IT_number 24
_symmetry_cell_setting 'orthorhombic'
loop_
_space_group_symop_operation_xyz
x,y,z
-x,1/2-y,z
x,-y,1/2-z
1/2-x,y,-z
1/2+x,1/2+y,1/2+z
1/2-x,-y,1/2+z
1/2+x,1/2-y,-z
-x,1/2+y,1/2-z
loop_
_atom_site_type_symbol
_atom_site_label
_atom_site_fract_x
_atom_site_fract_y
_atom_site_fract_z
Si Si1 0.724644 0.313130 0.361318
Si Si2 0.976885 0.914017 0.257767
Si Si3 0.874519 0.156382 0.739891
Si Si4 0.542260 0.334296 0.998048
O O1 0.750000 0.287263 0.500000
O O2 0.707277 0.240451 0.273996
O O3 0.538399 0.358001 0.351909
O O4 0.885656 0.364138 0.318048
O O5 0.778462 0.902838 0.205114
O O6 0.962601 0.889643 0.397668
O O7 0.036501 0.000000 0.250000
O O8 0.947908 0.145973 0.875824
O O9 0.500000 0.250000 0.956882
O O10 0.750000 0.348986 0.000000
#
# Coordination Sequence:
#
# PCOD8166171 Si02
#       4
#     8   8   8   8
#     4  11  25  46  72 104 137 179 237 297 349 404
#     4  12  27  44  67 104 148 187 223 278 355 427
#     4  11  24  46  74 105 127 182 242 291 343 403
#     4  12  21  44  77 104 135 173 239 302 333 404
#
# _framework density 21.689665000000002
#
# number of rings (size 3 to 8) (size 9 to 14) (size 15 to 20)
#    0.000    0.500    5.000    4.500    7.000    2.000 
#    9.000    0.000    0.000    0.000    0.000    0.000 
#    0.000    0.000    0.000    0.000    0.000    0.000 
#
# Total GULP energy -198440.211901 kJ/mol
# GULP energy per Si atom -12402.513244 kJ/mol
# Density = 2.164030 g / cm^3
# Si number density = 21.689665 Si / 1000 Ang^3
#
#
#
# Elastic Constant Matrix: (Units=GPa)
#
#
# Indices 1 2 3 4 5 6 
#
# 1 155.8973 25.1341 30.3804 -0.0002 0.0000 0.0000
# 2 25.1341 61.7281 26.5383 -0.0003 0.0001 0.0000
# 3 30.3804 26.5383 103.6695 -0.0012 0.0002 0.0001
# 4 -0.0002 -0.0003 -0.0012 -21.1707 0.0001 0.0001
# 5 0.0000 0.0001 0.0002 0.0001 24.1771 0.0000
# 6 0.0000 0.0000 0.0001 0.0001 0.0000 19.7235
#
#
#
# Elastic Compliance Matrix: (Units=1/GPa)
#
#
# Indices 1 2 3 4 5 6 
#
# 1 0.007067 -0.002233 -0.001499 0.000000 0.000000 0.000000
# 2 -0.002233 0.018909 -0.004186 0.000000 0.000000 0.000000
# 3 -0.001499 -0.004186 0.011157 -0.000001 0.000000 0.000000
# 4 0.000000 0.000000 -0.000001 -0.047235 0.000000 0.000000
# 5 0.000000 0.000000 0.000000 0.000000 0.041362 0.000000
# 6 0.000000 0.000000 0.000000 0.000000 0.000000 0.050701
#
#
# Mechanical properties :
#
#
# Convention : Reuss Voigt Hill
#
# Bulk Modulus (GPa) = 46.95698 53.93339 50.44519
# Shear Modulus (GPa) = 47.66654 20.49542 34.08098
#
# Velocity S-wave (km/s) = 4.69301 3.07732 3.96826
# Velocity P-wave (km/s) = 7.14578 6.12752 6.65615
#
# Compressibility (1/GPa) = 0.02129609
#
# Stress axis : x y z
#
# Youngs Moduli (GPa) = 141.51021 52.88506 89.62952
#
# Poissons Ratio (x) = 0.11808 0.13438
# Poissons Ratio (y) = 0.31596 0.37521
# Poissons Ratio (z) = 0.21217 0.22139
#
# Static dielectric constant tensor:
#      x y z
#    x 4.559470 0.000000 0.000000 
#    y 0.000000 3.744970 0.000000 
#    z 0.000000 0.000000 3.964900 
# 
# 
# High freq. dielectric constant tensor:
#      x y z
#    x 1.885520 0.000000 0.000000 
#    y 0.000000 1.810750 0.000000 
#    z 0.000000 0.000000 1.855450 
# 
# From -- ./inp_files/18074.got.cif
#   From: 2010.03.12/outbox.cif.g09.slc.cpg/sg24_10_cif.got.tgz:18074.got - 2010.04.14 03:06:53.
