data_PCOD8166290
_publ_section_title
;
Structure prediction by ZEFSAII (Michael W. Deem and Ramdas Pophale) SiO2 
 PCOD8166290
Probable space group: I 21 21 21
;
_chemical_formula_sum "Si O2"
_cell_formula_units_Z 24
_cell_length_a 5.148695
_cell_length_b 19.611351
_cell_length_c 9.803623
_cell_angle_alpha 90.000000
_cell_angle_beta 90.000000
_cell_angle_gamma 90.000000
_cell_volume 989.899900
_symmetry_space_group_name_H-M "I 21 21 21"
_symmetry_group_IT_number 24
_symmetry_cell_setting 'orthorhombic'
loop_
_space_group_symop_operation_xyz
x,y,z
-x,1/2-y,z
x,-y,1/2-z
1/2-x,y,-z
1/2+x,1/2+y,1/2+z
1/2-x,-y,1/2+z
1/2+x,1/2-y,-z
-x,1/2+y,1/2-z
loop_
_atom_site_type_symbol
_atom_site_label
_atom_site_fract_x
_atom_site_fract_y
_atom_site_fract_z
Si Si1 0.499753 0.624443 0.587434
Si Si2 0.095112 0.500000 0.250000
Si Si3 0.500000 0.250000 0.728069
Si Si4 0.750000 0.081734 0.500000
Si Si5 0.250000 0.824383 0.000000
O O1 0.250000 0.603135 0.500000
O O2 0.580807 0.559003 0.679745
O O3 0.405239 0.687634 0.678848
O O4 0.750000 0.646000 0.500000
O O5 0.272250 0.464738 0.365226
O O6 0.261466 0.224788 0.632560
O O7 0.499609 0.128546 0.499113
#
# Coordination Sequence:
#
# PCOD8166290 Si02
#       5
#     8   4   4   4   4
#     4  12  30  49  77 111 155 206 256 316 392 460
#     4  12  28  52  80 114 160 208 256 328 380 468
#     4  12  28  50  80 110 160 196 264 316 392 456
#     4  12  29  50  80 116 159 204 264 314 395 456
#     4  12  29  48  80 116 147 206 256 326 379 466
#
# _framework density 24.244876999999999
#
# number of rings (size 3 to 8) (size 9 to 14) (size 15 to 20)
#    0.000    0.000    5.000    2.000    7.000    5.333 
#    0.000    0.000    0.000    0.000    0.000    0.000 
#    0.000    0.000    0.000    0.000    0.000    0.000 
#
# Total GULP energy -148811.650416 kJ/mol
# GULP energy per Si atom -12400.970868 kJ/mol
# Density = 2.418970 g / cm^3
# Si number density = 24.244877 Si / 1000 Ang^3
#
#
#
# Elastic Constant Matrix: (Units=GPa)
#
#
# Indices 1 2 3 4 5 6 
#
# 1 142.3859 56.0933 58.0997 0.0000 0.0000 0.0000
# 2 56.0933 196.9199 88.4996 0.0000 0.0000 0.0000
# 3 58.0997 88.4996 168.7695 0.0000 0.0000 0.0000
# 4 0.0000 0.0000 0.0000 59.1819 0.0000 0.0000
# 5 0.0000 0.0000 0.0000 0.0000 25.2620 0.0000
# 6 0.0000 0.0000 0.0000 0.0000 0.0000 24.5538
#
#
#
# Elastic Compliance Matrix: (Units=1/GPa)
#
#
# Indices 1 2 3 4 5 6 
#
# 1 0.008473 -0.001443 -0.002160 0.000000 0.000000 0.000000
# 2 -0.001443 0.006890 -0.003116 0.000000 0.000000 0.000000
# 3 -0.002160 -0.003116 0.008303 0.000000 0.000000 0.000000
# 4 0.000000 0.000000 0.000000 0.016897 0.000000 0.000000
# 5 0.000000 0.000000 0.000000 0.000000 0.039585 0.000000
# 6 0.000000 0.000000 0.000000 0.000000 0.000000 0.040727
#
#
# Mechanical properties :
#
#
# Convention : Reuss Voigt Hill
#
# Bulk Modulus (GPa) = 97.77754 101.49560 99.63657
# Shear Modulus (GPa) = 36.30495 42.15838 39.23166
#
# Velocity S-wave (km/s) = 3.87386 4.17448 4.02698
# Velocity P-wave (km/s) = 7.77340 8.07395 7.92510
#
# Compressibility (1/GPa) = 0.01022730
#
# Stress axis : x y z
#
# Youngs Moduli (GPa) = 118.02142 145.14613 120.43826
#
# Poissons Ratio (x) = 0.20940 0.26019
# Poissons Ratio (y) = 0.17026 0.37530
# Poissons Ratio (z) = 0.25497 0.45230
#
# Static dielectric constant tensor:
#      x y z
#    x 3.527420 0.000000 0.000000 
#    y 0.000000 4.870330 0.000000 
#    z 0.000000 0.000000 4.882130 
# 
# 
# High freq. dielectric constant tensor:
#      x y z
#    x 1.926670 0.000000 0.000000 
#    y 0.000000 1.998540 0.000000 
#    z 0.000000 0.000000 1.986630 
# 
# From -- ./inp_files/876.got.cif
#   From: 2010.03.12/outbox.cif.g09.slc.cpg/sg24_1_cif.got.tgz:876.got - 2010.04.14 03:06:53.
