data_PCOD8166556
_publ_section_title
;
Structure prediction by ZEFSAII (Michael W. Deem and Ramdas Pophale) SiO2 
 PCOD8166556
Probable space group: P M M 2
;
_chemical_formula_sum "Si O2"
_cell_formula_units_Z 24
_cell_length_a 11.685768
_cell_length_b 8.774762
_cell_length_c 12.666727
_cell_angle_alpha 90.000000
_cell_angle_beta 90.000000
_cell_angle_gamma 90.000000
_cell_volume 1298.844071
_symmetry_space_group_name_H-M "P M M 2"
_symmetry_group_IT_number 25
_symmetry_cell_setting 'orthorhombic'
loop_
_space_group_symop_operation_xyz
x,y,z
-x,-y,z
-x,y,z
x,-y,z
loop_
_atom_site_type_symbol
_atom_site_label
_atom_site_fract_x
_atom_site_fract_y
_atom_site_fract_z
Si Si1 0.133339 0.823533 0.895030
Si Si2 0.500000 0.179583 0.640137
Si Si3 0.722339 0.823108 0.323414
Si Si4 0.126363 0.180303 0.133138
Si Si5 0.500000 0.678235 0.409211
Si Si6 0.132052 0.174317 0.529894
Si Si7 0.729112 0.677257 0.711937
O O1 0.209737 0.718877 0.820832
O O2 0.000000 0.792442 0.872187
O O3 0.161783 0.000000 0.873478
O O4 0.164929 0.776916 0.014755
O O5 0.500000 0.240036 0.521407
O O6 0.389200 0.232542 0.703786
O O7 0.500000 0.000000 0.632063
O O8 0.781399 0.758240 0.217031
O O9 0.610045 0.724242 0.341792
O O10 0.811644 0.798449 0.417132
O O11 0.687575 0.000000 0.312850
O O12 0.000000 0.249481 0.156186
O O13 0.117347 0.000000 0.144694
O O14 0.500000 0.500000 0.430660
O O15 0.188883 0.283961 0.614742
O O16 0.000000 0.217805 0.519645
O O17 0.148404 0.000000 0.567526
O O18 0.700895 0.500000 0.709747
#
# Coordination Sequence:
#
# PCOD8166556 Si02
#       7
#     4   2   4   4   2   4   4
#     4   9  18  35  59  85 115 152 193 235 278 327
#     4  12  24  42  63  80 103 144 193 237 283 337
#     4  10  19  34  58  84 111 146 190 234 278 328
#     4   8  15  31  58  89 115 143 187 239 280 319
#     4  12  24  38  55  80 115 152 187 227 279 339
#     4  10  20  33  53  82 114 147 184 227 276 333
#     4  12  24  37  55  82 115 148 185 231 284 341
#
# _framework density 18.477968000000001
#
# number of rings (size 3 to 8) (size 9 to 14) (size 15 to 20)
#    0.000    1.833    1.667    5.000    0.000    4.667 
#    0.000    1.667    0.000    4.500    0.000    0.000 
#    0.000    0.000    0.000    0.000    0.000    0.000 
#
# Total GULP energy -297657.789038 kJ/mol
# GULP energy per Si atom -12402.407877 kJ/mol
# Density = 1.843591 g / cm^3
# Si number density = 18.477968 Si / 1000 Ang^3
#
#
#
# Elastic Constant Matrix: (Units=GPa)
#
#
# Indices 1 2 3 4 5 6 
#
# 1 127.3985 52.8419 60.5823 0.0000 0.0000 0.0000
# 2 52.8419 99.9448 46.7521 0.0000 0.0000 0.0000
# 3 60.5823 46.7521 121.3377 0.0000 0.0000 0.0000
# 4 0.0000 0.0000 0.0000 1.3293 0.0000 0.0000
# 5 0.0000 0.0000 0.0000 0.0000 335.3088 0.0000
# 6 0.0000 0.0000 0.0000 0.0000 0.0000 2.7653
#
#
#
# Elastic Compliance Matrix: (Units=1/GPa)
#
#
# Indices 1 2 3 4 5 6 
#
# 1 0.011557 -0.004161 -0.004167 0.000000 0.000000 0.000000
# 2 -0.004161 0.013704 -0.003203 0.000000 0.000000 0.000000
# 3 -0.004167 -0.003203 0.011556 0.000000 0.000000 0.000000
# 4 0.000000 0.000000 0.000000 0.752251 0.000000 0.000000
# 5 0.000000 0.000000 0.000000 0.000000 0.002982 0.000000
# 6 0.000000 0.000000 0.000000 0.000000 0.000000 0.361624
#
#
# Mechanical properties :
#
#
# Convention : Reuss Voigt Hill
#
# Bulk Modulus (GPa) = 72.69877 74.33705 73.51791
# Shear Modulus (GPa) = 4.23256 80.44768 42.34012
#
# Velocity S-wave (km/s) = 1.51511 6.60542 4.79203
# Velocity P-wave (km/s) = 6.51841 9.92436 8.39591
#
# Compressibility (1/GPa) = 0.01375539
#
# Stress axis : x y z
#
# Youngs Moduli (GPa) = 86.52942 72.97376 86.53602
#
# Poissons Ratio (x) = 0.30364 0.36059
# Poissons Ratio (y) = 0.36005 0.27713
# Poissons Ratio (z) = 0.36056 0.23370
#
# Static dielectric constant tensor:
#      x y z
#    x 2.048710 0.000000 0.000000 
#    y 0.000000 3.179820 0.000000 
#    z 0.000000 0.000000 3.547040 
# 
# 
# High freq. dielectric constant tensor:
#      x y z
#    x 1.722310 0.000000 0.000000 
#    y 0.000000 1.694990 0.000000 
#    z 0.000000 0.000000 1.720790 
# 
# From -- ./inp_files/3936.got.cif
#   From: 2010.03.12/outbox.cif.g09.slc.cpg/sg25_2_cif.got.tgz:3936.got - 2010.04.14 03:30:10.
