data_PCOD8166654
_publ_section_title
;
Structure prediction by ZEFSAII (Michael W. Deem and Ramdas Pophale) SiO2 
 PCOD8166654
Probable space group: P M M 2
;
_chemical_formula_sum "Si O2"
_cell_formula_units_Z 22
_cell_length_a 7.411409
_cell_length_b 14.194064
_cell_length_c 12.191220
_cell_angle_alpha 90.000000
_cell_angle_beta 90.000000
_cell_angle_gamma 90.000000
_cell_volume 1282.492128
_symmetry_space_group_name_H-M "P M M 2"
_symmetry_group_IT_number 25
_symmetry_cell_setting 'orthorhombic'
loop_
_space_group_symop_operation_xyz
x,y,z
-x,-y,z
-x,y,z
x,-y,z
loop_
_atom_site_type_symbol
_atom_site_label
_atom_site_fract_x
_atom_site_fract_y
_atom_site_fract_z
Si Si1 0.206476 0.109314 0.195070
Si Si2 0.789439 0.110609 0.632804
Si Si3 0.500000 0.605009 0.691854
Si Si4 0.793097 0.396024 0.510189
Si Si5 0.500000 0.800705 0.786446
Si Si6 0.500000 0.108978 0.018576
Si Si7 0.210546 0.205702 0.411023
O O1 0.321719 0.133352 0.087970
O O2 0.292430 0.166023 0.298128
O O3 0.000000 0.138306 0.170225
O O4 0.222218 0.000000 0.225941
O O5 0.679512 0.157625 0.731250
O O6 0.713723 0.152253 0.518183
O O7 0.000000 0.134664 0.649965
O O8 0.753629 0.000000 0.633096
O O9 0.500000 0.500000 0.745488
O O10 0.322659 0.618582 0.618594
O O11 0.500000 0.686629 0.782548
O O12 0.757839 0.500000 0.458972
O O13 0.742858 0.317044 0.419994
O O14 0.000000 0.383381 0.546865
O O15 0.500000 0.825434 0.913476
O O16 0.500000 0.000000 0.982316
O O17 0.000000 0.184601 0.405683
#
# Coordination Sequence:
#
# PCOD8166654 Si02
#       7
#     4   4   2   4   2   2   4
#     4   9  18  33  51  70  96 130 166 204 241 285
#     4  10  20  32  48  75 107 133 158 196 251 309
#     4  10  20  33  51  72  96 131 169 204 247 300
#     4   9  17  30  48  73 104 131 159 198 246 303
#     4  12  22  35  52  71  99 133 170 211 250 296
#     4  10  22  36  49  69  93 126 175 211 239 286
#     4   9  16  29  50  75 101 129 160 196 245 299
#
# _framework density 17.154102000000002
#
# number of rings (size 3 to 8) (size 9 to 14) (size 15 to 20)
#    0.000    2.364    1.818    1.364    0.000    4.364 
#    0.000    3.636    0.000    1.091    0.000    0.000 
#    0.000    0.000    0.000    0.000    0.000    0.000 
#
# Total GULP energy -272741.418959 kJ/mol
# GULP energy per Si atom -12397.337225 kJ/mol
# Density = 1.711506 g / cm^3
# Si number density = 17.154102 Si / 1000 Ang^3
#
#
#
# Elastic Constant Matrix: (Units=GPa)
#
#
# Indices 1 2 3 4 5 6 
#
# 1 76.7504 39.4518 42.2548 0.0000 0.0000 0.0000
# 2 39.4518 135.9711 75.2452 0.0000 0.0000 0.0000
# 3 42.2548 75.2452 127.1628 0.0000 0.0000 0.0000
# 4 0.0000 0.0000 0.0000 27.2950 0.0000 0.0000
# 5 0.0000 0.0000 0.0000 0.0000 11.6375 0.0000
# 6 0.0000 0.0000 0.0000 0.0000 0.0000 17.3533
#
#
#
# Elastic Compliance Matrix: (Units=1/GPa)
#
#
# Indices 1 2 3 4 5 6 
#
# 1 0.016549 -0.002615 -0.003952 0.000000 0.000000 0.000000
# 2 -0.002615 0.011348 -0.005846 0.000000 0.000000 0.000000
# 3 -0.003952 -0.005846 0.012636 0.000000 0.000000 0.000000
# 4 0.000000 0.000000 0.000000 0.036637 0.000000 0.000000
# 5 0.000000 0.000000 0.000000 0.000000 0.085929 0.000000
# 6 0.000000 0.000000 0.000000 0.000000 0.000000 0.057626
#
#
# Mechanical properties :
#
#
# Convention : Reuss Voigt Hill
#
# Bulk Modulus (GPa) = 63.66123 72.64311 68.15217
# Shear Modulus (GPa) = 19.93717 23.45265 21.69491
#
# Velocity S-wave (km/s) = 3.41286 3.70154 3.56013
# Velocity P-wave (km/s) = 7.26100 7.79153 7.53093
#
# Compressibility (1/GPa) = 0.01570815
#
# Stress axis : x y z
#
# Youngs Moduli (GPa) = 60.42672 88.11777 79.13602
#
# Poissons Ratio (x) = 0.23041 0.31273
# Poissons Ratio (y) = 0.15800 0.46265
# Poissons Ratio (z) = 0.23880 0.51516
#
# Static dielectric constant tensor:
#      x y z
#    x 3.379690 0.000000 0.000000 
#    y 0.000000 3.414430 0.000000 
#    z 0.000000 0.000000 2.941960 
# 
# 
# High freq. dielectric constant tensor:
#      x y z
#    x 1.673690 0.000000 0.000000 
#    y 0.000000 1.665090 0.000000 
#    z 0.000000 0.000000 1.623340 
# 
# From -- ./inp_files/2043.got.cif
#   From: 2010.03.12/outbox.cif.g09.slc.cpg/sg25_2_cif.got.tgz:2043.got - 2010.04.14 03:30:10.
