data_PCOD8166459
_publ_section_title
;
Structure prediction by ZEFSAII (Michael W. Deem and Ramdas Pophale) SiO2 
 PCOD8166459
Probable space group: P M M 2
;
_chemical_formula_sum "Si O2"
_cell_formula_units_Z 32
_cell_length_a 8.944560
_cell_length_b 14.232230
_cell_length_c 15.552007
_cell_angle_alpha 90.000000
_cell_angle_beta 90.000000
_cell_angle_gamma 90.000000
_cell_volume 1979.786590
_symmetry_space_group_name_H-M "P M M 2"
_symmetry_group_IT_number 25
_symmetry_cell_setting 'orthorhombic'
loop_
_space_group_symop_operation_xyz
x,y,z
-x,-y,z
-x,y,z
x,-y,z
loop_
_atom_site_type_symbol
_atom_site_label
_atom_site_fract_x
_atom_site_fract_y
_atom_site_fract_z
Si Si1 0.831609 0.611643 0.278290
Si Si2 0.322287 0.897835 0.861925
Si Si3 0.325641 0.390607 0.762737
Si Si4 0.324512 0.390860 0.106623
Si Si5 0.176542 0.284594 0.607284
Si Si6 0.673990 0.106568 0.665972
Si Si7 0.322552 0.292902 0.936126
Si Si8 0.326319 0.610502 0.450540
O O1 0.829180 0.500000 0.276166
O O2 0.756616 0.649769 0.191006
O O3 0.737435 0.647421 0.359786
O O4 0.000000 0.650499 0.285006
O O5 0.500000 0.898894 0.863387
O O6 0.271156 0.880246 0.764124
O O7 0.261113 0.813515 0.921868
O O8 0.262082 0.000000 0.894121
O O9 0.500000 0.367270 0.748459
O O10 0.292748 0.500000 0.752269
O O11 0.231314 0.334935 0.693238
O O12 0.272086 0.358489 0.857083
O O13 0.500000 0.374826 0.118905
O O14 0.288231 0.500000 0.091362
O O15 0.258509 0.334156 0.024979
O O16 0.231499 0.176667 0.606339
O O17 0.240779 0.336932 0.525267
O O18 0.000000 0.288161 0.602675
O O19 0.500000 0.132073 0.657590
O O20 0.703985 0.000000 0.635219
O O21 0.500000 0.293353 0.941446
O O22 0.500000 0.635574 0.454894
O O23 0.298331 0.500000 0.461998
#
# Coordination Sequence:
#
# PCOD8166459 Si02
#       8
#     4   4   4   4   4   4   4   4
#     4   9  17  30  47  67  92 120 149 188 238 285
#     4   8  13  23  43  68  89 112 149 200 246 275
#     4  10  19  31  46  63  89 128 170 204 232 270
#     4   9  16  26  42  65  91 120 154 190 229 275
#     4  12  23  32  45  68  99 130 157 191 238 291
#     4   9  17  32  53  71  89 119 161 205 242 278
#     4   9  15  25  43  66  91 119 157 200 236 273
#     4  10  20  34  52  71  92 122 161 201 236 278
#
# _framework density 16.163357999999999
#
# number of rings (size 3 to 8) (size 9 to 14) (size 15 to 20)
#    0.000    2.500    1.250    3.375    0.000    5.750 
#    0.000    0.625    0.000    1.500    0.000    0.875 
#    0.000    5.000    0.000    0.000    0.000    0.000 
#
# Total GULP energy -396721.623474 kJ/mol
# GULP energy per Si atom -12397.550734 kJ/mol
# Density = 1.612657 g / cm^3
# Si number density = 16.163358 Si / 1000 Ang^3
#
#
#
# Elastic Constant Matrix: (Units=GPa)
#
#
# Indices 1 2 3 4 5 6 
#
# 1 78.4254 45.1152 54.6650 0.0000 0.0000 0.0000
# 2 45.1152 80.0511 44.7723 0.0000 0.0000 0.0000
# 3 54.6650 44.7723 117.4350 0.0000 0.0000 0.0000
# 4 0.0000 0.0000 0.0000 6.3629 0.0000 0.0000
# 5 0.0000 0.0000 0.0000 0.0000 0.9510 0.0000
# 6 0.0000 0.0000 0.0000 0.0000 0.0000 12.9347
#
#
#
# Elastic Compliance Matrix: (Units=1/GPa)
#
#
# Indices 1 2 3 4 5 6 
#
# 1 0.022923 -0.008835 -0.007302 0.000000 0.000000 0.000000
# 2 -0.008835 0.019283 -0.003239 0.000000 0.000000 0.000000
# 3 -0.007302 -0.003239 0.013149 0.000000 0.000000 0.000000
# 4 0.000000 0.000000 0.000000 0.157160 0.000000 0.000000
# 5 0.000000 0.000000 0.000000 0.000000 1.051543 0.000000
# 6 0.000000 0.000000 0.000000 0.000000 0.000000 0.077312
#
#
# Mechanical properties :
#
#
# Convention : Reuss Voigt Hill
#
# Bulk Modulus (GPa) = 60.23008 62.77962 61.50485
# Shear Modulus (GPa) = 3.60840 12.80698 8.20769
#
# Velocity S-wave (km/s) = 1.49576 2.81792 2.25588
# Velocity P-wave (km/s) = 6.35038 7.03652 6.70223
#
# Compressibility (1/GPa) = 0.01660300
#
# Stress axis : x y z
#
# Youngs Moduli (GPa) = 43.62369 51.85965 76.04936
#
# Poissons Ratio (x) = 0.45818 0.55533
# Poissons Ratio (y) = 0.38542 0.24632
# Poissons Ratio (z) = 0.31855 0.16797
#
# Static dielectric constant tensor:
#      x y z
#    x 2.897190 0.000000 0.000000 
#    y 0.000000 3.193400 0.000000 
#    z 0.000000 0.000000 3.166740 
# 
# 
# High freq. dielectric constant tensor:
#      x y z
#    x 1.600430 0.000000 0.000000 
#    y 0.000000 1.606460 0.000000 
#    z 0.000000 0.000000 1.613360 
# 
# From -- ./inp_files/5664.got.cif
#   From: 2010.03.12/outbox.cif.g09.slc.cpg/sg25_3_cif.got.tgz:5664.got - 2010.04.14 03:30:10.
