data_PCOD8166548
_publ_section_title
;
Structure prediction by ZEFSAII (Michael W. Deem and Ramdas Pophale) SiO2 
 PCOD8166548
Probable space group: P M M 2
;
_chemical_formula_sum "Si O2"
_cell_formula_units_Z 28
_cell_length_a 17.081943
_cell_length_b 9.488153
_cell_length_c 9.625840
_cell_angle_alpha 90.000000
_cell_angle_beta 90.000000
_cell_angle_gamma 90.000000
_cell_volume 1560.118498
_symmetry_space_group_name_H-M "P M M 2"
_symmetry_group_IT_number 25
_symmetry_cell_setting 'orthorhombic'
loop_
_space_group_symop_operation_xyz
x,y,z
-x,-y,z
-x,y,z
x,-y,z
loop_
_atom_site_type_symbol
_atom_site_label
_atom_site_fract_x
_atom_site_fract_y
_atom_site_fract_z
Si Si1 0.910821 0.149594 0.685380
Si Si2 0.683633 0.335769 0.325866
Si Si3 0.311771 0.657905 0.753100
Si Si4 0.407685 0.837368 0.542446
Si Si5 0.817054 0.652900 0.523624
Si Si6 0.759674 0.334588 0.042982
Si Si7 0.089473 0.832058 0.995446
O O1 0.887435 0.242890 0.553902
O O2 0.898077 0.218547 0.836450
O O3 0.000000 0.116730 0.663731
O O4 0.864868 0.000000 0.678707
O O5 0.662980 0.500000 0.355691
O O6 0.618011 0.239479 0.398894
O O7 0.766886 0.295810 0.393431
O O8 0.695160 0.304506 0.163215
O O9 0.348380 0.500000 0.765939
O O10 0.373386 0.762667 0.680321
O O11 0.234698 0.651021 0.661549
O O12 0.284924 0.715833 0.903592
O O13 0.500000 0.826434 0.552449
O O14 0.379815 0.000000 0.538593
O O15 0.853143 0.500000 0.493131
O O16 0.781029 0.500000 0.036796
O O17 0.840943 0.250474 0.075679
O O18 0.000000 0.791950 0.044085
O O19 0.100618 0.000000 0.010928
#
# Coordination Sequence:
#
# PCOD8166548 Si02
#       7
#     4   4   4   4   4   4   4
#     4   9  17  28  43  66  95 128 168 213 259 303
#     4   9  20  36  54  76 105 138 171 209 256 309
#     4   9  18  32  53  79 103 129 166 210 255 303
#     4  10  21  37  57  81 106 134 170 208 251 310
#     4   9  16  29  47  70  95 123 163 209 252 297
#     4  10  19  34  54  78 106 137 177 220 259 306
#     4   9  18  31  47  71 104 140 177 218 265 312
#
# _framework density 17.947354000000001
#
# number of rings (size 3 to 8) (size 9 to 14) (size 15 to 20)
#    0.000    2.714    1.429    2.143    0.000    5.143 
#    0.000    2.857    0.000    8.571    0.000    0.000 
#    0.000    0.000    0.000    0.000    0.000    0.000 
#
# Total GULP energy -346912.660004 kJ/mol
# GULP energy per Si atom -12389.737857 kJ/mol
# Density = 1.790651 g / cm^3
# Si number density = 17.947354 Si / 1000 Ang^3
#
#
#
# Elastic Constant Matrix: (Units=GPa)
#
#
# Indices 1 2 3 4 5 6 
#
# 1 62.0799 43.8028 28.2678 0.0000 0.0000 0.0000
# 2 43.8028 72.9595 26.6680 0.0000 0.0000 0.0000
# 3 28.2678 26.6680 90.2380 0.0000 0.0000 0.0000
# 4 0.0000 0.0000 0.0000 -2.3575 0.0000 0.0000
# 5 0.0000 0.0000 0.0000 0.0000 19.1893 0.0000
# 6 0.0000 0.0000 0.0000 0.0000 0.0000 15.2164
#
#
#
# Elastic Compliance Matrix: (Units=1/GPa)
#
#
# Indices 1 2 3 4 5 6 
#
# 1 0.029485 -0.016061 -0.004490 0.000000 0.000000 0.000000
# 2 -0.016061 0.024115 -0.002095 0.000000 0.000000 0.000000
# 3 -0.004490 -0.002095 0.013108 0.000000 0.000000 0.000000
# 4 0.000000 0.000000 0.000000 -0.424177 0.000000 0.000000
# 5 0.000000 0.000000 0.000000 0.000000 0.052112 0.000000
# 6 0.000000 0.000000 0.000000 0.000000 0.000000 0.065718
#
#
# Mechanical properties :
#
#
# Convention : Reuss Voigt Hill
#
# Bulk Modulus (GPa) = 46.69658 46.97272 46.83465
# Shear Modulus (GPa) = -26.70827 14.84556 -5.93136
#
# Velocity S-wave (km/s) = -3.86183 2.87918 -1.81990
# Velocity P-wave (km/s) = 2.48799 6.10592 4.66221
#
# Compressibility (1/GPa) = 0.02141484
#
# Stress axis : x y z
#
# Youngs Moduli (GPa) = 33.91547 41.46866 76.29167
#
# Poissons Ratio (x) = 0.66602 0.34255
# Poissons Ratio (y) = 0.54471 0.15986
# Poissons Ratio (z) = 0.15228 0.08689
#
# Static dielectric constant tensor:
#      x y z
#    x 3.058730 0.000000 0.000000 
#    y 0.000000 3.626520 0.000000 
#    z 0.000000 0.000000 3.394640 
# 
# 
# High freq. dielectric constant tensor:
#      x y z
#    x 1.672580 0.000000 0.000000 
#    y 0.000000 1.695020 0.000000 
#    z 0.000000 0.000000 1.681970 
# 
# From -- ./inp_files/3559.got.cif
#   From: 2010.03.12/outbox.cif.g09.slc.cpg/sg25_2_cif.got.tgz:3559.got - 2010.04.14 03:30:10.
