data_PCOD8166092
_publ_section_title
;
Structure prediction by ZEFSAII (Michael W. Deem and Ramdas Pophale) SiO2 
 PCOD8166092
Probable space group: I 21 21 21
;
_chemical_formula_sum "Si O2"
_cell_formula_units_Z 56
_cell_length_a 24.940080
_cell_length_b 20.517404
_cell_length_c 5.225382
_cell_angle_alpha 90.000000
_cell_angle_beta 90.000000
_cell_angle_gamma 90.000000
_cell_volume 2673.857739
_symmetry_space_group_name_H-M "I 21 21 21"
_symmetry_group_IT_number 24
_symmetry_cell_setting 'orthorhombic'
loop_
_space_group_symop_operation_xyz
x,y,z
-x,1/2-y,z
x,-y,1/2-z
1/2-x,y,-z
1/2+x,1/2+y,1/2+z
1/2-x,-y,1/2+z
1/2+x,1/2-y,-z
-x,1/2+y,1/2-z
loop_
_atom_site_type_symbol
_atom_site_label
_atom_site_fract_x
_atom_site_fract_y
_atom_site_fract_z
Si Si1 0.283981 0.203439 0.760594
Si Si2 0.432727 0.659398 0.205672
Si Si3 0.394446 0.279154 0.807759
Si Si4 0.090963 0.927113 0.829701
Si Si5 0.988593 0.070644 0.364355
Si Si6 0.529747 0.669415 0.494338
Si Si7 0.694209 0.435645 0.617253
O O1 0.250000 0.214694 0.500000
O O2 0.338201 0.243675 0.775239
O O3 0.296875 0.126475 0.798601
O O4 0.250000 0.227804 0.000000
O O5 0.393734 0.668107 0.456157
O O6 0.490948 0.693147 0.262301
O O7 0.402700 0.692126 0.971105
O O8 0.448517 0.585382 0.105982
O O9 0.443560 0.229439 0.860402
O O10 0.077513 0.877214 0.602435
O O11 0.080708 0.000000 0.750000
O O12 0.051156 0.919312 0.067883
O O13 0.152397 0.912886 0.900686
O O14 0.974762 0.000000 0.250000
O O15 0.984100 0.128595 0.154867
O O16 0.669015 0.500000 0.750000
O O17 0.750000 0.459577 0.500000
#
# Coordination Sequence:
#
# PCOD8166092 Si02
#       7
#     8   8   8   8   8   8   8
#     4  11  26  46  67  91 122 168 220 274 334 383
#     4  11  26  41  63  96 127 169 212 260 321 384
#     4  12  26  42  66  91 131 168 218 266 323 382
#     4  11  23  36  58  87 120 172 226 271 322 375
#     4  11  22  42  60  91 128 172 211 262 313 387
#     4  11  25  38  64  89 130 173 215 266 310 385
#     4  11  24  39  58  83 118 163 229 293 341 367
#
# _framework density 20.943521
#
# number of rings (size 3 to 8) (size 9 to 14) (size 15 to 20)
#    0.000    0.857    2.857    3.429   14.000    0.000 
#    0.000    0.000    0.000    0.000    0.000    0.000 
#    0.000    3.429    0.571    0.000    0.000    0.000 
#
# Total GULP energy -346895.421060 kJ/mol
# GULP energy per Si atom -12389.122181 kJ/mol
# Density = 2.089585 g / cm^3
# Si number density = 20.943521 Si / 1000 Ang^3
#
#
#
# Elastic Constant Matrix: (Units=GPa)
#
#
# Indices 1 2 3 4 5 6 
#
# 1 94.9189 20.0044 40.2311 0.0000 0.0000 0.0000
# 2 20.0044 61.9913 26.9168 0.0000 0.0000 0.0000
# 3 40.2311 26.9168 115.6801 0.0000 0.0000 0.0000
# 4 0.0000 0.0000 0.0000 28.1980 0.0000 0.0000
# 5 0.0000 0.0000 0.0000 0.0000 35.4201 0.0000
# 6 0.0000 0.0000 0.0000 0.0000 0.0000 10.7553
#
#
#
# Elastic Compliance Matrix: (Units=1/GPa)
#
#
# Indices 1 2 3 4 5 6 
#
# 1 0.012675 -0.002421 -0.003845 0.000000 0.000000 0.000000
# 2 -0.002421 0.018407 -0.003441 0.000000 0.000000 0.000000
# 3 -0.003845 -0.003441 0.010782 0.000000 0.000000 0.000000
# 4 0.000000 0.000000 0.000000 0.035463 0.000000 0.000000
# 5 0.000000 0.000000 0.000000 0.000000 0.028233 0.000000
# 6 0.000000 0.000000 0.000000 0.000000 0.000000 0.092977
#
#
# Mechanical properties :
#
#
# Convention : Reuss Voigt Hill
#
# Bulk Modulus (GPa) = 44.54194 49.65500 47.09847
# Shear Modulus (GPa) = 22.17940 27.23722 24.70831
#
# Velocity S-wave (km/s) = 3.25777 3.61017 3.43849
# Velocity P-wave (km/s) = 5.95522 6.41391 6.18881
#
# Compressibility (1/GPa) = 0.02245075
#
# Stress axis : x y z
#
# Youngs Moduli (GPa) = 78.89459 54.32844 92.74402
#
# Poissons Ratio (x) = 0.13152 0.35659
# Poissons Ratio (y) = 0.19099 0.31913
# Poissons Ratio (z) = 0.30334 0.18694
#
# Static dielectric constant tensor:
#      x y z
#    x 4.031710 0.000000 0.000000 
#    y 0.000000 3.894810 0.000000 
#    z 0.000000 0.000000 3.888330 
# 
# 
# High freq. dielectric constant tensor:
#      x y z
#    x 1.801960 0.000000 0.000000 
#    y 0.000000 1.804830 0.000000 
#    z 0.000000 0.000000 1.839390 
# 
# From -- ./inp_files/6509.got.cif
#   From: 2010.03.12/outbox.cif.g09.slc.cpg/sg24_4_cif.got.tgz:6509.got - 2010.04.14 03:06:53.
