data_PCOD8166666
_publ_section_title
;
Structure prediction by ZEFSAII (Michael W. Deem and Ramdas Pophale) SiO2 
 PCOD8166666
Probable space group: P M M 2
;
_chemical_formula_sum "Si O2"
_cell_formula_units_Z 32
_cell_length_a 9.110763
_cell_length_b 9.104630
_cell_length_c 20.965769
_cell_angle_alpha 90.000000
_cell_angle_beta 90.000000
_cell_angle_gamma 90.000000
_cell_volume 1739.113183
_symmetry_space_group_name_H-M "P M M 2"
_symmetry_group_IT_number 25
_symmetry_cell_setting 'orthorhombic'
loop_
_space_group_symop_operation_xyz
x,y,z
-x,-y,z
-x,y,z
x,-y,z
loop_
_atom_site_type_symbol
_atom_site_label
_atom_site_fract_x
_atom_site_fract_y
_atom_site_fract_z
Si Si1 0.175232 0.833197 0.400280
Si Si2 0.327398 0.670556 0.763308
Si Si3 0.160369 0.826066 0.262394
Si Si4 0.173756 0.831398 0.878805
Si Si5 0.175911 0.834628 0.125996
Si Si6 0.325486 0.834178 0.637515
Si Si7 0.174692 0.664852 0.004046
Si Si8 0.670267 0.328924 0.512152
O O1 0.238832 0.786435 0.329798
O O2 0.241569 0.721221 0.450450
O O3 0.000000 0.821638 0.400205
O O4 0.223539 0.000000 0.416892
O O5 0.500000 0.695902 0.771459
O O6 0.287074 0.500000 0.759544
O O7 0.246494 0.741928 0.822389
O O8 0.267452 0.746973 0.699096
O O9 0.239082 0.779181 0.195479
O O10 0.000000 0.751425 0.263674
O O11 0.141086 0.000000 0.259887
O O12 0.230294 0.763075 0.945234
O O13 0.000000 0.816628 0.872502
O O14 0.224589 0.000000 0.875931
O O15 0.000000 0.830428 0.128790
O O16 0.229114 0.000000 0.111220
O O17 0.237616 0.730915 0.070060
O O18 0.500000 0.831737 0.637124
O O19 0.266516 0.755871 0.573756
O O20 0.264374 0.000000 0.639756
O O21 0.235444 0.500000 0.995850
O O22 0.000000 0.665876 0.006135
O O23 0.500000 0.292212 0.501330
O O24 0.696297 0.500000 0.523842
#
# Coordination Sequence:
#
# PCOD8166666 Si02
#       8
#     4   4   4   4   4   4   4   4
#     4   9  17  30  48  70  96 125 157 194 236 281
#     4  10  20  34  53  76 100 125 153 188 233 283
#     4   7  11  21  38  60  86 116 149 186 229 275
#     4  10  20  33  49  70  97 129 163 197 233 274
#     4   8  12  20  36  57  82 114 151 188 227 274
#     4   9  17  31  52  74  94 119 154 195 234 272
#     4   9  16  25  38  59  89 122 154 191 235 279
#     4  10  20  33  49  70  96 125 157 193 233 278
#
# _framework density 18.400182000000001
#
# number of rings (size 3 to 8) (size 9 to 14) (size 15 to 20)
#    0.000    3.000    0.000    3.375    0.000    5.500 
#    0.000    1.250    0.000    6.000    0.000    0.875 
#    0.000    5.000    0.000    0.000    0.000    0.000 
#
# Total GULP energy -396556.267791 kJ/mol
# GULP energy per Si atom -12392.383368 kJ/mol
# Density = 1.835830 g / cm^3
# Si number density = 18.400182 Si / 1000 Ang^3
#
#
#
# Elastic Constant Matrix: (Units=GPa)
#
#
# Indices 1 2 3 4 5 6 
#
# 1 13.4426 18.9212 23.3261 0.0000 0.0000 0.0000
# 2 18.9212 107.0787 69.8226 0.0000 0.0000 0.0000
# 3 23.3261 69.8226 184.0941 0.0000 0.0000 0.0000
# 4 0.0000 0.0000 0.0000 19.4713 0.0000 0.0000
# 5 0.0000 0.0000 0.0000 0.0000-1591.4238 0.0000
# 6 0.0000 0.0000 0.0000 0.0000 0.0000 18.7741
#
#
#
# Elastic Compliance Matrix: (Units=1/GPa)
#
#
# Indices 1 2 3 4 5 6 
#
# 1 0.108368 -0.013545 -0.008594 0.000000 0.000000 0.000000
# 2 -0.013545 0.014101 -0.003632 0.000000 0.000000 0.000000
# 3 -0.008594 -0.003632 0.007898 0.000000 0.000000 0.000000
# 4 0.000000 0.000000 0.000000 0.051358 0.000000 0.000000
# 5 0.000000 0.000000 0.000000 0.000000 -0.000628 0.000000
# 6 0.000000 0.000000 0.000000 0.000000 0.000000 0.053265
#
#
# Mechanical properties :
#
#
# Convention : Reuss Voigt Hill
#
# Bulk Modulus (GPa) = 12.68625 58.75059 35.71842
# Shear Modulus (GPa) = 16.01653 -297.79931 -140.89139
#
# Velocity S-wave (km/s) = 2.95355 -12.73567 -8.75996
# Velocity P-wave (km/s) = 4.30591 13.57440 9.10284
#
# Compressibility (1/GPa) = 0.07882547
#
# Stress axis : x y z
#
# Youngs Moduli (GPa) = 9.22781 70.91914 126.60937
#
# Poissons Ratio (x) = 0.96063 1.08803
# Poissons Ratio (y) = 0.12499 0.45981
# Poissons Ratio (z) = 0.07930 0.25756
#
# Static dielectric constant tensor:
#      x y z
#    x 2.778150 0.000000 0.000000 
#    y 0.000000 3.411420 0.000000 
#    z 0.000000 0.000000 3.846620 
# 
# 
# High freq. dielectric constant tensor:
#      x y z
#    x 1.643260 0.000000 0.000000 
#    y 0.000000 1.708650 0.000000 
#    z 0.000000 0.000000 1.740820 
# 
# From -- ./inp_files/6361.got.cif
#   From: 2010.03.12/outbox.cif.g09.slc.cpg/sg25_4_cif.got.tgz:6361.got - 2010.04.14 03:30:10.
