data_PCOD8166485
_publ_section_title
;
Structure prediction by ZEFSAII (Michael W. Deem and Ramdas Pophale) SiO2 
 PCOD8166485
Probable space group: P M M 2
;
_chemical_formula_sum "Si O2"
_cell_formula_units_Z 20
_cell_length_a 12.713018
_cell_length_b 8.897246
_cell_length_c 10.069167
_cell_angle_alpha 90.000000
_cell_angle_beta 90.000000
_cell_angle_gamma 90.000000
_cell_volume 1138.932024
_symmetry_space_group_name_H-M "P M M 2"
_symmetry_group_IT_number 25
_symmetry_cell_setting 'orthorhombic'
loop_
_space_group_symop_operation_xyz
x,y,z
-x,-y,z
-x,y,z
x,-y,z
loop_
_atom_site_type_symbol
_atom_site_label
_atom_site_fract_x
_atom_site_fract_y
_atom_site_fract_z
Si Si1 0.714252 0.321900 0.216260
Si Si2 0.119401 0.176847 0.707309
Si Si3 0.500000 0.166802 0.229627
Si Si4 0.724340 0.819455 0.934121
Si Si5 0.119236 0.676404 0.436398
Si Si6 0.500000 0.163445 0.915381
O O1 0.703354 0.500000 0.202640
O O2 0.604544 0.256767 0.272811
O O3 0.805954 0.272838 0.316937
O O4 0.748985 0.253295 0.075649
O O5 0.188025 0.235075 0.830914
O O6 0.161245 0.248963 0.571602
O O7 0.000000 0.227159 0.735664
O O8 0.129969 0.000000 0.692403
O O9 0.500000 0.000000 0.295201
O O10 0.500000 0.148643 0.073156
O O11 0.610754 0.757166 0.878101
O O12 0.720162 0.000000 0.950926
O O13 0.123686 0.500000 0.457783
O O14 0.000000 0.730055 0.404759
O O15 0.500000 0.000000 0.847121
#
# Coordination Sequence:
#
# PCOD8166485 Si02
#       6
#     4   4   2   4   4   2
#     4  10  19  31  50  75 100 127 163 203 240 285
#     4   9  18  32  49  69  94 126 164 203 242 286
#     4   9  17  31  50  71  98 130 160 194 244 295
#     4   9  17  30  48  70  96 124 157 198 242 287
#     4   9  19  35  51  68  96 133 167 201 244 290
#     4   7  12  25  44  63  86 118 148 178 224 279
#
# _framework density 17.560310999999999
#
# number of rings (size 3 to 8) (size 9 to 14) (size 15 to 20)
#    0.000    3.000    0.000    2.100    0.000    3.200 
#    0.000    1.000    0.000    1.200    0.000    0.000 
#    0.000    0.000    0.000    0.000    0.000    0.000 
#
# Total GULP energy -247869.356484 kJ/mol
# GULP energy per Si atom -12393.467824 kJ/mol
# Density = 1.752034 g / cm^3
# Si number density = 17.560311 Si / 1000 Ang^3
#
#
#
# Elastic Constant Matrix: (Units=GPa)
#
#
# Indices 1 2 3 4 5 6 
#
# 1 135.0523 39.4274 90.1196 0.0000 0.0000 0.0000
# 2 39.4274 46.3761 39.3215 0.0000 0.0000 0.0000
# 3 90.1196 39.3215 119.4435 0.0000 0.0000 0.0000
# 4 0.0000 0.0000 0.0000 26.9108 0.0000 0.0000
# 5 0.0000 0.0000 0.0000 0.0000 10.1375 0.0000
# 6 0.0000 0.0000 0.0000 0.0000 0.0000 21.5447
#
#
#
# Elastic Compliance Matrix: (Units=1/GPa)
#
#
# Indices 1 2 3 4 5 6 
#
# 1 0.015574 -0.004547 -0.010254 0.000000 0.000000 0.000000
# 2 -0.004547 0.031239 -0.006854 0.000000 0.000000 0.000000
# 3 -0.010254 -0.006854 0.018365 0.000000 0.000000 0.000000
# 4 0.000000 0.000000 0.000000 0.037160 0.000000 0.000000
# 5 0.000000 0.000000 0.000000 0.000000 0.098643 0.000000
# 6 0.000000 0.000000 0.000000 0.000000 0.000000 0.046415
#
#
# Mechanical properties :
#
#
# Convention : Reuss Voigt Hill
#
# Bulk Modulus (GPa) = 45.72469 70.95654 58.34062
# Shear Modulus (GPa) = 16.77876 20.51882 18.64879
#
# Velocity S-wave (km/s) = 3.09446 3.42201 3.26235
# Velocity P-wave (km/s) = 6.23400 7.49057 6.89098
#
# Compressibility (1/GPa) = 0.02187002
#
# Stress axis : x y z
#
# Youngs Moduli (GPa) = 64.20843 32.01081 54.45123
#
# Poissons Ratio (x) = 0.14554 0.55834
# Poissons Ratio (y) = 0.29193 0.37320
# Poissons Ratio (z) = 0.65839 0.21940
#
# Static dielectric constant tensor:
#      x y z
#    x 3.738470 0.000000 0.000000 
#    y 0.000000 3.155200 0.000000 
#    z 0.000000 0.000000 3.078570 
# 
# 
# High freq. dielectric constant tensor:
#      x y z
#    x 1.692150 0.000000 0.000000 
#    y 0.000000 1.666760 0.000000 
#    z 0.000000 0.000000 1.654690 
# 
# From -- ./inp_files/3011.got.cif
#   From: 2010.03.12/outbox.cif.g09.slc.cpg/sg25_2_cif.got.tgz:3011.got - 2010.04.14 03:30:10.
