data_PCOD8166108
_publ_section_title
;
Structure prediction by ZEFSAII (Michael W. Deem and Ramdas Pophale) SiO2 
 PCOD8166108
Probable space group: I 21 21 21
;
_chemical_formula_sum "Si O2"
_cell_formula_units_Z 40
_cell_length_a 7.798951
_cell_length_b 15.791687
_cell_length_c 14.301366
_cell_angle_alpha 90.000000
_cell_angle_beta 90.000000
_cell_angle_gamma 90.000000
_cell_volume 1761.336116
_symmetry_space_group_name_H-M "I 21 21 21"
_symmetry_group_IT_number 24
_symmetry_cell_setting 'orthorhombic'
loop_
_space_group_symop_operation_xyz
x,y,z
-x,1/2-y,z
x,-y,1/2-z
1/2-x,y,-z
1/2+x,1/2+y,1/2+z
1/2-x,-y,1/2+z
1/2+x,1/2-y,-z
-x,1/2+y,1/2-z
loop_
_atom_site_type_symbol
_atom_site_label
_atom_site_fract_x
_atom_site_fract_y
_atom_site_fract_z
Si Si1 0.493604 0.509187 0.860390
Si Si2 0.195905 0.739421 0.272329
Si Si3 0.796323 0.613623 0.598718
Si Si4 0.382464 0.318116 0.574656
Si Si5 0.847260 0.062851 0.836822
O O1 0.487150 0.500000 0.750000
O O2 0.658576 0.461651 0.898137
O O3 0.503741 0.607740 0.886054
O O4 0.310577 0.473927 0.898156
O O5 0.292523 0.821593 0.314166
O O6 0.205313 0.734149 0.159955
O O7 0.289359 0.656004 0.307258
O O8 0.000000 0.750000 0.307640
O O9 0.750000 0.660284 0.500000
O O10 0.983578 0.570041 0.598846
O O11 0.500000 0.250000 0.520519
O O12 0.250000 0.355302 0.500000
O O13 0.888799 0.000000 0.750000
#
# Coordination Sequence:
#
# PCOD8166108 Si02
#       5
#     8   8   8   8   8
#     4  11  22  49  72  99 146 190 234 302 360 422
#     4  11  22  47  71  97 145 188 233 297 365 425
#     4  12  28  42  71 113 143 187 237 300 362 437
#     4  11  25  44  73 105 142 193 239 301 364 426
#     4  11  23  44  74 102 135 194 240 283 363 433
#
# _framework density 22.710032000000002
#
# number of rings (size 3 to 8) (size 9 to 14) (size 15 to 20)
#    0.000    0.800    6.000    2.400    2.800    4.000 
#    0.000    0.000    0.000    0.000    0.000    0.000 
#    0.000    0.000    0.000    0.000    0.000    0.000 
#
# Total GULP energy -247892.200755 kJ/mol
# GULP energy per Si atom -12394.610038 kJ/mol
# Density = 2.265834 g / cm^3
# Si number density = 22.710032 Si / 1000 Ang^3
#
#
#
# Elastic Constant Matrix: (Units=GPa)
#
#
# Indices 1 2 3 4 5 6 
#
# 1 151.3075 46.0131 33.6721 0.0000 0.0000 0.0000
# 2 46.0131 140.1682 40.6689 0.0000 0.0000 0.0000
# 3 33.6721 40.6689 71.2054 0.0000 0.0000 0.0000
# 4 0.0000 0.0000 0.0000 17.2669 0.0000 0.0000
# 5 0.0000 0.0000 0.0000 0.0000 18.3519 0.0000
# 6 0.0000 0.0000 0.0000 0.0000 0.0000 29.2228
#
#
#
# Elastic Compliance Matrix: (Units=1/GPa)
#
#
# Indices 1 2 3 4 5 6 
#
# 1 0.007737 -0.001772 -0.002647 0.000000 0.000000 0.000000
# 2 -0.001772 0.008957 -0.004278 0.000000 0.000000 0.000000
# 3 -0.002647 -0.004278 0.017739 0.000000 0.000000 0.000000
# 4 0.000000 0.000000 0.000000 0.057914 0.000000 0.000000
# 5 0.000000 0.000000 0.000000 0.000000 0.054490 0.000000
# 6 0.000000 0.000000 0.000000 0.000000 0.000000 0.034220
#
#
# Mechanical properties :
#
#
# Convention : Reuss Voigt Hill
#
# Bulk Modulus (GPa) = 58.68604 67.04325 62.86465
# Shear Modulus (GPa) = 24.49414 29.12344 26.80879
#
# Velocity S-wave (km/s) = 3.28771 3.58495 3.43954
# Velocity P-wave (km/s) = 6.34898 6.83530 6.59663
#
# Compressibility (1/GPa) = 0.01703983
#
# Stress axis : x y z
#
# Youngs Moduli (GPa) = 129.25104 111.64241 56.37350
#
# Poissons Ratio (x) = 0.19782 0.14920
# Poissons Ratio (y) = 0.22902 0.24117
# Poissons Ratio (z) = 0.34208 0.47760
#
# Static dielectric constant tensor:
#      x y z
#    x 4.472580 0.000000 0.000000 
#    y 0.000000 4.178800 0.000000 
#    z 0.000000 0.000000 4.052680 
# 
# 
# High freq. dielectric constant tensor:
#      x y z
#    x 1.900330 0.000000 0.000000 
#    y 0.000000 1.906230 0.000000 
#    z 0.000000 0.000000 1.880050 
# 
# From -- ./inp_files/24535.got.cif
#   From: 2010.03.12/outbox.cif.g09.slc.cpg/sg24_13_cif.got.tgz:24535.got - 2010.04.14 03:06:53.
