data_PCOD8166023
_publ_section_title
;
Structure prediction by ZEFSAII (Michael W. Deem and Ramdas Pophale) SiO2 
 PCOD8166023
Probable space group: I 21 21 21
;
_chemical_formula_sum "Si O2"
_cell_formula_units_Z 48
_cell_length_a 4.916463
_cell_length_b 23.631878
_cell_length_c 20.379425
_cell_angle_alpha 90.000000
_cell_angle_beta 90.000000
_cell_angle_gamma 90.000000
_cell_volume 2367.788666
_symmetry_space_group_name_H-M "I 21 21 21"
_symmetry_group_IT_number 24
_symmetry_cell_setting 'orthorhombic'
loop_
_space_group_symop_operation_xyz
x,y,z
-x,1/2-y,z
x,-y,1/2-z
1/2-x,y,-z
1/2+x,1/2+y,1/2+z
1/2-x,-y,1/2+z
1/2+x,1/2-y,-z
-x,1/2+y,1/2-z
loop_
_atom_site_type_symbol
_atom_site_label
_atom_site_fract_x
_atom_site_fract_y
_atom_site_fract_z
Si Si1 0.612393 0.880905 0.859012
Si Si2 0.550272 0.560813 0.735638
Si Si3 0.489187 0.053093 0.045519
Si Si4 0.612959 0.425047 0.430750
Si Si5 0.577289 0.890879 0.324035
Si Si6 0.754296 0.788610 0.238523
O O1 0.645334 0.919957 0.795346
O O2 0.300993 0.892851 0.878563
O O3 0.663760 0.817853 0.831219
O O4 0.813890 0.898130 0.918742
O O5 0.674360 0.500000 0.750000
O O6 0.321187 0.562230 0.679012
O O7 0.808202 0.599842 0.719927
O O8 0.508847 0.103437 0.098964
O O9 0.407002 0.992866 0.079337
O O10 0.750000 0.043530 0.000000
O O11 0.250000 0.075065 0.000000
O O12 0.750000 0.410258 0.500000
O O13 0.694999 0.830767 0.299728
O O14 0.500000 0.750000 0.222070
O O15 0.000000 0.750000 0.263602
#
# Coordination Sequence:
#
# PCOD8166023 Si02
#       6
#     8   8   8   8   8   8
#     4  11  21  36  58  84 114 151 196 243 294 350
#     4  11  20  33  55  87 122 151 186 241 302 362
#     4  11  22  37  58  88 127 166 195 226 280 359
#     4  11  21  36  57  86 123 161 193 225 278 355
#     4  11  22  37  58  87 118 155 200 242 297 359
#     4  11  23  41  63  86 112 150 201 261 314 345
#
# _framework density 20.272081
#
# number of rings (size 3 to 8) (size 9 to 14) (size 15 to 20)
#    0.000    1.000    0.000   11.000    0.000    0.000 
#    0.000    0.000    0.000   12.000    0.000    0.000 
#    0.000    0.000    0.000    0.000    0.000    0.000 
#
# Total GULP energy -297380.522584 kJ/mol
# GULP energy per Si atom -12390.855108 kJ/mol
# Density = 2.022594 g / cm^3
# Si number density = 20.272081 Si / 1000 Ang^3
#
#
#
# Elastic Constant Matrix: (Units=GPa)
#
#
# Indices 1 2 3 4 5 6 
#
# 1 134.6648 35.7958 37.5073 0.0000 0.0000 0.0000
# 2 35.7958 90.5146 48.7228 0.0000 0.0000 0.0000
# 3 37.5073 48.7228 91.5060 0.0000 0.0000 0.0000
# 4 0.0000 0.0000 0.0000 87.8041 0.0000 0.0000
# 5 0.0000 0.0000 0.0000 0.0000 37.3519 0.0000
# 6 0.0000 0.0000 0.0000 0.0000 0.0000 40.7525
#
#
#
# Elastic Compliance Matrix: (Units=1/GPa)
#
#
# Indices 1 2 3 4 5 6 
#
# 1 0.008665 -0.002123 -0.002421 0.000000 0.000000 0.000000
# 2 -0.002123 0.016007 -0.007653 0.000000 0.000000 0.000000
# 3 -0.002421 -0.007653 0.015995 0.000000 0.000000 0.000000
# 4 0.000000 0.000000 0.000000 0.011389 0.000000 0.000000
# 5 0.000000 0.000000 0.000000 0.000000 0.026772 0.000000
# 6 0.000000 0.000000 0.000000 0.000000 0.000000 0.024538
#
#
# Mechanical properties :
#
#
# Convention : Reuss Voigt Hill
#
# Bulk Modulus (GPa) = 61.45192 62.30414 61.87803
# Shear Modulus (GPa) = 37.54181 46.15898 41.85039
#
# Velocity S-wave (km/s) = 4.30804 4.77694 4.54853
# Velocity P-wave (km/s) = 7.42462 7.82472 7.62729
#
# Compressibility (1/GPa) = 0.01627288
#
# Stress axis : x y z
#
# Youngs Moduli (GPa) = 115.41271 62.47255 62.51862
#
# Poissons Ratio (x) = 0.13266 0.15135
# Poissons Ratio (y) = 0.24507 0.47843
# Poissons Ratio (z) = 0.27940 0.47808
#
# Static dielectric constant tensor:
#      x y z
#    x 3.883660 0.000000 0.000000 
#    y 0.000000 3.498070 0.000000 
#    z 0.000000 0.000000 3.804990 
# 
# 
# High freq. dielectric constant tensor:
#      x y z
#    x 1.824010 0.000000 0.000000 
#    y 0.000000 1.758800 0.000000 
#    z 0.000000 0.000000 1.784750 
# 
# From -- ./inp_files/32231.got.cif
#   From: 2010.03.12/outbox.cif.g09.slc.cpg/sg24_17_cif.got.tgz:32231.got - 2010.04.14 03:06:53.
