data_PCOD8166972
_publ_section_title
;
Structure prediction by ZEFSAII (Michael W. Deem and Ramdas Pophale) SiO2 
 PCOD8166972
Probable space group: P M M 2
;
_chemical_formula_sum "Si O2"
_cell_formula_units_Z 24
_cell_length_a 12.516509
_cell_length_b 8.588940
_cell_length_c 11.693562
_cell_angle_alpha 90.000000
_cell_angle_beta 90.000000
_cell_angle_gamma 90.000000
_cell_volume 1257.099366
_symmetry_space_group_name_H-M "P M M 2"
_symmetry_group_IT_number 25
_symmetry_cell_setting 'orthorhombic'
loop_
_space_group_symop_operation_xyz
x,y,z
-x,-y,z
-x,y,z
x,-y,z
loop_
_atom_site_type_symbol
_atom_site_label
_atom_site_fract_x
_atom_site_fract_y
_atom_site_fract_z
Si Si1 0.622761 0.681320 0.273020
Si Si2 0.803528 0.182212 0.866966
Si Si3 0.000000 0.817375 0.013789
Si Si4 0.187555 0.180168 0.402409
Si Si5 0.123834 0.318065 0.635741
Si Si6 0.000000 0.320720 0.260363
Si Si7 0.623583 0.679659 0.011469
O O1 0.500000 0.722364 0.298775
O O2 0.644646 0.500000 0.295483
O O3 0.693743 0.784264 0.357751
O O4 0.651277 0.723858 0.142162
O O5 0.811770 0.276270 0.749567
O O6 0.816989 0.000000 0.841559
O O7 0.894810 0.248674 0.951614
O O8 0.689895 0.212996 0.925552
O O9 0.000000 0.776386 0.145519
O O10 0.000000 0.000000 0.002361
O O11 0.179628 0.221683 0.535250
O O12 0.104420 0.284289 0.333124
O O13 0.160213 0.000000 0.383829
O O14 0.134425 0.500000 0.609207
O O15 0.000000 0.268264 0.648024
O O16 0.000000 0.500000 0.226674
O O17 0.500000 0.712347 0.986447
O O18 0.651743 0.500000 0.989192
#
# Coordination Sequence:
#
# PCOD8166972 Si02
#       7
#     4   4   2   4   4   2   4
#     4   9  19  38  63  89 119 156 197 240 287 343
#     4  11  22  37  58  85 119 152 189 237 292 348
#     4  10  22  37  54  83 120 151 181 231 295 348
#     4  12  24  38  59  86 119 153 191 241 296 348
#     4  11  23  40  62  84 111 153 201 240 285 348
#     4  12  24  37  56  83 116 153 195 239 285 344
#     4   9  19  37  60  86 117 154 196 240 286 339
#
# _framework density 19.091569
#
# number of rings (size 3 to 8) (size 9 to 14) (size 15 to 20)
#    0.000    1.500    1.667    5.250    0.000    6.000 
#    0.000    2.500    0.000    5.000    0.000    0.000 
#    0.000    0.000    0.000    0.000    0.000    0.000 
#
# Total GULP energy -297737.652714 kJ/mol
# GULP energy per Si atom -12405.735530 kJ/mol
# Density = 1.904812 g / cm^3
# Si number density = 19.091569 Si / 1000 Ang^3
#
#
#
# Elastic Constant Matrix: (Units=GPa)
#
#
# Indices 1 2 3 4 5 6 
#
# 1 97.7251 25.2268 48.6505 0.0000 0.0000 0.0000
# 2 25.2268 50.4811 11.9001 0.0000 0.0000 0.0000
# 3 48.6505 11.9001 110.9472 0.0000 0.0000 0.0000
# 4 0.0000 0.0000 0.0000 25.8728 0.0000 0.0000
# 5 0.0000 0.0000 0.0000 0.0000 19.7742 0.0000
# 6 0.0000 0.0000 0.0000 0.0000 0.0000 29.2219
#
#
#
# Elastic Compliance Matrix: (Units=1/GPa)
#
#
# Indices 1 2 3 4 5 6 
#
# 1 0.014651 -0.005958 -0.005785 0.000000 0.000000 0.000000
# 2 -0.005958 0.022746 0.000173 0.000000 0.000000 0.000000
# 3 -0.005785 0.000173 0.011532 0.000000 0.000000 0.000000
# 4 0.000000 0.000000 0.000000 0.038651 0.000000 0.000000
# 5 0.000000 0.000000 0.000000 0.000000 0.050571 0.000000
# 6 0.000000 0.000000 0.000000 0.000000 0.000000 0.034221
#
#
# Mechanical properties :
#
#
# Convention : Reuss Voigt Hill
#
# Bulk Modulus (GPa) = 38.77805 47.85648 43.31726
# Shear Modulus (GPa) = 24.49692 26.53219 25.51455
#
# Velocity S-wave (km/s) = 3.58596 3.73196 3.65969
# Velocity P-wave (km/s) = 6.12382 6.60993 6.37152
#
# Compressibility (1/GPa) = 0.02578779
#
# Stress axis : x y z
#
# Youngs Moduli (GPa) = 68.25543 43.96402 86.71763
#
# Poissons Ratio (x) = 0.26192 0.50170
# Poissons Ratio (y) = 0.40664 -0.01498
# Poissons Ratio (z) = 0.39489 -0.00759
#
# Static dielectric constant tensor:
#      x y z
#    x 3.560650 0.000000 0.000000 
#    y 0.000000 3.396720 0.000000 
#    z 0.000000 0.000000 3.439560 
# 
# 
# High freq. dielectric constant tensor:
#      x y z
#    x 1.742070 0.000000 0.000000 
#    y 0.000000 1.742480 0.000000 
#    z 0.000000 0.000000 1.743840 
# 
# From -- ./inp_files/4549.got.cif
#   From: 2010.03.12/outbox.cif.g09.slc.cpg/sg25_3_cif.got.tgz:4549.got - 2010.04.14 03:30:10.
