data_PCOD8166825
_publ_section_title
;
Structure prediction by ZEFSAII (Michael W. Deem and Ramdas Pophale) SiO2 
 PCOD8166825
Probable space group: P M M 2
;
_chemical_formula_sum "Si O2"
_cell_formula_units_Z 24
_cell_length_a 13.915767
_cell_length_b 8.948114
_cell_length_c 10.237410
_cell_angle_alpha 90.000000
_cell_angle_beta 90.000000
_cell_angle_gamma 90.000000
_cell_volume 1274.760957
_symmetry_space_group_name_H-M "P M M 2"
_symmetry_group_IT_number 25
_symmetry_cell_setting 'orthorhombic'
loop_
_space_group_symop_operation_xyz
x,y,z
-x,-y,z
-x,y,z
x,-y,z
loop_
_atom_site_type_symbol
_atom_site_label
_atom_site_fract_x
_atom_site_fract_y
_atom_site_fract_z
Si Si1 0.891481 0.675766 0.447060
Si Si2 0.715236 0.825297 0.344125
Si Si3 0.720444 0.674730 0.843420
Si Si4 0.611761 0.825939 0.077349
Si Si5 0.890190 0.174039 0.721689
Si Si6 0.612006 0.328378 0.579590
O O1 0.877329 0.500000 0.456596
O O2 0.818696 0.743135 0.340611
O O3 0.864744 0.742674 0.587537
O O4 0.000000 0.718768 0.406144
O O5 0.656818 0.780604 0.215721
O O6 0.653811 0.776743 0.468418
O O7 0.734620 0.000000 0.351813
O O8 0.740648 0.500000 0.855475
O O9 0.822561 0.759992 0.835086
O O10 0.657882 0.715971 0.717295
O O11 0.663358 0.727965 0.969184
O O12 0.500000 0.783903 0.081052
O O13 0.627359 0.000000 0.046481
O O14 0.000000 0.203861 0.763441
O O15 0.869732 0.000000 0.701219
O O16 0.500000 0.297466 0.592339
O O17 0.634548 0.500000 0.543511
#
# Coordination Sequence:
#
# PCOD8166825 Si02
#       6
#     4   4   4   4   4   4
#     4  10  20  35  57  86 119 153 190 235 289 346
#     4  11  22  37  59  86 115 151 196 241 290 346
#     4  11  22  37  59  87 117 152 195 239 289 346
#     4  10  23  42  60  81 115 158 200 241 289 346
#     4  10  20  35  58  88 119 152 191 235 287 344
#     4  10  21  36  55  82 115 148 188 239 290 344
#
# _framework density 18.827057
#
# number of rings (size 3 to 8) (size 9 to 14) (size 15 to 20)
#    0.000    1.667    1.667    3.000    0.000    6.000 
#    0.000    0.833    0.000    1.000    0.000    0.000 
#    0.000    0.000    0.000    0.000    0.000    0.000 
#
# Total GULP energy -297716.613028 kJ/mol
# GULP energy per Si atom -12404.858876 kJ/mol
# Density = 1.878421 g / cm^3
# Si number density = 18.827057 Si / 1000 Ang^3
#
#
#
# Elastic Constant Matrix: (Units=GPa)
#
#
# Indices 1 2 3 4 5 6 
#
# 1 129.0104 50.2461 51.2127 0.0000 0.0000 0.0000
# 2 50.2461 85.5617 51.0497 0.0000 0.0000 0.0000
# 3 51.2127 51.0497 97.2693 0.0000 0.0000 0.0000
# 4 0.0000 0.0000 0.0000 23.7202 0.0000 0.0000
# 5 0.0000 0.0000 0.0000 0.0000 33.9410 0.0000
# 6 0.0000 0.0000 0.0000 0.0000 0.0000 35.2412
#
#
#
# Elastic Compliance Matrix: (Units=1/GPa)
#
#
# Indices 1 2 3 4 5 6 
#
# 1 0.010781 -0.004287 -0.003426 0.000000 0.000000 0.000000
# 2 -0.004287 0.018720 -0.007568 0.000000 0.000000 0.000000
# 3 -0.003426 -0.007568 0.016057 0.000000 0.000000 0.000000
# 4 0.000000 0.000000 0.000000 0.042158 0.000000 0.000000
# 5 0.000000 0.000000 0.000000 0.000000 0.029463 0.000000
# 6 0.000000 0.000000 0.000000 0.000000 0.000000 0.028376
#
#
# Mechanical properties :
#
#
# Convention : Reuss Voigt Hill
#
# Bulk Modulus (GPa) = 66.68605 68.53980 67.61293
# Shear Modulus (GPa) = 27.60667 29.20268 28.40467
#
# Velocity S-wave (km/s) = 3.83342 3.94268 3.88843
# Velocity P-wave (km/s) = 7.42231 7.56374 7.49336
#
# Compressibility (1/GPa) = 0.01499564
#
# Stress axis : x y z
#
# Youngs Moduli (GPa) = 92.75493 53.41816 62.27966
#
# Poissons Ratio (x) = 0.22900 0.21340
# Poissons Ratio (y) = 0.39763 0.47132
# Poissons Ratio (z) = 0.31782 0.40426
#
# Static dielectric constant tensor:
#      x y z
#    x 3.767110 0.000000 0.000000 
#    y 0.000000 3.505230 0.000000 
#    z 0.000000 0.000000 3.332560 
# 
# 
# High freq. dielectric constant tensor:
#      x y z
#    x 1.752040 0.000000 0.000000 
#    y 0.000000 1.740630 0.000000 
#    z 0.000000 0.000000 1.711400 
# 
# From -- ./inp_files/3079.got.cif
#   From: 2010.03.12/outbox.cif.g09.slc.cpg/sg25_2_cif.got.tgz:3079.got - 2010.04.14 03:30:10.
