data_PCOD8166115
_publ_section_title
;
Structure prediction by ZEFSAII (Michael W. Deem and Ramdas Pophale) SiO2 
 PCOD8166115
Probable space group: I 21 21 21
;
_chemical_formula_sum "Si O2"
_cell_formula_units_Z 44
_cell_length_a 14.394029
_cell_length_b 16.405158
_cell_length_c 9.701556
_cell_angle_alpha 90.000000
_cell_angle_beta 90.000000
_cell_angle_gamma 90.000000
_cell_volume 2290.889732
_symmetry_space_group_name_H-M "I 21 21 21"
_symmetry_group_IT_number 24
_symmetry_cell_setting 'orthorhombic'
loop_
_space_group_symop_operation_xyz
x,y,z
-x,1/2-y,z
x,-y,1/2-z
1/2-x,y,-z
1/2+x,1/2+y,1/2+z
1/2-x,-y,1/2+z
1/2+x,1/2-y,-z
-x,1/2+y,1/2-z
loop_
_atom_site_type_symbol
_atom_site_label
_atom_site_fract_x
_atom_site_fract_y
_atom_site_fract_z
Si Si1 0.577350 0.000000 0.750000
Si Si2 0.732324 0.124252 0.840678
Si Si3 0.000000 0.250000 0.440956
Si Si4 0.497759 0.578544 0.018318
Si Si5 0.301105 0.061693 0.371658
Si Si6 0.118868 0.500000 0.750000
Si Si7 0.297615 0.772275 0.856085
O O1 0.640273 0.070284 0.818491
O O2 0.511736 0.041086 0.635014
O O3 0.726774 0.209865 0.764070
O O4 0.820199 0.078666 0.778320
O O5 0.750000 0.141831 0.000000
O O6 0.039911 0.328099 0.525201
O O7 0.910070 0.281095 0.356103
O O8 0.601969 0.590066 0.067403
O O9 0.442967 0.518494 0.117784
O O10 0.250000 0.018147 0.500000
O O11 0.244453 0.139818 0.317140
O O12 0.316470 0.000000 0.250000
O O13 0.250000 0.743377 0.000000
#
# Coordination Sequence:
#
# PCOD8166115 Si02
#       7
#     4   8   4   8   8   4   8
#     4  11  24  40  67  98 134 172 217 274 327 406
#     4  11  23  40  63  99 136 167 210 279 341 380
#     4  12  22  40  72  96 124 176 228 270 322 398
#     4  12  23  43  67  97 130 173 226 269 330 396
#     4  11  25  44  66  96 131 178 224 270 325 392
#     4  11  24  38  65  98 132 170 217 270 327 400
#     4  11  23  43  67  97 129 176 225 271 326 400
#
# _framework density 19.206510999999999
#
# number of rings (size 3 to 8) (size 9 to 14) (size 15 to 20)
#    0.000    0.727    8.182    1.091    1.273    0.727 
#    0.000    0.000    4.000    1.091    0.000    0.000 
#    0.000    0.000    0.000    0.000    0.000    0.000 
#
# Total GULP energy -272712.110816 kJ/mol
# GULP energy per Si atom -12396.005037 kJ/mol
# Density = 1.916280 g / cm^3
# Si number density = 19.206511 Si / 1000 Ang^3
#
#
#
# Elastic Constant Matrix: (Units=GPa)
#
#
# Indices 1 2 3 4 5 6 
#
# 1 113.7463 37.3480 24.5270 0.0000 0.0000 0.0000
# 2 37.3480 109.1519 59.2556 0.0000 0.0000 0.0000
# 3 24.5270 59.2556 117.0498 0.0000 0.0000 0.0000
# 4 0.0000 0.0000 0.0000 4.9632 0.0000 0.0000
# 5 0.0000 0.0000 0.0000 0.0000 19.1267 0.0000
# 6 0.0000 0.0000 0.0000 0.0000 0.0000 39.0514
#
#
#
# Elastic Compliance Matrix: (Units=1/GPa)
#
#
# Indices 1 2 3 4 5 6 
#
# 1 0.009925 -0.003126 -0.000497 0.000000 0.000000 0.000000
# 2 -0.003126 0.013618 -0.006239 0.000000 0.000000 0.000000
# 3 -0.000497 -0.006239 0.011806 0.000000 0.000000 0.000000
# 4 0.000000 0.000000 0.000000 0.201483 0.000000 0.000000
# 5 0.000000 0.000000 0.000000 0.000000 0.052283 0.000000
# 6 0.000000 0.000000 0.000000 0.000000 0.000000 0.025607
#
#
# Mechanical properties :
#
#
# Convention : Reuss Voigt Hill
#
# Bulk Modulus (GPa) = 64.00137 64.68989 64.34563
# Shear Modulus (GPa) = 14.72078 27.21609 20.96843
#
# Velocity S-wave (km/s) = 2.77148 3.76842 3.30773
# Velocity P-wave (km/s) = 6.60580 7.25872 6.93994
#
# Compressibility (1/GPa) = 0.01562467
#
# Stress axis : x y z
#
# Youngs Moduli (GPa) = 100.75415 73.43108 84.70253
#
# Poissons Ratio (x) = 0.22956 0.04211
# Poissons Ratio (y) = 0.31497 0.52846
# Poissons Ratio (z) = 0.05009 0.45814
#
# Static dielectric constant tensor:
#      x y z
#    x 3.774220 0.000000 0.000000 
#    y 0.000000 3.544610 0.000000 
#    z 0.000000 0.000000 3.413800 
# 
# 
# High freq. dielectric constant tensor:
#      x y z
#    x 1.762670 0.000000 0.000000 
#    y 0.000000 1.754430 0.000000 
#    z 0.000000 0.000000 1.735420 
# 
# From -- ./inp_files/12709.got.cif
#   From: 2010.03.12/outbox.cif.g09.slc.cpg/sg24_7_cif.got.tgz:12709.got - 2010.04.14 03:06:53.
