data_PCOD8166151
_publ_section_title
;
Structure prediction by ZEFSAII (Michael W. Deem and Ramdas Pophale) SiO2 
 PCOD8166151
Probable space group: I 21 21 21
;
_chemical_formula_sum "Si O2"
_cell_formula_units_Z 60
_cell_length_a 18.599780
_cell_length_b 18.358230
_cell_length_c 7.555489
_cell_angle_alpha 90.000000
_cell_angle_beta 90.000000
_cell_angle_gamma 90.000000
_cell_volume 2579.890015
_symmetry_space_group_name_H-M "I 21 21 21"
_symmetry_group_IT_number 24
_symmetry_cell_setting 'orthorhombic'
loop_
_space_group_symop_operation_xyz
x,y,z
-x,1/2-y,z
x,-y,1/2-z
1/2-x,y,-z
1/2+x,1/2+y,1/2+z
1/2-x,-y,1/2+z
1/2+x,1/2-y,-z
-x,1/2+y,1/2-z
loop_
_atom_site_type_symbol
_atom_site_label
_atom_site_fract_x
_atom_site_fract_y
_atom_site_fract_z
Si Si1 0.041821 0.600171 0.060535
Si Si2 0.667510 0.508266 0.044787
Si Si3 0.168760 0.270852 0.942532
Si Si4 0.894114 0.338955 0.419286
Si Si5 0.329735 0.692968 0.058982
Si Si6 0.591427 0.636497 0.527089
Si Si7 0.437563 0.500000 0.250000
Si Si8 0.430944 0.608861 0.542384
O O1 0.050256 0.571174 0.265476
O O2 0.979594 0.660391 0.042269
O O3 0.119383 0.631943 0.020685
O O4 0.018434 0.541919 0.906855
O O5 0.653108 0.500000 0.250000
O O6 0.750000 0.494719 0.000000
O O7 0.642848 0.585756 0.973740
O O8 0.620453 0.445237 0.955898
O O9 0.167445 0.317799 0.766627
O O10 0.250000 0.258160 0.000000
O O11 0.133644 0.191650 0.897146
O O12 0.121832 0.321961 0.076308
O O13 0.852569 0.274421 0.512061
O O14 0.888889 0.325069 0.211510
O O15 0.250000 0.675433 0.000000
O O16 0.508078 0.636796 0.469222
O O17 0.396484 0.556240 0.386311
#
# Coordination Sequence:
#
# PCOD8166151 Si02
#       8
#     8   8   8   8   8   8   4   8
#     4  11  25  45  72 104 142 180 234 293 350 416
#     4  12  25  40  62  94 139 181 228 278 340 416
#     4  12  25  44  71 100 139 183 234 291 350 417
#     4  11  24  42  67 101 138 183 227 284 344 414
#     4  12  25  44  71 100 139 183 234 291 350 417
#     4  11  24  42  67 101 138 183 227 284 344 414
#     4  12  24  44  72 102 136 184 226 290 348 416
#     4  11  25  45  72 104 142 180 234 293 350 416
#
# _framework density 23.256806999999998
#
# number of rings (size 3 to 8) (size 9 to 14) (size 15 to 20)
#    0.000    0.533    1.333    7.200    5.600    5.333 
#    0.000    0.667    0.000    0.000    0.000    0.000 
#    0.000    0.000    0.000    0.000    0.000    0.000 
#
# Total GULP energy -371651.515257 kJ/mol
# GULP energy per Si atom -12388.383842 kJ/mol
# Density = 2.320387 g / cm^3
# Si number density = 23.256807 Si / 1000 Ang^3
#
#
#
# Elastic Constant Matrix: (Units=GPa)
#
#
# Indices 1 2 3 4 5 6 
#
# 1 153.1846 39.5409 10.0804 0.0000 0.0000 0.0000
# 2 39.5409 85.3517 8.2899 0.0000 0.0000 0.0000
# 3 10.0804 8.2899 111.4685 0.0000 0.0000 0.0000
# 4 0.0000 0.0000 0.0000 35.1037 0.0000 0.0000
# 5 0.0000 0.0000 0.0000 0.0000 16.2661 0.0000
# 6 0.0000 0.0000 0.0000 0.0000 0.0000 28.9727
#
#
#
# Elastic Compliance Matrix: (Units=1/GPa)
#
#
# Indices 1 2 3 4 5 6 
#
# 1 0.007434 -0.003403 -0.000419 0.000000 0.000000 0.000000
# 2 -0.003403 0.013359 -0.000686 0.000000 0.000000 0.000000
# 3 -0.000419 -0.000686 0.009060 0.000000 0.000000 0.000000
# 4 0.000000 0.000000 0.000000 0.028487 0.000000 0.000000
# 5 0.000000 0.000000 0.000000 0.000000 0.061478 0.000000
# 6 0.000000 0.000000 0.000000 0.000000 0.000000 0.034515
#
#
# Mechanical properties :
#
#
# Convention : Reuss Voigt Hill
#
# Bulk Modulus (GPa) = 47.99121 51.75858 49.87490
# Shear Modulus (GPa) = 29.36069 35.54142 32.45105
#
# Velocity S-wave (km/s) = 3.55696 3.91348 3.73947
# Velocity P-wave (km/s) = 6.12776 6.53636 6.33535
#
# Compressibility (1/GPa) = 0.02083715
#
# Stress axis : x y z
#
# Youngs Moduli (GPa) = 134.51467 74.85319 110.37467
#
# Poissons Ratio (x) = 0.25475 0.04627
# Poissons Ratio (y) = 0.45779 0.07569
# Poissons Ratio (z) = 0.05639 0.05133
#
# Static dielectric constant tensor:
#      x y z
#    x 4.039490 0.000000 0.000000 
#    y 0.000000 4.460520 0.000000 
#    z 0.000000 0.000000 4.429470 
# 
# 
# High freq. dielectric constant tensor:
#      x y z
#    x 1.907950 0.000000 0.000000 
#    y 0.000000 1.920780 0.000000 
#    z 0.000000 0.000000 1.940940 
# 
# From -- ./inp_files/14452.got.cif
#   From: 2010.03.12/outbox.cif.g09.slc.cpg/sg24_8_cif.got.tgz:14452.got - 2010.04.14 03:06:53.
