data_PCOD8166589
_publ_section_title
;
Structure prediction by ZEFSAII (Michael W. Deem and Ramdas Pophale) SiO2 
 PCOD8166589
Probable space group: P M M 2
;
_chemical_formula_sum "Si O2"
_cell_formula_units_Z 28
_cell_length_a 15.247675
_cell_length_b 9.043065
_cell_length_c 12.380652
_cell_angle_alpha 90.000000
_cell_angle_beta 90.000000
_cell_angle_gamma 90.000000
_cell_volume 1707.115067
_symmetry_space_group_name_H-M "P M M 2"
_symmetry_group_IT_number 25
_symmetry_cell_setting 'orthorhombic'
loop_
_space_group_symop_operation_xyz
x,y,z
-x,-y,z
-x,y,z
x,-y,z
loop_
_atom_site_type_symbol
_atom_site_label
_atom_site_fract_x
_atom_site_fract_y
_atom_site_fract_z
Si Si1 0.397551 0.172751 0.354180
Si Si2 0.719370 0.333372 0.765056
Si Si3 0.903544 0.171989 0.519644
Si Si4 0.268495 0.670721 0.509560
Si Si5 0.398831 0.172114 0.926598
Si Si6 0.395748 0.333152 0.139706
Si Si7 0.906534 0.667268 0.739191
O O1 0.500000 0.206368 0.370157
O O2 0.348254 0.243103 0.455195
O O3 0.361222 0.244904 0.243769
O O4 0.378111 0.000000 0.348338
O O5 0.687477 0.500000 0.790289
O O6 0.721448 0.303726 0.637269
O O7 0.653924 0.219485 0.820472
O O8 0.819065 0.306628 0.811037
O O9 0.824703 0.265540 0.465641
O O10 0.908605 0.213239 0.645036
O O11 0.000000 0.205608 0.467058
O O12 0.880413 0.000000 0.508558
O O13 0.274156 0.500000 0.477341
O O14 0.500000 0.212317 0.906168
O O15 0.386028 0.000000 0.947725
O O16 0.360345 0.256895 0.030705
O O17 0.500000 0.328369 0.138153
O O18 0.359851 0.500000 0.144596
O O19 0.898091 0.500000 0.689644
O O20 0.000000 0.680354 0.804064
#
# Coordination Sequence:
#
# PCOD8166589 Si02
#       7
#     4   4   4   4   4   4   4
#     4  10  20  33  49  69  94 122 152 189 231 273
#     4   9  18  30  44  65  92 122 154 186 222 267
#     4   9  16  26  42  64  89 117 150 189 231 272
#     4  10  20  32  46  66  94 127 160 191 225 272
#     4  10  20  32  46  65  90 120 153 189 228 268
#     4   9  17  31  51  70  87 111 148 192 231 268
#     4   8  14  26  43  62  86 116 149 185 225 269
#
# _framework density 16.40194
#
# number of rings (size 3 to 8) (size 9 to 14) (size 15 to 20)
#    0.000    2.714    0.000    3.000    0.000    7.714 
#    0.000    2.857    0.000    0.000    0.000    1.000 
#    0.000    5.714    0.000    0.000    0.000    0.000 
#
# Total GULP energy -346992.391236 kJ/mol
# GULP energy per Si atom -12392.585401 kJ/mol
# Density = 1.636461 g / cm^3
# Si number density = 16.401940 Si / 1000 Ang^3
#
#
#
# Elastic Constant Matrix: (Units=GPa)
#
#
# Indices 1 2 3 4 5 6 
#
# 1 90.3603 54.9478 40.9852 0.0000 0.0000 0.0000
# 2 54.9478 98.4808 36.9328 0.0000 0.0000 0.0000
# 3 40.9852 36.9328 55.5377 0.0000 0.0000 0.0000
# 4 0.0000 0.0000 0.0000 27.7772 0.0000 0.0000
# 5 0.0000 0.0000 0.0000 0.0000 2.0529 0.0000
# 6 0.0000 0.0000 0.0000 0.0000 0.0000 26.4264
#
#
#
# Elastic Compliance Matrix: (Units=1/GPa)
#
#
# Indices 1 2 3 4 5 6 
#
# 1 0.020105 -0.007532 -0.009828 0.000000 0.000000 0.000000
# 2 -0.007532 0.016350 -0.005314 0.000000 0.000000 0.000000
# 3 -0.009828 -0.005314 0.028793 0.000000 0.000000 0.000000
# 4 0.000000 0.000000 0.000000 0.036001 0.000000 0.000000
# 5 0.000000 0.000000 0.000000 0.000000 0.487122 0.000000
# 6 0.000000 0.000000 0.000000 0.000000 0.000000 0.037841
#
#
# Mechanical properties :
#
#
# Convention : Reuss Voigt Hill
#
# Bulk Modulus (GPa) = 50.25450 56.67891 53.46670
# Shear Modulus (GPa) = 7.37255 18.68550 13.02902
#
# Velocity S-wave (km/s) = 2.12242 3.37890 2.82149
# Velocity P-wave (km/s) = 6.05905 7.06073 6.57898
#
# Compressibility (1/GPa) = 0.01989872
#
# Stress axis : x y z
#
# Youngs Moduli (GPa) = 49.74005 61.16340 34.73109
#
# Poissons Ratio (x) = 0.46066 0.34134
# Poissons Ratio (y) = 0.37463 0.18458
# Poissons Ratio (z) = 0.48884 0.32505
#
# Static dielectric constant tensor:
#      x y z
#    x 3.309170 0.000000 0.000000 
#    y 0.000000 3.199630 0.000000 
#    z 0.000000 0.000000 2.765380 
# 
# 
# High freq. dielectric constant tensor:
#      x y z
#    x 1.628460 0.000000 0.000000 
#    y 0.000000 1.646930 0.000000 
#    z 0.000000 0.000000 1.584070 
# 
# From -- ./inp_files/4998.got.cif
#   From: 2010.03.12/outbox.cif.g09.slc.cpg/sg25_3_cif.got.tgz:4998.got - 2010.04.14 03:30:10.
