data_PCOD8166266
_publ_section_title
;
Structure prediction by ZEFSAII (Michael W. Deem and Ramdas Pophale) SiO2 
 PCOD8166266
Probable space group: I 21 21 21
;
_chemical_formula_sum "Si O2"
_cell_formula_units_Z 32
_cell_length_a 4.922224
_cell_length_b 16.346751
_cell_length_c 16.427796
_cell_angle_alpha 90.000000
_cell_angle_beta 90.000000
_cell_angle_gamma 90.000000
_cell_volume 1321.819402
_symmetry_space_group_name_H-M "I 21 21 21"
_symmetry_group_IT_number 24
_symmetry_cell_setting 'orthorhombic'
loop_
_space_group_symop_operation_xyz
x,y,z
-x,1/2-y,z
x,-y,1/2-z
1/2-x,y,-z
1/2+x,1/2+y,1/2+z
1/2-x,-y,1/2+z
1/2+x,1/2-y,-z
-x,1/2+y,1/2-z
loop_
_atom_site_type_symbol
_atom_site_label
_atom_site_fract_x
_atom_site_fract_y
_atom_site_fract_z
Si Si1 0.750000 0.035071 0.000000
Si Si2 0.582899 0.404207 0.136001
Si Si3 0.871673 0.562717 0.125779
Si Si4 0.568316 0.159035 0.777746
Si Si5 0.750000 0.308451 0.500000
O O1 0.964342 0.095322 0.955486
O O2 0.591292 0.979138 0.934559
O O3 0.641168 0.499680 0.156510
O O4 0.378021 0.357327 0.196593
O O5 0.872383 0.358449 0.144483
O O6 0.018660 0.596224 0.205127
O O7 0.714743 0.635165 0.079429
O O8 0.500000 0.250000 0.746964
O O9 0.500000 0.250000 0.511531
#
# Coordination Sequence:
#
# PCOD8166266 Si02
#       5
#     4   8   8   8   4
#     4  12  25  50  80 115 138 200 260 324 347 454
#     4  12  27  50  81 109 147 205 262 305 372 454
#     4  12  27  47  80 113 151 199 260 306 378 466
#     4  12  30  50  76 115 158 198 249 324 386 442
#     4  12  27  44  72 115 162 198 232 314 399 456
#
# _framework density 24.209053000000001
#
# number of rings (size 3 to 8) (size 9 to 14) (size 15 to 20)
#    0.000    0.000    5.000    3.000    7.000    2.000 
#    0.000    2.500    0.000    0.000    0.000    0.000 
#    0.000    0.000    0.000    0.000    0.000    0.000 
#
# Total GULP energy -198351.549311 kJ/mol
# GULP energy per Si atom -12396.971832 kJ/mol
# Density = 2.415395 g / cm^3
# Si number density = 24.209053 Si / 1000 Ang^3
#
#
#
# Elastic Constant Matrix: (Units=GPa)
#
#
# Indices 1 2 3 4 5 6 
#
# 1 102.5362 35.5111 19.8681 0.0000 0.0000 0.0000
# 2 35.5111 89.7922 14.2299 0.0000 0.0000 0.0000
# 3 19.8681 14.2299 83.8089 0.0000 0.0000 0.0000
# 4 0.0000 0.0000 0.0000 29.3409 0.0000 0.0000
# 5 0.0000 0.0000 0.0000 0.0000 38.0015 0.0000
# 6 0.0000 0.0000 0.0000 0.0000 0.0000 36.1953
#
#
#
# Elastic Compliance Matrix: (Units=1/GPa)
#
#
# Indices 1 2 3 4 5 6 
#
# 1 0.011627 -0.004277 -0.002030 0.000000 0.000000 0.000000
# 2 -0.004277 0.013018 -0.001196 0.000000 0.000000 0.000000
# 3 -0.002030 -0.001196 0.012616 0.000000 0.000000 0.000000
# 4 0.000000 0.000000 0.000000 0.034082 0.000000 0.000000
# 5 0.000000 0.000000 0.000000 0.000000 0.026315 0.000000
# 6 0.000000 0.000000 0.000000 0.000000 0.000000 0.027628
#
#
# Mechanical properties :
#
#
# Convention : Reuss Voigt Hill
#
# Bulk Modulus (GPa) = 44.93441 46.15062 45.54251
# Shear Modulus (GPa) = 33.84992 34.47608 34.16300
#
# Velocity S-wave (km/s) = 3.74335 3.77782 3.76062
# Velocity P-wave (km/s) = 6.10613 6.17527 6.14080
#
# Compressibility (1/GPa) = 0.02225466
#
# Stress axis : x y z
#
# Youngs Moduli (GPa) = 86.00565 76.81831 79.26217
#
# Poissons Ratio (x) = 0.32852 0.16092
# Poissons Ratio (y) = 0.36781 0.09483
# Poissons Ratio (z) = 0.17461 0.09191
#
# Static dielectric constant tensor:
#      x y z
#    x 4.601620 0.000000 0.000000 
#    y 0.000000 4.593920 0.000000 
#    z 0.000000 0.000000 4.521450 
# 
# 
# High freq. dielectric constant tensor:
#      x y z
#    x 1.976620 0.000000 0.000000 
#    y 0.000000 1.955950 0.000000 
#    z 0.000000 0.000000 1.961890 
# 
# From -- ./inp_files/28509.got.cif
#   From: 2010.03.12/outbox.cif.g09.slc.cpg/sg24_15_cif.got.tgz:28509.got - 2010.04.14 03:06:53.
