data_PCOD8166166
_publ_section_title
;
Structure prediction by ZEFSAII (Michael W. Deem and Ramdas Pophale) SiO2 
 PCOD8166166
Probable space group: I 21 21 21
;
_chemical_formula_sum "Si O2"
_cell_formula_units_Z 56
_cell_length_a 10.439130
_cell_length_b 15.849274
_cell_length_c 15.499721
_cell_angle_alpha 90.000000
_cell_angle_beta 90.000000
_cell_angle_gamma 90.000000
_cell_volume 2564.469630
_symmetry_space_group_name_H-M "I 21 21 21"
_symmetry_group_IT_number 24
_symmetry_cell_setting 'orthorhombic'
loop_
_space_group_symop_operation_xyz
x,y,z
-x,1/2-y,z
x,-y,1/2-z
1/2-x,y,-z
1/2+x,1/2+y,1/2+z
1/2-x,-y,1/2+z
1/2+x,1/2-y,-z
-x,1/2+y,1/2-z
loop_
_atom_site_type_symbol
_atom_site_label
_atom_site_fract_x
_atom_site_fract_y
_atom_site_fract_z
Si Si1 0.883154 0.800021 0.048859
Si Si2 0.034068 0.000000 0.750000
Si Si3 0.287931 0.074369 0.372249
Si Si4 0.804878 0.728638 0.227632
Si Si5 0.000000 0.750000 0.367528
Si Si6 0.103157 0.620128 0.504662
Si Si7 0.086172 0.328424 0.801724
Si Si8 0.453941 0.047464 0.528981
O O1 0.877804 0.762835 0.144339
O O2 0.000000 0.750000 0.001764
O O3 0.920183 0.898465 0.052266
O O4 0.750000 0.785828 0.000000
O O5 0.127440 0.000623 0.832338
O O6 0.948036 0.916206 0.745297
O O7 0.283124 0.150425 0.302897
O O8 0.368566 0.097169 0.457891
O O9 0.143753 0.040930 0.390152
O O10 0.902096 0.700242 0.303876
O O11 0.726404 0.806584 0.267189
O O12 0.923948 0.815684 0.427045
O O13 0.250000 0.588256 0.500000
O O14 0.080276 0.665439 0.595323
O O15 0.003152 0.543648 0.498760
O O16 0.000000 0.250000 0.771869
#
# Coordination Sequence:
#
# PCOD8166166 Si02
#       8
#     8   4   8   8   4   8   8   8
#     4  12  25  44  74 106 147 194 245 302 378 456
#     4  12  26  44  70 112 146 194 252 304 380 450
#     4  11  24  45  72 106 144 184 249 303 366 443
#     4  12  25  47  71 107 144 191 247 303 376 444
#     4  12  26  46  74 100 140 190 244 306 360 452
#     4  12  26  47  71 103 143 189 248 299 378 446
#     4  12  26  46  72 106 146 193 247 312 371 447
#     4  11  25  46  70 105 143 191 237 305 370 447
#
# _framework density 21.836873000000001
#
# number of rings (size 3 to 8) (size 9 to 14) (size 15 to 20)
#    0.000    0.286    7.143    1.286    4.000    1.714 
#    2.571    0.000    0.000    0.000    0.000    0.000 
#    0.000    0.000    0.000    0.000    0.000    0.000 
#
# Total GULP energy -347094.621185 kJ/mol
# GULP energy per Si atom -12396.236471 kJ/mol
# Density = 2.178717 g / cm^3
# Si number density = 21.836873 Si / 1000 Ang^3
#
#
#
# Elastic Constant Matrix: (Units=GPa)
#
#
# Indices 1 2 3 4 5 6 
#
# 1 131.7870 43.3185 44.1807 0.0000 0.0000 0.0000
# 2 43.3185 98.7400 23.1133 0.0000 0.0000 0.0000
# 3 44.1807 23.1133 87.9106 0.0000 0.0000 0.0000
# 4 0.0000 0.0000 0.0000 33.1245 0.0000 0.0000
# 5 0.0000 0.0000 0.0000 0.0000 33.1864 0.0000
# 6 0.0000 0.0000 0.0000 0.0000 0.0000 25.9860
#
#
#
# Elastic Compliance Matrix: (Units=1/GPa)
#
#
# Indices 1 2 3 4 5 6 
#
# 1 0.010128 -0.003465 -0.004179 0.000000 0.000000 0.000000
# 2 -0.003465 0.011977 -0.001408 0.000000 0.000000 0.000000
# 3 -0.004179 -0.001408 0.013845 0.000000 0.000000 0.000000
# 4 0.000000 0.000000 0.000000 0.030189 0.000000 0.000000
# 5 0.000000 0.000000 0.000000 0.000000 0.030133 0.000000
# 6 0.000000 0.000000 0.000000 0.000000 0.000000 0.038482
#
#
# Mechanical properties :
#
#
# Convention : Reuss Voigt Hill
#
# Bulk Modulus (GPa) = 56.03034 59.96253 57.99644
# Shear Modulus (GPa) = 31.48475 32.31441 31.89958
#
# Velocity S-wave (km/s) = 3.80124 3.85100 3.82620
# Velocity P-wave (km/s) = 6.70673 6.87696 6.79238
#
# Compressibility (1/GPa) = 0.01784747
#
# Stress axis : x y z
#
# Youngs Moduli (GPa) = 98.73705 83.49149 72.22591
#
# Poissons Ratio (x) = 0.28930 0.30182
# Poissons Ratio (y) = 0.34213 0.10167
# Poissons Ratio (z) = 0.41261 0.11753
#
# Static dielectric constant tensor:
#      x y z
#    x 4.074140 0.000000 0.000000 
#    y 0.000000 3.825620 0.000000 
#    z 0.000000 0.000000 4.047210 
# 
# 
# High freq. dielectric constant tensor:
#      x y z
#    x 1.874190 0.000000 0.000000 
#    y 0.000000 1.846610 0.000000 
#    z 0.000000 0.000000 1.864850 
# 
# From -- ./inp_files/25870.got.cif
#   From: 2010.03.12/outbox.cif.g09.slc.cpg/sg24_13_cif.got.tgz:25870.got - 2010.04.14 03:06:53.
