data_PCOD8166336
_publ_section_title
;
Structure prediction by ZEFSAII (Michael W. Deem and Ramdas Pophale) SiO2 
 PCOD8166336
Probable space group: P M M 2
;
_chemical_formula_sum "Si O2"
_cell_formula_units_Z 32
_cell_length_a 14.297389
_cell_length_b 8.841172
_cell_length_c 15.849497
_cell_angle_alpha 90.000000
_cell_angle_beta 90.000000
_cell_angle_gamma 90.000000
_cell_volume 2003.466371
_symmetry_space_group_name_H-M "P M M 2"
_symmetry_group_IT_number 25
_symmetry_cell_setting 'orthorhombic'
loop_
_space_group_symop_operation_xyz
x,y,z
-x,-y,z
-x,y,z
x,-y,z
loop_
_atom_site_type_symbol
_atom_site_label
_atom_site_fract_x
_atom_site_fract_y
_atom_site_fract_z
Si Si1 0.604961 0.180960 0.985420
Si Si2 0.611134 0.834149 0.166072
Si Si3 0.705653 0.823521 0.511986
Si Si4 0.604974 0.819458 0.346544
Si Si5 0.608158 0.322154 0.669998
Si Si6 0.716981 0.821131 0.825166
Si Si7 0.103772 0.172917 0.589718
Si Si8 0.894354 0.676044 0.765393
O O1 0.500000 0.237773 0.965247
O O2 0.671722 0.241671 0.911503
O O3 0.606131 0.000000 0.990128
O O4 0.639738 0.246916 0.077221
O O5 0.500000 0.851016 0.165562
O O6 0.639073 0.752010 0.254881
O O7 0.657866 0.000000 0.166157
O O8 0.674493 0.763552 0.419987
O O9 0.648536 0.732597 0.581402
O O10 0.817226 0.793993 0.519670
O O11 0.681300 0.000000 0.522819
O O12 0.500000 0.762751 0.367984
O O13 0.605133 0.000000 0.339291
O O14 0.500000 0.275502 0.675729
O O15 0.622558 0.500000 0.677525
O O16 0.662956 0.243877 0.745424
O O17 0.824585 0.768401 0.825329
O O18 0.710972 0.000000 0.820503
O O19 0.123390 0.280824 0.668427
O O20 0.000000 0.203806 0.551501
O O21 0.111610 0.000000 0.621832
O O22 0.873533 0.500000 0.775432
O O23 0.000000 0.717235 0.792387
#
# Coordination Sequence:
#
# PCOD8166336 Si02
#       8
#     4   4   4   4   4   4   4   4
#     4   8  14  24  39  61  88 116 146 178 215 259
#     4   7  10  19  35  56  84 113 139 175 218 255
#     4  10  18  28  44  65  86 114 148 183 219 258
#     4   8  13  21  36  60  87 112 142 179 216 256
#     4  11  23  34  42  57  87 124 154 179 212 258
#     4  11  20  30  46  67  88 114 147 185 224 262
#     4   9  17  29  44  62  84 111 145 184 223 258
#     4  10  20  33  48  64  84 112 146 184 224 265
#
# _framework density 15.972317
#
# number of rings (size 3 to 8) (size 9 to 14) (size 15 to 20)
#    0.000    2.750    1.250    3.375    0.000    2.750 
#    0.000    0.000    0.000    0.000    0.000    2.625 
#    0.000   13.000    0.000    3.375    0.000    3.125 
#
# Total GULP energy -396499.343606 kJ/mol
# GULP energy per Si atom -12390.604488 kJ/mol
# Density = 1.593596 g / cm^3
# Si number density = 15.972317 Si / 1000 Ang^3
#
#
#
# Elastic Constant Matrix: (Units=GPa)
#
#
# Indices 1 2 3 4 5 6 
#
# 1 104.0358 24.2798 66.8527 0.0000 0.0000 0.0000
# 2 24.2798 31.7964 22.5755 0.0000 0.0000 0.0000
# 3 66.8527 22.5755 144.2007 0.0000 0.0000 0.0000
# 4 0.0000 0.0000 0.0000 -1.5822 0.0000 0.0000
# 5 0.0000 0.0000 0.0000 0.0000 12.1202 0.0000
# 6 0.0000 0.0000 0.0000 0.0000 0.0000 18.2328
#
#
#
# Elastic Compliance Matrix: (Units=1/GPa)
#
#
# Indices 1 2 3 4 5 6 
#
# 1 0.015085 -0.007373 -0.005839 0.000000 0.000000 0.000000
# 2 -0.007373 0.038987 -0.002685 0.000000 0.000000 0.000000
# 3 -0.005839 -0.002685 0.010062 0.000000 0.000000 0.000000
# 4 0.000000 0.000000 0.000000 -0.632035 0.000000 0.000000
# 5 0.000000 0.000000 0.000000 0.000000 0.082507 0.000000
# 6 0.000000 0.000000 0.000000 0.000000 0.000000 0.054846
#
#
# Mechanical properties :
#
#
# Convention : Reuss Voigt Hill
#
# Bulk Modulus (GPa) = 30.92265 56.38322 43.65293
# Shear Modulus (GPa) = -12.88752 16.84250 1.97749
#
# Velocity S-wave (km/s) = -2.84362 3.25080 1.11389
# Velocity P-wave (km/s) = 2.93609 7.03331 5.38925
#
# Compressibility (1/GPa) = 0.03233876
#
# Stress axis : x y z
#
# Youngs Moduli (GPa) = 66.29067 25.64964 99.38056
#
# Poissons Ratio (x) = 0.18912 0.58031
# Poissons Ratio (y) = 0.48877 0.26688
# Poissons Ratio (z) = 0.38709 0.06888
#
# Static dielectric constant tensor:
#      x y z
#    x 3.129370 0.000000 0.000000 
#    y 0.000000 2.755980 0.000000 
#    z 0.000000 0.000000 3.385240 
# 
# 
# High freq. dielectric constant tensor:
#      x y z
#    x 1.598240 0.000000 0.000000 
#    y 0.000000 1.583450 0.000000 
#    z 0.000000 0.000000 1.608900 
# 
# From -- ./inp_files/5920.got.cif
#   From: 2010.03.12/outbox.cif.g09.slc.cpg/sg25_3_cif.got.tgz:5920.got - 2010.04.14 03:30:10.
