data_PCOD8166030
_publ_section_title
;
Structure prediction by ZEFSAII (Michael W. Deem and Ramdas Pophale) SiO2 
 PCOD8166030
Probable space group: I 21 21 21
;
_chemical_formula_sum "Si O2"
_cell_formula_units_Z 48
_cell_length_a 20.666059
_cell_length_b 15.338846
_cell_length_c 7.926796
_cell_angle_alpha 90.000000
_cell_angle_beta 90.000000
_cell_angle_gamma 90.000000
_cell_volume 2512.742780
_symmetry_space_group_name_H-M "I 21 21 21"
_symmetry_group_IT_number 24
_symmetry_cell_setting 'orthorhombic'
loop_
_space_group_symop_operation_xyz
x,y,z
-x,1/2-y,z
x,-y,1/2-z
1/2-x,y,-z
1/2+x,1/2+y,1/2+z
1/2-x,-y,1/2+z
1/2+x,1/2-y,-z
-x,1/2+y,1/2-z
loop_
_atom_site_type_symbol
_atom_site_label
_atom_site_fract_x
_atom_site_fract_y
_atom_site_fract_z
Si Si1 0.619864 0.169689 0.105006
Si Si2 0.510242 0.400381 0.226867
Si Si3 0.063518 0.192404 0.459121
Si Si4 0.178268 0.314206 0.561905
Si Si5 0.321846 0.494596 0.947017
Si Si6 0.439464 0.186693 0.912692
O O1 0.553358 0.161640 0.215690
O O2 0.677442 0.191833 0.234885
O O3 0.628826 0.078544 0.009899
O O4 0.618837 0.249644 0.973002
O O5 0.489380 0.500000 0.250000
O O6 0.555466 0.374882 0.386342
O O7 0.550310 0.389232 0.051733
O O8 0.128346 0.248268 0.478781
O O9 0.072069 0.146087 0.274338
O O10 0.000000 0.250000 0.453667
O O11 0.250000 0.291891 0.500000
O O12 0.157196 0.412920 0.521173
O O13 0.327075 0.500000 0.750000
O O14 0.250000 0.467449 0.000000
O O15 0.500000 0.250000 0.904607
#
# Coordination Sequence:
#
# PCOD8166030 Si02
#       6
#     8   8   8   8   8   8
#     4  11  20  38  56  83 126 160 198 245 296 362
#     4  11  21  37  59  85 116 153 199 258 307 344
#     4  11  20  38  61  82 119 155 194 250 298 353
#     4  11  21  35  58  87 116 159 198 237 299 362
#     4  11  22  35  52  84 126 166 202 238 288 367
#     4   9  20  35  55  85 113 151 200 240 293 357
#
# _framework density 19.102630999999999
#
# number of rings (size 3 to 8) (size 9 to 14) (size 15 to 20)
#    0.000    1.333    3.333    5.000    0.000    0.667 
#    0.000    0.000    0.000    0.000    4.333    0.000 
#    0.000    0.000    0.000    0.000    0.000    0.000 
#
# Total GULP energy -297517.740134 kJ/mol
# GULP energy per Si atom -12396.572506 kJ/mol
# Density = 1.905915 g / cm^3
# Si number density = 19.102631 Si / 1000 Ang^3
#
#
#
# Elastic Constant Matrix: (Units=GPa)
#
#
# Indices 1 2 3 4 5 6 
#
# 1 76.0051 18.8739 33.9366 0.0000 0.0000 0.0000
# 2 18.8739 32.9874 15.9954 0.0000 0.0000 0.0000
# 3 33.9366 15.9954 166.1849 0.0000 0.0000 0.0000
# 4 0.0000 0.0000 0.0000 29.9300 0.0000 0.0000
# 5 0.0000 0.0000 0.0000 0.0000 21.7348 0.0000
# 6 0.0000 0.0000 0.0000 0.0000 0.0000 34.7816
#
#
#
# Elastic Compliance Matrix: (Units=1/GPa)
#
#
# Indices 1 2 3 4 5 6 
#
# 1 0.016306 -0.008092 -0.002551 0.000000 0.000000 0.000000
# 2 -0.008092 0.035815 -0.001795 0.000000 0.000000 0.000000
# 3 -0.002551 -0.001795 0.006711 0.000000 0.000000 0.000000
# 4 0.000000 0.000000 0.000000 0.033411 0.000000 0.000000
# 5 0.000000 0.000000 0.000000 0.000000 0.046009 0.000000
# 6 0.000000 0.000000 0.000000 0.000000 0.000000 0.028751
#
#
# Mechanical properties :
#
#
# Convention : Reuss Voigt Hill
#
# Bulk Modulus (GPa) = 29.45018 45.86547 37.65783
# Shear Modulus (GPa) = 24.60667 31.04739 27.82703
#
# Velocity S-wave (km/s) = 3.59295 4.03587 3.82083
# Velocity P-wave (km/s) = 5.71512 6.76608 6.26268
#
# Compressibility (1/GPa) = 0.03395565
#
# Stress axis : x y z
#
# Youngs Moduli (GPa) = 61.32893 27.92135 149.00819
#
# Poissons Ratio (x) = 0.22595 0.38010
# Poissons Ratio (y) = 0.49630 0.26742
# Poissons Ratio (z) = 0.15644 0.05011
#
# Static dielectric constant tensor:
#      x y z
#    x 3.259090 0.000000 0.000000 
#    y 0.000000 3.146280 0.000000 
#    z 0.000000 0.000000 4.104340 
# 
# 
# High freq. dielectric constant tensor:
#      x y z
#    x 1.716480 0.000000 0.000000 
#    y 0.000000 1.708570 0.000000 
#    z 0.000000 0.000000 1.771870 
# 
# From -- ./inp_files/14182.got.cif
#   From: 2010.03.12/outbox.cif.g09.slc.cpg/sg24_8_cif.got.tgz:14182.got - 2010.04.14 03:06:53.
