data_PCOD8166298
_publ_section_title
;
Structure prediction by ZEFSAII (Michael W. Deem and Ramdas Pophale) SiO2 
 PCOD8166298
Probable space group: I 21 21 21
;
_chemical_formula_sum "Si O2"
_cell_formula_units_Z 48
_cell_length_a 38.487628
_cell_length_b 9.267824
_cell_length_c 7.645996
_cell_angle_alpha 90.000000
_cell_angle_beta 90.000000
_cell_angle_gamma 90.000000
_cell_volume 2727.300490
_symmetry_space_group_name_H-M "I 21 21 21"
_symmetry_group_IT_number 24
_symmetry_cell_setting 'orthorhombic'
loop_
_space_group_symop_operation_xyz
x,y,z
-x,1/2-y,z
x,-y,1/2-z
1/2-x,y,-z
1/2+x,1/2+y,1/2+z
1/2-x,-y,1/2+z
1/2+x,1/2-y,-z
-x,1/2+y,1/2-z
loop_
_atom_site_type_symbol
_atom_site_label
_atom_site_fract_x
_atom_site_fract_y
_atom_site_fract_z
Si Si1 0.035030 0.331325 0.948746
Si Si2 0.336768 0.672327 0.750000
Si Si3 0.712324 0.828279 0.444925
Si Si4 0.914415 0.829007 0.250000
Si Si5 0.964970 0.168675 0.551254
Si Si6 0.212324 0.328279 0.555075
O O1 0.046272 0.295955 0.750000
O O2 0.027876 0.500000 0.974997
O O3 0.000000 0.250000 0.000963
O O4 0.065559 0.276251 0.076061
O O5 0.337489 0.500000 0.750000
O O6 0.316856 0.730205 0.577954
O O7 0.375682 0.737164 0.750000
O O8 0.316856 0.730205 0.922046
O O9 0.750000 0.767328 0.500000
O O10 0.702996 0.774047 0.250000
O O11 0.713436 0.000000 0.451667
O O12 0.911730 0.000000 0.250000
O O13 0.934441 0.776251 0.076061
O O14 0.000000 0.250000 0.499037
O O15 0.250000 0.267328 0.500000
#
# Coordination Sequence:
#
# PCOD8166298 Si02
#       6
#     8   8   8   8   8   8
#     4   9  17  29  45  63  83 108 140 173 206 246
#     4   9  16  23  31  46  66  92 126 164 203 237
#     4   9  14  20  30  42  59  85 120 162 200 231
#     4   9  17  27  38  54  78 104 134 172 210 247
#     4   9  17  29  45  63  83 108 140 173 206 246
#     4   9  14  20  30  42  59  85 120 162 200 231
#
# _framework density 17.599823000000001
#
# number of rings (size 3 to 8) (size 9 to 14) (size 15 to 20)
#    0.000    3.000    1.667    0.500    0.000    1.333 
#    0.000    6.667    0.000    0.000    0.000    0.000 
#    0.000    0.000    0.000    0.000    0.000    6.667 
#
# Total GULP energy -297507.072652 kJ/mol
# GULP energy per Si atom -12396.128027 kJ/mol
# Density = 1.755976 g / cm^3
# Si number density = 17.599823 Si / 1000 Ang^3
#
#
#
# Elastic Constant Matrix: (Units=GPa)
#
#
# Indices 1 2 3 4 5 6 
#
# 1 183.8420 15.7280 110.9986 0.0000 0.0000 0.0000
# 2 15.7280 8.1441 11.5241 0.0000 0.0000 0.0000
# 3 110.9986 11.5241 175.9868 0.0000 0.0000 0.0000
# 4 0.0000 0.0000 0.0000 7.9771 0.0000 0.0000
# 5 0.0000 0.0000 0.0000 0.0000 30.4845 0.0000
# 6 0.0000 0.0000 0.0000 0.0000 0.0000 11.6899
#
#
#
# Elastic Compliance Matrix: (Units=1/GPa)
#
#
# Indices 1 2 3 4 5 6 
#
# 1 0.009602 -0.010992 -0.005336 0.000000 0.000000 0.000000
# 2 -0.010992 0.147912 -0.002753 0.000000 0.000000 0.000000
# 3 -0.005336 -0.002753 0.009228 0.000000 0.000000 0.000000
# 4 0.000000 0.000000 0.000000 0.125358 0.000000 0.000000
# 5 0.000000 0.000000 0.000000 0.000000 0.032804 0.000000
# 6 0.000000 0.000000 0.000000 0.000000 0.000000 0.085544
#
#
# Mechanical properties :
#
#
# Convention : Reuss Voigt Hill
#
# Bulk Modulus (GPa) = 7.77726 71.60826 39.69276
# Shear Modulus (GPa) = 10.17356 25.34513 17.75934
#
# Velocity S-wave (km/s) = 2.40687 3.79895 3.18002
# Velocity P-wave (km/s) = 3.48606 7.74713 6.00710
#
# Compressibility (1/GPa) = 0.12857998
#
# Stress axis : x y z
#
# Youngs Moduli (GPa) = 104.14822 6.76076 108.36405
#
# Poissons Ratio (x) = 0.07432 0.57825
# Poissons Ratio (y) = 1.14481 0.29830
# Poissons Ratio (z) = 0.55576 0.01861
#
# Static dielectric constant tensor:
#      x y z
#    x 3.487080 0.000000 0.000000 
#    y 0.000000 2.543470 0.000000 
#    z 0.000000 0.000000 3.591460 
# 
# 
# High freq. dielectric constant tensor:
#      x y z
#    x 1.681430 0.000000 0.000000 
#    y 0.000000 1.594840 0.000000 
#    z 0.000000 0.000000 1.701630 
# 
# From -- ./inp_files/16917.got.cif
#   From: 2010.03.12/outbox.cif.g09.slc.cpg/sg24_9_cif.got.tgz:16917.got - 2010.04.14 03:06:53.
