data_PCOD8166270
_publ_section_title
;
Structure prediction by ZEFSAII (Michael W. Deem and Ramdas Pophale) SiO2 
 PCOD8166270
Probable space group: I 21 21 21
;
_chemical_formula_sum "Si O2"
_cell_formula_units_Z 32
_cell_length_a 4.894158
_cell_length_b 17.146714
_cell_length_c 15.170366
_cell_angle_alpha 90.000000
_cell_angle_beta 90.000000
_cell_angle_gamma 90.000000
_cell_volume 1273.077810
_symmetry_space_group_name_H-M "I 21 21 21"
_symmetry_group_IT_number 24
_symmetry_cell_setting 'orthorhombic'
loop_
_space_group_symop_operation_xyz
x,y,z
-x,1/2-y,z
x,-y,1/2-z
1/2-x,y,-z
1/2+x,1/2+y,1/2+z
1/2-x,-y,1/2+z
1/2+x,1/2-y,-z
-x,1/2+y,1/2-z
loop_
_atom_site_type_symbol
_atom_site_label
_atom_site_fract_x
_atom_site_fract_y
_atom_site_fract_z
Si Si1 0.671289 0.119686 0.826190
Si Si2 0.750000 0.798506 0.500000
Si Si3 0.000000 0.750000 0.780177
Si Si4 0.653286 0.622854 0.835093
Si Si5 0.337610 0.462592 0.402235
O O1 0.605123 0.151604 0.923324
O O2 0.389479 0.108973 0.770905
O O3 0.871967 0.180020 0.777065
O O4 0.802579 0.034448 0.835525
O O5 0.500000 0.750000 0.457931
O O6 0.231665 0.788956 0.842946
O O7 0.352484 0.611417 0.876516
O O8 0.849987 0.563327 0.887802
O O9 0.250000 0.488854 0.500000
#
# Coordination Sequence:
#
# PCOD8166270 Si02
#       5
#     8   4   4   8   8
#     4  12  27  48  80 118 160 203 264 318 399 477
#     4  12  26  44  72 118 164 206 246 320 400 474
#     4  12  26  50  80 116 150 212 254 332 374 492
#     4  12  28  50  81 112 155 211 263 317 396 463
#     4  12  29  52  80 117 157 205 265 331 390 463
#
# _framework density 25.135936000000001
#
# number of rings (size 3 to 8) (size 9 to 14) (size 15 to 20)
#    0.000    0.000    5.000    3.750    7.000    0.000 
#    0.000    2.500    0.000    0.000    0.000    0.000 
#    0.000    0.000    0.000    0.000    0.000    0.000 
#
# Total GULP energy -198269.340992 kJ/mol
# GULP energy per Si atom -12391.833812 kJ/mol
# Density = 2.507873 g / cm^3
# Si number density = 25.135936 Si / 1000 Ang^3
#
#
#
# Elastic Constant Matrix: (Units=GPa)
#
#
# Indices 1 2 3 4 5 6 
#
# 1 111.6618 23.8109 33.2460 0.0000 0.0000 0.0000
# 2 23.8109 88.0716 37.3936 0.0000 0.0000 0.0000
# 3 33.2460 37.3936 93.1174 -0.0001 0.0000 0.0000
# 4 0.0000 0.0000 -0.0001 8.3500 0.0000 0.0000
# 5 0.0000 0.0000 0.0000 0.0000 36.8914 0.0000
# 6 0.0000 0.0000 0.0000 0.0000 0.0000 38.7285
#
#
#
# Elastic Compliance Matrix: (Units=1/GPa)
#
#
# Indices 1 2 3 4 5 6 
#
# 1 0.010174 -0.001457 -0.003047 0.000000 0.000000 0.000000
# 2 -0.001457 0.013897 -0.005061 0.000000 0.000000 0.000000
# 3 -0.003047 -0.005061 0.013859 0.000000 0.000000 0.000000
# 4 0.000000 0.000000 0.000000 0.119761 0.000000 0.000000
# 5 0.000000 0.000000 0.000000 0.000000 0.027107 0.000000
# 6 0.000000 0.000000 0.000000 0.000000 0.000000 0.025821
#
#
# Mechanical properties :
#
#
# Convention : Reuss Voigt Hill
#
# Bulk Modulus (GPa) = 53.18974 53.52798 53.35886
# Shear Modulus (GPa) = 21.18518 30.02065 25.60292
#
# Velocity S-wave (km/s) = 2.90629 3.45966 3.19498
# Velocity P-wave (km/s) = 5.69814 6.10742 5.90633
#
# Compressibility (1/GPa) = 0.01880062
#
# Stress axis : x y z
#
# Youngs Moduli (GPa) = 98.29417 71.95885 72.15368
#
# Poissons Ratio (x) = 0.10482 0.21988
# Poissons Ratio (y) = 0.14318 0.36514
# Poissons Ratio (z) = 0.29953 0.36415
#
# Static dielectric constant tensor:
#      x y z
#    x 4.494630 0.000000 0.000000 
#    y 0.000000 4.740860 0.000000 
#    z 0.000000 0.000000 4.641140 
# 
# 
# High freq. dielectric constant tensor:
#      x y z
#    x 2.007230 0.000000 0.000000 
#    y 0.000000 2.008570 0.000000 
#    z 0.000000 0.000000 1.991160 
# 
# From -- ./inp_files/23502.got.cif
#   From: 2010.03.12/outbox.cif.g09.slc.cpg/sg24_12_cif.got.tgz:23502.got - 2010.04.14 03:06:53.
