data_PCOD8166044
_publ_section_title
;
Structure prediction by ZEFSAII (Michael W. Deem and Ramdas Pophale) SiO2 
 PCOD8166044
Probable space group: I 21 21 21
;
_chemical_formula_sum "Si O2"
_cell_formula_units_Z 48
_cell_length_a 31.270393
_cell_length_b 8.697505
_cell_length_c 9.093421
_cell_angle_alpha 90.000000
_cell_angle_beta 90.000000
_cell_angle_gamma 90.000000
_cell_volume 2473.177716
_symmetry_space_group_name_H-M "I 21 21 21"
_symmetry_group_IT_number 24
_symmetry_cell_setting 'orthorhombic'
loop_
_space_group_symop_operation_xyz
x,y,z
-x,1/2-y,z
x,-y,1/2-z
1/2-x,y,-z
1/2+x,1/2+y,1/2+z
1/2-x,-y,1/2+z
1/2+x,1/2-y,-z
-x,1/2+y,1/2-z
loop_
_atom_site_type_symbol
_atom_site_label
_atom_site_fract_x
_atom_site_fract_y
_atom_site_fract_z
Si Si1 0.046281 0.429992 0.410669
Si Si2 0.631347 0.931130 0.587723
Si Si3 0.131347 0.931130 0.412277
Si Si4 0.292538 0.927625 0.092851
Si Si5 0.546281 0.429992 0.589331
Si Si6 0.292538 0.572375 0.092851
O O1 0.043385 0.500000 0.250000
O O2 0.086726 0.511850 0.488541
O O3 0.055831 0.250000 0.399514
O O4 1.000000 0.459711 0.490141
O O5 0.631131 0.750000 0.601449
O O6 0.637411 0.000000 0.750000
O O7 0.669310 0.982371 0.483651
O O8 0.137411 0.000000 0.250000
O O9 0.169310 0.982371 0.516349
O O10 0.086726 0.988150 0.488541
O O11 0.305280 0.750000 0.108302
O O12 0.283394 0.000000 0.250000
O O13 0.250000 0.950044 0.000000
O O14 0.543385 0.500000 0.750000
O O15 0.283394 0.500000 0.250000
O O16 0.250000 0.549956 0.000000
#
# Coordination Sequence:
#
# PCOD8166044 Si02
#       6
#     8   8   8   8   8   8
#     4   9  16  27  46  74 108 144 183 227 272 319
#     4  11  21  34  55  82 114 149 186 229 275 325
#     4  11  21  34  55  82 114 149 186 229 275 325
#     4  11  24  41  61  84 111 143 181 225 273 328
#     4   9  16  27  46  74 108 144 183 227 272 319
#     4  11  24  41  61  84 111 143 181 225 273 328
#
# _framework density 19.408228000000001
#
# number of rings (size 3 to 8) (size 9 to 14) (size 15 to 20)
#    0.000    1.667    0.000    8.000    0.000    7.333 
#    0.000    0.000    0.000    1.000    0.000    0.000 
#    0.000    0.000    0.000    0.000    0.000    0.000 
#
# Total GULP energy -297474.506286 kJ/mol
# GULP energy per Si atom -12394.771095 kJ/mol
# Density = 1.936405 g / cm^3
# Si number density = 19.408228 Si / 1000 Ang^3
#
#
#
# Elastic Constant Matrix: (Units=GPa)
#
#
# Indices 1 2 3 4 5 6 
#
# 1 133.6635 77.3226 32.8024 0.0000 0.0000 0.0000
# 2 77.3226 178.6341 46.1235 0.0000 0.0000 0.0000
# 3 32.8024 46.1235 70.3493 0.0000 0.0000 0.0000
# 4 0.0000 0.0000 0.0000 23.6883 0.0000 0.0000
# 5 0.0000 0.0000 0.0000 0.0000 26.3069 0.0000
# 6 0.0000 0.0000 0.0000 0.0000 0.0000 84.3768
#
#
#
# Elastic Compliance Matrix: (Units=1/GPa)
#
#
# Indices 1 2 3 4 5 6 
#
# 1 0.010270 -0.003863 -0.002256 0.000000 0.000000 0.000000
# 2 -0.003863 0.008192 -0.003570 0.000000 0.000000 0.000000
# 3 -0.002256 -0.003570 0.017607 0.000000 0.000000 0.000000
# 4 0.000000 0.000000 0.000000 0.042215 0.000000 0.000000
# 5 0.000000 0.000000 0.000000 0.000000 0.038013 0.000000
# 6 0.000000 0.000000 0.000000 0.000000 0.000000 0.011852
#
#
# Mechanical properties :
#
#
# Convention : Reuss Voigt Hill
#
# Bulk Modulus (GPa) = 59.91005 77.23823 68.57414
# Shear Modulus (GPa) = 32.66080 41.96760 37.31420
#
# Velocity S-wave (km/s) = 4.10668 4.65516 4.38950
# Velocity P-wave (km/s) = 7.30903 8.29320 7.81662
#
# Compressibility (1/GPa) = 0.01669169
#
# Stress axis : x y z
#
# Youngs Moduli (GPa) = 97.37394 122.07390 56.79534
#
# Poissons Ratio (x) = 0.47155 0.12813
# Poissons Ratio (y) = 0.37614 0.20274
# Poissons Ratio (z) = 0.21967 0.43576
#
# Static dielectric constant tensor:
#      x y z
#    x 4.556980 0.000000 0.000000 
#    y 0.000000 3.838250 0.000000 
#    z 0.000000 0.000000 3.125560 
# 
# 
# High freq. dielectric constant tensor:
#      x y z
#    x 1.788850 0.000000 0.000000 
#    y 0.000000 1.778440 0.000000 
#    z 0.000000 0.000000 1.702820 
# 
# From -- ./inp_files/16806.got.cif
#   From: 2010.03.12/outbox.cif.g09.slc.cpg/sg24_9_cif.got.tgz:16806.got - 2010.04.14 03:06:53.
