data_PCOD8166231
_publ_section_title
;
Structure prediction by ZEFSAII (Michael W. Deem and Ramdas Pophale) SiO2 
 PCOD8166231
Probable space group: I 21 21 21
;
_chemical_formula_sum "Si O2"
_cell_formula_units_Z 36
_cell_length_a 23.909635
_cell_length_b 6.773555
_cell_length_c 9.702592
_cell_angle_alpha 90.000000
_cell_angle_beta 90.000000
_cell_angle_gamma 90.000000
_cell_volume 1571.366091
_symmetry_space_group_name_H-M "I 21 21 21"
_symmetry_group_IT_number 24
_symmetry_cell_setting 'orthorhombic'
loop_
_space_group_symop_operation_xyz
x,y,z
-x,1/2-y,z
x,-y,1/2-z
1/2-x,y,-z
1/2+x,1/2+y,1/2+z
1/2-x,-y,1/2+z
1/2+x,1/2-y,-z
-x,1/2+y,1/2-z
loop_
_atom_site_type_symbol
_atom_site_label
_atom_site_fract_x
_atom_site_fract_y
_atom_site_fract_z
Si Si1 0.500000 0.250000 0.079564
Si Si2 0.951902 0.098797 0.388585
Si Si3 0.750000 0.224411 0.500000
Si Si4 0.805086 0.000000 0.750000
Si Si5 0.861220 0.416393 0.403186
Si Si6 0.616538 0.666417 0.349618
O O1 0.550802 0.302062 0.182462
O O2 0.476687 0.435960 0.992044
O O3 0.898900 0.225032 0.443738
O O4 0.000000 0.250000 0.347349
O O5 0.929612 0.000000 0.250000
O O6 0.798373 0.366715 0.445248
O O7 0.766663 0.094577 0.632221
O O8 0.845545 0.855009 0.668599
O O9 0.866938 0.500000 0.250000
O O10 0.881334 0.602534 0.491637
O O11 0.641486 0.500000 0.250000
#
# Coordination Sequence:
#
# PCOD8166231 Si02
#       6
#     4   8   4   4   8   8
#     4  12  26  40  80 106 158 206 244 310 388 472
#     4  12  23  45  71 116 151 200 256 313 382 453
#     4  12  30  50  82 110 150 208 260 322 386 458
#     4  12  30  54  78 112 154 202 264 322 382 464
#     4  12  28  50  80 115 151 203 261 325 388 458
#     4  12  28  51  73 115 156 198 252 318 386 468
#
# _framework density 22.910001999999999
#
# number of rings (size 3 to 8) (size 9 to 14) (size 15 to 20)
#    0.000    0.000    5.556    3.333    9.333    0.000 
#    0.000    0.000    0.000    0.000    0.000    0.000 
#    0.000    0.000    0.000    0.000    0.000    0.000 
#
# Total GULP energy -223204.184809 kJ/mol
# GULP energy per Si atom -12400.232489 kJ/mol
# Density = 2.285786 g / cm^3
# Si number density = 22.910002 Si / 1000 Ang^3
#
#
#
# Elastic Constant Matrix: (Units=GPa)
#
#
# Indices 1 2 3 4 5 6 
#
# 1 137.1330 36.9423 12.8391 0.0000 0.0000 0.0000
# 2 36.9423 107.4487 25.6515 0.0000 0.0000 0.0000
# 3 12.8391 25.6515 96.4700 0.0000 0.0000 0.0000
# 4 0.0000 0.0000 0.0000 41.7782 0.0000 0.0000
# 5 0.0000 0.0000 0.0000 0.0000 40.1020 0.0000
# 6 0.0000 0.0000 0.0000 0.0000 0.0000 19.4546
#
#
#
# Elastic Compliance Matrix: (Units=1/GPa)
#
#
# Indices 1 2 3 4 5 6 
#
# 1 0.008048 -0.002682 -0.000358 0.000000 0.000000 0.000000
# 2 -0.002682 0.010831 -0.002523 0.000000 0.000000 0.000000
# 3 -0.000358 -0.002523 0.011084 0.000000 0.000000 0.000000
# 4 0.000000 0.000000 0.000000 0.023936 0.000000 0.000000
# 5 0.000000 0.000000 0.000000 0.000000 0.024936 0.000000
# 6 0.000000 0.000000 0.000000 0.000000 0.000000 0.051402
#
#
# Mechanical properties :
#
#
# Convention : Reuss Voigt Hill
#
# Bulk Modulus (GPa) = 53.08378 54.65749 53.87063
# Shear Modulus (GPa) = 33.86556 37.97488 35.92022
#
# Velocity S-wave (km/s) = 3.84891 4.07574 3.96395
# Velocity P-wave (km/s) = 6.55538 6.78662 6.67200
#
# Compressibility (1/GPa) = 0.01883814
#
# Stress axis : x y z
#
# Youngs Moduli (GPa) = 124.25285 92.32691 90.21626
#
# Poissons Ratio (x) = 0.24758 0.03230
# Poissons Ratio (y) = 0.33319 0.22763
# Poissons Ratio (z) = 0.04449 0.23295
#
# Static dielectric constant tensor:
#      x y z
#    x 4.325850 0.000000 0.000000 
#    y 0.000000 4.448990 0.000000 
#    z 0.000000 0.000000 4.054700 
# 
# 
# High freq. dielectric constant tensor:
#      x y z
#    x 1.919070 0.000000 0.000000 
#    y 0.000000 1.921170 0.000000 
#    z 0.000000 0.000000 1.910150 
# 
# From -- ./inp_files/22462.got.cif
#   From: 2010.03.12/outbox.cif.g09.slc.cpg/sg24_12_cif.got.tgz:22462.got - 2010.04.14 03:06:53.
