data_PCOD8166089
_publ_section_title
;
Structure prediction by ZEFSAII (Michael W. Deem and Ramdas Pophale) SiO2 
 PCOD8166089
Probable space group: I 21 21 21
;
_chemical_formula_sum "Si O2"
_cell_formula_units_Z 48
_cell_length_a 9.693725
_cell_length_b 14.374510
_cell_length_c 16.101548
_cell_angle_alpha 90.000000
_cell_angle_beta 90.000000
_cell_angle_gamma 90.000000
_cell_volume 2243.630708
_symmetry_space_group_name_H-M "I 21 21 21"
_symmetry_group_IT_number 24
_symmetry_cell_setting 'orthorhombic'
loop_
_space_group_symop_operation_xyz
x,y,z
-x,1/2-y,z
x,-y,1/2-z
1/2-x,y,-z
1/2+x,1/2+y,1/2+z
1/2-x,-y,1/2+z
1/2+x,1/2-y,-z
-x,1/2+y,1/2-z
loop_
_atom_site_type_symbol
_atom_site_label
_atom_site_fract_x
_atom_site_fract_y
_atom_site_fract_z
Si Si1 0.394746 0.677523 0.454195
Si Si2 0.496974 0.481093 0.407721
Si Si3 0.488470 0.139197 0.567223
Si Si4 0.652829 0.754666 0.269665
Si Si5 0.740667 0.574605 0.809260
Si Si6 0.276256 0.573119 0.816427
O O1 0.500000 0.750000 0.499820
O O2 0.250000 0.661993 0.500000
O O3 0.481127 0.581804 0.450113
O O4 0.357256 0.721715 0.365976
O O5 0.517009 0.399050 0.474097
O O6 0.626415 0.477823 0.346442
O O7 0.361956 0.469182 0.352958
O O8 0.500000 0.250000 0.563291
O O9 0.350830 0.111433 0.615494
O O10 0.617449 0.089858 0.609909
O O11 0.500000 0.750000 0.229194
O O12 0.722833 0.656490 0.254033
O O13 0.749354 0.829160 0.226189
O O14 0.662773 0.500000 0.750000
O O15 0.337606 0.500000 0.750000
#
# Coordination Sequence:
#
# PCOD8166089 Si02
#       6
#     8   8   8   8   8   8
#     4  11  25  47  70 105 140 184 237 288 350 417
#     4  12  26  44  72 100 139 183 230 281 348 421
#     4  12  28  44  67 105 140 176 224 292 360 409
#     4  11  22  41  72 101 132 179 237 279 334 418
#     4  12  25  46  70 100 138 182 231 283 345 418
#     4  12  23  44  70  98 135 179 229 283 339 412
#
# _framework density 21.393896000000002
#
# number of rings (size 3 to 8) (size 9 to 14) (size 15 to 20)
#    0.000    0.333    5.000    5.000    2.333    4.000 
#    3.000    0.000    0.000    0.000    0.000    0.000 
#    0.000    0.000    0.000    0.000    0.000    0.000 
#
# Total GULP energy -297657.839321 kJ/mol
# GULP energy per Si atom -12402.409972 kJ/mol
# Density = 2.134520 g / cm^3
# Si number density = 21.393896 Si / 1000 Ang^3
#
#
#
# Elastic Constant Matrix: (Units=GPa)
#
#
# Indices 1 2 3 4 5 6 
#
# 1 79.1440 27.3184 10.0405 0.0000 0.0000 0.0000
# 2 27.3184 152.4424 29.7975 0.0000 0.0000 0.0000
# 3 10.0405 29.7975 75.6752 0.0000 0.0000 0.0000
# 4 0.0000 0.0000 0.0000 42.2763 0.0000 0.0000
# 5 0.0000 0.0000 0.0000 0.0000 -22.4144 0.0000
# 6 0.0000 0.0000 0.0000 0.0000 0.0000 8.0043
#
#
#
# Elastic Compliance Matrix: (Units=1/GPa)
#
#
# Indices 1 2 3 4 5 6 
#
# 1 0.013526 -0.002246 -0.000910 0.000000 0.000000 0.000000
# 2 -0.002246 0.007480 -0.002647 0.000000 0.000000 0.000000
# 3 -0.000910 -0.002647 0.014377 0.000000 0.000000 0.000000
# 4 0.000000 0.000000 0.000000 0.023654 0.000000 0.000000
# 5 0.000000 0.000000 0.000000 0.000000 -0.044614 0.000000
# 6 0.000000 0.000000 0.000000 0.000000 0.000000 0.124932
#
#
# Mechanical properties :
#
#
# Convention : Reuss Voigt Hill
#
# Bulk Modulus (GPa) = 42.05862 49.06383 45.56123
# Shear Modulus (GPa) = 31.46875 21.58024 26.52449
#
# Velocity S-wave (km/s) = 3.83942 3.17947 3.52492
# Velocity P-wave (km/s) = 6.27349 6.03838 6.15706
#
# Compressibility (1/GPa) = 0.02377634
#
# Stress axis : x y z
#
# Youngs Moduli (GPa) = 73.93210 133.69351 69.55316
#
# Poissons Ratio (x) = 0.30027 0.06331
# Poissons Ratio (y) = 0.16605 0.18412
# Poissons Ratio (z) = 0.06730 0.35392
#
# Static dielectric constant tensor:
#      x y z
#    x 4.216590 0.000000 0.000000 
#    y 0.000000 4.040780 0.000000 
#    z 0.000000 0.000000 3.725190 
# 
# 
# High freq. dielectric constant tensor:
#      x y z
#    x 1.840770 0.000000 0.000000 
#    y 0.000000 1.862950 0.000000 
#    z 0.000000 0.000000 1.840510 
# 
# From -- ./inp_files/29458.got.cif
#   From: 2010.03.12/outbox.cif.g09.slc.cpg/sg24_15_cif.got.tgz:29458.got - 2010.04.14 03:06:53.
