data_PCOD8166989
_publ_section_title
;
Structure prediction by ZEFSAII (Michael W. Deem and Ramdas Pophale) SiO2 
 PCOD8166989
Probable space group: P M M 2
;
_chemical_formula_sum "Si O2"
_cell_formula_units_Z 24
_cell_length_a 10.790555
_cell_length_b 8.955765
_cell_length_c 12.077917
_cell_angle_alpha 90.000000
_cell_angle_beta 90.000000
_cell_angle_gamma 90.000000
_cell_volume 1167.181815
_symmetry_space_group_name_H-M "P M M 2"
_symmetry_group_IT_number 25
_symmetry_cell_setting 'orthorhombic'
loop_
_space_group_symop_operation_xyz
x,y,z
-x,-y,z
-x,y,z
x,-y,z
loop_
_atom_site_type_symbol
_atom_site_label
_atom_site_fract_x
_atom_site_fract_y
_atom_site_fract_z
Si Si1 0.500000 0.167456 0.901310
Si Si2 0.500000 0.167343 0.639830
Si Si3 0.283764 0.323192 0.024084
Si Si4 0.142378 0.831625 0.855249
Si Si5 0.254296 0.326382 0.644472
Si Si6 0.359227 0.677845 0.268022
Si Si7 0.136607 0.325910 0.418043
O O1 0.500000 0.161287 0.770929
O O2 0.500000 0.000000 0.951684
O O3 0.382770 0.261269 0.938310
O O4 0.380548 0.256258 0.596837
O O5 0.500000 0.000000 0.590178
O O6 0.277141 0.500000 0.020096
O O7 0.316568 0.267429 0.146707
O O8 0.157534 0.252745 0.974033
O O9 0.214280 0.750859 0.757079
O O10 0.000000 0.832180 0.823319
O O11 0.195056 0.000000 0.865050
O O12 0.275055 0.500000 0.668809
O O13 0.152647 0.299843 0.548994
O O14 0.500000 0.737833 0.293280
O O15 0.363173 0.500000 0.273757
O O16 0.253912 0.744292 0.350898
O O17 0.135732 0.500000 0.389530
O O18 0.000000 0.259299 0.384775
#
# Coordination Sequence:
#
# PCOD8166989 Si02
#       7
#     2   2   4   4   4   4   4
#     4  11  21  35  56  81 117 157 188 223 285 354
#     4  11  23  37  56  85 121 157 194 233 293 364
#     4  11  21  35  59  88 116 147 192 242 286 337
#     4  11  24  40  57  81 118 161 196 232 290 356
#     4  11  22  36  60  89 117 149 196 248 293 343
#     4   9  18  33  55  84 119 154 190 241 301 351
#     4   9  19  35  56  84 119 155 191 239 299 355
#
# _framework density 20.562348
#
# number of rings (size 3 to 8) (size 9 to 14) (size 15 to 20)
#    0.000    1.667    2.500    2.500    1.167    3.333 
#    0.000    1.667    0.000    5.000    0.000    2.333 
#    0.000    0.000    0.000    0.000    0.000    0.000 
#
# Total GULP energy -297475.093866 kJ/mol
# GULP energy per Si atom -12394.795578 kJ/mol
# Density = 2.051555 g / cm^3
# Si number density = 20.562348 Si / 1000 Ang^3
#
#
#
# Elastic Constant Matrix: (Units=GPa)
#
#
# Indices 1 2 3 4 5 6 
#
# 1 142.2406 35.5373 51.2237 0.0000 0.0000 0.0000
# 2 35.5373 86.7899 24.3446 0.0000 0.0000 0.0000
# 3 51.2237 24.3446 80.5171 0.0000 0.0000 0.0000
# 4 0.0000 0.0000 0.0000 4.9208 0.0000 0.0000
# 5 0.0000 0.0000 0.0000 0.0000 27.3316 0.0000
# 6 0.0000 0.0000 0.0000 0.0000 0.0000 32.8229
#
#
#
# Elastic Compliance Matrix: (Units=1/GPa)
#
#
# Indices 1 2 3 4 5 6 
#
# 1 0.009561 -0.002413 -0.005353 0.000000 0.000000 0.000000
# 2 -0.002413 0.013199 -0.002455 0.000000 0.000000 0.000000
# 3 -0.005353 -0.002455 0.016568 0.000000 0.000000 0.000000
# 4 0.000000 0.000000 0.000000 0.203221 0.000000 0.000000
# 5 0.000000 0.000000 0.000000 0.000000 0.036588 0.000000
# 6 0.000000 0.000000 0.000000 0.000000 0.000000 0.030466
#
#
# Mechanical properties :
#
#
# Convention : Reuss Voigt Hill
#
# Bulk Modulus (GPa) = 52.95427 59.08432 56.01930
# Shear Modulus (GPa) = 14.86588 26.24452 20.55520
#
# Velocity S-wave (km/s) = 2.69172 3.57646 3.16516
# Velocity P-wave (km/s) = 5.95562 6.77137 6.37655
#
# Compressibility (1/GPa) = 0.01888422
#
# Stress axis : x y z
#
# Youngs Moduli (GPa) = 104.59202 75.76327 60.35911
#
# Poissons Ratio (x) = 0.18285 0.32309
# Poissons Ratio (y) = 0.25242 0.14821
# Poissons Ratio (z) = 0.55986 0.18603
#
# Static dielectric constant tensor:
#      x y z
#    x 4.106120 0.000000 0.000000 
#    y 0.000000 3.593630 0.000000 
#    z 0.000000 0.000000 3.681440 
# 
# 
# High freq. dielectric constant tensor:
#      x y z
#    x 1.819650 0.000000 0.000000 
#    y 0.000000 1.773960 0.000000 
#    z 0.000000 0.000000 1.799400 
# 
# From -- ./inp_files/4545.got.cif
#   From: 2010.03.12/outbox.cif.g09.slc.cpg/sg25_3_cif.got.tgz:4545.got - 2010.04.14 03:30:10.
