data_PCOD8166384
_publ_section_title
;
Structure prediction by ZEFSAII (Michael W. Deem and Ramdas Pophale) SiO2 
 PCOD8166384
Probable space group: P M M 2
;
_chemical_formula_sum "Si O2"
_cell_formula_units_Z 32
_cell_length_a 8.602631
_cell_length_b 24.679375
_cell_length_c 7.512104
_cell_angle_alpha 90.000000
_cell_angle_beta 90.000000
_cell_angle_gamma 90.000000
_cell_volume 1594.876444
_symmetry_space_group_name_H-M "P M M 2"
_symmetry_group_IT_number 25
_symmetry_cell_setting 'orthorhombic'
loop_
_space_group_symop_operation_xyz
x,y,z
-x,-y,z
-x,y,z
x,-y,z
loop_
_atom_site_type_symbol
_atom_site_label
_atom_site_fract_x
_atom_site_fract_y
_atom_site_fract_z
Si Si1 0.818399 0.437598 0.828670
Si Si2 0.817550 0.638232 0.508206
Si Si3 0.680456 0.251395 0.508741
Si Si4 0.181016 0.861574 0.091939
Si Si5 0.682008 0.635750 0.117923
Si Si6 0.816034 0.140197 0.491103
Si Si7 0.819699 0.743642 0.127995
Si Si8 0.185179 0.060633 0.792310
O O1 0.774339 0.500000 0.803691
O O2 0.766217 0.407385 0.648575
O O3 0.000000 0.428968 0.864785
O O4 0.726362 0.415760 0.999635
O O5 0.767056 0.696331 0.591810
O O6 0.734621 0.625904 0.320865
O O7 0.000000 0.637707 0.473318
O O8 0.500000 0.255465 0.554097
O O9 0.747117 0.194502 0.581911
O O10 0.709977 0.253358 0.298847
O O11 0.250198 0.868666 0.291086
O O12 0.208037 0.799754 0.019901
O O13 0.000000 0.874597 0.101077
O O14 0.257293 0.904484 0.955845
O O15 0.500000 0.645491 0.113798
O O16 0.766714 0.688794 0.028355
O O17 0.764285 0.088666 0.607674
O O18 0.000000 0.147775 0.487359
O O19 0.000000 0.739617 0.186126
O O20 0.000000 0.059173 0.804700
O O21 0.254477 0.000000 0.798547
#
# Coordination Sequence:
#
# PCOD8166384 Si02
#       8
#     4   4   4   4   4   4   4   4
#     4  10  23  42  61  81 106 143 192 233 264 312
#     4  10  20  37  61  85 111 145 184 228 274 322
#     4  10  18  30  51  79 108 136 169 212 265 323
#     4   8  15  27  44  68  97 126 159 203 251 297
#     4  11  22  36  57  86 118 147 176 220 278 333
#     4   9  17  30  48  71  99 131 165 204 254 311
#     4   9  16  30  52  77 106 139 175 214 259 317
#     4   9  17  28  44  69  97 125 164 212 257 302
#
# _framework density 20.064247999999999
#
# number of rings (size 3 to 8) (size 9 to 14) (size 15 to 20)
#    0.000    2.500    0.000    5.250    0.000    3.250 
#    0.000    6.250    0.000    3.375    0.000    0.000 
#    0.000    0.000    0.000    0.000    0.000    0.000 
#
# Total GULP energy -396613.192975 kJ/mol
# GULP energy per Si atom -12394.162280 kJ/mol
# Density = 2.001858 g / cm^3
# Si number density = 20.064248 Si / 1000 Ang^3
#
#
#
# Elastic Constant Matrix: (Units=GPa)
#
#
# Indices 1 2 3 4 5 6 
#
# 1 52.3478 31.1210 24.7713 0.0000 0.0000 0.0000
# 2 31.1210 170.8033 66.5214 0.0000 0.0000 0.0000
# 3 24.7713 66.5214 89.9476 0.0000 0.0000 0.0000
# 4 0.0000 0.0000 0.0000 38.1570 0.0000 0.0000
# 5 0.0000 0.0000 0.0000 0.0000 6.7793 0.0000
# 6 0.0000 0.0000 0.0000 0.0000 0.0000 8.5584
#
#
#
# Elastic Compliance Matrix: (Units=1/GPa)
#
#
# Indices 1 2 3 4 5 6 
#
# 1 0.022636 -0.002383 -0.004472 0.000000 0.000000 0.000000
# 2 -0.002383 0.008474 -0.005611 0.000000 0.000000 0.000000
# 3 -0.004472 -0.005611 0.016499 0.000000 0.000000 0.000000
# 4 0.000000 0.000000 0.000000 0.026208 0.000000 0.000000
# 5 0.000000 0.000000 0.000000 0.000000 0.147509 0.000000
# 6 0.000000 0.000000 0.000000 0.000000 0.000000 0.116845
#
#
# Mechanical properties :
#
#
# Convention : Reuss Voigt Hill
#
# Bulk Modulus (GPa) = 44.09593 61.99179 53.04386
# Shear Modulus (GPa) = 13.48950 23.41124 18.45037
#
# Velocity S-wave (km/s) = 2.59572 3.41957 3.03572
# Velocity P-wave (km/s) = 5.56855 6.82312 6.22751
#
# Compressibility (1/GPa) = 0.02267783
#
# Stress axis : x y z
#
# Youngs Moduli (GPa) = 44.17826 118.00731 60.61124
#
# Poissons Ratio (x) = 0.28119 0.27103
# Poissons Ratio (y) = 0.10527 0.34008
# Poissons Ratio (z) = 0.19755 0.66212
#
# Static dielectric constant tensor:
#      x y z
#    x 3.281500 0.000000 0.000000 
#    y 0.000000 4.098410 0.000000 
#    z 0.000000 0.000000 3.573360 
# 
# 
# High freq. dielectric constant tensor:
#      x y z
#    x 1.751280 0.000000 0.000000 
#    y 0.000000 1.791810 0.000000 
#    z 0.000000 0.000000 1.767980 
# 
# From -- ./inp_files/2412.got.cif
#   From: 2010.03.12/outbox.cif.g09.slc.cpg/sg25_2_cif.got.tgz:2412.got - 2010.04.14 03:30:10.
