data_PCOD8166785
_publ_section_title
;
Structure prediction by ZEFSAII (Michael W. Deem and Ramdas Pophale) SiO2 
 PCOD8166785
Probable space group: P M M 2
;
_chemical_formula_sum "Si O2"
_cell_formula_units_Z 28
_cell_length_a 9.039392
_cell_length_b 9.011483
_cell_length_c 17.985062
_cell_angle_alpha 90.000000
_cell_angle_beta 90.000000
_cell_angle_gamma 90.000000
_cell_volume 1465.033068
_symmetry_space_group_name_H-M "P M M 2"
_symmetry_group_IT_number 25
_symmetry_cell_setting 'orthorhombic'
loop_
_space_group_symop_operation_xyz
x,y,z
-x,-y,z
-x,y,z
x,-y,z
loop_
_atom_site_type_symbol
_atom_site_label
_atom_site_fract_x
_atom_site_fract_y
_atom_site_fract_z
Si Si1 0.675736 0.167954 0.377080
Si Si2 0.825906 0.170691 0.933212
Si Si3 0.676094 0.667186 0.231337
Si Si4 0.327172 0.671681 0.798711
Si Si5 0.170989 0.673204 0.511743
Si Si6 0.170418 0.826018 0.663984
Si Si7 0.329789 0.827549 0.084298
O O1 0.500000 0.172061 0.378036
O O2 0.737791 0.239924 0.301148
O O3 0.732488 0.262092 0.445848
O O4 0.735123 0.000000 0.382327
O O5 0.753920 0.276389 0.872764
O O6 0.000000 0.193769 0.931768
O O7 0.782844 0.000000 0.916264
O O8 0.765819 0.219669 0.013381
O O9 0.500000 0.671064 0.231861
O O10 0.736579 0.500000 0.237454
O O11 0.733991 0.738573 0.154821
O O12 0.500000 0.699896 0.809166
O O13 0.290364 0.500000 0.784475
O O14 0.271561 0.766183 0.729482
O O15 0.203070 0.500000 0.519031
O O16 0.221852 0.749501 0.587987
O O17 0.000000 0.707373 0.495305
O O18 0.000000 0.788089 0.682263
O O19 0.195673 0.000000 0.655488
O O20 0.500000 0.786564 0.067928
O O21 0.312280 0.000000 0.102985
#
# Coordination Sequence:
#
# PCOD8166785 Si02
#       7
#     4   4   4   4   4   4   4
#     4  10  20  34  54  80 109 143 184 226 268 317
#     4  10  21  37  57  81 109 142 180 220 265 319
#     4   9  17  30  50  76 105 138 178 225 274 320
#     4  11  24  39  56  81 111 142 178 220 266 316
#     4  10  21  37  57  81 110 144 180 219 267 321
#     4  10  21  38  60  83 107 139 179 220 265 319
#     4   9  17  31  52  76 103 137 177 221 269 321
#
# _framework density 19.112196000000001
#
# number of rings (size 3 to 8) (size 9 to 14) (size 15 to 20)
#    0.000    2.143    0.000    3.000    0.000    9.143 
#    0.000    2.143    0.000    2.571    0.000    0.000 
#    0.000    0.000    0.000    0.000    0.000    0.000 
#
# Total GULP energy -347314.822671 kJ/mol
# GULP energy per Si atom -12404.100810 kJ/mol
# Density = 1.906870 g / cm^3
# Si number density = 19.112196 Si / 1000 Ang^3
#
#
#
# Elastic Constant Matrix: (Units=GPa)
#
#
# Indices 1 2 3 4 5 6 
#
# 1 46.9007 33.4534 40.9268 0.0000 0.0000 0.0000
# 2 33.4534 101.2268 66.1979 0.0000 0.0000 0.0000
# 3 40.9268 66.1979 147.9190 0.0000 0.0000 0.0000
# 4 0.0000 0.0000 0.0000 8.0786 0.0000 0.0000
# 5 0.0000 0.0000 0.0000 0.0000 58.1156 0.0000
# 6 0.0000 0.0000 0.0000 0.0000 0.0000 25.0517
#
#
#
# Elastic Compliance Matrix: (Units=1/GPa)
#
#
# Indices 1 2 3 4 5 6 
#
# 1 0.030886 -0.006530 -0.005624 0.000000 0.000000 0.000000
# 2 -0.006530 0.015347 -0.005061 0.000000 0.000000 0.000000
# 3 -0.005624 -0.005061 0.010581 0.000000 0.000000 0.000000
# 4 0.000000 0.000000 0.000000 0.123785 0.000000 0.000000
# 5 0.000000 0.000000 0.000000 0.000000 0.017207 0.000000
# 6 0.000000 0.000000 0.000000 0.000000 0.000000 0.039917
#
#
# Mechanical properties :
#
#
# Convention : Reuss Voigt Hill
#
# Bulk Modulus (GPa) = 44.67232 64.13364 54.40298
# Shear Modulus (GPa) = 17.88174 28.61373 23.24773
#
# Velocity S-wave (km/s) = 3.06211 3.87349 3.49145
# Velocity P-wave (km/s) = 5.99387 7.32356 6.69182
#
# Compressibility (1/GPa) = 0.02238523
#
# Stress axis : x y z
#
# Youngs Moduli (GPa) = 32.37668 65.16063 94.50460
#
# Poissons Ratio (x) = 0.42549 0.53145
# Poissons Ratio (y) = 0.21141 0.47832
# Poissons Ratio (z) = 0.18207 0.32980
#
# Static dielectric constant tensor:
#      x y z
#    x 3.290750 0.000000 0.000000 
#    y 0.000000 3.777760 0.000000 
#    z 0.000000 0.000000 3.689650 
# 
# 
# High freq. dielectric constant tensor:
#      x y z
#    x 1.721500 0.000000 0.000000 
#    y 0.000000 1.753800 0.000000 
#    z 0.000000 0.000000 1.759070 
# 
# From -- ./inp_files/6082.got.cif
#   From: 2010.03.12/outbox.cif.g09.slc.cpg/sg25_4_cif.got.tgz:6082.got - 2010.04.14 03:30:10.
