data_PCOD8166317
_publ_section_title
;
Structure prediction by ZEFSAII (Michael W. Deem and Ramdas Pophale) SiO2 
 PCOD8166317
Probable space group: P M M 2
;
_chemical_formula_sum "Si O2"
_cell_formula_units_Z 28
_cell_length_a 8.982412
_cell_length_b 14.539198
_cell_length_c 12.919854
_cell_angle_alpha 90.000000
_cell_angle_beta 90.000000
_cell_angle_gamma 90.000000
_cell_volume 1687.295033
_symmetry_space_group_name_H-M "P M M 2"
_symmetry_group_IT_number 25
_symmetry_cell_setting 'orthorhombic'
loop_
_space_group_symop_operation_xyz
x,y,z
-x,-y,z
-x,y,z
x,-y,z
loop_
_atom_site_type_symbol
_atom_site_label
_atom_site_fract_x
_atom_site_fract_y
_atom_site_fract_z
Si Si1 0.827244 0.606327 0.326810
Si Si2 0.177099 0.603394 0.727362
Si Si3 0.176543 0.100509 0.842085
Si Si4 0.177323 0.710683 0.527745
Si Si5 0.176988 0.100324 0.609396
Si Si6 0.324606 0.605041 0.114413
Si Si7 0.823427 0.288974 0.930123
O O1 0.802946 0.500000 0.355978
O O2 0.762987 0.666730 0.421568
O O3 0.735154 0.635076 0.226203
O O4 0.000000 0.627185 0.305259
O O5 0.240335 0.500000 0.729095
O O6 0.240676 0.654398 0.625921
O O7 0.232549 0.654720 0.830298
O O8 0.000000 0.603603 0.724228
O O9 0.238287 0.115654 0.725802
O O10 0.230385 0.182944 0.916464
O O11 0.000000 0.103704 0.836112
O O12 0.229454 0.000000 0.884219
O O13 0.233971 0.816659 0.536256
O O14 0.000000 0.704765 0.528757
O O15 0.000000 0.102729 0.612891
O O16 0.231010 0.000000 0.567480
O O17 0.500000 0.616547 0.113228
O O18 0.276587 0.500000 0.090324
O O19 0.254021 0.672178 0.031114
O O20 0.000000 0.297123 0.943767
#
# Coordination Sequence:
#
# PCOD8166317 Si02
#       7
#     4   4   4   4   4   4   4
#     4   9  17  29  46  66  86 112 150 191 223 257
#     4   9  15  21  33  60  94 119 138 169 217 266
#     4   8  13  22  38  64  97 125 147 176 218 266
#     4   9  14  22  37  61  91 117 141 174 218 263
#     4   8  12  19  33  57  92 125 145 166 208 267
#     4  10  21  35  48  62  85 119 156 192 230 271
#     4  10  17  27  46  70  93 118 150 186 222 265
#
# _framework density 16.594608000000001
#
# number of rings (size 3 to 8) (size 9 to 14) (size 15 to 20)
#    0.000    3.000    1.429    2.143    0.000    3.143 
#    0.000    0.000    0.000    2.143    0.000    6.000 
#    0.000    0.000    0.000    0.000    0.000    0.000 
#
# Total GULP energy -347014.011811 kJ/mol
# GULP energy per Si atom -12393.357565 kJ/mol
# Density = 1.655684 g / cm^3
# Si number density = 16.594608 Si / 1000 Ang^3
#
#
#
# Elastic Constant Matrix: (Units=GPa)
#
#
# Indices 1 2 3 4 5 6 
#
# 1 19.4176 23.3450 24.6343 0.0000 0.0000 0.0000
# 2 23.3450 161.0804 90.4205 0.0000 0.0000 0.0000
# 3 24.6343 90.4205 128.5895 0.0000 0.0000 0.0000
# 4 0.0000 0.0000 0.0000 26.7895 0.0000 0.0000
# 5 0.0000 0.0000 0.0000 0.0000 -2.8539 0.0000
# 6 0.0000 0.0000 0.0000 0.0000 0.0000 7.0613
#
#
#
# Elastic Compliance Matrix: (Units=1/GPa)
#
#
# Indices 1 2 3 4 5 6 
#
# 1 0.069802 -0.004312 -0.010340 0.000000 0.000000 0.000000
# 2 -0.004312 0.010523 -0.006573 0.000000 0.000000 0.000000
# 3 -0.010340 -0.006573 0.014380 0.000000 0.000000 0.000000
# 4 0.000000 0.000000 0.000000 0.037328 0.000000 0.000000
# 5 0.000000 0.000000 0.000000 0.000000 -0.350397 0.000000
# 6 0.000000 0.000000 0.000000 0.000000 0.000000 0.141617
#
#
# Mechanical properties :
#
#
# Convention : Reuss Voigt Hill
#
# Bulk Modulus (GPa) = 19.13743 65.09857 42.11800
# Shear Modulus (GPa) = -296.23065 17.57855 -139.32605
#
# Velocity S-wave (km/s) = -13.37526 3.25821 -9.17283
# Velocity P-wave (km/s) = 15.06562 7.31221 9.31409
#
# Compressibility (1/GPa) = 0.05225363
#
# Stress axis : x y z
#
# Youngs Moduli (GPa) = 14.32629 95.03121 69.54223
#
# Poissons Ratio (x) = 0.40977 0.71907
# Poissons Ratio (y) = 0.06177 0.45712
# Poissons Ratio (z) = 0.14814 0.62467
#
# Static dielectric constant tensor:
#      x y z
#    x 2.543980 0.000000 0.000000 
#    y 0.000000 3.556080 0.000000 
#    z 0.000000 0.000000 3.077180 
# 
# 
# High freq. dielectric constant tensor:
#      x y z
#    x 1.577990 0.000000 0.000000 
#    y 0.000000 1.649560 0.000000 
#    z 0.000000 0.000000 1.625460 
# 
# From -- ./inp_files/4061.got.cif
#   From: 2010.03.12/outbox.cif.g09.slc.cpg/sg25_3_cif.got.tgz:4061.got - 2010.04.14 03:30:10.
