data_PCOD8166528
_publ_section_title
;
Structure prediction by ZEFSAII (Michael W. Deem and Ramdas Pophale) SiO2 
 PCOD8166528
Probable space group: P M M 2
;
_chemical_formula_sum "Si O2"
_cell_formula_units_Z 24
_cell_length_a 8.690080
_cell_length_b 16.600544
_cell_length_c 9.244162
_cell_angle_alpha 90.000000
_cell_angle_beta 90.000000
_cell_angle_gamma 90.000000
_cell_volume 1333.563322
_symmetry_space_group_name_H-M "P M M 2"
_symmetry_group_IT_number 25
_symmetry_cell_setting 'orthorhombic'
loop_
_space_group_symop_operation_xyz
x,y,z
-x,-y,z
-x,y,z
x,-y,z
loop_
_atom_site_type_symbol
_atom_site_label
_atom_site_fract_x
_atom_site_fract_y
_atom_site_fract_z
Si Si1 0.818774 0.760682 0.750000
Si Si2 0.316175 0.269472 0.060741
Si Si3 0.316320 0.909483 0.592274
Si Si4 0.176771 0.592482 0.242539
Si Si5 0.667569 0.827924 0.319592
Si Si6 0.669779 0.666947 0.502229
O O1 0.753579 0.848410 0.708164
O O2 0.756616 0.688138 0.650766
O O3 0.000000 0.763533 0.736020
O O4 0.769728 0.741304 0.911610
O O5 0.500000 0.264139 0.042347
O O6 0.275223 0.355841 0.128786
O O7 0.252924 0.197234 0.167707
O O8 0.500000 0.897502 0.590506
O O9 0.249313 0.891134 0.428759
O O10 0.269526 0.000000 0.636284
O O11 0.196019 0.500000 0.197019
O O12 0.235301 0.602664 0.407722
O O13 0.000000 0.620378 0.235336
O O14 0.500000 0.863251 0.280962
O O15 0.650947 0.746848 0.410037
O O16 0.500000 0.632128 0.538768
#
# Coordination Sequence:
#
# PCOD8166528 Si02
#       6
#     4   4   4   4   4   4
#     4  11  21  33  51  75 106 139 172 215 266 313
#     4  10  19  33  53  75 103 139 178 214 252 307
#     4   9  17  32  54  77 101 131 171 217 261 309
#     4  10  20  34  53  79 109 136 165 208 262 311
#     4   7  13  27  48  72  94 121 160 205 246 288
#     4   9  17  32  53  74  97 129 172 211 245 298
#
# _framework density 17.996897000000001
#
# number of rings (size 3 to 8) (size 9 to 14) (size 15 to 20)
#    0.000    2.667    0.000    5.000    0.000    1.667 
#    0.000    2.500    0.000    8.000    0.000    0.000 
#    0.000    0.000    0.000    0.000    0.000    0.000 
#
# Total GULP energy -297350.800501 kJ/mol
# GULP energy per Si atom -12389.616688 kJ/mol
# Density = 1.795594 g / cm^3
# Si number density = 17.996897 Si / 1000 Ang^3
#
#
#
# Elastic Constant Matrix: (Units=GPa)
#
#
# Indices 1 2 3 4 5 6 
#
# 1 68.3048 16.4605 16.5289 0.0000 0.0000 0.0000
# 2 16.4605 62.5515 29.3712 0.0000 0.0000 0.0000
# 3 16.5289 29.3712 114.3815 0.0000 0.0000 0.0000
# 4 0.0000 0.0000 0.0000 19.3840 0.0000 0.0000
# 5 0.0000 0.0000 0.0000 0.0000 26.1491 0.0000
# 6 0.0000 0.0000 0.0000 0.0000 0.0000 21.7599
#
#
#
# Elastic Compliance Matrix: (Units=1/GPa)
#
#
# Indices 1 2 3 4 5 6 
#
# 1 0.015822 -0.003514 -0.001384 0.000000 0.000000 0.000000
# 2 -0.003514 0.018959 -0.004361 0.000000 0.000000 0.000000
# 3 -0.001384 -0.004361 0.010062 0.000000 0.000000 0.000000
# 4 0.000000 0.000000 0.000000 0.051589 0.000000 0.000000
# 5 0.000000 0.000000 0.000000 0.000000 0.038242 0.000000
# 6 0.000000 0.000000 0.000000 0.000000 0.000000 0.045956
#
#
# Mechanical properties :
#
#
# Convention : Reuss Voigt Hill
#
# Bulk Modulus (GPa) = 37.98439 41.10655 39.54547
# Shear Modulus (GPa) = 24.04738 25.65041 24.84890
#
# Velocity S-wave (km/s) = 3.65937 3.77937 3.71985
# Velocity P-wave (km/s) = 6.24552 6.47575 6.36168
#
# Compressibility (1/GPa) = 0.02632660
#
# Stress axis : x y z
#
# Youngs Moduli (GPa) = 63.20334 52.74542 99.37970
#
# Poissons Ratio (x) = 0.18533 0.13755
# Poissons Ratio (y) = 0.22207 0.43336
# Poissons Ratio (z) = 0.08748 0.23000
#
# Static dielectric constant tensor:
#      x y z
#    x 3.292040 0.000000 0.000000 
#    y 0.000000 3.257150 0.000000 
#    z 0.000000 0.000000 3.503960 
# 
# 
# High freq. dielectric constant tensor:
#      x y z
#    x 1.688820 0.000000 0.000000 
#    y 0.000000 1.674020 0.000000 
#    z 0.000000 0.000000 1.694760 
# 
# From -- ./inp_files/2100.got.cif
#   From: 2010.03.12/outbox.cif.g09.slc.cpg/sg25_2_cif.got.tgz:2100.got - 2010.04.14 03:30:10.
