data_PCOD8166653
_publ_section_title
;
Structure prediction by ZEFSAII (Michael W. Deem and Ramdas Pophale) SiO2 
 PCOD8166653
Probable space group: P M M 2
;
_chemical_formula_sum "Si O2"
_cell_formula_units_Z 28
_cell_length_a 8.918983
_cell_length_b 9.197923
_cell_length_c 18.288763
_cell_angle_alpha 90.000000
_cell_angle_beta 90.000000
_cell_angle_gamma 90.000000
_cell_volume 1500.339135
_symmetry_space_group_name_H-M "P M M 2"
_symmetry_group_IT_number 25
_symmetry_cell_setting 'orthorhombic'
loop_
_space_group_symop_operation_xyz
x,y,z
-x,-y,z
-x,y,z
x,-y,z
loop_
_atom_site_type_symbol
_atom_site_label
_atom_site_fract_x
_atom_site_fract_y
_atom_site_fract_z
Si Si1 0.823864 0.166193 0.518730
Si Si2 0.327265 0.173487 0.931390
Si Si3 0.321955 0.165416 0.246471
Si Si4 0.677644 0.839077 0.089551
Si Si5 0.323898 0.166464 0.669400
Si Si6 0.174084 0.330911 0.800481
Si Si7 0.674563 0.669815 0.387309
O O1 0.751486 0.218680 0.594419
O O2 0.764433 0.267441 0.454991
O O3 0.000000 0.185095 0.525909
O O4 0.778029 0.000000 0.501795
O O5 0.500000 0.214881 0.914675
O O6 0.219318 0.249805 0.874328
O O7 0.307639 0.000000 0.927495
O O8 0.275837 0.234277 0.012183
O O9 0.500000 0.167537 0.250205
O O10 0.270901 0.233962 0.166981
O O11 0.258046 0.261491 0.312719
O O12 0.263469 0.000000 0.254976
O O13 0.500000 0.850931 0.088414
O O14 0.746838 0.000000 0.090911
O O15 0.500000 0.184505 0.660615
O O16 0.268373 0.268954 0.733641
O O17 0.279639 0.000000 0.687519
O O18 0.211199 0.500000 0.809242
O O19 0.000000 0.302832 0.785089
O O20 0.500000 0.707844 0.397341
O O21 0.703294 0.500000 0.382973
#
# Coordination Sequence:
#
# PCOD8166653 Si02
#       7
#     4   4   4   4   4   4   4
#     4  10  21  37  57  79 102 131 168 208 251 300
#     4   9  17  31  53  79 104 131 168 214 260 305
#     4   8  13  24  45  71  99 132 169 211 257 300
#     4   7  11  22  43  72 101 127 161 209 260 303
#     4  10  21  38  61  85 104 125 160 207 256 304
#     4  11  24  38  51  72 105 142 175 206 245 296
#     4  10  20  32  48  74 107 140 173 209 251 300
#
# _framework density 18.662448000000001
#
# number of rings (size 3 to 8) (size 9 to 14) (size 15 to 20)
#    0.000    2.714    0.000    3.857    0.000    6.286 
#    0.000    0.714    0.000    3.429    0.000    2.000 
#    0.000    0.000    0.000    0.000    0.000    0.000 
#
# Total GULP energy -346989.039117 kJ/mol
# GULP energy per Si atom -12392.465683 kJ/mol
# Density = 1.861997 g / cm^3
# Si number density = 18.662448 Si / 1000 Ang^3
#
#
#
# Elastic Constant Matrix: (Units=GPa)
#
#
# Indices 1 2 3 4 5 6 
#
# 1 45.3036 28.7922 39.9020 0.0000 0.0000 0.0000
# 2 28.7922 59.8782 55.0462 0.0000 0.0000 0.0000
# 3 39.9020 55.0462 172.6719 0.0000 0.0000 0.0000
# 4 0.0000 0.0000 0.0000 -5.5859 0.0000 0.0000
# 5 0.0000 0.0000 0.0000 0.0000 -7.1863 0.0000
# 6 0.0000 0.0000 0.0000 0.0000 0.0000 23.1002
#
#
#
# Elastic Compliance Matrix: (Units=1/GPa)
#
#
# Indices 1 2 3 4 5 6 
#
# 1 0.033355 -0.012664 -0.003671 0.000000 0.000000 0.000000
# 2 -0.012664 0.028432 -0.006137 0.000000 0.000000 0.000000
# 3 -0.003671 -0.006137 0.008596 0.000000 0.000000 0.000000
# 4 0.000000 0.000000 0.000000 -0.179023 0.000000 0.000000
# 5 0.000000 0.000000 0.000000 0.000000 -0.139153 0.000000
# 6 0.000000 0.000000 0.000000 0.000000 0.000000 0.043290
#
#
# Mechanical properties :
#
#
# Convention : Reuss Voigt Hill
#
# Bulk Modulus (GPa) = 39.31003 58.37050 48.84026
# Shear Modulus (GPa) = -33.09517 12.33981 -10.37768
#
# Velocity S-wave (km/s) = -4.21569 2.57419 -2.36068
# Velocity P-wave (km/s) = 1.60831 6.33878 4.33552
#
# Compressibility (1/GPa) = 0.02543880
#
# Stress axis : x y z
#
# Youngs Moduli (GPa) = 29.98068 35.17132 116.33164
#
# Poissons Ratio (x) = 0.44541 0.42701
# Poissons Ratio (y) = 0.37968 0.71398
# Poissons Ratio (z) = 0.11005 0.21586
#
# Static dielectric constant tensor:
#      x y z
#    x 3.131930 0.000000 0.000000 
#    y 0.000000 3.270400 0.000000 
#    z 0.000000 0.000000 3.990400 
# 
# 
# High freq. dielectric constant tensor:
#      x y z
#    x 1.693200 0.000000 0.000000 
#    y 0.000000 1.698270 0.000000 
#    z 0.000000 0.000000 1.752130 
# 
# From -- ./inp_files/6407.got.cif
#   From: 2010.03.12/outbox.cif.g09.slc.cpg/sg25_4_cif.got.tgz:6407.got - 2010.04.14 03:30:10.
