data_PCOD8166476
_publ_section_title
;
Structure prediction by ZEFSAII (Michael W. Deem and Ramdas Pophale) SiO2 
 PCOD8166476
Probable space group: P M M 2
;
_chemical_formula_sum "Si O2"
_cell_formula_units_Z 20
_cell_length_a 7.846166
_cell_length_b 9.218638
_cell_length_c 14.597641
_cell_angle_alpha 90.000000
_cell_angle_beta 90.000000
_cell_angle_gamma 90.000000
_cell_volume 1055.861446
_symmetry_space_group_name_H-M "P M M 2"
_symmetry_group_IT_number 25
_symmetry_cell_setting 'orthorhombic'
loop_
_space_group_symop_operation_xyz
x,y,z
-x,-y,z
-x,y,z
x,-y,z
loop_
_atom_site_type_symbol
_atom_site_label
_atom_site_fract_x
_atom_site_fract_y
_atom_site_fract_z
Si Si1 0.805212 0.829454 0.491090
Si Si2 0.812699 0.172109 0.942788
Si Si3 0.305864 0.838740 0.134956
Si Si4 0.801004 0.665245 0.307198
Si Si5 0.500000 0.826380 0.824537
Si Si6 0.500000 0.828188 0.619102
O O1 0.749416 0.750490 0.398362
O O2 0.673191 0.775741 0.568713
O O3 0.000000 0.789062 0.519762
O O4 0.788179 0.000000 0.473492
O O5 0.668432 0.235620 0.875280
O O6 0.000000 0.218955 0.906611
O O7 0.793139 0.000000 0.945149
O O8 0.792612 0.228028 0.047334
O O9 0.500000 0.850531 0.103599
O O10 0.293200 0.734019 0.221176
O O11 0.236005 0.000000 0.160540
O O12 0.740874 0.500000 0.318500
O O13 0.000000 0.677470 0.288491
O O14 0.500000 0.763566 0.721448
O O15 0.500000 0.000000 0.823361
O O16 0.500000 0.000000 0.623249
#
# Coordination Sequence:
#
# PCOD8166476 Si02
#       6
#     4   4   4   4   2   2
#     4   9  18  33  51  72 100 133 168 206 250 300
#     4   9  16  27  45  69 100 135 165 198 245 296
#     4  10  19  31  49  74 104 136 171 208 245 295
#     4  10  21  35  50  72 102 134 170 211 252 297
#     4   9  16  28  43  69 102 126 159 207 252 297
#     4   9  18  30  48  71  98 130 165 207 252 299
#
# _framework density 18.941877999999999
#
# number of rings (size 3 to 8) (size 9 to 14) (size 15 to 20)
#    0.000    2.600    1.000    1.200    1.400    3.200 
#    0.000    4.000    0.000    0.000    0.000    2.800 
#    0.000    3.200    0.000    0.000    0.000    0.000 
#
# Total GULP energy -247944.398759 kJ/mol
# GULP energy per Si atom -12397.219938 kJ/mol
# Density = 1.889877 g / cm^3
# Si number density = 18.941878 Si / 1000 Ang^3
#
#
#
# Elastic Constant Matrix: (Units=GPa)
#
#
# Indices 1 2 3 4 5 6 
#
# 1 130.6697 20.6265 81.7788 0.0000 0.0000 0.0000
# 2 20.6265 39.8692 32.0557 0.0000 0.0000 0.0000
# 3 81.7788 32.0557 157.3588 0.0000 0.0000 0.0000
# 4 0.0000 0.0000 0.0000 -1.1153 0.0000 0.0000
# 5 0.0000 0.0000 0.0000 0.0000 28.4643 0.0000
# 6 0.0000 0.0000 0.0000 0.0000 0.0000 12.1415
#
#
#
# Elastic Compliance Matrix: (Units=1/GPa)
#
#
# Indices 1 2 3 4 5 6 
#
# 1 0.011403 -0.001357 -0.005650 0.000000 0.000000 0.000000
# 2 -0.001357 0.030156 -0.005438 0.000000 0.000000 0.000000
# 3 -0.005650 -0.005438 0.010399 0.000000 0.000000 0.000000
# 4 0.000000 0.000000 0.000000 -0.896580 0.000000 0.000000
# 5 0.000000 0.000000 0.000000 0.000000 0.035132 0.000000
# 6 0.000000 0.000000 0.000000 0.000000 0.000000 0.082362
#
#
# Mechanical properties :
#
#
# Convention : Reuss Voigt Hill
#
# Bulk Modulus (GPa) = 36.94274 66.31329 51.62801
# Shear Modulus (GPa) = -7.21275 20.79387 6.79056
#
# Velocity S-wave (km/s) = -1.95348 3.31686 1.89545
# Velocity P-wave (km/s) = 3.80229 7.05362 5.66617
#
# Compressibility (1/GPa) = 0.02706892
#
# Stress axis : x y z
#
# Youngs Moduli (GPa) = 87.69751 33.16055 96.16541
#
# Poissons Ratio (x) = 0.04500 0.54330
# Poissons Ratio (y) = 0.11900 0.52295
# Poissons Ratio (z) = 0.49545 0.18033
#
# Static dielectric constant tensor:
#      x y z
#    x 3.625630 0.000000 0.000000 
#    y 0.000000 2.998990 0.000000 
#    z 0.000000 0.000000 3.520230 
# 
# 
# High freq. dielectric constant tensor:
#      x y z
#    x 1.749700 0.000000 0.000000 
#    y 0.000000 1.677930 0.000000 
#    z 0.000000 0.000000 1.734450 
# 
# From -- ./inp_files/5127.got.cif
#   From: 2010.03.12/outbox.cif.g09.slc.cpg/sg25_3_cif.got.tgz:5127.got - 2010.04.14 03:30:10.
