data_PCOD8166175
_publ_section_title
;
Structure prediction by ZEFSAII (Michael W. Deem and Ramdas Pophale) SiO2 
 PCOD8166175
Probable space group: I 21 21 21
;
_chemical_formula_sum "Si O2"
_cell_formula_units_Z 20
_cell_length_a 5.295971
_cell_length_b 29.641264
_cell_length_c 4.905355
_cell_angle_alpha 90.000000
_cell_angle_beta 90.000000
_cell_angle_gamma 90.000000
_cell_volume 770.039069
_symmetry_space_group_name_H-M "I 21 21 21"
_symmetry_group_IT_number 24
_symmetry_cell_setting 'orthorhombic'
loop_
_space_group_symop_operation_xyz
x,y,z
-x,1/2-y,z
x,-y,1/2-z
1/2-x,y,-z
1/2+x,1/2+y,1/2+z
1/2-x,-y,1/2+z
1/2+x,1/2-y,-z
-x,1/2+y,1/2-z
loop_
_atom_site_type_symbol
_atom_site_label
_atom_site_fract_x
_atom_site_fract_y
_atom_site_fract_z
Si Si1 0.750000 0.175547 0.500000
Si Si2 0.077981 0.893735 0.763716
Si Si3 0.000000 0.250000 0.177663
Si Si4 0.250000 0.528939 0.000000
O O1 0.644165 0.143836 0.251595
O O2 0.967275 0.206461 0.369020
O O3 0.250000 0.899483 0.500000
O O4 0.250000 0.874105 0.000000
O O5 0.966639 0.941936 0.853208
O O6 0.750000 0.258399 0.000000
O O7 0.130631 0.500000 0.250000
#
# Coordination Sequence:
#
# PCOD8166175 Si02
#       4
#     4   8   4   4
#     4  11  30  48  74 120 160 220 280 348 414 495
#     4  11  27  48  79 117 163 215 270 339 418 496
#     4  12  30  50  80 116 166 220 290 354 418 494
#     4  11  24  48  78 118 164 208 274 340 410 499
#
# _framework density 25.972704
#
# number of rings (size 3 to 8) (size 9 to 14) (size 15 to 20)
#    0.000    0.800    0.000    3.600   14.000    6.400 
#    0.000    0.000    0.000    0.000    0.000    0.000 
#    0.000    0.000    0.000    0.000    0.000    0.000 
#
# Total GULP energy -123957.928853 kJ/mol
# GULP energy per Si atom -12395.792885 kJ/mol
# Density = 2.591359 g / cm^3
# Si number density = 25.972704 Si / 1000 Ang^3
#
#
#
# Elastic Constant Matrix: (Units=GPa)
#
#
# Indices 1 2 3 4 5 6 
#
# 1 148.1706 76.5787 84.2219 0.0134 -0.0008 -0.0012
# 2 76.5787 195.0057 93.9666 0.0560 0.0034 -0.0073
# 3 84.2219 93.9666 202.4805 0.1124 -0.0036 -0.0026
# 4 0.0134 0.0560 0.1124 15.2695 -0.0026 0.0087
# 5 -0.0008 0.0034 -0.0036 -0.0026 73.2727 0.0040
# 6 -0.0012 -0.0073 -0.0026 0.0087 0.0040 29.4010
#
#
#
# Elastic Compliance Matrix: (Units=1/GPa)
#
#
# Indices 1 2 3 4 5 6 
#
# 1 0.009629 -0.002385 -0.002899 0.000022 0.000000 0.000000
# 2 -0.002385 0.007196 -0.002347 -0.000007 0.000000 0.000001
# 3 -0.002899 -0.002347 0.007234 -0.000042 0.000000 0.000000
# 4 0.000022 -0.000007 -0.000042 0.065490 0.000002 -0.000019
# 5 0.000000 0.000000 0.000000 0.000002 0.013648 -0.000002
# 6 0.000000 0.000001 0.000000 -0.000019 -0.000002 0.034012
#
#
# Mechanical properties :
#
#
# Convention : Reuss Voigt Hill
#
# Bulk Modulus (GPa) = 113.67205 117.24348 115.45777
# Shear Modulus (GPa) = 32.17453 42.98129 37.57791
#
# Velocity S-wave (km/s) = 3.52345 4.07241 3.80784
# Velocity P-wave (km/s) = 7.77264 8.20681 7.99268
#
# Compressibility (1/GPa) = 0.00879724
#
# Stress axis : x y z
#
# Youngs Moduli (GPa) = 103.85332 138.97289 138.23940
#
# Poissons Ratio (x) = 0.33139 0.40069
# Poissons Ratio (y) = 0.24765 0.32451
# Poissons Ratio (z) = 0.30102 0.32623
#
# Static dielectric constant tensor:
#      x y z
#    x 4.880440 0.000020 -0.000090 
#    y 0.000020 4.865950 -0.000030 
#    z -0.000090 -0.000030 4.774350 
# 
# 
# High freq. dielectric constant tensor:
#      x y z
#    x 2.042610 0.000000 0.000000 
#    y 0.000000 2.057920 0.000000 
#    z 0.000000 0.000000 2.046660 
# 
# From -- ./inp_files/335.got.cif
#   From: 2010.03.12/outbox.cif.g09.slc.cpg/sg24_1_cif.got.tgz:335.got - 2010.04.14 03:06:53.
