data_PCOD8166240
_publ_section_title
;
Structure prediction by ZEFSAII (Michael W. Deem and Ramdas Pophale) SiO2 
 PCOD8166240
Probable space group: I 21 21 21
;
_chemical_formula_sum "Si O2"
_cell_formula_units_Z 36
_cell_length_a 4.846244
_cell_length_b 12.112451
_cell_length_c 24.034868
_cell_angle_alpha 90.000000
_cell_angle_beta 90.000000
_cell_angle_gamma 90.000000
_cell_volume 1410.844179
_symmetry_space_group_name_H-M "I 21 21 21"
_symmetry_group_IT_number 24
_symmetry_cell_setting 'orthorhombic'
loop_
_space_group_symop_operation_xyz
x,y,z
-x,1/2-y,z
x,-y,1/2-z
1/2-x,y,-z
1/2+x,1/2+y,1/2+z
1/2-x,-y,1/2+z
1/2+x,1/2-y,-z
-x,1/2+y,1/2-z
loop_
_atom_site_type_symbol
_atom_site_label
_atom_site_fract_x
_atom_site_fract_y
_atom_site_fract_z
Si Si1 0.511202 0.496213 0.686614
Si Si2 0.644495 0.850077 0.553983
Si Si3 0.743639 0.676566 0.898253
Si Si4 0.001333 0.125456 0.846581
Si Si5 0.750000 0.526913 0.000000
O O1 0.615103 0.500000 0.750000
O O2 0.593813 0.383437 0.655122
O O3 0.191446 0.536322 0.686251
O O4 0.680274 0.589839 0.653321
O O5 0.500000 0.750000 0.588800
O O6 0.750000 0.783973 0.500000
O O7 0.906524 0.887867 0.589793
O O8 0.485885 0.956356 0.530524
O O9 0.500000 0.750000 0.924599
O O10 0.000000 0.750000 0.875504
O O11 0.862808 0.600942 0.948355
O O12 0.000000 0.250000 0.822341
#
# Coordination Sequence:
#
# PCOD8166240 Si02
#       5
#     8   8   8   8   4
#     4  12  27  51  78 111 153 203 258 333 398 467
#     4  12  24  41  70 111 154 199 246 318 398 482
#     4  12  28  50  73 107 150 207 268 319 379 463
#     4  12  26  47  76 114 150 195 252 316 409 485
#     4  12  26  46  74 108 156 206 258 322 396 472
#
# _framework density 25.516638
#
# number of rings (size 3 to 8) (size 9 to 14) (size 15 to 20)
#    0.000    0.000    3.333    6.667    3.111    2.667 
#    0.000    0.000    0.000    0.000    0.000    0.000 
#    0.000    0.000    0.000    0.000    0.000    0.000 
#
# Total GULP energy -222992.611201 kJ/mol
# GULP energy per Si atom -12388.478400 kJ/mol
# Density = 2.545856 g / cm^3
# Si number density = 25.516638 Si / 1000 Ang^3
#
#
#
# Elastic Constant Matrix: (Units=GPa)
#
#
# Indices 1 2 3 4 5 6 
#
# 1 78.8214 31.0549 -4.8853 0.0000 0.0000 0.0000
# 2 31.0549 134.6965 26.3485 0.0000 0.0000 0.0000
# 3 -4.8853 26.3485 129.3835 0.0000 0.0000 0.0000
# 4 0.0000 0.0000 0.0000 14.6086 0.0000 0.0000
# 5 0.0000 0.0000 0.0000 0.0000 29.4050 0.0000
# 6 0.0000 0.0000 0.0000 0.0000 0.0000 55.5976
#
#
#
# Elastic Compliance Matrix: (Units=1/GPa)
#
#
# Indices 1 2 3 4 5 6 
#
# 1 0.014145 -0.003505 0.001248 0.000000 0.000000 0.000000
# 2 -0.003505 0.008601 -0.001884 0.000000 0.000000 0.000000
# 3 0.001248 -0.001884 0.008160 0.000000 0.000000 0.000000
# 4 0.000000 0.000000 0.000000 0.068453 0.000000 0.000000
# 5 0.000000 0.000000 0.000000 0.000000 0.034008 0.000000
# 6 0.000000 0.000000 0.000000 0.000000 0.000000 0.017986
#
#
# Mechanical properties :
#
#
# Convention : Reuss Voigt Hill
#
# Bulk Modulus (GPa) = 44.20230 49.77084 46.98657
# Shear Modulus (GPa) = 29.90847 39.28112 34.59480
#
# Velocity S-wave (km/s) = 3.42733 3.92782 3.68608
# Velocity P-wave (km/s) = 5.74654 6.33387 6.04734
#
# Compressibility (1/GPa) = 0.02262326
#
# Stress axis : x y z
#
# Youngs Moduli (GPa) = 70.69461 116.26831 122.55310
#
# Poissons Ratio (x) = 0.40757 -0.15294
# Poissons Ratio (y) = 0.24781 0.23088
# Poissons Ratio (z) = -0.08822 0.21904
#
# Static dielectric constant tensor:
#      x y z
#    x 4.769230 0.000000 0.000000 
#    y 0.000000 4.762060 0.000000 
#    z 0.000000 0.000000 4.607360 
# 
# 
# High freq. dielectric constant tensor:
#      x y z
#    x 2.031310 0.000000 0.000000 
#    y 0.000000 2.033030 0.000000 
#    z 0.000000 0.000000 2.010460 
# 
# From -- ./inp_files/34547.got.cif
#   From: 2010.03.12/outbox.cif.g09.slc.cpg/sg24_18_cif.got.tgz:34547.got - 2010.04.14 03:06:53.
