data_PCOD8166859
_publ_section_title
;
Structure prediction by ZEFSAII (Michael W. Deem and Ramdas Pophale) SiO2 
 PCOD8166859
Probable space group: P M M 2
;
_chemical_formula_sum "Si O2"
_cell_formula_units_Z 32
_cell_length_a 19.588784
_cell_length_b 22.445462
_cell_length_c 5.173940
_cell_angle_alpha 90.000000
_cell_angle_beta 90.000000
_cell_angle_gamma 90.000000
_cell_volume 2274.874353
_symmetry_space_group_name_H-M "P M M 2"
_symmetry_group_IT_number 25
_symmetry_cell_setting 'orthorhombic'
loop_
_space_group_symop_operation_xyz
x,y,z
-x,-y,z
-x,y,z
x,-y,z
loop_
_atom_site_type_symbol
_atom_site_label
_atom_site_fract_x
_atom_site_fract_y
_atom_site_fract_z
Si Si1 0.922570 0.571183 0.115120
Si Si2 0.152837 0.569895 0.614287
Si Si3 0.418524 0.067370 0.083974
Si Si4 0.573388 0.434808 0.391941
Si Si5 0.619319 0.659789 0.049142
Si Si6 0.580468 0.729562 0.532628
Si Si7 0.302745 0.569346 0.771382
Si Si8 0.418906 0.135365 0.584653
O O1 0.920777 0.500000 0.115347
O O2 0.880437 0.597551 0.357226
O O3 0.000000 0.594601 0.127029
O O4 0.885966 0.597282 0.861165
O O5 0.139922 0.500000 0.612240
O O6 0.233146 0.584132 0.621794
O O7 0.500000 0.067288 0.082823
O O8 0.389443 0.102411 0.836500
O O9 0.390564 0.000000 0.080822
O O10 0.390015 0.100919 0.335742
O O11 0.500000 0.432934 0.537995
O O12 0.588110 0.500000 0.275926
O O13 0.633259 0.417266 0.586812
O O14 0.566579 0.390016 0.151135
O O15 0.593176 0.692188 0.792264
O O16 0.688151 0.619315 0.997627
O O17 0.625508 0.706294 0.288923
O O18 0.500000 0.726967 0.460995
O O19 0.605717 0.796515 0.583794
O O20 0.301771 0.500000 0.871249
O O21 0.500000 0.132852 0.587198
#
# Coordination Sequence:
#
# PCOD8166859 Si02
#       8
#     4   4   4   4   4   4   4   4
#     4   9  16  27  44  66  86 102 119 137 164 216
#     4   9  18  29  45  62  82 104 120 144 183 233
#     4   9  15  24  40  59  78  97 115 137 170 220
#     4  10  21  35  48  60  74  93 125 173 220 258
#     4  12  22  34  47  59  73  95 130 167 207 252
#     4  11  22  33  46  58  74  98 126 163 205 245
#     4  10  22  36  49  62  79 100 129 166 215 261
#     4   9  17  28  39  56  77  96 118 145 181 228
#
# _framework density 14.066712000000001
#
# number of rings (size 3 to 8) (size 9 to 14) (size 15 to 20)
#    0.000    2.125    1.250    3.000    1.750    6.000 
#    0.000    1.250    0.000    0.000    0.000    0.000 
#    0.000    0.000    0.000    0.000    0.000    0.000 
#
# Total GULP energy -396462.810362 kJ/mol
# GULP energy per Si atom -12389.462824 kJ/mol
# Density = 1.403470 g / cm^3
# Si number density = 14.066712 Si / 1000 Ang^3
#
#
#
# Elastic Constant Matrix: (Units=GPa)
#
#
# Indices 1 2 3 4 5 6 
#
# 1 66.2602 10.8295 30.8277 0.0000 0.0000 0.0000
# 2 10.8295 95.1741 37.0016 0.0000 0.0000 0.0000
# 3 30.8277 37.0016 104.7896 0.0000 0.0000 0.0000
# 4 0.0000 0.0000 0.0000 21.7840 0.0000 0.0000
# 5 0.0000 0.0000 0.0000 0.0000 15.1788 0.0000
# 6 0.0000 0.0000 0.0000 0.0000 0.0000 4.2785
#
#
#
# Elastic Compliance Matrix: (Units=1/GPa)
#
#
# Indices 1 2 3 4 5 6 
#
# 1 0.017485 0.000012 -0.005148 0.000000 0.000000 0.000000
# 2 0.000012 0.012179 -0.004304 0.000000 0.000000 0.000000
# 3 -0.005148 -0.004304 0.012577 0.000000 0.000000 0.000000
# 4 0.000000 0.000000 0.000000 0.045905 0.000000 0.000000
# 5 0.000000 0.000000 0.000000 0.000000 0.065881 0.000000
# 6 0.000000 0.000000 0.000000 0.000000 0.000000 0.233729
#
#
# Mechanical properties :
#
#
# Convention : Reuss Voigt Hill
#
# Bulk Modulus (GPa) = 42.80627 47.06017 44.93322
# Shear Modulus (GPa) = 12.06494 20.75259 16.40876
#
# Velocity S-wave (km/s) = 2.93182 3.84513 3.41911
# Velocity P-wave (km/s) = 6.47748 7.29664 6.89923
#
# Compressibility (1/GPa) = 0.02336106
#
# Stress axis : x y z
#
# Youngs Moduli (GPa) = 57.19103 82.10864 79.50912
#
# Poissons Ratio (x) = -0.00098 0.40932
# Poissons Ratio (y) = -0.00068 0.34220
# Poissons Ratio (z) = 0.29443 0.35339
#
# Static dielectric constant tensor:
#      x y z
#    x 2.479290 0.000000 0.000000 
#    y 0.000000 2.733320 0.000000 
#    z 0.000000 0.000000 3.016850 
# 
# 
# High freq. dielectric constant tensor:
#      x y z
#    x 1.482730 0.000000 0.000000 
#    y 0.000000 1.505850 0.000000 
#    z 0.000000 0.000000 1.556990 
# 
# From -- ./inp_files/1197.got.cif
#   From: 2010.03.12/outbox.cif.g09.slc.cpg/sg25_1_cif.got.tgz:1197.got - 2010.04.14 03:30:10.
