data_PCOD8166987
_publ_section_title
;
Structure prediction by ZEFSAII (Michael W. Deem and Ramdas Pophale) SiO2 
 PCOD8166987
Probable space group: P M M 2
;
_chemical_formula_sum "Si O2"
_cell_formula_units_Z 32
_cell_length_a 14.057490
_cell_length_b 9.026335
_cell_length_c 15.518710
_cell_angle_alpha 90.000000
_cell_angle_beta 90.000000
_cell_angle_gamma 90.000000
_cell_volume 1969.132084
_symmetry_space_group_name_H-M "P M M 2"
_symmetry_group_IT_number 25
_symmetry_cell_setting 'orthorhombic'
loop_
_space_group_symop_operation_xyz
x,y,z
-x,-y,z
-x,y,z
x,-y,z
loop_
_atom_site_type_symbol
_atom_site_label
_atom_site_fract_x
_atom_site_fract_y
_atom_site_fract_z
Si Si1 0.391894 0.329726 0.299410
Si Si2 0.887615 0.329086 0.199727
Si Si3 0.107491 0.174231 0.870614
Si Si4 0.110743 0.673720 0.512587
Si Si5 0.787645 0.175081 0.358636
Si Si6 0.607772 0.670153 0.098528
Si Si7 0.886996 0.336247 0.704109
Si Si8 0.786850 0.175163 0.041212
O O1 0.500000 0.281791 0.319365
O O2 0.375737 0.500000 0.326116
O O3 0.322311 0.224697 0.353378
O O4 0.368808 0.308772 0.198892
O O5 0.855439 0.500000 0.200932
O O6 0.848912 0.251682 0.284696
O O7 0.846711 0.252862 0.115322
O O8 0.000000 0.312210 0.198634
O O9 0.152009 0.233430 0.780987
O O10 0.000000 0.233954 0.884431
O O11 0.107607 0.000000 0.864412
O O12 0.171147 0.228858 0.950086
O O13 0.129548 0.500000 0.495296
O O14 0.172458 0.775177 0.450315
O O15 0.144320 0.718555 0.609215
O O16 0.000000 0.709756 0.498065
O O17 0.795053 0.000000 0.348525
O O18 0.500000 0.719302 0.078579
O O19 0.623389 0.500000 0.071816
O O20 0.677124 0.774797 0.043827
O O21 0.846244 0.500000 0.720765
O O22 0.000000 0.339119 0.704856
O O23 0.794737 0.000000 0.053368
#
# Coordination Sequence:
#
# PCOD8166987 Si02
#       8
#     4   4   4   4   4   4   4   4
#     4   9  18  34  54  71  91 123 161 201 243 286
#     4  11  23  36  48  63  91 133 172 201 232 274
#     4   9  18  31  46  67  99 133 159 190 237 288
#     4   9  18  33  51  70  96 130 165 201 239 282
#     4  12  23  32  47  73 100 127 159 198 241 288
#     4   9  18  33  52  71  92 122 161 203 244 286
#     4   8  15  29  49  71  92 119 161 206 239 271
#     4  11  21  32  48  72  99 128 161 198 240 288
#
# _framework density 16.250813999999998
#
# number of rings (size 3 to 8) (size 9 to 14) (size 15 to 20)
#    0.000    2.250    1.250    4.125    0.000    5.250 
#    0.000    3.750    0.000    0.000    0.000    0.875 
#    0.000    5.000    0.000    0.000    0.000    0.000 
#
# Total GULP energy -396777.731035 kJ/mol
# GULP energy per Si atom -12399.304095 kJ/mol
# Density = 1.621383 g / cm^3
# Si number density = 16.250814 Si / 1000 Ang^3
#
#
#
# Elastic Constant Matrix: (Units=GPa)
#
#
# Indices 1 2 3 4 5 6 
#
# 1 82.2506 45.3761 51.1853 0.0000 0.0000 0.0000
# 2 45.3761 81.1385 54.0957 0.0000 0.0000 0.0000
# 3 51.1853 54.0957 122.9792 0.0000 0.0000 0.0000
# 4 0.0000 0.0000 0.0000 27.5713 0.0000 0.0000
# 5 0.0000 0.0000 0.0000 0.0000 10.7516 0.0000
# 6 0.0000 0.0000 0.0000 0.0000 0.0000 22.4210
#
#
#
# Elastic Compliance Matrix: (Units=1/GPa)
#
#
# Indices 1 2 3 4 5 6 
#
# 1 0.019293 -0.007691 -0.004647 0.000000 0.000000 0.000000
# 2 -0.007691 0.020505 -0.005819 0.000000 0.000000 0.000000
# 3 -0.004647 -0.005819 0.012625 0.000000 0.000000 0.000000
# 4 0.000000 0.000000 0.000000 0.036270 0.000000 0.000000
# 5 0.000000 0.000000 0.000000 0.000000 0.093010 0.000000
# 6 0.000000 0.000000 0.000000 0.000000 0.000000 0.044601
#
#
# Mechanical properties :
#
#
# Convention : Reuss Voigt Hill
#
# Bulk Modulus (GPa) = 62.07404 65.29806 63.68605
# Shear Modulus (GPa) = 18.65768 21.19620 19.92694
#
# Velocity S-wave (km/s) = 3.39205 3.61545 3.50553
# Velocity P-wave (km/s) = 7.32269 7.59587 7.46053
#
# Compressibility (1/GPa) = 0.01610979
#
# Stress axis : x y z
#
# Youngs Moduli (GPa) = 51.83278 48.76806 79.20884
#
# Poissons Ratio (x) = 0.37510 0.36805
# Poissons Ratio (y) = 0.39867 0.46088
# Poissons Ratio (z) = 0.24085 0.28376
#
# Static dielectric constant tensor:
#      x y z
#    x 3.044180 0.000000 0.000000 
#    y 0.000000 3.095090 0.000000 
#    z 0.000000 0.000000 3.156250 
# 
# 
# High freq. dielectric constant tensor:
#      x y z
#    x 1.608720 0.000000 0.000000 
#    y 0.000000 1.626330 0.000000 
#    z 0.000000 0.000000 1.615810 
# 
# From -- ./inp_files/5733.got.cif
#   From: 2010.03.12/outbox.cif.g09.slc.cpg/sg25_3_cif.got.tgz:5733.got - 2010.04.14 03:30:10.
