data_PCOD8166473
_publ_section_title
;
Structure prediction by ZEFSAII (Michael W. Deem and Ramdas Pophale) SiO2 
 PCOD8166473
Probable space group: P M M 2
;
_chemical_formula_sum "Si O2"
_cell_formula_units_Z 24
_cell_length_a 12.469183
_cell_length_b 8.890102
_cell_length_c 12.676603
_cell_angle_alpha 90.000000
_cell_angle_beta 90.000000
_cell_angle_gamma 90.000000
_cell_volume 1405.230709
_symmetry_space_group_name_H-M "P M M 2"
_symmetry_group_IT_number 25
_symmetry_cell_setting 'orthorhombic'
loop_
_space_group_symop_operation_xyz
x,y,z
-x,-y,z
-x,y,z
x,-y,z
loop_
_atom_site_type_symbol
_atom_site_label
_atom_site_fract_x
_atom_site_fract_y
_atom_site_fract_z
Si Si1 0.270351 0.180159 0.317580
Si Si2 0.716565 0.677179 0.093805
Si Si3 0.872501 0.169238 0.699182
Si Si4 0.877593 0.674965 0.909498
Si Si5 0.500000 0.166961 0.082405
Si Si6 0.500000 0.836044 0.332260
Si Si7 0.873190 0.672576 0.488729
O O1 0.247154 0.247656 0.202930
O O2 0.386530 0.243069 0.361877
O O3 0.177356 0.230931 0.395169
O O4 0.273987 0.000000 0.308240
O O5 0.703839 0.500000 0.111059
O O6 0.605714 0.742441 0.047226
O O7 0.809192 0.718154 0.011313
O O8 0.829506 0.238498 0.808284
O O9 0.829863 0.265775 0.600360
O O10 0.000000 0.174119 0.700217
O O11 0.828988 0.000000 0.687552
O O12 0.869974 0.500000 0.882600
O O13 0.000000 0.723169 0.932643
O O14 0.500000 0.149946 0.206927
O O15 0.500000 0.000000 0.030811
O O16 0.500000 0.000000 0.385765
O O17 0.838273 0.500000 0.477723
O O18 0.000000 0.692483 0.479587
#
# Coordination Sequence:
#
# PCOD8166473 Si02
#       7
#     4   4   4   4   2   2   4
#     4  10  19  32  50  72  99 128 160 199 242 288
#     4  10  19  31  49  73 100 130 163 198 239 288
#     4   9  17  30  49  71  93 121 161 202 237 280
#     4   9  18  32  49  70  98 130 160 193 237 288
#     4   9  17  31  49  68  93 126 165 205 241 279
#     4   7  14  29  47  66  89 120 155 193 235 277
#     4  10  20  33  49  70  98 130 162 197 239 287
#
# _framework density 17.079046999999999
#
# number of rings (size 3 to 8) (size 9 to 14) (size 15 to 20)
#    0.000    2.667    0.000    3.250    0.000    5.000 
#    0.000    2.917    0.000    1.000    0.000    4.667 
#    0.000    0.000    0.000    0.000    0.000    0.000 
#
# Total GULP energy -297490.624594 kJ/mol
# GULP energy per Si atom -12395.442691 kJ/mol
# Density = 1.704017 g / cm^3
# Si number density = 17.079047 Si / 1000 Ang^3
#
#
#
# Elastic Constant Matrix: (Units=GPa)
#
#
# Indices 1 2 3 4 5 6 
#
# 1 69.9413 41.1659 50.4844 0.0000 0.0000 0.0000
# 2 41.1659 95.0909 54.8755 0.0000 0.0000 0.0000
# 3 50.4844 54.8755 107.8949 0.0000 0.0000 0.0000
# 4 0.0000 0.0000 0.0000 25.4174 0.0000 0.0000
# 5 0.0000 0.0000 0.0000 0.0000 1.5073 0.0000
# 6 0.0000 0.0000 0.0000 0.0000 0.0000 22.4071
#
#
#
# Elastic Compliance Matrix: (Units=1/GPa)
#
#
# Indices 1 2 3 4 5 6 
#
# 1 0.023393 -0.005393 -0.008202 0.000000 0.000000 0.000000
# 2 -0.005393 0.016129 -0.005679 0.000000 0.000000 0.000000
# 3 -0.008202 -0.005679 0.015995 0.000000 0.000000 0.000000
# 4 0.000000 0.000000 0.000000 0.039343 0.000000 0.000000
# 5 0.000000 0.000000 0.000000 0.000000 0.663430 0.000000
# 6 0.000000 0.000000 0.000000 0.000000 0.000000 0.044629
#
#
# Mechanical properties :
#
#
# Convention : Reuss Voigt Hill
#
# Bulk Modulus (GPa) = 58.94301 62.88652 60.91477
# Shear Modulus (GPa) = 5.90233 18.29312 12.09772
#
# Velocity S-wave (km/s) = 1.86102 3.27629 2.66435
# Velocity P-wave (km/s) = 6.26136 7.15632 6.72375
#
# Compressibility (1/GPa) = 0.01696554
#
# Stress axis : x y z
#
# Youngs Moduli (GPa) = 42.74819 62.00147 62.52040
#
# Poissons Ratio (x) = 0.33440 0.51282
# Poissons Ratio (y) = 0.23056 0.35508
# Poissons Ratio (z) = 0.35064 0.35213
#
# Static dielectric constant tensor:
#      x y z
#    x 3.289150 0.000000 0.000000 
#    y 0.000000 3.298960 0.000000 
#    z 0.000000 0.000000 3.065900 
# 
# 
# High freq. dielectric constant tensor:
#      x y z
#    x 1.642750 0.000000 0.000000 
#    y 0.000000 1.666830 0.000000 
#    z 0.000000 0.000000 1.642970 
# 
# From -- ./inp_files/4002.got.cif
#   From: 2010.03.12/outbox.cif.g09.slc.cpg/sg25_3_cif.got.tgz:4002.got - 2010.04.14 03:30:10.
