data_PCOD8166608
_publ_section_title
;
Structure prediction by ZEFSAII (Michael W. Deem and Ramdas Pophale) SiO2 
 PCOD8166608
Probable space group: P M M 2
;
_chemical_formula_sum "Si O2"
_cell_formula_units_Z 32
_cell_length_a 9.267632
_cell_length_b 17.769136
_cell_length_c 11.464750
_cell_angle_alpha 90.000000
_cell_angle_beta 90.000000
_cell_angle_gamma 90.000000
_cell_volume 1887.989961
_symmetry_space_group_name_H-M "P M M 2"
_symmetry_group_IT_number 25
_symmetry_cell_setting 'orthorhombic'
loop_
_space_group_symop_operation_xyz
x,y,z
-x,-y,z
-x,y,z
x,-y,z
loop_
_atom_site_type_symbol
_atom_site_label
_atom_site_fract_x
_atom_site_fract_y
_atom_site_fract_z
Si Si1 0.658475 0.353735 0.952600
Si Si2 0.172697 0.785597 0.537607
Si Si3 0.839598 0.863491 0.877815
Si Si4 0.670280 0.267804 0.309331
Si Si5 0.328685 0.583028 0.187189
Si Si6 0.341559 0.806834 0.070702
Si Si7 0.333931 0.914479 0.664080
Si Si8 0.842442 0.702210 0.761241
O O1 0.500000 0.385596 0.923712
O O2 0.745740 0.357918 0.831095
O O3 0.733368 0.402351 0.056345
O O4 0.647503 0.268783 0.996304
O O5 0.231806 0.759007 0.414627
O O6 0.246528 0.864495 0.571283
O O7 0.217957 0.721941 0.632482
O O8 0.000000 0.796742 0.535355
O O9 0.738103 0.910926 0.791803
O O10 0.852154 0.779062 0.832578
O O11 0.000000 0.899529 0.884341
O O12 0.770399 0.863409 0.007935
O O13 0.500000 0.265178 0.339982
O O14 0.721655 0.353022 0.277923
O O15 0.707360 0.212434 0.202082
O O16 0.500000 0.589999 0.175383
O O17 0.280081 0.500000 0.230687
O O18 0.500000 0.844901 0.073365
O O19 0.500000 0.886670 0.672639
O O20 0.327121 0.000000 0.619041
O O21 0.000000 0.665401 0.750001
#
# Coordination Sequence:
#
# PCOD8166608 Si02
#       8
#     4   4   4   4   4   4   4   4
#     4   8  13  22  40  64  85 109 141 177 221 269
#     4  10  20  32  47  68  94 125 161 201 241 282
#     4   9  16  26  43  67  92 117 144 177 222 272
#     4   9  17  29  47  70  94 125 165 204 240 280
#     4   8  14  26  45  69  95 120 150 194 244 288
#     4   8  14  25  41  63  90 116 145 183 225 269
#     4  10  20  33  50  71  94 121 153 191 237 288
#     4   8  15  26  39  59  86 113 141 176 220 266
#
# _framework density 16.949242000000002
#
# number of rings (size 3 to 8) (size 9 to 14) (size 15 to 20)
#    0.000    3.250    0.000    3.375    0.000    5.000 
#    0.000    1.875    0.000    3.000    0.000   10.500 
#    0.000    0.000    0.000    0.000    0.000    0.000 
#
# Total GULP energy -396506.408141 kJ/mol
# GULP energy per Si atom -12390.825254 kJ/mol
# Density = 1.691066 g / cm^3
# Si number density = 16.949242 Si / 1000 Ang^3
#
#
#
# Elastic Constant Matrix: (Units=GPa)
#
#
# Indices 1 2 3 4 5 6 
#
# 1 93.4593 34.6329 59.4818 0.0000 0.0000 0.0000
# 2 34.6329 58.4488 40.3505 0.0000 0.0000 0.0000
# 3 59.4818 40.3505 126.0509 0.0000 0.0000 0.0000
# 4 0.0000 0.0000 0.0000 14.6571 0.0000 0.0000
# 5 0.0000 0.0000 0.0000 0.0000 26.2605 0.0000
# 6 0.0000 0.0000 0.0000 0.0000 0.0000 9.2282
#
#
#
# Elastic Compliance Matrix: (Units=1/GPa)
#
#
# Indices 1 2 3 4 5 6 
#
# 1 0.016652 -0.005702 -0.006033 0.000000 0.000000 0.000000
# 2 -0.005702 0.023915 -0.004965 0.000000 0.000000 0.000000
# 3 -0.006033 -0.004965 0.012369 0.000000 0.000000 0.000000
# 4 0.000000 0.000000 0.000000 0.068226 0.000000 0.000000
# 5 0.000000 0.000000 0.000000 0.000000 0.038080 0.000000
# 6 0.000000 0.000000 0.000000 0.000000 0.000000 0.108363
#
#
# Mechanical properties :
#
#
# Convention : Reuss Voigt Hill
#
# Bulk Modulus (GPa) = 51.18373 60.76551 55.97462
# Shear Modulus (GPa) = 16.25919 19.59542 17.92731
#
# Velocity S-wave (km/s) = 3.10060 3.40387 3.25577
# Velocity P-wave (km/s) = 6.56369 7.16783 6.87240
#
# Compressibility (1/GPa) = 0.01953746
#
# Stress axis : x y z
#
# Youngs Moduli (GPa) = 60.05131 41.81427 80.84541
#
# Poissons Ratio (x) = 0.23844 0.48771
# Poissons Ratio (y) = 0.34244 0.40137
# Poissons Ratio (z) = 0.36227 0.20759
#
# Static dielectric constant tensor:
#      x y z
#    x 3.368520 0.000000 0.000000 
#    y 0.000000 2.889010 0.000000 
#    z 0.000000 0.000000 3.170300 
# 
# 
# High freq. dielectric constant tensor:
#      x y z
#    x 1.647940 0.000000 0.000000 
#    y 0.000000 1.611840 0.000000 
#    z 0.000000 0.000000 1.643430 
# 
# From -- ./inp_files/4462.got.cif
#   From: 2010.03.12/outbox.cif.g09.slc.cpg/sg25_3_cif.got.tgz:4462.got - 2010.04.14 03:30:10.
