data_PCOD8166047
_publ_section_title
;
Structure prediction by ZEFSAII (Michael W. Deem and Ramdas Pophale) SiO2 
 PCOD8166047
Probable space group: I 21 21 21
;
_chemical_formula_sum "Si O2"
_cell_formula_units_Z 40
_cell_length_a 8.402930
_cell_length_b 25.359449
_cell_length_c 8.253186
_cell_angle_alpha 90.000000
_cell_angle_beta 90.000000
_cell_angle_gamma 90.000000
_cell_volume 1758.701733
_symmetry_space_group_name_H-M "I 21 21 21"
_symmetry_group_IT_number 24
_symmetry_cell_setting 'orthorhombic'
loop_
_space_group_symop_operation_xyz
x,y,z
-x,1/2-y,z
x,-y,1/2-z
1/2-x,y,-z
1/2+x,1/2+y,1/2+z
1/2-x,-y,1/2+z
1/2+x,1/2-y,-z
-x,1/2+y,1/2-z
loop_
_atom_site_type_symbol
_atom_site_label
_atom_site_fract_x
_atom_site_fract_y
_atom_site_fract_z
Si Si1 0.475518 0.623060 0.629711
Si Si2 0.684028 0.845926 0.173850
Si Si3 0.750000 0.698401 0.500000
Si Si4 0.020361 0.440447 0.808486
Si Si5 0.313559 0.054060 0.682322
Si Si6 0.000000 0.250000 0.787160
O O1 0.318588 0.655022 0.684460
O O2 0.605871 0.664155 0.570015
O O3 0.433441 0.578692 0.491532
O O4 0.545623 0.596034 0.793078
O O5 0.605971 0.903665 0.177699
O O6 0.545173 0.802683 0.190711
O O7 0.750000 0.834017 0.000000
O O8 0.665118 0.737488 0.376094
O O9 0.064081 0.500000 0.750000
O O10 0.831970 0.431143 0.799927
O O11 0.250000 0.049815 0.500000
O O12 0.386626 0.000000 0.750000
#
# Coordination Sequence:
#
# PCOD8166047 Si02
#       6
#     8   8   4   8   8   4
#     4  12  23  44  72 106 142 191 243 297 362 432
#     4  12  28  46  71 107 149 191 240 301 364 429
#     4  12  24  44  78 104 136 188 240 312 346 432
#     4  11  23  44  69 105 149 189 239 295 355 435
#     4  11  21  37  64 100 146 197 241 288 353 429
#     4  12  26  48  74 106 142 186 248 298 366 426
#
# _framework density 22.744049
#
# number of rings (size 3 to 8) (size 9 to 14) (size 15 to 20)
#    0.000    0.400    4.000    5.400    0.000    4.000 
#    0.000    1.000    0.000    0.000    0.000    0.000 
#    0.000    0.000    0.000    0.000    0.000    0.000 
#
# Total GULP energy -247824.412979 kJ/mol
# GULP energy per Si atom -12391.220649 kJ/mol
# Density = 2.269228 g / cm^3
# Si number density = 22.744049 Si / 1000 Ang^3
#
#
#
# Elastic Constant Matrix: (Units=GPa)
#
#
# Indices 1 2 3 4 5 6 
#
# 1 75.5661 55.1020 5.2896 -0.0017 0.0038 0.0009
# 2 55.1020 126.0552 41.0174 0.0047 0.0004 -0.0010
# 3 5.2896 41.0174 115.4114 -0.0002 -0.0040 -0.0185
# 4 -0.0017 0.0047 -0.0002 15.1724 0.0003 -0.0022
# 5 0.0038 0.0004 -0.0040 0.0003 26.8008 0.0013
# 6 0.0009 -0.0010 -0.0185 -0.0022 0.0013 38.1734
#
#
#
# Elastic Compliance Matrix: (Units=1/GPa)
#
#
# Indices 1 2 3 4 5 6 
#
# 1 0.020034 -0.009565 0.002481 0.000005 -0.000002 0.000000
# 2 -0.009565 0.013537 -0.004373 -0.000005 0.000001 -0.000002
# 3 0.002481 -0.004373 0.010105 0.000002 0.000001 0.000005
# 4 0.000005 -0.000005 0.000002 0.065909 -0.000001 0.000004
# 5 -0.000002 0.000001 0.000001 -0.000001 0.037312 -0.000001
# 6 0.000000 -0.000002 0.000005 0.000004 -0.000001 0.026196
#
#
# Mechanical properties :
#
#
# Convention : Reuss Voigt Hill
#
# Bulk Modulus (GPa) = 48.16146 57.76118 52.96132
# Shear Modulus (GPa) = 24.63926 30.40424 27.52175
#
# Velocity S-wave (km/s) = 3.29497 3.66019 3.48237
# Velocity P-wave (km/s) = 5.97471 6.58134 6.28534
#
# Compressibility (1/GPa) = 0.02076349
#
# Stress axis : x y z
#
# Youngs Moduli (GPa) = 49.91420 73.87199 98.96106
#
# Poissons Ratio (x) = 0.70658 -0.24554
# Poissons Ratio (y) = 0.47742 0.43272
# Poissons Ratio (z) = -0.12384 0.32302
#
# Static dielectric constant tensor:
#      x y z
#    x 4.301720 0.000010 0.000010 
#    y 0.000010 4.298300 0.000050 
#    z 0.000010 0.000050 4.021370 
# 
# 
# High freq. dielectric constant tensor:
#      x y z
#    x 1.908660 0.000000 0.000000 
#    y 0.000000 1.906700 0.000000 
#    z 0.000000 0.000000 1.887740 
# 
# From -- ./inp_files/9309.got.cif
#   From: 2010.03.12/outbox.cif.g09.slc.cpg/sg24_5_cif.got.tgz:9309.got - 2010.04.14 03:06:53.
