data_PCOD8166645
_publ_section_title
;
Structure prediction by ZEFSAII (Michael W. Deem and Ramdas Pophale) SiO2 
 PCOD8166645
Probable space group: P M M 2
;
_chemical_formula_sum "Si O2"
_cell_formula_units_Z 24
_cell_length_a 9.321087
_cell_length_b 9.699822
_cell_length_c 15.203399
_cell_angle_alpha 90.000000
_cell_angle_beta 90.000000
_cell_angle_gamma 90.000000
_cell_volume 1374.583162
_symmetry_space_group_name_H-M "P M M 2"
_symmetry_group_IT_number 25
_symmetry_cell_setting 'orthorhombic'
loop_
_space_group_symop_operation_xyz
x,y,z
-x,-y,z
-x,y,z
x,-y,z
loop_
_atom_site_type_symbol
_atom_site_label
_atom_site_fract_x
_atom_site_fract_y
_atom_site_fract_z
Si Si1 0.667665 0.660927 0.146590
Si Si2 0.330088 0.654829 0.674847
Si Si3 0.340140 0.664178 0.480441
Si Si4 0.163441 0.841437 0.807721
Si Si5 0.835415 0.159428 0.011102
Si Si6 0.838808 0.336006 0.317543
O O1 0.500000 0.690937 0.158039
O O2 0.697510 0.500000 0.129783
O O3 0.747475 0.714013 0.234053
O O4 0.727806 0.744775 0.064477
O O5 0.500000 0.657209 0.682424
O O6 0.272145 0.500000 0.689927
O O7 0.284866 0.708282 0.577422
O O8 0.266848 0.751415 0.748869
O O9 0.500000 0.722776 0.462686
O O10 0.346402 0.500000 0.476141
O O11 0.233485 0.723821 0.406302
O O12 0.194859 0.809644 0.909290
O O13 0.000000 0.804477 0.784755
O O14 0.195313 0.000000 0.786954
O O15 0.000000 0.195630 0.034719
O O16 0.804260 0.000000 0.032867
O O17 0.840627 0.500000 0.321383
O O18 0.000000 0.276998 0.310217
#
# Coordination Sequence:
#
# PCOD8166645 Si02
#       6
#     4   4   4   4   4   4
#     4  10  20  32  48  73 102 129 158 195 239 285
#     4   9  18  31  48  73 102 129 159 197 240 284
#     4   8  14  26  43  64  94 128 157 190 235 283
#     4   9  19  35  52  70  94 126 163 200 240 288
#     4   9  19  36  54  70  92 125 163 201 242 288
#     4   9  16  26  43  68  96 126 160 196 234 279
#
# _framework density 17.459838999999999
#
# number of rings (size 3 to 8) (size 9 to 14) (size 15 to 20)
#    0.000    3.000    0.000    3.000    0.000    6.000 
#    0.000    6.667    0.000    1.000    0.000    4.667 
#    0.000    0.000    0.000    0.000    0.000    0.000 
#
# Total GULP energy -297544.838279 kJ/mol
# GULP energy per Si atom -12397.701595 kJ/mol
# Density = 1.742010 g / cm^3
# Si number density = 17.459839 Si / 1000 Ang^3
#
#
#
# Elastic Constant Matrix: (Units=GPa)
#
#
# Indices 1 2 3 4 5 6 
#
# 1 98.9800 37.7405 68.6399 0.0000 0.0000 0.0000
# 2 37.7405 43.5425 49.3913 0.0000 0.0000 0.0000
# 3 68.6399 49.3913 121.4186 0.0000 0.0000 0.0000
# 4 0.0000 0.0000 0.0000 -8.2957 0.0000 0.0000
# 5 0.0000 0.0000 0.0000 0.0000 38.2911 0.0000
# 6 0.0000 0.0000 0.0000 0.0000 0.0000 25.8018
#
#
#
# Elastic Compliance Matrix: (Units=1/GPa)
#
#
# Indices 1 2 3 4 5 6 
#
# 1 0.017836 -0.007468 -0.007045 0.000000 0.000000 0.000000
# 2 -0.007468 0.045769 -0.014396 0.000000 0.000000 0.000000
# 3 -0.007045 -0.014396 0.018075 0.000000 0.000000 0.000000
# 4 0.000000 0.000000 0.000000 -0.120545 0.000000 0.000000
# 5 0.000000 0.000000 0.000000 0.000000 0.026116 0.000000
# 6 0.000000 0.000000 0.000000 0.000000 0.000000 0.038757
#
#
# Mechanical properties :
#
#
# Convention : Reuss Voigt Hill
#
# Bulk Modulus (GPa) = 41.90927 63.94271 52.92599
# Shear Modulus (GPa) = 54.47729 18.37076 36.42402
#
# Velocity S-wave (km/s) = 5.59189 3.24724 4.57241
# Velocity P-wave (km/s) = 8.10849 7.12472 7.63247
#
# Compressibility (1/GPa) = 0.02386107
#
# Stress axis : x y z
#
# Youngs Moduli (GPa) = 56.06564 21.84876 55.32496
#
# Poissons Ratio (x) = 0.16317 0.38978
# Poissons Ratio (y) = 0.41870 0.79648
# Poissons Ratio (z) = 0.39500 0.31454
#
# Static dielectric constant tensor:
#      x y z
#    x 3.299980 0.000000 0.000000 
#    y 0.000000 2.864590 0.000000 
#    z 0.000000 0.000000 3.415080 
# 
# 
# High freq. dielectric constant tensor:
#      x y z
#    x 1.677700 0.000000 0.000000 
#    y 0.000000 1.632030 0.000000 
#    z 0.000000 0.000000 1.686570 
# 
# From -- ./inp_files/3916.got.cif
#   From: 2010.03.12/outbox.cif.g09.slc.cpg/sg25_2_cif.got.tgz:3916.got - 2010.04.14 03:30:10.
