data_PCOD8166582
_publ_section_title
;
Structure prediction by ZEFSAII (Michael W. Deem and Ramdas Pophale) SiO2 
 PCOD8166582
Probable space group: P M M 2
;
_chemical_formula_sum "Si O2"
_cell_formula_units_Z 32
_cell_length_a 9.046210
_cell_length_b 9.295728
_cell_length_c 20.697940
_cell_angle_alpha 90.000000
_cell_angle_beta 90.000000
_cell_angle_gamma 90.000000
_cell_volume 1740.512699
_symmetry_space_group_name_H-M "P M M 2"
_symmetry_group_IT_number 25
_symmetry_cell_setting 'orthorhombic'
loop_
_space_group_symop_operation_xyz
x,y,z
-x,-y,z
-x,y,z
x,-y,z
loop_
_atom_site_type_symbol
_atom_site_label
_atom_site_fract_x
_atom_site_fract_y
_atom_site_fract_z
Si Si1 0.675626 0.338723 0.914050
Si Si2 0.826066 0.667138 0.150646
Si Si3 0.175888 0.838520 0.276193
Si Si4 0.324246 0.661491 0.771382
Si Si5 0.175644 0.659682 0.395727
Si Si6 0.675546 0.838240 0.651183
Si Si7 0.830456 0.331064 0.540071
Si Si8 0.324279 0.164064 0.035780
O O1 0.500000 0.340835 0.914770
O O2 0.734281 0.500000 0.929279
O O3 0.730738 0.289224 0.842742
O O4 0.734759 0.227784 0.967715
O O5 0.782929 0.500000 0.154305
O O6 0.770245 0.743224 0.216035
O O7 0.742861 0.740339 0.091896
O O8 0.000000 0.688433 0.140928
O O9 0.239608 0.768922 0.342178
O O10 0.000000 0.841623 0.278687
O O11 0.239360 0.000000 0.269370
O O12 0.500000 0.665180 0.769543
O O13 0.267965 0.500000 0.757233
O O14 0.258906 0.765466 0.716245
O O15 0.239507 0.500000 0.382116
O O16 0.220410 0.711495 0.467494
O O17 0.000000 0.652164 0.391276
O O18 0.500000 0.834963 0.652434
O O19 0.727116 0.754166 0.588378
O O20 0.736630 0.000000 0.648590
O O21 0.808955 0.500000 0.551138
O O22 0.000000 0.286592 0.551748
O O23 0.500000 0.172976 0.040088
O O24 0.268811 0.000000 0.041704
#
# Coordination Sequence:
#
# PCOD8166582 Si02
#       8
#     4   4   4   4   4   4   4   4
#     4   8  14  26  45  68  92 119 154 194 232 272
#     4  10  20  33  50  71  95 126 162 197 233 274
#     4   9  16  26  43  68  95 121 151 190 235 279
#     4   8  14  26  45  67  90 119 156 195 232 271
#     4   8  14  26  44  66  91 117 149 191 234 276
#     4  10  20  31  45  69  99 128 157 191 234 282
#     4   9  18  32  50  71  94 123 159 196 234 277
#     4  10  20  32  48  72 100 128 156 189 234 284
#
# _framework density 18.385387000000001
#
# number of rings (size 3 to 8) (size 9 to 14) (size 15 to 20)
#    0.000    3.000    0.000    3.000    0.000    5.000 
#    0.000    3.750    0.000    1.500    0.000    8.750 
#    0.000    0.000    0.000    0.000    0.000    0.000 
#
# Total GULP energy -396661.495038 kJ/mol
# GULP energy per Si atom -12395.671720 kJ/mol
# Density = 1.834354 g / cm^3
# Si number density = 18.385387 Si / 1000 Ang^3
#
#
#
# Elastic Constant Matrix: (Units=GPa)
#
#
# Indices 1 2 3 4 5 6 
#
# 1 9.4225 17.4287 18.3003 0.0000 0.0000 0.0000
# 2 17.4287 131.4590 93.5851 0.0000 0.0000 0.0000
# 3 18.3003 93.5851 172.1246 0.0000 0.0000 0.0000
# 4 0.0000 0.0000 0.0000 20.7739 0.0000 0.0000
# 5 0.0000 0.0000 0.0000 0.0000 26.7098 0.0000
# 6 0.0000 0.0000 0.0000 0.0000 0.0000 18.7066
#
#
#
# Elastic Compliance Matrix: (Units=1/GPa)
#
#
# Indices 1 2 3 4 5 6 
#
# 1 0.147435 -0.013684 -0.008235 0.000000 0.000000 0.000000
# 2 -0.013684 0.013681 -0.005983 0.000000 0.000000 0.000000
# 3 -0.008235 -0.005983 0.009938 0.000000 0.000000 0.000000
# 4 0.000000 0.000000 0.000000 0.048137 0.000000 0.000000
# 5 0.000000 0.000000 0.000000 0.000000 0.037439 0.000000
# 6 0.000000 0.000000 0.000000 0.000000 0.000000 0.053457
#
#
# Mechanical properties :
#
#
# Convention : Reuss Voigt Hill
#
# Bulk Modulus (GPa) = 8.67688 63.51492 36.09590
# Shear Modulus (GPa) = 12.36675 25.48419 18.92547
#
# Velocity S-wave (km/s) = 2.59634 3.72709 3.21187
# Velocity P-wave (km/s) = 3.70374 7.28993 5.78190
#
# Compressibility (1/GPa) = 0.11524883
#
# Stress axis : x y z
#
# Youngs Moduli (GPa) = 6.78264 73.09553 100.61894
#
# Poissons Ratio (x) = 1.00026 0.82860
# Poissons Ratio (y) = 0.09282 0.60204
# Poissons Ratio (z) = 0.05586 0.43736
#
# Static dielectric constant tensor:
#      x y z
#    x 2.782080 0.000000 0.000000 
#    y 0.000000 3.638290 0.000000 
#    z 0.000000 0.000000 3.737310 
# 
# 
# High freq. dielectric constant tensor:
#      x y z
#    x 1.647240 0.000000 0.000000 
#    y 0.000000 1.718390 0.000000 
#    z 0.000000 0.000000 1.732100 
# 
# From -- ./inp_files/6284.got.cif
#   From: 2010.03.12/outbox.cif.g09.slc.cpg/sg25_4_cif.got.tgz:6284.got - 2010.04.14 03:30:10.
