data_PCOD8166687
_publ_section_title
;
Structure prediction by ZEFSAII (Michael W. Deem and Ramdas Pophale) SiO2 
 PCOD8166687
Probable space group: P M M 2
;
_chemical_formula_sum "Si O2"
_cell_formula_units_Z 32
_cell_length_a 9.373773
_cell_length_b 9.206446
_cell_length_c 20.762889
_cell_angle_alpha 90.000000
_cell_angle_beta 90.000000
_cell_angle_gamma 90.000000
_cell_volume 1791.819360
_symmetry_space_group_name_H-M "P M M 2"
_symmetry_group_IT_number 25
_symmetry_cell_setting 'orthorhombic'
loop_
_space_group_symop_operation_xyz
x,y,z
-x,-y,z
-x,y,z
x,-y,z
loop_
_atom_site_type_symbol
_atom_site_label
_atom_site_fract_x
_atom_site_fract_y
_atom_site_fract_z
Si Si1 0.669616 0.835976 0.398490
Si Si2 0.335934 0.669925 0.907785
Si Si3 0.330192 0.163708 0.643810
Si Si4 0.670355 0.663596 0.522056
Si Si5 0.833177 0.168781 0.160342
Si Si6 0.331813 0.668645 0.271787
Si Si7 0.165744 0.666833 0.031644
Si Si8 0.669413 0.836453 0.785195
O O1 0.500000 0.838813 0.400595
O O2 0.729420 0.757460 0.462298
O O3 0.722523 0.746092 0.336735
O O4 0.730290 0.000000 0.395153
O O5 0.500000 0.715482 0.917199
O O6 0.317181 0.500000 0.899445
O O7 0.268543 0.739674 0.843152
O O8 0.250980 0.726009 0.969954
O O9 0.500000 0.164596 0.641435
O O10 0.268784 0.268318 0.588333
O O11 0.277955 0.218229 0.714556
O O12 0.275376 0.000000 0.631240
O O13 0.500000 0.664669 0.521948
O O14 0.728475 0.500000 0.515826
O O15 0.745593 0.256388 0.212704
O O16 0.789893 0.232774 0.091210
O O17 0.000000 0.192216 0.173701
O O18 0.790839 0.000000 0.162607
O O19 0.500000 0.688709 0.262572
O O20 0.289356 0.500000 0.275357
O O21 0.206558 0.500000 0.047654
O O22 0.000000 0.681450 0.015528
O O23 0.500000 0.828375 0.786440
O O24 0.722649 0.000000 0.796220
#
# Coordination Sequence:
#
# PCOD8166687 Si02
#       8
#     4   4   4   4   4   4   4   4
#     4   9  16  26  40  58  84 118 152 187 228 271
#     4   9  17  28  43  64  88 113 144 183 223 263
#     4   8  13  21  32  47  71 106 145 179 213 259
#     4   9  15  21  31  50  77 110 148 186 222 263
#     4  10  21  36  53  73  96 122 154 192 233 278
#     4  10  20  33  50  72  97 125 157 193 233 278
#     4   9  18  33  50  66  88 119 150 181 223 273
#     4   8  14  24  37  54  79 111 144 178 219 266
#
# _framework density 17.858944000000001
#
# number of rings (size 3 to 8) (size 9 to 14) (size 15 to 20)
#    0.000    3.000    0.000    2.250    0.000    6.000 
#    0.000    3.750    0.000    0.000    0.000    0.000 
#    0.000    1.000    0.000    6.500    0.000   10.500 
#
# Total GULP energy -396690.785131 kJ/mol
# GULP energy per Si atom -12396.587035 kJ/mol
# Density = 1.781830 g / cm^3
# Si number density = 17.858944 Si / 1000 Ang^3
#
#
#
# Elastic Constant Matrix: (Units=GPa)
#
#
# Indices 1 2 3 4 5 6 
#
# 1 18.7941 26.5560 38.0107 0.0000 0.0000 0.0000
# 2 26.5560 133.3331 100.4276 0.0000 0.0000 0.0000
# 3 38.0107 100.4276 192.0394 0.0000 0.0000 0.0000
# 4 0.0000 0.0000 0.0000 42.4091 0.0000 0.0000
# 5 0.0000 0.0000 0.0000 0.0000 -2.1183 0.0000
# 6 0.0000 0.0000 0.0000 0.0000 0.0000 13.4186
#
#
#
# Elastic Compliance Matrix: (Units=1/GPa)
#
#
# Indices 1 2 3 4 5 6 
#
# 1 0.093294 -0.007709 -0.014434 0.000000 0.000000 0.000000
# 2 -0.007709 0.013011 -0.005278 0.000000 0.000000 0.000000
# 3 -0.014434 -0.005278 0.010825 0.000000 0.000000 0.000000
# 4 0.000000 0.000000 0.000000 0.023580 0.000000 0.000000
# 5 0.000000 0.000000 0.000000 0.000000 -0.472072 0.000000
# 6 0.000000 0.000000 0.000000 0.000000 0.000000 0.074523
#
#
# Mechanical properties :
#
#
# Convention : Reuss Voigt Hill
#
# Bulk Modulus (GPa) = 16.05493 74.90613 45.48053
# Shear Modulus (GPa) = -27.58881 22.68670 -2.45105
#
# Velocity S-wave (km/s) = -3.93468 3.56803 -1.17279
# Velocity P-wave (km/s) = 3.41071 7.68171 4.86702
#
# Compressibility (1/GPa) = 0.06228615
#
# Stress axis : x y z
#
# Youngs Moduli (GPa) = 10.71875 76.85719 92.38261
#
# Poissons Ratio (x) = 0.59253 1.33347
# Poissons Ratio (y) = 0.08264 0.48762
# Poissons Ratio (z) = 0.15472 0.40567
#
# Static dielectric constant tensor:
#      x y z
#    x 2.741470 0.000000 0.000000 
#    y 0.000000 3.466190 0.000000 
#    z 0.000000 0.000000 3.676000 
# 
# 
# High freq. dielectric constant tensor:
#      x y z
#    x 1.622540 0.000000 0.000000 
#    y 0.000000 1.696980 0.000000 
#    z 0.000000 0.000000 1.710750 
# 
# From -- ./inp_files/6294.got.cif
#   From: 2010.03.12/outbox.cif.g09.slc.cpg/sg25_4_cif.got.tgz:6294.got - 2010.04.14 03:30:10.
