data_PCOD8166190
_publ_section_title
;
Structure prediction by ZEFSAII (Michael W. Deem and Ramdas Pophale) SiO2 
 PCOD8166190
Probable space group: I 21 21 21
;
_chemical_formula_sum "Si O2"
_cell_formula_units_Z 36
_cell_length_a 11.716527
_cell_length_b 19.626662
_cell_length_c 6.686881
_cell_angle_alpha 90.000000
_cell_angle_beta 90.000000
_cell_angle_gamma 90.000000
_cell_volume 1537.690515
_symmetry_space_group_name_H-M "I 21 21 21"
_symmetry_group_IT_number 24
_symmetry_cell_setting 'orthorhombic'
loop_
_space_group_symop_operation_xyz
x,y,z
-x,1/2-y,z
x,-y,1/2-z
1/2-x,y,-z
1/2+x,1/2+y,1/2+z
1/2-x,-y,1/2+z
1/2+x,1/2-y,-z
-x,1/2+y,1/2-z
loop_
_atom_site_type_symbol
_atom_site_label
_atom_site_fract_x
_atom_site_fract_y
_atom_site_fract_z
Si Si1 0.750000 0.153190 0.000000
Si Si2 0.839104 0.429454 0.161442
Si Si3 0.919658 0.344157 0.502824
Si Si4 0.150009 0.301456 0.382379
Si Si5 0.529694 0.073329 0.148170
O O1 0.688610 0.205477 0.847440
O O2 0.846361 0.106680 0.892225
O O3 0.794564 0.500000 0.250000
O O4 0.831999 0.381932 0.356796
O O5 0.750000 0.401088 0.000000
O O6 0.964341 0.436708 0.062087
O O7 0.872960 0.267143 0.512278
O O8 0.038394 0.347222 0.381641
O O9 0.945434 0.378771 0.716784
O O10 0.250000 0.341098 0.500000
O O11 0.548633 0.000000 0.250000
#
# Coordination Sequence:
#
# PCOD8166190 Si02
#       5
#     4   8   8   8   8
#     4  12  26  46  76 112 144 190 254 310 374 452
#     4  12  27  45  71 104 145 188 246 301 365 442
#     4  11  26  46  70 104 144 190 239 303 368 445
#     4  11  25  46  71 102 147 186 241 307 370 444
#     4  12  26  47  76 108 148 191 245 307 375 442
#
# _framework density 23.411731
#
# number of rings (size 3 to 8) (size 9 to 14) (size 15 to 20)
#    0.000    0.444    6.667    0.667    4.667    2.667 
#    0.000    0.000    0.000    0.000    0.000    0.000 
#    0.000    0.000    0.000    0.000    0.000    0.000 
#
# Total GULP energy -223068.061450 kJ/mol
# GULP energy per Si atom -12392.670081 kJ/mol
# Density = 2.335844 g / cm^3
# Si number density = 23.411731 Si / 1000 Ang^3
#
#
#
# Elastic Constant Matrix: (Units=GPa)
#
#
# Indices 1 2 3 4 5 6 
#
# 1 77.6005 -2.2041 18.4393 0.0001 0.0007 0.0006
# 2 -2.2041 81.6264 24.4567 -0.0011 0.0023 0.0013
# 3 18.4393 24.4567 107.3822 -0.0138 0.0119 0.0038
# 4 0.0001 -0.0011 -0.0138 39.4345 0.0031 0.0014
# 5 0.0007 0.0023 0.0119 0.0031 62.7548 0.0000
# 6 0.0006 0.0013 0.0038 0.0014 0.0000 -5.4906
#
#
#
# Elastic Compliance Matrix: (Units=1/GPa)
#
#
# Indices 1 2 3 4 5 6 
#
# 1 0.013533 0.001139 -0.002583 -0.000001 0.000000 0.000000
# 2 0.001139 0.013244 -0.003212 -0.000001 0.000000 0.000001
# 3 -0.002583 -0.003212 0.010488 0.000004 -0.000002 0.000006
# 4 -0.000001 -0.000001 0.000004 0.025358 -0.000001 0.000007
# 5 0.000000 0.000000 -0.000002 -0.000001 0.015935 0.000000
# 6 0.000000 0.000001 0.000006 0.000007 0.000000 -0.182129
#
#
# Mechanical properties :
#
#
# Convention : Reuss Voigt Hill
#
# Bulk Modulus (GPa) = 35.77480 38.66587 37.22034
# Shear Modulus (GPa) = -58.86388 34.40091 -12.23148
#
# Velocity S-wave (km/s) = -5.01971 3.83742 -2.28820
# Velocity P-wave (km/s) = 4.27583 6.01546 2.99191
#
# Compressibility (1/GPa) = 0.02795264
#
# Stress axis : x y z
#
# Youngs Moduli (GPa) = 73.89502 75.50542 95.35001
#
# Poissons Ratio (x) = -0.08603 0.24632
# Poissons Ratio (y) = -0.08420 0.30627
# Poissons Ratio (z) = 0.19089 0.24253
#
# Static dielectric constant tensor:
#      x y z
#    x 4.595470 0.000000 0.000000 
#    y 0.000000 3.914100 0.000000 
#    z 0.000000 0.000000 4.561200 
# 
# 
# High freq. dielectric constant tensor:
#      x y z
#    x 1.952650 0.000000 0.000000 
#    y 0.000000 1.903460 0.000000 
#    z 0.000000 0.000000 1.938150 
# 
# From -- ./inp_files/2264.got.cif
#   From: 2010.03.12/outbox.cif.g09.slc.cpg/sg24_2_cif.got.tgz:2264.got - 2010.04.14 03:06:53.
