data_PCOD8166830
_publ_section_title
;
Structure prediction by ZEFSAII (Michael W. Deem and Ramdas Pophale) SiO2 
 PCOD8166830
Probable space group: P M M 2
;
_chemical_formula_sum "Si O2"
_cell_formula_units_Z 32
_cell_length_a 13.842989
_cell_length_b 9.131331
_cell_length_c 12.979860
_cell_angle_alpha 90.000000
_cell_angle_beta 90.000000
_cell_angle_gamma 90.000000
_cell_volume 1640.718095
_symmetry_space_group_name_H-M "P M M 2"
_symmetry_group_IT_number 25
_symmetry_cell_setting 'orthorhombic'
loop_
_space_group_symop_operation_xyz
x,y,z
-x,-y,z
-x,y,z
x,-y,z
loop_
_atom_site_type_symbol
_atom_site_label
_atom_site_fract_x
_atom_site_fract_y
_atom_site_fract_z
Si Si1 0.885339 0.335791 0.559690
Si Si2 0.723152 0.673212 0.264940
Si Si3 0.384994 0.664078 0.687179
Si Si4 0.609989 0.673046 0.061558
Si Si5 0.891162 0.832006 0.759743
Si Si6 0.888409 0.828375 0.354842
Si Si7 0.704289 0.168361 0.872257
Si Si8 0.393445 0.327524 0.460480
O O1 0.842702 0.500000 0.549632
O O2 0.848561 0.264204 0.665949
O O3 0.851753 0.242670 0.461692
O O4 0.000000 0.338104 0.564126
O O5 0.740566 0.500000 0.266040
O O6 0.659743 0.721871 0.167535
O O7 0.826666 0.755344 0.262356
O O8 0.670333 0.733963 0.367203
O O9 0.500000 0.666993 0.681559
O O10 0.350554 0.500000 0.718168
O O11 0.349619 0.781364 0.769218
O O12 0.345225 0.706237 0.572518
O O13 0.500000 0.731975 0.059613
O O14 0.610631 0.500000 0.049069
O O15 0.671095 0.738558 0.968842
O O16 0.819831 0.809914 0.856848
O O17 0.000000 0.784473 0.792001
O O18 0.890750 0.000000 0.722462
O O19 0.000000 0.792189 0.332997
O O20 0.869606 0.000000 0.360251
O O21 0.677855 0.000000 0.891970
O O22 0.500000 0.255697 0.453034
O O23 0.404113 0.500000 0.446387
#
# Coordination Sequence:
#
# PCOD8166830 Si02
#       8
#     4   4   4   4   4   4   4   4
#     4   9  17  30  51  79 109 144 187 232 273 318
#     4  10  20  35  59  87 110 139 187 240 282 325
#     4   9  18  33  53  78 110 145 178 218 277 346
#     4  10  22  41  63  85 111 145 185 231 285 344
#     4   9  19  36  54  75 109 150 188 228 280 338
#     4  10  21  36  53  77 115 158 192 224 270 331
#     4  11  23  36  55  82 110 145 191 237 280 328
#     4   8  15  30  53  81 110 139 173 218 278 343
#
# _framework density 19.503654999999998
#
# number of rings (size 3 to 8) (size 9 to 14) (size 15 to 20)
#    0.000    2.500    0.000    2.625    1.750    7.250 
#    0.000    0.625    0.000    4.125    0.000    0.000 
#    0.000    0.000    0.000    0.000    0.000    0.000 
#
# Total GULP energy -396766.882258 kJ/mol
# GULP energy per Si atom -12398.965071 kJ/mol
# Density = 1.945926 g / cm^3
# Si number density = 19.503655 Si / 1000 Ang^3
#
#
#
# Elastic Constant Matrix: (Units=GPa)
#
#
# Indices 1 2 3 4 5 6 
#
# 1 86.3742 38.3563 63.1806 0.0000 0.0000 0.0000
# 2 38.3563 51.2137 38.8474 0.0000 0.0000 0.0000
# 3 63.1806 38.8474 125.1214 0.0000 0.0000 0.0000
# 4 0.0000 0.0000 0.0000 19.1144 0.0000 0.0000
# 5 0.0000 0.0000 0.0000 0.0000 32.6191 0.0000
# 6 0.0000 0.0000 0.0000 0.0000 0.0000 25.0467
#
#
#
# Elastic Compliance Matrix: (Units=1/GPa)
#
#
# Indices 1 2 3 4 5 6 
#
# 1 0.021978 -0.010519 -0.007832 0.000000 0.000000 0.000000
# 2 -0.010519 0.030576 -0.004181 0.000000 0.000000 0.000000
# 3 -0.007832 -0.004181 0.013245 0.000000 0.000000 0.000000
# 4 0.000000 0.000000 0.000000 0.052317 0.000000 0.000000
# 5 0.000000 0.000000 0.000000 0.000000 0.030657 0.000000
# 6 0.000000 0.000000 0.000000 0.000000 0.000000 0.039925
#
#
# Mechanical properties :
#
#
# Convention : Reuss Voigt Hill
#
# Bulk Modulus (GPa) = 48.23001 60.38644 54.30822
# Shear Modulus (GPa) = 20.77499 23.51104 22.14301
#
# Velocity S-wave (km/s) = 3.26726 3.47575 3.37312
# Velocity P-wave (km/s) = 6.24625 6.86561 6.56324
#
# Compressibility (1/GPa) = 0.02073398
#
# Stress axis : x y z
#
# Youngs Moduli (GPa) = 45.50100 32.70507 75.49983
#
# Poissons Ratio (x) = 0.34404 0.59128
# Poissons Ratio (y) = 0.47865 0.31570
# Poissons Ratio (z) = 0.35635 0.13675
#
# Static dielectric constant tensor:
#      x y z
#    x 3.799050 0.000000 0.000000 
#    y 0.000000 3.429380 0.000000 
#    z 0.000000 0.000000 3.490870 
# 
# 
# High freq. dielectric constant tensor:
#      x y z
#    x 1.774090 0.000000 0.000000 
#    y 0.000000 1.740810 0.000000 
#    z 0.000000 0.000000 1.742830 
# 
# From -- ./inp_files/4903.got.cif
#   From: 2010.03.12/outbox.cif.g09.slc.cpg/sg25_3_cif.got.tgz:4903.got - 2010.04.14 03:30:10.
