data_PCOD8166220
_publ_section_title
;
Structure prediction by ZEFSAII (Michael W. Deem and Ramdas Pophale) SiO2 
 PCOD8166220
Probable space group: I 21 21 21
;
_chemical_formula_sum "Si O2"
_cell_formula_units_Z 36
_cell_length_a 18.558324
_cell_length_b 14.115922
_cell_length_c 6.534568
_cell_angle_alpha 90.000000
_cell_angle_beta 90.000000
_cell_angle_gamma 90.000000
_cell_volume 1711.846756
_symmetry_space_group_name_H-M "I 21 21 21"
_symmetry_group_IT_number 24
_symmetry_cell_setting 'orthorhombic'
loop_
_space_group_symop_operation_xyz
x,y,z
-x,1/2-y,z
x,-y,1/2-z
1/2-x,y,-z
1/2+x,1/2+y,1/2+z
1/2-x,-y,1/2+z
1/2+x,1/2-y,-z
-x,1/2+y,1/2-z
loop_
_atom_site_type_symbol
_atom_site_label
_atom_site_fract_x
_atom_site_fract_y
_atom_site_fract_z
Si Si1 0.153104 0.000000 0.250000
Si Si2 0.250000 0.145354 0.500000
Si Si3 0.564776 0.347900 0.928337
Si Si4 0.939732 0.889293 0.726402
Si Si5 0.000000 0.750000 0.060011
Si Si6 0.683715 0.769136 0.346264
O O1 0.101341 0.951180 0.415833
O O2 0.201362 0.079159 0.358168
O O3 0.204356 0.215410 0.640437
O O4 0.559118 0.301400 0.703439
O O5 0.485976 0.353704 0.030855
O O6 0.617323 0.288469 0.066995
O O7 0.853577 0.871243 0.696040
O O8 0.953318 0.000000 0.750000
O O9 0.963474 0.832343 0.927754
O O10 0.750000 0.780483 0.500000
#
# Coordination Sequence:
#
# PCOD8166220 Si02
#       6
#     4   4   8   8   4   8
#     4  12  24  40  70 112 140 184 242 290 364 432
#     4  12  26  44  70 104 148 190 226 300 368 424
#     4  12  24  45  70 107 144 180 236 298 358 424
#     4  12  27  46  75 107 139 190 246 295 353 426
#     4  12  22  48  74 100 148 186 228 308 360 402
#     4  12  25  48  68  99 149 189 234 284 363 427
#
# _framework density 21.029920000000001
#
# number of rings (size 3 to 8) (size 9 to 14) (size 15 to 20)
#    0.000    0.000    6.667    4.000    3.111    0.000 
#    2.000    0.000    0.000    0.000    0.000    0.000 
#    0.000    0.000    0.000    0.000    0.000    0.000 
#
# Total GULP energy -223187.400263 kJ/mol
# GULP energy per Si atom -12399.300015 kJ/mol
# Density = 2.098205 g / cm^3
# Si number density = 21.029920 Si / 1000 Ang^3
#
#
#
# Elastic Constant Matrix: (Units=GPa)
#
#
# Indices 1 2 3 4 5 6 
#
# 1 136.6781 57.6352 56.5855 0.0000 0.0000 0.0000
# 2 57.6352 117.3762 54.2953 0.0000 0.0000 0.0000
# 3 56.5855 54.2953 121.0591 0.0000 0.0000 0.0000
# 4 0.0000 0.0000 0.0000 5.1535 0.0000 0.0000
# 5 0.0000 0.0000 0.0000 0.0000 10.0083 0.0000
# 6 0.0000 0.0000 0.0000 0.0000 0.0000 39.8419
#
#
#
# Elastic Compliance Matrix: (Units=1/GPa)
#
#
# Indices 1 2 3 4 5 6 
#
# 1 0.010097 -0.003501 -0.003149 0.000000 0.000000 0.000000
# 2 -0.003501 0.011964 -0.003729 0.000000 0.000000 0.000000
# 3 -0.003149 -0.003729 0.011405 0.000000 0.000000 0.000000
# 4 0.000000 0.000000 0.000000 0.194041 0.000000 0.000000
# 5 0.000000 0.000000 0.000000 0.000000 0.099917 0.000000
# 6 0.000000 0.000000 0.000000 0.000000 0.000000 0.025099
#
#
# Mechanical properties :
#
#
# Convention : Reuss Voigt Hill
#
# Bulk Modulus (GPa) = 78.70042 79.12726 78.91384
# Shear Modulus (GPa) = 13.24443 24.77391 19.00917
#
# Velocity S-wave (km/s) = 2.51228 3.43597 3.00977
# Velocity P-wave (km/s) = 6.77641 7.31088 7.04871
#
# Compressibility (1/GPa) = 0.01270641
#
# Stress axis : x y z
#
# Youngs Moduli (GPa) = 99.04391 83.58539 87.68072
#
# Poissons Ratio (x) = 0.29263 0.27612
# Poissons Ratio (y) = 0.34675 0.32699
# Poissons Ratio (z) = 0.31190 0.31172
#
# Static dielectric constant tensor:
#      x y z
#    x 4.209180 0.000000 0.000000 
#    y 0.000000 5.895180 0.000000 
#    z 0.000000 0.000000 4.096480 
# 
# 
# High freq. dielectric constant tensor:
#      x y z
#    x 1.835100 0.000000 0.000000 
#    y 0.000000 1.828540 0.000000 
#    z 0.000000 0.000000 1.833480 
# 
# From -- ./inp_files/3375.got.cif
#   From: 2010.03.12/outbox.cif.g09.slc.cpg/sg24_2_cif.got.tgz:3375.got - 2010.04.14 03:06:53.
