data_PCOD8166892
_publ_section_title
;
Structure prediction by ZEFSAII (Michael W. Deem and Ramdas Pophale) SiO2 
 PCOD8166892
Probable space group: P M M 2
;
_chemical_formula_sum "Si O2"
_cell_formula_units_Z 32
_cell_length_a 9.512310
_cell_length_b 14.679399
_cell_length_c 12.170003
_cell_angle_alpha 90.000000
_cell_angle_beta 90.000000
_cell_angle_gamma 90.000000
_cell_volume 1699.358295
_symmetry_space_group_name_H-M "P M M 2"
_symmetry_group_IT_number 25
_symmetry_cell_setting 'orthorhombic'
loop_
_space_group_symop_operation_xyz
x,y,z
-x,-y,z
-x,y,z
x,-y,z
loop_
_atom_site_type_symbol
_atom_site_label
_atom_site_fract_x
_atom_site_fract_y
_atom_site_fract_z
Si Si1 0.337164 0.892353 0.925090
Si Si2 0.834892 0.258399 0.323134
Si Si3 0.343985 0.391702 0.704444
Si Si4 0.662756 0.393861 0.460737
Si Si5 0.163400 0.762114 0.069879
Si Si6 0.162896 0.603566 0.906160
Si Si7 0.156202 0.108118 0.721465
Si Si8 0.166848 0.899345 0.479723
O O1 0.500000 0.864402 0.922938
O O2 0.266015 0.856828 0.812230
O O3 0.317886 0.000000 0.940333
O O4 0.258834 0.843881 0.025494
O O5 0.757440 0.346046 0.370023
O O6 0.796352 0.249535 0.196216
O O7 0.777662 0.168932 0.386459
O O8 0.000000 0.271666 0.341607
O O9 0.500000 0.354274 0.729754
O O10 0.346194 0.500000 0.704324
O O11 0.294216 0.359586 0.583356
O O12 0.240441 0.355546 0.798957
O O13 0.500000 0.371417 0.439212
O O14 0.692606 0.500000 0.448211
O O15 0.000000 0.788541 0.054694
O O16 0.198962 0.666917 0.009787
O O17 0.211581 0.500000 0.933778
O O18 0.000000 0.605616 0.877116
O O19 0.210973 0.137956 0.600643
O O20 0.000000 0.148158 0.746860
O O21 0.146848 0.000000 0.722840
O O22 0.000000 0.906560 0.476536
O O23 0.231394 0.000000 0.457337
#
# Coordination Sequence:
#
# PCOD8166892 Si02
#       8
#     4   4   4   4   4   4   4   4
#     4  10  21  36  54  77 105 135 169 213 258 299
#     4  10  21  35  53  78 103 132 176 221 253 291
#     4   8  15  30  52  77 103 131 166 206 252 310
#     4   9  19  36  55  75 104 139 168 202 255 312
#     4  10  22  37  52  74 104 139 177 213 253 303
#     4   9  18  33  52  74 102 134 168 211 260 305
#     4   8  14  28  52  78 103 132 164 201 253 315
#     4   8  15  30  52  77 104 132 164 207 258 309
#
# _framework density 18.830635999999998
#
# number of rings (size 3 to 8) (size 9 to 14) (size 15 to 20)
#    0.000    3.000    0.000    1.875    0.000    4.500 
#    0.000    8.125    0.000    2.625    0.000    0.000 
#    0.000    0.000    0.000    0.000    0.000    0.000 
#
# Total GULP energy -396719.413894 kJ/mol
# GULP energy per Si atom -12397.481684 kJ/mol
# Density = 1.878778 g / cm^3
# Si number density = 18.830636 Si / 1000 Ang^3
#
#
#
# Elastic Constant Matrix: (Units=GPa)
#
#
# Indices 1 2 3 4 5 6 
#
# 1 77.2026 44.9887 74.7857 0.0000 0.0000 0.0000
# 2 44.9887 65.6089 62.0545 0.0000 0.0000 0.0000
# 3 74.7857 62.0545 173.3006 0.0000 0.0000 0.0000
# 4 0.0000 0.0000 0.0000 32.5935 0.0000 0.0000
# 5 0.0000 0.0000 0.0000 0.0000 14.9708 0.0000
# 6 0.0000 0.0000 0.0000 0.0000 0.0000 23.8615
#
#
#
# Elastic Compliance Matrix: (Units=1/GPa)
#
#
# Indices 1 2 3 4 5 6 
#
# 1 0.026819 -0.011256 -0.007543 0.000000 0.000000 0.000000
# 2 -0.011256 0.027771 -0.005087 0.000000 0.000000 0.000000
# 3 -0.007543 -0.005087 0.010847 0.000000 0.000000 0.000000
# 4 0.000000 0.000000 0.000000 0.030681 0.000000 0.000000
# 5 0.000000 0.000000 0.000000 0.000000 0.066797 0.000000
# 6 0.000000 0.000000 0.000000 0.000000 0.000000 0.041909
#
#
# Mechanical properties :
#
#
# Convention : Reuss Voigt Hill
#
# Bulk Modulus (GPa) = 56.60622 75.52999 66.06810
# Shear Modulus (GPa) = 19.34365 23.23738 21.29051
#
# Velocity S-wave (km/s) = 3.20854 3.51667 3.36613
# Velocity P-wave (km/s) = 6.62211 7.52905 7.09009
#
# Compressibility (1/GPa) = 0.01766590
#
# Stress axis : x y z
#
# Youngs Moduli (GPa) = 37.28727 36.00840 92.19221
#
# Poissons Ratio (x) = 0.40530 0.69540
# Poissons Ratio (y) = 0.41969 0.46898
# Poissons Ratio (z) = 0.28126 0.18317
#
# Static dielectric constant tensor:
#      x y z
#    x 3.364150 0.000000 0.000000 
#    y 0.000000 3.401240 0.000000 
#    z 0.000000 0.000000 3.594980 
# 
# 
# High freq. dielectric constant tensor:
#      x y z
#    x 1.712180 0.000000 0.000000 
#    y 0.000000 1.724830 0.000000 
#    z 0.000000 0.000000 1.731770 
# 
# From -- ./inp_files/4260.got.cif
#   From: 2010.03.12/outbox.cif.g09.slc.cpg/sg25_3_cif.got.tgz:4260.got - 2010.04.14 03:30:10.
