data_PCOD8166889
_publ_section_title
;
Structure prediction by ZEFSAII (Michael W. Deem and Ramdas Pophale) SiO2 
 PCOD8166889
Probable space group: P M M 2
;
_chemical_formula_sum "Si O2"
_cell_formula_units_Z 24
_cell_length_a 8.736392
_cell_length_b 11.692061
_cell_length_c 12.694095
_cell_angle_alpha 90.000000
_cell_angle_beta 90.000000
_cell_angle_gamma 90.000000
_cell_volume 1296.656463
_symmetry_space_group_name_H-M "P M M 2"
_symmetry_group_IT_number 25
_symmetry_cell_setting 'orthorhombic'
loop_
_space_group_symop_operation_xyz
x,y,z
-x,-y,z
-x,y,z
x,-y,z
loop_
_atom_site_type_symbol
_atom_site_label
_atom_site_fract_x
_atom_site_fract_y
_atom_site_fract_z
Si Si1 0.818878 0.126280 0.621670
Si Si2 0.676488 0.867112 0.245688
Si Si3 0.677600 0.725810 0.040028
Si Si4 0.680060 0.500000 0.347657
Si Si5 0.179089 0.500000 0.116477
Si Si6 0.179820 0.728207 0.427717
Si Si7 0.822233 0.866953 0.858708
O O1 0.757465 0.217284 0.536666
O O2 0.774192 0.165174 0.739339
O O3 0.000000 0.117234 0.612536
O O4 0.749523 0.000000 0.597828
O O5 0.500000 0.843782 0.275750
O O6 0.719675 0.809093 0.135782
O O7 0.785675 0.816114 0.334341
O O8 0.712323 0.000000 0.233952
O O9 0.500000 0.693398 0.039844
O O10 0.774152 0.610303 0.049427
O O11 0.718638 0.789107 0.932442
O O12 0.500000 0.500000 0.338421
O O13 0.742253 0.500000 0.229780
O O14 0.733239 0.389952 0.411801
O O15 0.000000 0.500000 0.136244
O O16 0.000000 0.703775 0.431437
O O17 0.000000 0.839962 0.879086
O O18 0.788070 0.000000 0.880556
#
# Coordination Sequence:
#
# PCOD8166889 Si02
#       7
#     4   4   4   2   2   4   4
#     4   8  16  33  57  85 116 148 184 233 287 329
#     4  10  21  35  52  78 115 152 180 219 282 344
#     4  11  22  37  57  82 115 152 186 228 284 339
#     4  12  24  40  57  78 113 154 187 227 287 343
#     4  12  24  40  61  84 107 144 195 237 277 333
#     4  11  21  35  58  85 110 144 193 239 278 330
#     4   9  18  35  59  85 115 152 193 235 278 328
#
# _framework density 18.509143000000002
#
# number of rings (size 3 to 8) (size 9 to 14) (size 15 to 20)
#    0.000    1.833    1.667    4.500    0.000    2.667 
#    0.000    2.500    0.000    4.000    0.000    0.000 
#    0.000    0.000    0.000    0.000    0.000    0.000 
#
# Total GULP energy -297662.706955 kJ/mol
# GULP energy per Si atom -12402.612790 kJ/mol
# Density = 1.846702 g / cm^3
# Si number density = 18.509143 Si / 1000 Ang^3
#
#
#
# Elastic Constant Matrix: (Units=GPa)
#
#
# Indices 1 2 3 4 5 6 
#
# 1 81.8604 44.9180 41.1137 0.0000 0.0000 0.0000
# 2 44.9180 129.3784 68.7172 0.0000 0.0000 0.0000
# 3 41.1137 68.7172 135.0830 0.0000 0.0000 0.0000
# 4 0.0000 0.0000 0.0000 152.6764 0.0000 0.0000
# 5 0.0000 0.0000 0.0000 0.0000 10.9531 0.0000
# 6 0.0000 0.0000 0.0000 0.0000 0.0000 24.9242
#
#
#
# Elastic Compliance Matrix: (Units=1/GPa)
#
#
# Indices 1 2 3 4 5 6 
#
# 1 0.015811 -0.004020 -0.002768 0.000000 0.000000 0.000000
# 2 -0.004020 0.011613 -0.004684 0.000000 0.000000 0.000000
# 3 -0.002768 -0.004684 0.010628 0.000000 0.000000 0.000000
# 4 0.000000 0.000000 0.000000 0.006550 0.000000 0.000000
# 5 0.000000 0.000000 0.000000 0.000000 0.091299 0.000000
# 6 0.000000 0.000000 0.000000 0.000000 0.000000 0.040122
#
#
# Mechanical properties :
#
#
# Convention : Reuss Voigt Hill
#
# Bulk Modulus (GPa) = 66.18219 72.86883 69.52551
# Shear Modulus (GPa) = 24.50967 50.48226 37.49597
#
# Velocity S-wave (km/s) = 3.64289 5.22814 4.50578
# Velocity P-wave (km/s) = 7.31631 8.71201 8.04449
#
# Compressibility (1/GPa) = 0.01510981
#
# Stress axis : x y z
#
# Youngs Moduli (GPa) = 63.24511 86.11336 94.09131
#
# Poissons Ratio (x) = 0.34613 0.26041
# Poissons Ratio (y) = 0.25421 0.44072
# Poissons Ratio (z) = 0.17504 0.40335
#
# Static dielectric constant tensor:
#      x y z
#    x 3.274040 0.000000 0.000000 
#    y 0.000000 1.320400 0.000000 
#    z 0.000000 0.000000 3.539130 
# 
# 
# High freq. dielectric constant tensor:
#      x y z
#    x 1.708200 0.000000 0.000000 
#    y 0.000000 1.723380 0.000000 
#    z 0.000000 0.000000 1.720040 
# 
# From -- ./inp_files/3937.got.cif
#   From: 2010.03.12/outbox.cif.g09.slc.cpg/sg25_2_cif.got.tgz:3937.got - 2010.04.14 03:30:10.
