data_PCOD8166709
_publ_section_title
;
Structure prediction by ZEFSAII (Michael W. Deem and Ramdas Pophale) SiO2 
 PCOD8166709
Probable space group: P M M 2
;
_chemical_formula_sum "Si O2"
_cell_formula_units_Z 24
_cell_length_a 8.573005
_cell_length_b 9.445427
_cell_length_c 15.511953
_cell_angle_alpha 90.000000
_cell_angle_beta 90.000000
_cell_angle_gamma 90.000000
_cell_volume 1256.091142
_symmetry_space_group_name_H-M "P M M 2"
_symmetry_group_IT_number 25
_symmetry_cell_setting 'orthorhombic'
loop_
_space_group_symop_operation_xyz
x,y,z
-x,-y,z
-x,y,z
x,-y,z
loop_
_atom_site_type_symbol
_atom_site_label
_atom_site_fract_x
_atom_site_fract_y
_atom_site_fract_z
Si Si1 0.681922 0.665344 0.244090
Si Si2 0.315510 0.659093 0.550566
Si Si3 0.314964 0.344083 0.051215
Si Si4 0.181765 0.163050 0.395992
Si Si5 0.314470 0.842069 0.898005
Si Si6 0.314548 0.159408 0.707891
O O1 0.500000 0.691796 0.262793
O O2 0.721624 0.500000 0.259497
O O3 0.726742 0.711798 0.146709
O O4 0.784327 0.765030 0.304483
O O5 0.500000 0.650221 0.557462
O O6 0.245747 0.500000 0.543252
O O7 0.274072 0.750998 0.467910
O O8 0.245288 0.734809 0.635942
O O9 0.500000 0.349879 0.042216
O O10 0.244367 0.500000 0.038976
O O11 0.240240 0.249190 0.975465
O O12 0.000000 0.172282 0.416378
O O13 0.238626 0.000000 0.394897
O O14 0.500000 0.840076 0.904406
O O15 0.263051 0.786244 0.803155
O O16 0.250748 0.000000 0.910189
O O17 0.500000 0.156155 0.702183
O O18 0.251011 0.000000 0.691470
#
# Coordination Sequence:
#
# PCOD8166709 Si02
#       6
#     4   4   4   4   4   4
#     4   9  18  33  52  74  99 127 161 199 239 285
#     4  10  20  33  51  75  99 125 160 199 239 286
#     4   8  14  24  39  62  93 125 154 188 231 276
#     4  11  24  38  51  70  95 124 160 200 243 292
#     4   8  13  21  35  59  92 127 159 189 224 269
#     4   8  14  25  41  63  94 129 160 192 232 276
#
# _framework density 19.106894
#
# number of rings (size 3 to 8) (size 9 to 14) (size 15 to 20)
#    0.000    3.000    0.000    3.500    0.000    6.000 
#    0.000    5.000    0.000    0.000    0.000    1.167 
#    0.000    6.667    0.000    0.000    0.000    0.000 
#
# Total GULP energy -297451.328630 kJ/mol
# GULP energy per Si atom -12393.805360 kJ/mol
# Density = 1.906341 g / cm^3
# Si number density = 19.106894 Si / 1000 Ang^3
#
#
#
# Elastic Constant Matrix: (Units=GPa)
#
#
# Indices 1 2 3 4 5 6 
#
# 1 10.8804 11.1042 5.7754 0.0000 0.0000 0.0000
# 2 11.1042 122.9880 85.9984 0.0000 0.0000 0.0000
# 3 5.7754 85.9984 163.8801 0.0000 0.0000 0.0000
# 4 0.0000 0.0000 0.0000 44.8911 0.0000 0.0000
# 5 0.0000 0.0000 0.0000 0.0000 -0.6051 0.0000
# 6 0.0000 0.0000 0.0000 0.0000 0.0000 13.9841
#
#
#
# Elastic Compliance Matrix: (Units=1/GPa)
#
#
# Indices 1 2 3 4 5 6 
#
# 1 0.101629 -0.010538 0.001948 0.000000 0.000000 0.000000
# 2 -0.010538 0.013936 -0.006942 0.000000 0.000000 0.000000
# 3 0.001948 -0.006942 0.009676 0.000000 0.000000 0.000000
# 4 0.000000 0.000000 0.000000 0.022276 0.000000 0.000000
# 5 0.000000 0.000000 0.000000 0.000000 -1.652646 0.000000
# 6 0.000000 0.000000 0.000000 0.000000 0.000000 0.071510
#
#
# Mechanical properties :
#
#
# Convention : Reuss Voigt Hill
#
# Bulk Modulus (GPa) = 10.61811 55.94494 33.28153
# Shear Modulus (GPa) = -3.64654 24.64538 10.49942
#
# Velocity S-wave (km/s) = -1.38298 3.59537 2.34670
# Velocity P-wave (km/s) = 1.73755 6.82489 4.97987
#
# Compressibility (1/GPa) = 0.09417868
#
# Stress axis : x y z
#
# Youngs Moduli (GPa) = 9.83967 71.75424 103.34580
#
# Poissons Ratio (x) = 0.75617 -0.20137
# Poissons Ratio (y) = 0.10369 0.71742
# Poissons Ratio (z) = -0.01917 0.49812
#
# Static dielectric constant tensor:
#      x y z
#    x 2.839670 0.000000 0.000000 
#    y 0.000000 3.824160 0.000000 
#    z 0.000000 0.000000 3.842190 
# 
# 
# High freq. dielectric constant tensor:
#      x y z
#    x 1.679200 0.000000 0.000000 
#    y 0.000000 1.743190 0.000000 
#    z 0.000000 0.000000 1.761650 
# 
# From -- ./inp_files/5968.got.cif
#   From: 2010.03.12/outbox.cif.g09.slc.cpg/sg25_3_cif.got.tgz:5968.got - 2010.04.14 03:30:10.
