data_PCOD8166994
_publ_section_title
;
Structure prediction by ZEFSAII (Michael W. Deem and Ramdas Pophale) SiO2 
 PCOD8166994
Probable space group: P M M 2
;
_chemical_formula_sum "Si O2"
_cell_formula_units_Z 20
_cell_length_a 9.526209
_cell_length_b 7.558726
_cell_length_c 14.772480
_cell_angle_alpha 90.000000
_cell_angle_beta 90.000000
_cell_angle_gamma 90.000000
_cell_volume 1063.707249
_symmetry_space_group_name_H-M "P M M 2"
_symmetry_group_IT_number 25
_symmetry_cell_setting 'orthorhombic'
loop_
_space_group_symop_operation_xyz
x,y,z
-x,-y,z
-x,y,z
x,-y,z
loop_
_atom_site_type_symbol
_atom_site_label
_atom_site_fract_x
_atom_site_fract_y
_atom_site_fract_z
Si Si1 0.832294 0.304082 0.173950
Si Si2 0.844992 0.710292 0.372733
Si Si3 0.831584 0.000000 0.838380
Si Si4 0.833703 0.000000 0.046266
Si Si5 0.654178 0.290720 0.530853
Si Si6 0.664636 0.705974 0.734545
O O1 0.773690 0.500000 0.151954
O O2 0.781895 0.240056 0.273903
O O3 0.773187 0.173039 0.097223
O O4 0.000000 0.308583 0.175380
O O5 0.851764 0.500000 0.380776
O O6 0.752878 0.793307 0.453732
O O7 0.000000 0.791488 0.383746
O O8 0.764383 0.176911 0.797356
O O9 0.786325 0.000000 0.943038
O O10 0.000000 0.000000 0.825062
O O11 0.000000 0.000000 0.054097
O O12 0.500000 0.209098 0.516901
O O13 0.646952 0.500000 0.520202
O O14 0.707634 0.244965 0.631662
O O15 0.500000 0.748264 0.750955
O O16 0.694738 0.500000 0.755235
#
# Coordination Sequence:
#
# PCOD8166994 Si02
#       6
#     4   4   2   2   4   4
#     4   8  14  26  44  65  92 128 164 193 230 291
#     4   8  13  22  40  67  96 126 158 193 237 286
#     4  11  23  35  52  81 108 130 167 225 280 311
#     4   9  18  31  46  67  96 128 161 201 252 303
#     4   8  14  26  46  71  97 128 165 200 238 290
#     4   9  19  37  58  76 100 141 183 211 248 312
#
# _framework density 18.802167000000001
#
# number of rings (size 3 to 8) (size 9 to 14) (size 15 to 20)
#    0.000    3.400    0.000    2.700    0.000    2.000 
#    0.000    5.000    0.000    3.600    0.000    2.800 
#    0.000    0.000    0.000    0.000    0.000    0.000 
#
# Total GULP energy -247831.003362 kJ/mol
# GULP energy per Si atom -12391.550168 kJ/mol
# Density = 1.875937 g / cm^3
# Si number density = 18.802167 Si / 1000 Ang^3
#
#
#
# Elastic Constant Matrix: (Units=GPa)
#
#
# Indices 1 2 3 4 5 6 
#
# 1 64.9201 37.0021 66.5836 0.0000 0.0000 0.0000
# 2 37.0021 88.8433 71.4473 0.0000 0.0000 0.0000
# 3 66.5836 71.4473 183.1612 0.0000 0.0000 0.0000
# 4 0.0000 0.0000 0.0000 -24.5416 0.0000 0.0000
# 5 0.0000 0.0000 0.0000 0.0000 7.1615 0.0000
# 6 0.0000 0.0000 0.0000 0.0000 0.0000 17.2543
#
#
#
# Elastic Compliance Matrix: (Units=1/GPa)
#
#
# Indices 1 2 3 4 5 6 
#
# 1 0.025826 -0.004672 -0.007566 0.000000 0.000000 0.000000
# 2 -0.004672 0.017246 -0.005029 0.000000 0.000000 0.000000
# 3 -0.007566 -0.005029 0.010172 0.000000 0.000000 0.000000
# 4 0.000000 0.000000 0.000000 -0.040747 0.000000 0.000000
# 5 0.000000 0.000000 0.000000 0.000000 0.139636 0.000000
# 6 0.000000 0.000000 0.000000 0.000000 0.000000 0.057957
#
#
# Mechanical properties :
#
#
# Convention : Reuss Voigt Hill
#
# Bulk Modulus (GPa) = 53.44643 76.33229 64.88936
# Shear Modulus (GPa) = 19.93148 10.76761 15.34954
#
# Velocity S-wave (km/s) = 3.25939 2.39567 2.86032
# Velocity P-wave (km/s) = 6.53087 6.95256 6.74501
#
# Compressibility (1/GPa) = 0.01871032
#
# Stress axis : x y z
#
# Youngs Moduli (GPa) = 38.72021 57.98553 98.31060
#
# Poissons Ratio (x) = 0.27089 0.74384
# Poissons Ratio (y) = 0.18089 0.49440
# Poissons Ratio (z) = 0.29296 0.29160
#
# Static dielectric constant tensor:
#      x y z
#    x 3.352510 0.000000 0.000000 
#    y 0.000000 3.334130 0.000000 
#    z 0.000000 0.000000 3.677330 
# 
# 
# High freq. dielectric constant tensor:
#      x y z
#    x 1.686940 0.000000 0.000000 
#    y 0.000000 1.721610 0.000000 
#    z 0.000000 0.000000 1.734180 
# 
# From -- ./inp_files/5144.got.cif
#   From: 2010.03.12/outbox.cif.g09.slc.cpg/sg25_3_cif.got.tgz:5144.got - 2010.04.14 03:30:10.
