data_PCOD8166960
_publ_section_title
;
Structure prediction by ZEFSAII (Michael W. Deem and Ramdas Pophale) SiO2 
 PCOD8166960
Probable space group: P M M 2
;
_chemical_formula_sum "Si O2"
_cell_formula_units_Z 20
_cell_length_a 9.072637
_cell_length_b 14.937091
_cell_length_c 7.341249
_cell_angle_alpha 90.000000
_cell_angle_beta 90.000000
_cell_angle_gamma 90.000000
_cell_volume 994.877288
_symmetry_space_group_name_H-M "P M M 2"
_symmetry_group_IT_number 25
_symmetry_cell_setting 'orthorhombic'
loop_
_space_group_symop_operation_xyz
x,y,z
-x,-y,z
-x,y,z
x,-y,z
loop_
_atom_site_type_symbol
_atom_site_label
_atom_site_fract_x
_atom_site_fract_y
_atom_site_fract_z
Si Si1 0.828735 0.901796 0.224140
Si Si2 0.828244 0.604063 0.924850
Si Si3 0.666606 0.904639 0.593744
Si Si4 0.671197 0.273084 0.203741
Si Si5 0.667413 0.287586 0.631382
O O1 0.785441 0.906994 0.434847
O O2 0.736972 0.821536 0.131410
O O3 0.000000 0.877919 0.208063
O O4 0.796288 0.000000 0.134398
O O5 0.790170 0.500000 0.920212
O O6 0.776078 0.645943 0.733851
O O7 0.000000 0.622414 0.947707
O O8 0.744827 0.645937 0.096008
O O9 0.500000 0.896621 0.510073
O O10 0.692906 0.814143 0.710635
O O11 0.680538 0.000000 0.703715
O O12 0.500000 0.272981 0.157772
O O13 0.703887 0.288020 0.416904
O O14 0.500000 0.318869 0.666906
#
# Coordination Sequence:
#
# PCOD8166960 Si02
#       5
#     4   4   4   4   4
#     4   9  16  27  48  80 116 151 185 223 270 325
#     4  11  25  42  59  81 110 145 186 236 292 344
#     4   8  14  27  49  78 112 148 185 223 266 322
#     4  10  21  38  61  86 113 149 190 232 279 331
#     4   9  19  36  59  86 113 145 185 227 275 332
#
# _framework density 20.102982999999998
#
# number of rings (size 3 to 8) (size 9 to 14) (size 15 to 20)
#    0.000    2.600    0.000    3.000    0.000    7.600 
#    0.000    5.000    0.000    3.600    0.000    0.000 
#    0.000    0.000    0.000    0.000    0.000    0.000 
#
# Total GULP energy -247804.374912 kJ/mol
# GULP energy per Si atom -12390.218746 kJ/mol
# Density = 2.005723 g / cm^3
# Si number density = 20.102983 Si / 1000 Ang^3
#
#
#
# Elastic Constant Matrix: (Units=GPa)
#
#
# Indices 1 2 3 4 5 6 
#
# 1 112.2737 97.9784 42.1989 0.0000 0.0000 0.0000
# 2 97.9784 180.6497 55.6459 0.0000 0.0000 0.0000
# 3 42.1989 55.6459 65.3948 0.0000 0.0000 0.0000
# 4 0.0000 0.0000 0.0000-1637.0748 0.0000 0.0000
# 5 0.0000 0.0000 0.0000 0.0000 24.1307 0.0000
# 6 0.0000 0.0000 0.0000 0.0000 0.0000 34.2231
#
#
#
# Elastic Compliance Matrix: (Units=1/GPa)
#
#
# Indices 1 2 3 4 5 6 
#
# 1 0.017813 -0.008294 -0.004436 0.000000 0.000000 0.000000
# 2 -0.008294 0.011364 -0.004318 0.000000 0.000000 0.000000
# 3 -0.004436 -0.004318 0.021829 0.000000 0.000000 0.000000
# 4 0.000000 0.000000 0.000000 -0.000611 0.000000 0.000000
# 5 0.000000 0.000000 0.000000 0.000000 0.041441 0.000000
# 6 0.000000 0.000000 0.000000 0.000000 0.000000 0.029220
#
#
# Mechanical properties :
#
#
# Convention : Reuss Voigt Hill
#
# Bulk Modulus (GPa) = 59.14286 83.32939 71.23613
# Shear Modulus (GPa) = 31.09672 -304.91119 -136.90724
#
# Velocity S-wave (km/s) = 3.93729 -12.32899 -8.26140
# Velocity P-wave (km/s) = 7.08192 12.69372 7.44906
#
# Compressibility (1/GPa) = 0.01690821
#
# Stress axis : x y z
#
# Youngs Moduli (GPa) = 56.14005 87.99592 45.81151
#
# Poissons Ratio (x) = 0.72987 0.20324
# Poissons Ratio (y) = 0.46565 0.19780
# Poissons Ratio (z) = 0.24906 0.37994
#
# Static dielectric constant tensor:
#      x y z
#    x 3.639990 0.000000 0.000000 
#    y 0.000000 4.062790 0.000000 
#    z 0.000000 0.000000 3.159080 
# 
# 
# High freq. dielectric constant tensor:
#      x y z
#    x 1.789460 0.000000 0.000000 
#    y 0.000000 1.802180 0.000000 
#    z 0.000000 0.000000 1.743170 
# 
# From -- ./inp_files/1840.got.cif
#   From: 2010.03.12/outbox.cif.g09.slc.cpg/sg25_1_cif.got.tgz:1840.got - 2010.04.14 03:30:10.
