data_PCOD8166837
_publ_section_title
;
Structure prediction by ZEFSAII (Michael W. Deem and Ramdas Pophale) SiO2 
 PCOD8166837
Probable space group: P M M 2
;
_chemical_formula_sum "Si O2"
_cell_formula_units_Z 32
_cell_length_a 8.794501
_cell_length_b 14.638063
_cell_length_c 12.359433
_cell_angle_alpha 90.000000
_cell_angle_beta 90.000000
_cell_angle_gamma 90.000000
_cell_volume 1591.084929
_symmetry_space_group_name_H-M "P M M 2"
_symmetry_group_IT_number 25
_symmetry_cell_setting 'orthorhombic'
loop_
_space_group_symop_operation_xyz
x,y,z
-x,-y,z
-x,y,z
x,-y,z
loop_
_atom_site_type_symbol
_atom_site_label
_atom_site_fract_x
_atom_site_fract_y
_atom_site_fract_z
Si Si1 0.825648 0.600350 0.164930
Si Si2 0.321097 0.896339 0.871630
Si Si3 0.824262 0.162865 0.434247
Si Si4 0.175847 0.786365 0.064730
Si Si5 0.670150 0.100690 0.241000
Si Si6 0.823422 0.792273 0.675359
Si Si7 0.825207 0.400573 0.593111
Si Si8 0.321770 0.650675 0.380991
O O1 0.807292 0.500000 0.109966
O O2 0.780326 0.679032 0.078072
O O3 0.718623 0.599398 0.270267
O O4 0.000000 0.616923 0.201367
O O5 0.500000 0.903025 0.874780
O O6 0.273452 0.845953 0.762437
O O7 0.252946 0.000000 0.877354
O O8 0.270671 0.833794 0.970899
O O9 0.725087 0.090762 0.365846
O O10 0.785675 0.159620 0.561186
O O11 0.779896 0.259399 0.383399
O O12 0.000000 0.142195 0.415105
O O13 0.213918 0.834795 0.177709
O O14 0.000000 0.798856 0.036306
O O15 0.500000 0.141968 0.235472
O O16 0.671080 0.000000 0.188613
O O17 0.775345 0.684394 0.669807
O O18 0.000000 0.801176 0.705955
O O19 0.810302 0.500000 0.652489
O O20 0.722484 0.408350 0.486005
O O21 0.000000 0.381878 0.558072
O O22 0.500000 0.673112 0.384148
#
# Coordination Sequence:
#
# PCOD8166837 Si02
#       8
#     4   4   4   4   4   4   4   4
#     4  10  21  37  57  83 117 156 196 239 289 347
#     4  11  25  44  65  87 113 149 193 245 306 363
#     4  10  20  36  57  83 118 159 199 241 291 347
#     4  11  23  40  64  88 114 152 199 246 291 347
#     4  11  23  37  56  86 123 158 190 235 299 361
#     4   9  20  38  61  88 116 149 196 246 291 343
#     4   9  18  34  56  83 119 161 200 239 286 345
#     4  11  20  30  50  82 120 160 200 242 288 341
#
# _framework density 20.112062000000002
#
# number of rings (size 3 to 8) (size 9 to 14) (size 15 to 20)
#    0.000    1.750    1.250    4.125    0.000    9.000 
#    0.000    3.125    0.000    3.750    0.000    0.000 
#    0.000    0.000    0.000    0.000    0.000    0.000 
#
# Total GULP energy -396659.797905 kJ/mol
# GULP energy per Si atom -12395.618685 kJ/mol
# Density = 2.006629 g / cm^3
# Si number density = 20.112062 Si / 1000 Ang^3
#
#
#
# Elastic Constant Matrix: (Units=GPa)
#
#
# Indices 1 2 3 4 5 6 
#
# 1 57.8605 34.9415 34.0329 0.0000 0.0000 0.0000
# 2 34.9415 140.1344 58.5965 0.0000 0.0000 0.0000
# 3 34.0329 58.5965 97.8120 0.0000 0.0000 0.0000
# 4 0.0000 0.0000 0.0000 21.2246 0.0000 0.0000
# 5 0.0000 0.0000 0.0000 0.0000 25.6205 0.0000
# 6 0.0000 0.0000 0.0000 0.0000 0.0000 10.9436
#
#
#
# Elastic Compliance Matrix: (Units=1/GPa)
#
#
# Indices 1 2 3 4 5 6 
#
# 1 0.022726 -0.003149 -0.006021 0.000000 0.000000 0.000000
# 2 -0.003149 0.009957 -0.004870 0.000000 0.000000 0.000000
# 3 -0.006021 -0.004870 0.015236 0.000000 0.000000 0.000000
# 4 0.000000 0.000000 0.000000 0.047115 0.000000 0.000000
# 5 0.000000 0.000000 0.000000 0.000000 0.039031 0.000000
# 6 0.000000 0.000000 0.000000 0.000000 0.000000 0.091378
#
#
# Mechanical properties :
#
#
# Convention : Reuss Voigt Hill
#
# Bulk Modulus (GPa) = 50.40212 61.21655 55.80934
# Shear Modulus (GPa) = 19.22073 22.77344 20.99709
#
# Velocity S-wave (km/s) = 3.09476 3.36866 3.23461
# Velocity P-wave (km/s) = 6.15509 6.75532 6.46218
#
# Compressibility (1/GPa) = 0.01984043
#
# Stress axis : x y z
#
# Youngs Moduli (GPa) = 44.00244 100.42838 65.63480
#
# Poissons Ratio (x) = 0.31625 0.39518
# Poissons Ratio (y) = 0.13856 0.31961
# Poissons Ratio (z) = 0.26493 0.48904
#
# Static dielectric constant tensor:
#      x y z
#    x 3.594010 0.000000 0.000000 
#    y 0.000000 3.918200 0.000000 
#    z 0.000000 0.000000 3.543030 
# 
# 
# High freq. dielectric constant tensor:
#      x y z
#    x 1.782040 0.000000 0.000000 
#    y 0.000000 1.798250 0.000000 
#    z 0.000000 0.000000 1.758300 
# 
# From -- ./inp_files/4305.got.cif
#   From: 2010.03.12/outbox.cif.g09.slc.cpg/sg25_3_cif.got.tgz:4305.got - 2010.04.14 03:30:10.
