data_PCOD8166213
_publ_section_title
;
Structure prediction by ZEFSAII (Michael W. Deem and Ramdas Pophale) SiO2 
 PCOD8166213
Probable space group: I 21 21 21
;
_chemical_formula_sum "Si O2"
_cell_formula_units_Z 40
_cell_length_a 7.675626
_cell_length_b 9.618536
_cell_length_c 25.637210
_cell_angle_alpha 90.000000
_cell_angle_beta 90.000000
_cell_angle_gamma 90.000000
_cell_volume 1892.751247
_symmetry_space_group_name_H-M "I 21 21 21"
_symmetry_group_IT_number 24
_symmetry_cell_setting 'orthorhombic'
loop_
_space_group_symop_operation_xyz
x,y,z
-x,1/2-y,z
x,-y,1/2-z
1/2-x,y,-z
1/2+x,1/2+y,1/2+z
1/2-x,-y,1/2+z
1/2+x,1/2-y,-z
-x,1/2+y,1/2-z
loop_
_atom_site_type_symbol
_atom_site_label
_atom_site_fract_x
_atom_site_fract_y
_atom_site_fract_z
Si Si1 0.998414 0.082324 0.196782
Si Si2 0.802451 0.983199 0.880363
Si Si3 0.700942 0.723779 0.940092
Si Si4 0.202494 0.272256 0.057549
Si Si5 0.689390 0.467707 0.123991
O O1 0.000000 0.250000 0.204262
O O2 0.179269 0.027644 0.172517
O O3 0.974934 0.000000 0.250000
O O4 0.837682 0.032663 0.161685
O O5 0.796752 0.824532 0.899100
O O6 0.764190 0.069953 0.933381
O O7 0.994319 0.003419 0.855999
O O8 0.500000 0.750000 0.932595
O O9 0.751386 0.569375 0.922731
O O10 0.750000 0.749564 0.000000
O O11 0.311502 0.184343 0.098960
O O12 0.000000 0.250000 0.069834
O O13 0.250000 0.223600 0.000000
#
# Coordination Sequence:
#
# PCOD8166213 Si02
#       5
#     8   8   8   8   8
#     4  12  28  50  76 104 136 186 238 300 363 410
#     4  12  24  45  69 100 142 182 231 292 344 418
#     4  12  24  42  66 104 149 191 234 280 342 419
#     4  12  22  40  66 102 139 185 228 278 344 419
#     4  12  24  45  69 100 142 182 231 292 344 418
#
# _framework density 21.133257
#
# number of rings (size 3 to 8) (size 9 to 14) (size 15 to 20)
#    0.000    0.000    6.000    4.800    2.800    0.800 
#    0.000    0.000    0.000    0.000    0.000    0.000 
#    0.000    0.000    0.000    0.000    0.000    0.000 
#
# Total GULP energy -248056.539508 kJ/mol
# GULP energy per Si atom -12402.826975 kJ/mol
# Density = 2.108516 g / cm^3
# Si number density = 21.133257 Si / 1000 Ang^3
#
#
#
# Elastic Constant Matrix: (Units=GPa)
#
#
# Indices 1 2 3 4 5 6 
#
# 1 165.5589 26.8549 38.7216 0.0000 0.0000 0.0000
# 2 26.8549 87.0688 40.0777 0.0000 0.0000 0.0000
# 3 38.7216 40.0777 105.5188 0.0000 0.0000 0.0000
# 4 0.0000 0.0000 0.0000 48.5886 0.0000 0.0000
# 5 0.0000 0.0000 0.0000 0.0000 8.7996 0.0000
# 6 0.0000 0.0000 0.0000 0.0000 0.0000 28.2576
#
#
#
# Elastic Compliance Matrix: (Units=1/GPa)
#
#
# Indices 1 2 3 4 5 6 
#
# 1 0.006698 -0.001133 -0.002028 0.000000 0.000000 0.000000
# 2 -0.001133 0.014110 -0.004944 0.000000 0.000000 0.000000
# 3 -0.002028 -0.004944 0.012099 0.000000 0.000000 0.000000
# 4 0.000000 0.000000 0.000000 0.020581 0.000000 0.000000
# 5 0.000000 0.000000 0.000000 0.000000 0.113642 0.000000
# 6 0.000000 0.000000 0.000000 0.000000 0.000000 0.035389
#
#
# Mechanical properties :
#
#
# Convention : Reuss Voigt Hill
#
# Bulk Modulus (GPa) = 59.88376 63.27277 61.57826
# Shear Modulus (GPa) = 22.29230 33.96199 28.12715
#
# Velocity S-wave (km/s) = 3.25136 4.01314 3.65217
# Velocity P-wave (km/s) = 6.51866 7.17486 6.85462
#
# Compressibility (1/GPa) = 0.01669902
#
# Stress axis : x y z
#
# Youngs Moduli (GPa) = 149.29553 70.87160 82.65292
#
# Poissons Ratio (x) = 0.08026 0.16761
# Poissons Ratio (y) = 0.16908 0.40860
# Poissons Ratio (z) = 0.30274 0.35036
#
# Static dielectric constant tensor:
#      x y z
#    x 3.895430 0.000000 0.000000 
#    y 0.000000 4.271350 0.000000 
#    z 0.000000 0.000000 3.624130 
# 
# 
# High freq. dielectric constant tensor:
#      x y z
#    x 1.848570 0.000000 0.000000 
#    y 0.000000 1.846130 0.000000 
#    z 0.000000 0.000000 1.808870 
# 
# From -- ./inp_files/35010.got.cif
#   From: 2010.03.12/outbox.cif.g09.slc.cpg/sg24_18_cif.got.tgz:35010.got - 2010.04.14 03:06:53.
