data_PCOD8166965
_publ_section_title
;
Structure prediction by ZEFSAII (Michael W. Deem and Ramdas Pophale) SiO2 
 PCOD8166965
Probable space group: P M M 2
;
_chemical_formula_sum "Si O2"
_cell_formula_units_Z 32
_cell_length_a 15.299026
_cell_length_b 8.884483
_cell_length_c 11.885908
_cell_angle_alpha 90.000000
_cell_angle_beta 90.000000
_cell_angle_gamma 90.000000
_cell_volume 1615.579403
_symmetry_space_group_name_H-M "P M M 2"
_symmetry_group_IT_number 25
_symmetry_cell_setting 'orthorhombic'
loop_
_space_group_symop_operation_xyz
x,y,z
-x,-y,z
-x,y,z
x,-y,z
loop_
_atom_site_type_symbol
_atom_site_label
_atom_site_fract_x
_atom_site_fract_y
_atom_site_fract_z
Si Si1 0.098453 0.672365 0.621930
Si Si2 0.243562 0.823908 0.220359
Si Si3 0.098805 0.327434 0.074287
Si Si4 0.847810 0.822407 0.847019
Si Si5 0.598693 0.672058 0.605004
Si Si6 0.246442 0.176024 0.478827
Si Si7 0.662950 0.672890 0.850132
Si Si8 0.402467 0.172580 0.064254
O O1 0.125692 0.500000 0.642154
O O2 0.102223 0.756077 0.740484
O O3 0.163565 0.741304 0.531297
O O4 0.000000 0.686057 0.574404
O O5 0.162137 0.735206 0.169796
O O6 0.253941 0.776591 0.349359
O O7 0.332853 0.776355 0.157959
O O8 0.224851 0.000000 0.206517
O O9 0.123149 0.500000 0.049612
O O10 0.000000 0.311443 0.119360
O O11 0.107277 0.235650 0.959656
O O12 0.747193 0.777330 0.843553
O O13 0.855921 0.000000 0.843464
O O14 0.500000 0.713243 0.569337
O O15 0.621081 0.500000 0.573696
O O16 0.663922 0.780325 0.539435
O O17 0.606512 0.696390 0.738385
O O18 0.231478 0.000000 0.494345
O O19 0.691828 0.500000 0.865058
O O20 0.604788 0.722832 0.955236
O O21 0.500000 0.192327 0.114662
O O22 0.385326 0.000000 0.028723
#
# Coordination Sequence:
#
# PCOD8166965 Si02
#       8
#     4   4   4   4   4   4   4   4
#     4  11  24  42  64  90 122 161 203 249 305 366
#     4  10  23  42  62  87 121 162 206 253 303 356
#     4  11  24  41  63  92 124 160 201 246 301 362
#     4  12  23  37  62  94 126 159 197 244 303 365
#     4  10  22  40  62  89 124 164 203 249 305 364
#     4  11  24  41  63  90 121 161 208 257 308 361
#     4  11  21  36  61  91 124 161 199 242 299 364
#     4  10  21  38  61  89 122 160 202 249 301 358
#
# _framework density 19.807134999999999
#
# number of rings (size 3 to 8) (size 9 to 14) (size 15 to 20)
#    0.000    1.250    2.500    3.375    0.000    7.000 
#    0.000    3.750    0.000    0.000    0.000    0.000 
#    0.000    0.000    0.000    0.000    0.000    0.000 
#
# Total GULP energy -396961.993688 kJ/mol
# GULP energy per Si atom -12405.062303 kJ/mol
# Density = 1.976205 g / cm^3
# Si number density = 19.807135 Si / 1000 Ang^3
#
#
#
# Elastic Constant Matrix: (Units=GPa)
#
#
# Indices 1 2 3 4 5 6 
#
# 1 135.5004 53.4226 57.4711 0.0000 0.0000 0.0000
# 2 53.4226 118.1212 67.3486 0.0000 0.0000 0.0000
# 3 57.4711 67.3486 131.2746 0.0000 0.0000 0.0000
# 4 0.0000 0.0000 0.0000 -19.0108 0.0000 0.0000
# 5 0.0000 0.0000 0.0000 0.0000 12.9811 0.0000
# 6 0.0000 0.0000 0.0000 0.0000 0.0000 30.1357
#
#
#
# Elastic Compliance Matrix: (Units=1/GPa)
#
#
# Indices 1 2 3 4 5 6 
#
# 1 0.009663 -0.002768 -0.002810 0.000000 0.000000 0.000000
# 2 -0.002768 0.012759 -0.005334 0.000000 0.000000 0.000000
# 3 -0.002810 -0.005334 0.011585 0.000000 0.000000 0.000000
# 4 0.000000 0.000000 0.000000 -0.052602 0.000000 0.000000
# 5 0.000000 0.000000 0.000000 0.000000 0.077035 0.000000
# 6 0.000000 0.000000 0.000000 0.000000 0.000000 0.033183
#
#
# Mechanical properties :
#
#
# Convention : Reuss Voigt Hill
#
# Bulk Modulus (GPa) = 82.08851 82.37564 82.23208
# Shear Modulus (GPa) = 42.54965 18.59810 30.57387
#
# Velocity S-wave (km/s) = 4.63989 3.06757 3.93310
# Velocity P-wave (km/s) = 8.38085 7.36382 7.88874
#
# Compressibility (1/GPa) = 0.01218197
#
# Stress axis : x y z
#
# Youngs Moduli (GPa) = 103.48305 78.37567 86.32161
#
# Poissons Ratio (x) = 0.21695 0.24261
# Poissons Ratio (y) = 0.28644 0.46044
# Poissons Ratio (z) = 0.29084 0.41806
#
# Static dielectric constant tensor:
#      x y z
#    x 3.698740 0.000000 0.000000 
#    y 0.000000 3.698970 0.000000 
#    z 0.000000 0.000000 3.600020 
# 
# 
# High freq. dielectric constant tensor:
#      x y z
#    x 1.786500 0.000000 0.000000 
#    y 0.000000 1.779370 0.000000 
#    z 0.000000 0.000000 1.766400 
# 
# From -- ./inp_files/4237.got.cif
#   From: 2010.03.12/outbox.cif.g09.slc.cpg/sg25_3_cif.got.tgz:4237.got - 2010.04.14 03:30:10.
