data_PCOD8166148
_publ_section_title
;
Structure prediction by ZEFSAII (Michael W. Deem and Ramdas Pophale) SiO2 
 PCOD8166148
Probable space group: I 21 21 21
;
_chemical_formula_sum "Si O2"
_cell_formula_units_Z 40
_cell_length_a 9.314332
_cell_length_b 7.583840
_cell_length_c 25.127890
_cell_angle_alpha 90.000000
_cell_angle_beta 90.000000
_cell_angle_gamma 90.000000
_cell_volume 1774.994035
_symmetry_space_group_name_H-M "I 21 21 21"
_symmetry_group_IT_number 24
_symmetry_cell_setting 'orthorhombic'
loop_
_space_group_symop_operation_xyz
x,y,z
-x,1/2-y,z
x,-y,1/2-z
1/2-x,y,-z
1/2+x,1/2+y,1/2+z
1/2-x,-y,1/2+z
1/2+x,1/2-y,-z
-x,1/2+y,1/2-z
loop_
_atom_site_type_symbol
_atom_site_label
_atom_site_fract_x
_atom_site_fract_y
_atom_site_fract_z
Si Si1 0.333438 0.273365 0.111826
Si Si2 0.897570 0.398667 0.297925
Si Si3 0.340550 0.299425 0.235966
Si Si4 0.314395 0.417635 0.557977
Si Si5 0.633566 0.522553 0.912513
O O1 0.500000 0.250000 0.097274
O O2 0.308474 0.251076 0.174854
O O3 0.282636 0.470830 0.098307
O O4 0.244231 0.135773 0.073516
O O5 0.980191 0.500000 0.250000
O O6 0.751161 0.326673 0.273581
O O7 0.874935 0.517319 0.349426
O O8 0.000000 0.250000 0.321043
O O9 0.500000 0.250000 0.252218
O O10 0.305551 0.500000 0.250000
O O11 0.250000 0.442014 0.500000
O O12 0.478695 0.490156 0.559051
O O13 0.299341 0.213776 0.575276
#
# Coordination Sequence:
#
# PCOD8166148 Si02
#       5
#     8   8   8   8   8
#     4  11  26  44  69 106 145 191 238 293 354 426
#     4  12  23  39  69 104 142 189 229 283 351 423
#     4  11  24  40  63  98 148 191 232 278 342 425
#     4  11  26  48  74 101 137 184 242 310 367 415
#     4  11  25  48  73 105 146 184 243 295 358 435
#
# _framework density 22.535284999999998
#
# number of rings (size 3 to 8) (size 9 to 14) (size 15 to 20)
#    0.000    0.800    4.000    3.000    5.600    6.400 
#    0.000    0.000    0.000    0.000    0.000    0.000 
#    0.000    0.000    0.000    0.000    0.000    0.000 
#
# Total GULP energy -247941.996564 kJ/mol
# GULP energy per Si atom -12397.099828 kJ/mol
# Density = 2.248399 g / cm^3
# Si number density = 22.535285 Si / 1000 Ang^3
#
#
#
# Elastic Constant Matrix: (Units=GPa)
#
#
# Indices 1 2 3 4 5 6 
#
# 1 140.2831 54.2488 49.3930 0.0000 0.0000 0.0000
# 2 54.2488 92.9304 6.1692 0.0000 0.0000 0.0000
# 3 49.3930 6.1692 94.0186 0.0000 0.0000 0.0000
# 4 0.0000 0.0000 0.0000 19.9812 0.0000 0.0000
# 5 0.0000 0.0000 0.0000 0.0000 42.8339 0.0000
# 6 0.0000 0.0000 0.0000 0.0000 0.0000 29.0906
#
#
#
# Elastic Compliance Matrix: (Units=1/GPa)
#
#
# Indices 1 2 3 4 5 6 
#
# 1 0.011599 -0.006394 -0.005674 0.000000 0.000000 0.000000
# 2 -0.006394 0.014333 0.002419 0.000000 0.000000 0.000000
# 3 -0.005674 0.002419 0.013458 0.000000 0.000000 0.000000
# 4 0.000000 0.000000 0.000000 0.050047 0.000000 0.000000
# 5 0.000000 0.000000 0.000000 0.000000 0.023346 0.000000
# 6 0.000000 0.000000 0.000000 0.000000 0.000000 0.034375
#
#
# Mechanical properties :
#
#
# Convention : Reuss Voigt Hill
#
# Bulk Modulus (GPa) = 49.77305 60.76154 55.26730
# Shear Modulus (GPa) = 28.87594 32.87590 30.87592
#
# Velocity S-wave (km/s) = 3.58350 3.82365 3.70552
# Velocity P-wave (km/s) = 6.26551 6.82020 6.54873
#
# Compressibility (1/GPa) = 0.02009119
#
# Stress axis : x y z
#
# Youngs Moduli (GPa) = 86.21461 69.76955 74.30350
#
# Poissons Ratio (x) = 0.44613 0.42160
# Poissons Ratio (y) = 0.55128 -0.17972
# Poissons Ratio (z) = 0.48918 -0.16876
#
# Static dielectric constant tensor:
#      x y z
#    x 4.088690 0.000000 0.000000 
#    y 0.000000 5.008370 0.000000 
#    z 0.000000 0.000000 4.000670 
# 
# 
# High freq. dielectric constant tensor:
#      x y z
#    x 1.895390 0.000000 0.000000 
#    y 0.000000 1.902280 0.000000 
#    z 0.000000 0.000000 1.880550 
# 
# From -- ./inp_files/15627.got.cif
#   From: 2010.03.12/outbox.cif.g09.slc.cpg/sg24_8_cif.got.tgz:15627.got - 2010.04.14 03:06:53.
