data_PCOD8166311
_publ_section_title
;
Structure prediction by ZEFSAII (Michael W. Deem and Ramdas Pophale) SiO2 
 PCOD8166311
Probable space group: P M M 2
;
_chemical_formula_sum "Si O2"
_cell_formula_units_Z 32
_cell_length_a 13.098614
_cell_length_b 26.558745
_cell_length_c 5.116106
_cell_angle_alpha 90.000000
_cell_angle_beta 90.000000
_cell_angle_gamma 90.000000
_cell_volume 1779.805020
_symmetry_space_group_name_H-M "P M M 2"
_symmetry_group_IT_number 25
_symmetry_cell_setting 'orthorhombic'
loop_
_space_group_symop_operation_xyz
x,y,z
-x,-y,z
-x,y,z
x,-y,z
loop_
_atom_site_type_symbol
_atom_site_label
_atom_site_fract_x
_atom_site_fract_y
_atom_site_fract_z
Si Si1 0.385414 0.711077 0.251510
Si Si2 0.115638 0.715814 0.781824
Si Si3 0.684551 0.656365 0.744499
Si Si4 0.764488 0.442555 0.878617
Si Si5 0.120891 0.056185 0.757482
Si Si6 0.812403 0.771038 0.288890
Si Si7 0.889110 0.442592 0.363493
Si Si8 0.121054 0.882265 0.260225
O O1 0.500000 0.732277 0.278492
O O2 0.366207 0.667677 0.466140
O O3 0.307568 0.757057 0.296062
O O4 0.373168 0.687917 0.964522
O O5 0.194354 0.670002 0.735532
O O6 0.135350 0.758928 0.565973
O O7 0.000000 0.695362 0.757837
O O8 0.130018 0.739651 0.066525
O O9 0.674429 0.596365 0.800369
O O10 0.721850 0.500000 0.903245
O O11 0.850671 0.439223 0.658001
O O12 0.810293 0.420303 0.150682
O O13 0.160552 0.089455 0.517512
O O14 0.000000 0.052027 0.743590
O O15 0.168199 0.000000 0.745300
O O16 0.155819 0.082830 0.022034
O O17 0.820388 0.829877 0.233441
O O18 0.902247 0.500000 0.275530
O O19 0.000000 0.415576 0.346580
O O20 0.000000 0.872249 0.262606
#
# Coordination Sequence:
#
# PCOD8166311 Si02
#       8
#     4   4   4   4   4   4   4   4
#     4  10  21  39  59  74  95 123 156 207 257 300
#     4  10  19  31  46  68 102 132 155 191 235 291
#     4  10  21  35  53  77  96 125 164 190 238 304
#     4  10  19  32  49  69  97 127 157 200 241 277
#     4   9  17  27  39  60  94 137 176 200 223 262
#     4  10  20  32  49  74  97 124 167 203 245 299
#     4   9  17  28  43  65  94 130 165 191 220 262
#     4  10  17  26  43  65  95 131 162 199 238 274
#
# _framework density 17.979496000000001
#
# number of rings (size 3 to 8) (size 9 to 14) (size 15 to 20)
#    0.000    2.250    0.000    3.750    0.000    5.000 
#    0.000    0.000    0.000    2.250    0.000    0.000 
#    0.000    3.000    0.000    0.000    0.000    0.000 
#
# Total GULP energy -396765.317717 kJ/mol
# GULP energy per Si atom -12398.916179 kJ/mol
# Density = 1.793857 g / cm^3
# Si number density = 17.979496 Si / 1000 Ang^3
#
#
#
# Elastic Constant Matrix: (Units=GPa)
#
#
# Indices 1 2 3 4 5 6 
#
# 1 85.4039 20.9223 13.7319 0.0000 0.0000 0.0000
# 2 20.9223 80.7881 0.1828 0.0000 0.0000 0.0000
# 3 13.7319 0.1828 77.3958 0.0000 0.0000 0.0000
# 4 0.0000 0.0000 0.0000 15.0100 0.0000 0.0000
# 5 0.0000 0.0000 0.0000 0.0000 12.5244 0.0000
# 6 0.0000 0.0000 0.0000 0.0000 0.0000 10.3256
#
#
#
# Elastic Compliance Matrix: (Units=1/GPa)
#
#
# Indices 1 2 3 4 5 6 
#
# 1 0.012892 -0.003334 -0.002280 0.000000 0.000000 0.000000
# 2 -0.003334 0.013240 0.000560 0.000000 0.000000 0.000000
# 3 -0.002280 0.000560 0.013324 0.000000 0.000000 0.000000
# 4 0.000000 0.000000 0.000000 0.066622 0.000000 0.000000
# 5 0.000000 0.000000 0.000000 0.000000 0.079844 0.000000
# 6 0.000000 0.000000 0.000000 0.000000 0.000000 0.096847
#
#
# Mechanical properties :
#
#
# Convention : Reuss Voigt Hill
#
# Bulk Modulus (GPa) = 34.07138 34.80689 34.43913
# Shear Modulus (GPa) = 16.52025 21.48870 19.00448
#
# Velocity S-wave (km/s) = 3.03452 3.46089 3.25469
# Velocity P-wave (km/s) = 5.59187 5.94740 5.77237
#
# Compressibility (1/GPa) = 0.02935014
#
# Stress axis : x y z
#
# Youngs Moduli (GPa) = 77.56581 75.52790 75.05410
#
# Poissons Ratio (x) = 0.25178 0.17109
# Poissons Ratio (y) = 0.25858 -0.04204
# Poissons Ratio (z) = 0.17681 -0.04231
#
# Static dielectric constant tensor:
#      x y z
#    x 3.021000 0.000000 0.000000 
#    y 0.000000 3.278380 0.000000 
#    z 0.000000 0.000000 3.549490 
# 
# 
# High freq. dielectric constant tensor:
#      x y z
#    x 1.643860 0.000000 0.000000 
#    y 0.000000 1.683350 0.000000 
#    z 0.000000 0.000000 1.722810 
# 
# From -- ./inp_files/756.got.cif
#   From: 2010.03.12/outbox.cif.g09.slc.cpg/sg25_1_cif.got.tgz:756.got - 2010.04.14 03:30:10.
