data_PCOD8166573
_publ_section_title
;
Structure prediction by ZEFSAII (Michael W. Deem and Ramdas Pophale) SiO2 
 PCOD8166573
Probable space group: P M M 2
;
_chemical_formula_sum "Si O2"
_cell_formula_units_Z 32
_cell_length_a 9.272360
_cell_length_b 13.225610
_cell_length_c 14.214573
_cell_angle_alpha 90.000000
_cell_angle_beta 90.000000
_cell_angle_gamma 90.000000
_cell_volume 1743.170289
_symmetry_space_group_name_H-M "P M M 2"
_symmetry_group_IT_number 25
_symmetry_cell_setting 'orthorhombic'
loop_
_space_group_symop_operation_xyz
x,y,z
-x,-y,z
-x,y,z
x,-y,z
loop_
_atom_site_type_symbol
_atom_site_label
_atom_site_fract_x
_atom_site_fract_y
_atom_site_fract_z
Si Si1 0.832472 0.240480 0.108000
Si Si2 0.334128 0.115024 0.473563
Si Si3 0.666417 0.381226 0.968747
Si Si4 0.832099 0.615482 0.778303
Si Si5 0.655046 0.884067 0.773085
Si Si6 0.666021 0.884833 0.253895
Si Si7 0.155657 0.118334 0.933125
Si Si8 0.169293 0.782930 0.628290
O O1 0.760620 0.202272 0.204301
O O2 0.000000 0.270118 0.125320
O O3 0.748676 0.332678 0.058235
O O4 0.814118 0.143823 0.040591
O O5 0.500000 0.125903 0.504738
O O6 0.315830 0.136264 0.363833
O O7 0.242185 0.202879 0.526101
O O8 0.281973 0.000000 0.496682
O O9 0.500000 0.345323 0.966009
O O10 0.677374 0.500000 0.984858
O O11 0.743148 0.350964 0.870524
O O12 0.796937 0.500000 0.751313
O O13 0.787677 0.681182 0.685942
O O14 0.000000 0.630497 0.801989
O O15 0.500000 0.831894 0.752439
O O16 0.724980 0.831475 0.865408
O O17 0.765576 0.875916 0.687219
O O18 0.628923 0.000000 0.794831
O O19 0.500000 0.872137 0.223128
O O20 0.716948 0.000000 0.230583
O O21 0.000000 0.162999 0.902185
O O22 0.155398 0.000000 0.920283
O O23 0.000000 0.793102 0.615683
#
# Coordination Sequence:
#
# PCOD8166573 Si02
#       8
#     4   4   4   4   4   4   4   4
#     4  11  21  32  51  77 103 133 169 209 256 309
#     4   9  19  36  55  75 102 136 171 208 253 303
#     4  10  21  36  54  77 104 135 174 218 260 305
#     4   9  19  36  54  73 102 137 170 208 257 310
#     4  10  20  31  43  63  94 131 165 196 236 290
#     4   9  19  36  56  77 103 136 173 213 257 305
#     4   9  18  31  44  63  96 132 162 195 237 288
#     4  11  21  31  49  75  98 126 166 209 254 302
#
# _framework density 18.357358000000001
#
# number of rings (size 3 to 8) (size 9 to 14) (size 15 to 20)
#    0.000    2.250    0.000    3.750    0.000    9.500 
#    0.000    2.500    0.000    0.750    0.000    3.500 
#    0.000    0.000    0.000    0.000    0.000    0.000 
#
# Total GULP energy -396549.770075 kJ/mol
# GULP energy per Si atom -12392.180315 kJ/mol
# Density = 1.831558 g / cm^3
# Si number density = 18.357358 Si / 1000 Ang^3
#
#
#
# Elastic Constant Matrix: (Units=GPa)
#
#
# Indices 1 2 3 4 5 6 
#
# 1 111.7535 50.2958 54.8512 0.0000 0.0000 0.0000
# 2 50.2958 71.7577 41.5328 0.0000 0.0000 0.0000
# 3 54.8512 41.5328 88.3113 0.0000 0.0000 0.0000
# 4 0.0000 0.0000 0.0000 32.5991 0.0000 0.0000
# 5 0.0000 0.0000 0.0000 0.0000 35.5185 0.0000
# 6 0.0000 0.0000 0.0000 0.0000 0.0000 19.1591
#
#
#
# Elastic Compliance Matrix: (Units=1/GPa)
#
#
# Indices 1 2 3 4 5 6 
#
# 1 0.015108 -0.007087 -0.006050 0.000000 0.000000 0.000000
# 2 -0.007087 0.022473 -0.006167 0.000000 0.000000 0.000000
# 3 -0.006050 -0.006167 0.017982 0.000000 0.000000 0.000000
# 4 0.000000 0.000000 0.000000 0.030676 0.000000 0.000000
# 5 0.000000 0.000000 0.000000 0.000000 0.028154 0.000000
# 6 0.000000 0.000000 0.000000 0.000000 0.000000 0.052195
#
#
# Mechanical properties :
#
#
# Convention : Reuss Voigt Hill
#
# Bulk Modulus (GPa) = 58.98644 62.79803 60.89223
# Shear Modulus (GPa) = 23.71389 25.79818 24.75604
#
# Velocity S-wave (km/s) = 3.59805 3.75284 3.67626
# Velocity P-wave (km/s) = 7.03302 7.28432 7.15977
#
# Compressibility (1/GPa) = 0.01695305
#
# Stress axis : x y z
#
# Youngs Moduli (GPa) = 66.19182 44.49846 55.61146
#
# Poissons Ratio (x) = 0.31537 0.33647
# Poissons Ratio (y) = 0.46911 0.34296
# Poissons Ratio (z) = 0.40049 0.27442
#
# Static dielectric constant tensor:
#      x y z
#    x 3.744620 0.000000 0.000000 
#    y 0.000000 3.271240 0.000000 
#    z 0.000000 0.000000 3.267580 
# 
# 
# High freq. dielectric constant tensor:
#      x y z
#    x 1.722420 0.000000 0.000000 
#    y 0.000000 1.697140 0.000000 
#    z 0.000000 0.000000 1.697310 
# 
# From -- ./inp_files/5711.got.cif
#   From: 2010.03.12/outbox.cif.g09.slc.cpg/sg25_3_cif.got.tgz:5711.got - 2010.04.14 03:30:10.
