data_PCOD8166326
_publ_section_title
;
Structure prediction by ZEFSAII (Michael W. Deem and Ramdas Pophale) SiO2 
 PCOD8166326
Probable space group: P M M 2
;
_chemical_formula_sum "Si O2"
_cell_formula_units_Z 32
_cell_length_a 15.556636
_cell_length_b 9.143960
_cell_length_c 12.007578
_cell_angle_alpha 90.000000
_cell_angle_beta 90.000000
_cell_angle_gamma 90.000000
_cell_volume 1708.069053
_symmetry_space_group_name_H-M "P M M 2"
_symmetry_group_IT_number 25
_symmetry_cell_setting 'orthorhombic'
loop_
_space_group_symop_operation_xyz
x,y,z
-x,-y,z
-x,y,z
x,-y,z
loop_
_atom_site_type_symbol
_atom_site_label
_atom_site_fract_x
_atom_site_fract_y
_atom_site_fract_z
Si Si1 0.094289 0.326875 0.440950
Si Si2 0.094184 0.672492 0.969539
Si Si3 0.597458 0.167771 0.965566
Si Si4 0.166272 0.671052 0.205245
Si Si5 0.746995 0.325926 0.581711
Si Si6 0.743917 0.674293 0.833069
Si Si7 0.596131 0.331759 0.423324
Si Si8 0.345778 0.829449 0.210201
O O1 0.094130 0.500000 0.452421
O O2 0.113014 0.282736 0.313846
O O3 0.167268 0.261939 0.522609
O O4 0.000000 0.264727 0.474041
O O5 0.093317 0.500000 0.953815
O O6 0.169832 0.737521 0.891972
O O7 0.000000 0.735777 0.935391
O O8 0.110165 0.712834 0.098046
O O9 0.500000 0.199559 0.927455
O O10 0.659672 0.270433 0.895380
O O11 0.623055 0.000000 0.942908
O O12 0.604204 0.203150 0.096245
O O13 0.190316 0.500000 0.206943
O O14 0.252207 0.762471 0.201583
O O15 0.749297 0.500000 0.582904
O O16 0.742899 0.265595 0.707087
O O17 0.663439 0.270212 0.514225
O O18 0.742344 0.500000 0.837619
O O19 0.500000 0.315427 0.472664
O O20 0.618105 0.500000 0.396086
O O21 0.601094 0.242486 0.309621
O O22 0.337936 0.000000 0.234774
#
# Coordination Sequence:
#
# PCOD8166326 Si02
#       8
#     4   4   4   4   4   4   4   4
#     4   9  16  27  49  79 107 136 170 211 260 312
#     4   9  17  29  49  80 113 139 169 216 266 308
#     4  10  22  39  56  75 104 140 174 215 269 321
#     4  10  17  30  53  78 106 138 175 215 260 315
#     4   9  18  32  50  77 109 137 172 218 259 299
#     4  10  20  34  55  81 107 139 180 222 259 302
#     4  10  20  35  55  77 104 139 174 212 261 313
#     4  11  21  34  55  80 107 136 169 214 267 318
#
# _framework density 18.734604999999998
#
# number of rings (size 3 to 8) (size 9 to 14) (size 15 to 20)
#    0.000    2.250    2.500    1.125    0.000    4.000 
#    0.000    4.375    0.000    2.625    0.000    0.000 
#    0.000    0.000    0.000    0.000    0.000    0.000 
#
# Total GULP energy -396748.333261 kJ/mol
# GULP energy per Si atom -12398.385414 kJ/mol
# Density = 1.869196 g / cm^3
# Si number density = 18.734605 Si / 1000 Ang^3
#
#
#
# Elastic Constant Matrix: (Units=GPa)
#
#
# Indices 1 2 3 4 5 6 
#
# 1 157.9728 26.7282 66.3689 0.0000 0.0000 0.0000
# 2 26.7282 29.9606 29.0227 0.0000 0.0000 0.0000
# 3 66.3689 29.0227 132.4673 0.0000 0.0000 0.0000
# 4 0.0000 0.0000 0.0000 13.0029 0.0000 0.0000
# 5 0.0000 0.0000 0.0000 0.0000 12.8955 0.0000
# 6 0.0000 0.0000 0.0000 0.0000 0.0000 4.9602
#
#
#
# Elastic Compliance Matrix: (Units=1/GPa)
#
#
# Indices 1 2 3 4 5 6 
#
# 1 0.008444 -0.004360 -0.003275 0.000000 0.000000 0.000000
# 2 -0.004360 0.044621 -0.007592 0.000000 0.000000 0.000000
# 3 -0.003275 -0.007592 0.010853 0.000000 0.000000 0.000000
# 4 0.000000 0.000000 0.000000 0.076906 0.000000 0.000000
# 5 0.000000 0.000000 0.000000 0.000000 0.077547 0.000000
# 6 0.000000 0.000000 0.000000 0.000000 0.000000 0.201606
#
#
# Mechanical properties :
#
#
# Convention : Reuss Voigt Hill
#
# Bulk Modulus (GPa) = 29.88287 62.73780 46.31033
# Shear Modulus (GPa) = 10.83222 19.39043 15.11132
#
# Velocity S-wave (km/s) = 2.40717 3.22064 2.84315
# Velocity P-wave (km/s) = 4.86942 6.88407 5.96245
#
# Compressibility (1/GPa) = 0.03346399
#
# Stress axis : x y z
#
# Youngs Moduli (GPa) = 118.42745 22.41102 92.13785
#
# Poissons Ratio (x) = 0.09772 0.30178
# Poissons Ratio (y) = 0.51637 0.69947
# Poissons Ratio (z) = 0.38789 0.17014
#
# Static dielectric constant tensor:
#      x y z
#    x 3.845160 0.000000 0.000000 
#    y 0.000000 2.994430 0.000000 
#    z 0.000000 0.000000 3.656130 
# 
# 
# High freq. dielectric constant tensor:
#      x y z
#    x 1.745670 0.000000 0.000000 
#    y 0.000000 1.675150 0.000000 
#    z 0.000000 0.000000 1.728100 
# 
# From -- ./inp_files/4228.got.cif
#   From: 2010.03.12/outbox.cif.g09.slc.cpg/sg25_3_cif.got.tgz:4228.got - 2010.04.14 03:30:10.
