data_PCOD8166257
_publ_section_title
;
Structure prediction by ZEFSAII (Michael W. Deem and Ramdas Pophale) SiO2 
 PCOD8166257
Probable space group: I 21 21 21
;
_chemical_formula_sum "Si O2"
_cell_formula_units_Z 32
_cell_length_a 14.112335
_cell_length_b 6.652183
_cell_length_c 12.345566
_cell_angle_alpha 90.000000
_cell_angle_beta 90.000000
_cell_angle_gamma 90.000000
_cell_volume 1158.975008
_symmetry_space_group_name_H-M "I 21 21 21"
_symmetry_group_IT_number 24
_symmetry_cell_setting 'orthorhombic'
loop_
_space_group_symop_operation_xyz
x,y,z
-x,1/2-y,z
x,-y,1/2-z
1/2-x,y,-z
1/2+x,1/2+y,1/2+z
1/2-x,-y,1/2+z
1/2+x,1/2-y,-z
-x,1/2+y,1/2-z
loop_
_atom_site_type_symbol
_atom_site_label
_atom_site_fract_x
_atom_site_fract_y
_atom_site_fract_z
Si Si1 0.433164 0.929087 0.632971
Si Si2 0.149351 0.260709 0.505693
Si Si3 0.391744 0.228178 0.249861
Si Si4 0.788085 0.113116 0.147582
O O1 0.500000 0.750000 0.587616
O O2 0.328161 0.837918 0.640368
O O3 0.470097 0.000000 0.750000
O O4 0.430515 0.122160 0.552540
O O5 0.250000 0.141331 0.500000
O O6 0.118839 0.309893 0.627729
O O7 0.325767 0.478257 0.547993
O O8 0.500000 0.250000 0.209819
O O9 0.325231 0.355537 0.167641
O O10 0.358622 0.000000 0.250000
O O11 0.833221 0.000000 0.250000
#
# Coordination Sequence:
#
# PCOD8166257 Si02
#       4
#     8   8   8   8
#     4  12  27  46  79 118 163 216 287 365 431 515
#     4  12  27  49  83 117 166 222 290 346 442 521
#     4  12  29  53  83 126 179 226 288 366 443 528
#     4  12  24  50  81 116 163 223 280 357 433 518
#
# _framework density 27.610603999999999
#
# number of rings (size 3 to 8) (size 9 to 14) (size 15 to 20)
#    0.000    0.000    5.000    3.750    3.500    4.000 
#    0.000    0.000    0.000    0.000    0.000    0.000 
#    0.000    0.000    0.000    0.000    0.000    0.000 
#
# Total GULP energy -198213.821487 kJ/mol
# GULP energy per Si atom -12388.363843 kJ/mol
# Density = 2.754776 g / cm^3
# Si number density = 27.610604 Si / 1000 Ang^3
#
#
#
# Elastic Constant Matrix: (Units=GPa)
#
#
# Indices 1 2 3 4 5 6 
#
# 1 147.6668 45.8665 28.7857 0.0000 0.0000 0.0000
# 2 45.8665 168.1377 46.0600 0.0000 0.0000 0.0000
# 3 28.7857 46.0600 86.4594 0.0000 0.0000 0.0000
# 4 0.0000 0.0000 0.0000 50.5581 0.0000 0.0000
# 5 0.0000 0.0000 0.0000 0.0000 37.5769 0.0000
# 6 0.0000 0.0000 0.0000 0.0000 0.0000 47.8322
#
#
#
# Elastic Compliance Matrix: (Units=1/GPa)
#
#
# Indices 1 2 3 4 5 6 
#
# 1 0.007599 -0.001616 -0.001669 0.000000 0.000000 0.000000
# 2 -0.001616 0.007307 -0.003355 0.000000 0.000000 0.000000
# 3 -0.001669 -0.003355 0.013909 0.000000 0.000000 0.000000
# 4 0.000000 0.000000 0.000000 0.019779 0.000000 0.000000
# 5 0.000000 0.000000 0.000000 0.000000 0.026612 0.000000
# 6 0.000000 0.000000 0.000000 0.000000 0.000000 0.020906
#
#
# Mechanical properties :
#
#
# Convention : Reuss Voigt Hill
#
# Bulk Modulus (GPa) = 64.36742 71.52092 67.94417
# Shear Modulus (GPa) = 43.64064 45.96356 44.80210
#
# Velocity S-wave (km/s) = 3.97996 4.08451 4.03257
# Velocity P-wave (km/s) = 6.66958 6.94291 6.80761
#
# Compressibility (1/GPa) = 0.01553581
#
# Stress axis : x y z
#
# Youngs Moduli (GPa) = 131.59151 136.84915 71.89482
#
# Poissons Ratio (x) = 0.22111 0.12002
# Poissons Ratio (y) = 0.21261 0.24120
# Poissons Ratio (z) = 0.21967 0.45912
#
# Static dielectric constant tensor:
#      x y z
#    x 5.433340 0.000000 0.000000 
#    y 0.000000 5.316670 0.000000 
#    z 0.000000 0.000000 4.973030 
# 
# 
# High freq. dielectric constant tensor:
#      x y z
#    x 2.122170 0.000000 0.000000 
#    y 0.000000 2.135290 0.000000 
#    z 0.000000 0.000000 2.100670 
# 
# From -- ./inp_files/26818.got.cif
#   From: 2010.03.12/outbox.cif.g09.slc.cpg/sg24_14_cif.got.tgz:26818.got - 2010.04.14 03:06:53.
