data_PCOD8166313
_publ_section_title
;
Structure prediction by ZEFSAII (Michael W. Deem and Ramdas Pophale) SiO2 
 PCOD8166313
Probable space group: P M M 2
;
_chemical_formula_sum "Si O2"
_cell_formula_units_Z 28
_cell_length_a 14.381869
_cell_length_b 9.030139
_cell_length_c 13.082566
_cell_angle_alpha 90.000000
_cell_angle_beta 90.000000
_cell_angle_gamma 90.000000
_cell_volume 1699.036459
_symmetry_space_group_name_H-M "P M M 2"
_symmetry_group_IT_number 25
_symmetry_cell_setting 'orthorhombic'
loop_
_space_group_symop_operation_xyz
x,y,z
-x,-y,z
-x,y,z
x,-y,z
loop_
_atom_site_type_symbol
_atom_site_label
_atom_site_fract_x
_atom_site_fract_y
_atom_site_fract_z
Si Si1 0.104843 0.823907 0.831430
Si Si2 0.223140 0.824002 0.245577
Si Si3 0.211069 0.825375 0.638227
Si Si4 0.396507 0.171085 0.540448
Si Si5 0.895134 0.176273 0.439461
Si Si6 0.104247 0.823873 0.057206
Si Si7 0.394604 0.672795 0.327797
O O1 0.172816 0.756234 0.744379
O O2 0.000000 0.770344 0.808063
O O3 0.108353 0.000000 0.829465
O O4 0.136085 0.768653 0.944283
O O5 0.162429 0.767632 0.341564
O O6 0.174696 0.762876 0.142527
O O7 0.325772 0.754259 0.249586
O O8 0.232313 0.000000 0.245016
O O9 0.320471 0.785696 0.626251
O O10 0.153516 0.761273 0.541958
O O11 0.195979 0.000000 0.641389
O O12 0.500000 0.199939 0.585035
O O13 0.377325 0.268320 0.441477
O O14 0.383801 0.000000 0.507555
O O15 0.000000 0.238680 0.433341
O O16 0.896407 0.000000 0.440309
O O17 0.000000 0.765777 0.080555
O O18 0.103197 0.000000 0.060925
O O19 0.500000 0.706872 0.292705
O O20 0.373221 0.500000 0.327428
#
# Coordination Sequence:
#
# PCOD8166313 Si02
#       7
#     4   4   4   4   4   4   4
#     4   8  13  21  34  56  88 119 144 173 208 247
#     4  10  17  27  44  65  88 114 142 176 215 255
#     4   9  14  21  35  58  86 115 143 173 211 252
#     4   9  16  27  43  63  86 111 143 181 218 257
#     4   9  15  21  33  58  87 112 139 171 207 249
#     4   8  14  24  39  61  88 118 149 178 209 247
#     4  10  20  32  45  62  85 113 144 178 217 262
#
# _framework density 16.479928999999998
#
# number of rings (size 3 to 8) (size 9 to 14) (size 15 to 20)
#    0.000    3.000    1.429    2.143    0.000    4.286 
#    0.000    0.000    0.000    2.571    0.000    5.000 
#    0.000    3.429    0.000    0.000    0.000    0.000 
#
# Total GULP energy -347021.904675 kJ/mol
# GULP energy per Si atom -12393.639453 kJ/mol
# Density = 1.644242 g / cm^3
# Si number density = 16.479929 Si / 1000 Ang^3
#
#
#
# Elastic Constant Matrix: (Units=GPa)
#
#
# Indices 1 2 3 4 5 6 
#
# 1 143.0125 24.1692 88.3627 0.0000 0.0000 0.0000
# 2 24.1692 18.4407 19.1147 0.0000 0.0000 0.0000
# 3 88.3627 19.1147 143.3823 0.0000 0.0000 0.0000
# 4 0.0000 0.0000 0.0000 2.4971 0.0000 0.0000
# 5 0.0000 0.0000 0.0000 0.0000 27.8086 0.0000
# 6 0.0000 0.0000 0.0000 0.0000 0.0000 8.7673
#
#
#
# Elastic Compliance Matrix: (Units=1/GPa)
#
#
# Indices 1 2 3 4 5 6 
#
# 1 0.012675 -0.009881 -0.006494 0.000000 0.000000 0.000000
# 2 -0.009881 0.070626 -0.003326 0.000000 0.000000 0.000000
# 3 -0.006494 -0.003326 0.011420 0.000000 0.000000 0.000000
# 4 0.000000 0.000000 0.000000 0.400471 0.000000 0.000000
# 5 0.000000 0.000000 0.000000 0.000000 0.035960 0.000000
# 6 0.000000 0.000000 0.000000 0.000000 0.000000 0.114060
#
#
# Mechanical properties :
#
#
# Convention : Reuss Voigt Hill
#
# Bulk Modulus (GPa) = 18.07703 63.12541 40.60122
# Shear Modulus (GPa) = 7.11185 19.36052 13.23619
#
# Velocity S-wave (km/s) = 2.07962 3.43125 2.83710
# Velocity P-wave (km/s) = 4.09382 7.35428 5.95168
#
# Compressibility (1/GPa) = 0.05531883
#
# Stress axis : x y z
#
# Youngs Moduli (GPa) = 78.89848 14.15915 87.56804
#
# Poissons Ratio (x) = 0.13990 0.56864
# Poissons Ratio (y) = 0.77957 0.29126
# Poissons Ratio (z) = 0.51235 0.04709
#
# Static dielectric constant tensor:
#      x y z
#    x 3.343790 0.000000 0.000000 
#    y 0.000000 2.556020 0.000000 
#    z 0.000000 0.000000 3.313980 
# 
# 
# High freq. dielectric constant tensor:
#      x y z
#    x 1.640940 0.000000 0.000000 
#    y 0.000000 1.573570 0.000000 
#    z 0.000000 0.000000 1.622600 
# 
# From -- ./inp_files/5886.got.cif
#   From: 2010.03.12/outbox.cif.g09.slc.cpg/sg25_3_cif.got.tgz:5886.got - 2010.04.14 03:30:10.
