data_PCOD8166795
_publ_section_title
;
Structure prediction by ZEFSAII (Michael W. Deem and Ramdas Pophale) SiO2 
 PCOD8166795
Probable space group: P M M 2
;
_chemical_formula_sum "Si O2"
_cell_formula_units_Z 28
_cell_length_a 8.976749
_cell_length_b 9.083497
_cell_length_c 17.946888
_cell_angle_alpha 90.000000
_cell_angle_beta 90.000000
_cell_angle_gamma 90.000000
_cell_volume 1463.394140
_symmetry_space_group_name_H-M "P M M 2"
_symmetry_group_IT_number 25
_symmetry_cell_setting 'orthorhombic'
loop_
_space_group_symop_operation_xyz
x,y,z
-x,-y,z
-x,y,z
x,-y,z
loop_
_atom_site_type_symbol
_atom_site_label
_atom_site_fract_x
_atom_site_fract_y
_atom_site_fract_z
Si Si1 0.329311 0.173975 0.452740
Si Si2 0.170162 0.826803 0.763245
Si Si3 0.834889 0.174547 0.597988
Si Si4 0.826850 0.672578 0.318045
Si Si5 0.175458 0.330398 0.045430
Si Si6 0.674648 0.170798 0.181027
Si Si7 0.328989 0.329505 0.894854
O O1 0.500000 0.219338 0.439595
O O2 0.281404 0.227362 0.535328
O O3 0.224449 0.255904 0.394870
O O4 0.306777 0.000000 0.442931
O O5 0.214661 0.770848 0.680135
O O6 0.281226 0.754114 0.821020
O O7 0.000000 0.781295 0.780688
O O8 0.190190 0.000000 0.769608
O O9 0.000000 0.235993 0.578887
O O10 0.842358 0.000000 0.599945
O O11 0.795215 0.500000 0.321122
O O12 0.733793 0.740297 0.251166
O O13 0.000000 0.706971 0.305097
O O14 0.221938 0.500000 0.059776
O O15 0.248416 0.227499 0.106667
O O16 0.000000 0.310212 0.048927
O O17 0.232491 0.275881 0.965189
O O18 0.500000 0.197942 0.173985
O O19 0.713114 0.000000 0.192373
O O20 0.500000 0.294136 0.912581
O O21 0.300979 0.500000 0.879804
#
# Coordination Sequence:
#
# PCOD8166795 Si02
#       7
#     4   4   4   4   4   4   4
#     4  10  20  34  55  83 111 140 178 223 271 322
#     4   9  18  33  54  80 108 140 181 226 271 321
#     4   8  15  30  52  77 106 141 180 222 269 320
#     4  11  24  40  58  81 109 143 183 222 263 315
#     4  10  21  38  60  83 107 140 182 223 266 318
#     4  11  24  40  59  85 114 142 175 216 264 318
#     4  10  21  36  54  78 109 145 183 222 268 321
#
# _framework density 19.133602
#
# number of rings (size 3 to 8) (size 9 to 14) (size 15 to 20)
#    0.000    2.143    0.000    3.857    0.000    9.714 
#    0.000    2.143    0.000    0.857    0.000    0.000 
#    0.000    0.000    0.000    0.000    0.000    0.000 
#
# Total GULP energy -347244.854737 kJ/mol
# GULP energy per Si atom -12401.601955 kJ/mol
# Density = 1.909005 g / cm^3
# Si number density = 19.133602 Si / 1000 Ang^3
#
#
#
# Elastic Constant Matrix: (Units=GPa)
#
#
# Indices 1 2 3 4 5 6 
#
# 1 75.7827 36.0400 41.5207 0.0000 0.0000 0.0000
# 2 36.0400 44.4770 36.6374 0.0000 0.0000 0.0000
# 3 41.5207 36.6374 125.5347 0.0000 0.0000 0.0000
# 4 0.0000 0.0000 0.0000 48.8797 0.0000 0.0000
# 5 0.0000 0.0000 0.0000 0.0000 81.7795 0.0000
# 6 0.0000 0.0000 0.0000 0.0000 0.0000 28.8448
#
#
#
# Elastic Compliance Matrix: (Units=1/GPa)
#
#
# Indices 1 2 3 4 5 6 
#
# 1 0.022168 -0.015697 -0.002751 0.000000 0.000000 0.000000
# 2 -0.015697 0.040714 -0.006691 0.000000 0.000000 0.000000
# 3 -0.002751 -0.006691 0.010828 0.000000 0.000000 0.000000
# 4 0.000000 0.000000 0.000000 0.020458 0.000000 0.000000
# 5 0.000000 0.000000 0.000000 0.000000 0.012228 0.000000
# 6 0.000000 0.000000 0.000000 0.000000 0.000000 0.034668
#
#
# Mechanical properties :
#
#
# Convention : Reuss Voigt Hill
#
# Bulk Modulus (GPa) = 42.67364 52.68784 47.68074
# Shear Modulus (GPa) = 25.10634 40.67388 32.89011
#
# Velocity S-wave (km/s) = 3.62630 4.61562 4.15055
# Velocity P-wave (km/s) = 6.31544 7.48344 6.92412
#
# Compressibility (1/GPa) = 0.02343367
#
# Stress axis : x y z
#
# Youngs Moduli (GPa) = 45.11071 24.56150 92.34890
#
# Poissons Ratio (x) = 0.38553 0.25404
# Poissons Ratio (y) = 0.70809 0.61789
# Poissons Ratio (z) = 0.12409 0.16434
#
# Static dielectric constant tensor:
#      x y z
#    x 3.400090 0.000000 0.000000 
#    y 0.000000 3.307970 0.000000 
#    z 0.000000 0.000000 3.935530 
# 
# 
# High freq. dielectric constant tensor:
#      x y z
#    x 1.752490 0.000000 0.000000 
#    y 0.000000 1.723790 0.000000 
#    z 0.000000 0.000000 1.761320 
# 
# From -- ./inp_files/6066.got.cif
#   From: 2010.03.12/outbox.cif.g09.slc.cpg/sg25_4_cif.got.tgz:6066.got - 2010.04.14 03:30:10.
