data_PCOD8166561
_publ_section_title
;
Structure prediction by ZEFSAII (Michael W. Deem and Ramdas Pophale) SiO2 
 PCOD8166561
Probable space group: P M M 2
;
_chemical_formula_sum "Si O2"
_cell_formula_units_Z 32
_cell_length_a 8.955789
_cell_length_b 15.217693
_cell_length_c 11.938518
_cell_angle_alpha 90.000000
_cell_angle_beta 90.000000
_cell_angle_gamma 90.000000
_cell_volume 1627.058208
_symmetry_space_group_name_H-M "P M M 2"
_symmetry_group_IT_number 25
_symmetry_cell_setting 'orthorhombic'
loop_
_space_group_symop_operation_xyz
x,y,z
-x,-y,z
-x,y,z
x,-y,z
loop_
_atom_site_type_symbol
_atom_site_label
_atom_site_fract_x
_atom_site_fract_y
_atom_site_fract_z
Si Si1 0.677316 0.902688 0.428950
Si Si2 0.325186 0.251866 0.834302
Si Si3 0.172830 0.398455 0.423699
Si Si4 0.829552 0.598502 0.973491
Si Si5 0.675768 0.259126 0.574589
Si Si6 0.170701 0.900988 0.964975
Si Si7 0.329449 0.852997 0.184123
Si Si8 0.329316 0.352922 0.192834
O O1 0.500000 0.899884 0.428133
O O2 0.736692 0.829973 0.515968
O O3 0.736181 0.879697 0.304956
O O4 0.734459 0.000000 0.464171
O O5 0.500000 0.255255 0.856773
O O6 0.255765 0.337440 0.890313
O O7 0.284460 0.252249 0.704311
O O8 0.265548 0.161924 0.885904
O O9 0.195466 0.500000 0.454753
O O10 0.238926 0.342861 0.525927
O O11 0.259570 0.375081 0.311557
O O12 0.000000 0.375082 0.406457
O O13 0.818978 0.500000 0.924157
O O14 0.000000 0.630018 0.983455
O O15 0.759177 0.596494 0.096802
O O16 0.500000 0.271484 0.553134
O O17 0.000000 0.869177 0.964364
O O18 0.185783 0.000000 0.918442
O O19 0.229597 0.899919 0.091671
O O20 0.500000 0.885276 0.171534
O O21 0.318259 0.749491 0.166887
O O22 0.500000 0.384886 0.193518
#
# Coordination Sequence:
#
# PCOD8166561 Si02
#       8
#     4   4   4   4   4   4   4   4
#     4   9  17  33  59  88 117 148 184 232 289 346
#     4  11  24  41  63  88 117 157 204 256 307 357
#     4  11  24  40  60  88 122 161 201 241 295 360
#     4  11  24  41  62  88 120 157 197 246 304 367
#     4  10  22  41  62  87 117 152 201 253 299 347
#     4  11  24  40  60  88 124 163 200 244 300 362
#     4  10  19  34  60  90 120 155 194 241 298 356
#     4  11  21  36  62  93 123 155 195 245 298 356
#
# _framework density 19.667397999999999
#
# number of rings (size 3 to 8) (size 9 to 14) (size 15 to 20)
#    0.000    1.500    2.500    2.625    0.000    7.500 
#    0.000    3.750    0.000    0.375    0.000    0.000 
#    0.000    0.000    0.000    0.000    0.000    0.000 
#
# Total GULP energy -396924.316572 kJ/mol
# GULP energy per Si atom -12403.884893 kJ/mol
# Density = 1.962263 g / cm^3
# Si number density = 19.667398 Si / 1000 Ang^3
#
#
#
# Elastic Constant Matrix: (Units=GPa)
#
#
# Indices 1 2 3 4 5 6 
#
# 1 107.0052 49.6182 70.9651 0.0000 0.0000 0.0000
# 2 49.6182 110.7727 54.6292 0.0000 0.0000 0.0000
# 3 70.9651 54.6292 131.0287 0.0000 0.0000 0.0000
# 4 0.0000 0.0000 0.0000 9.5331 0.0000 0.0000
# 5 0.0000 0.0000 0.0000 0.0000 6.1340 0.0000
# 6 0.0000 0.0000 0.0000 0.0000 0.0000 11.5140
#
#
#
# Elastic Compliance Matrix: (Units=1/GPa)
#
#
# Indices 1 2 3 4 5 6 
#
# 1 0.015622 -0.003556 -0.006978 0.000000 0.000000 0.000000
# 2 -0.003556 0.012174 -0.003149 0.000000 0.000000 0.000000
# 3 -0.006978 -0.003149 0.012724 0.000000 0.000000 0.000000
# 4 0.000000 0.000000 0.000000 0.104898 0.000000 0.000000
# 5 0.000000 0.000000 0.000000 0.000000 0.163025 0.000000
# 6 0.000000 0.000000 0.000000 0.000000 0.000000 0.086851
#
#
# Mechanical properties :
#
#
# Convention : Reuss Voigt Hill
#
# Bulk Modulus (GPa) = 76.03185 77.69241 76.86213
# Shear Modulus (GPa) = 11.70835 17.00917 14.35876
#
# Velocity S-wave (km/s) = 2.44256 2.94401 2.70493
# Velocity P-wave (km/s) = 6.83356 7.15158 6.99438
#
# Compressibility (1/GPa) = 0.01315238
#
# Stress axis : x y z
#
# Youngs Moduli (GPa) = 64.01084 82.14480 78.58858
#
# Poissons Ratio (x) = 0.29212 0.54842
# Poissons Ratio (y) = 0.22764 0.24751
# Poissons Ratio (z) = 0.44669 0.25871
#
# Static dielectric constant tensor:
#      x y z
#    x 3.596880 0.000000 0.000000 
#    y 0.000000 3.836400 0.000000 
#    z 0.000000 0.000000 3.573290 
# 
# 
# High freq. dielectric constant tensor:
#      x y z
#    x 1.759970 0.000000 0.000000 
#    y 0.000000 1.782800 0.000000 
#    z 0.000000 0.000000 1.763980 
# 
# From -- ./inp_files/4204.got.cif
#   From: 2010.03.12/outbox.cif.g09.slc.cpg/sg25_3_cif.got.tgz:4204.got - 2010.04.14 03:30:10.
