data_PCOD8166174
_publ_section_title
;
Structure prediction by ZEFSAII (Michael W. Deem and Ramdas Pophale) SiO2 
 PCOD8166174
Probable space group: I 21 21 21
;
_chemical_formula_sum "Si O2"
_cell_formula_units_Z 32
_cell_length_a 30.861767
_cell_length_b 8.682679
_cell_length_c 5.074324
_cell_angle_alpha 90.000000
_cell_angle_beta 90.000000
_cell_angle_gamma 90.000000
_cell_volume 1359.730150
_symmetry_space_group_name_H-M "I 21 21 21"
_symmetry_group_IT_number 24
_symmetry_cell_setting 'orthorhombic'
loop_
_space_group_symop_operation_xyz
x,y,z
-x,1/2-y,z
x,-y,1/2-z
1/2-x,y,-z
1/2+x,1/2+y,1/2+z
1/2-x,-y,1/2+z
1/2+x,1/2-y,-z
-x,1/2+y,1/2-z
loop_
_atom_site_type_symbol
_atom_site_label
_atom_site_fract_x
_atom_site_fract_y
_atom_site_fract_z
Si Si1 0.031772 0.106691 0.999477
Si Si2 0.373950 0.169541 0.150100
Si Si3 0.167384 0.398567 0.505261
Si Si4 0.711027 0.323868 0.820584
O O1 0.000000 0.250000 0.008270
O O2 0.024946 0.000000 0.250000
O O3 0.080098 0.176665 0.995078
O O4 0.022245 0.000000 0.750000
O O5 0.373117 0.293568 0.390463
O O6 0.363992 0.000000 0.250000
O O7 0.335603 0.208753 0.949958
O O8 0.153314 0.500000 0.250000
O O9 0.207629 0.282807 0.439838
O O10 0.183934 0.500000 0.750000
O O11 0.719565 0.500000 0.750000
O O12 0.750000 0.263326 0.000000
#
# Coordination Sequence:
#
# PCOD8166174 Si02
#       4
#     8   8   8   8
#     4  11  26  49  78 113 153 196 249 316 381 453
#     4  11  24  48  78 106 152 204 254 304 375 450
#     4  12  27  49  72 112 153 197 249 317 378 437
#     4  12  26  47  79 111 146 203 261 309 358 460
#
# _framework density 23.534082999999999
#
# number of rings (size 3 to 8) (size 9 to 14) (size 15 to 20)
#    0.000    0.500    5.000    2.250    3.500    1.000 
#    9.000    0.000    0.000    0.000    0.000    0.000 
#    0.000    0.000    0.000    0.000    0.000    0.000 
#
# Total GULP energy -198369.280008 kJ/mol
# GULP energy per Si atom -12398.080001 kJ/mol
# Density = 2.348052 g / cm^3
# Si number density = 23.534083 Si / 1000 Ang^3
#
#
#
# Elastic Constant Matrix: (Units=GPa)
#
#
# Indices 1 2 3 4 5 6 
#
# 1 155.2769 64.7636 64.5801 -0.0001 -0.0002 -0.0001
# 2 64.7636 175.0969 83.3083 0.0007 0.0003 0.0002
# 3 64.5801 83.3083 172.7119 0.0014 0.0007 0.0001
# 4 -0.0001 0.0007 0.0014 53.6196 0.0007 0.0001
# 5 -0.0002 0.0003 0.0007 0.0007 29.7314 -0.0002
# 6 -0.0001 0.0002 0.0001 0.0001 -0.0002 -8.8745
#
#
#
# Elastic Compliance Matrix: (Units=1/GPa)
#
#
# Indices 1 2 3 4 5 6 
#
# 1 0.008146 -0.002030 -0.002067 0.000000 0.000000 0.000000
# 2 -0.002030 0.007918 -0.003060 0.000000 0.000000 0.000000
# 3 -0.002067 -0.003060 0.008039 0.000000 0.000000 0.000000
# 4 0.000000 0.000000 0.000000 0.018650 0.000000 0.000000
# 5 0.000000 0.000000 0.000000 0.000000 0.033634 -0.000001
# 6 0.000000 0.000000 0.000000 0.000000 -0.000001 -0.112682
#
#
# Mechanical properties :
#
#
# Convention : Reuss Voigt Hill
#
# Bulk Modulus (GPa) = 102.15271 103.15440 102.65355
# Shear Modulus (GPa) = -267.12593 34.25755 -116.43419
#
# Velocity S-wave (km/s) = -10.66548 3.81945 -7.04146
# Velocity P-wave (km/s) = 10.40045 7.96103 4.73241
#
# Compressibility (1/GPa) = 0.00978927
#
# Stress axis : x y z
#
# Youngs Moduli (GPa) = 122.75460 126.29652 124.39292
#
# Poissons Ratio (x) = 0.25634 0.25713
# Poissons Ratio (y) = 0.24915 0.38068
# Poissons Ratio (z) = 0.25374 0.38651
#
# Static dielectric constant tensor:
#      x y z
#    x 4.111910 0.000000 0.000000 
#    y 0.000000 4.654920 0.000000 
#    z 0.000000 0.000000 4.624640 
# 
# 
# High freq. dielectric constant tensor:
#      x y z
#    x 1.907490 0.000000 0.000000 
#    y 0.000000 1.960220 0.000000 
#    z 0.000000 0.000000 1.951170 
# 
# From -- ./inp_files/1148.got.cif
#   From: 2010.03.12/outbox.cif.g09.slc.cpg/sg24_1_cif.got.tgz:1148.got - 2010.04.14 03:06:53.
