data_PCOD8166595
_publ_section_title
;
Structure prediction by ZEFSAII (Michael W. Deem and Ramdas Pophale) SiO2 
 PCOD8166595
Probable space group: P M M 2
;
_chemical_formula_sum "Si O2"
_cell_formula_units_Z 32
_cell_length_a 9.083063
_cell_length_b 9.667077
_cell_length_c 20.698864
_cell_angle_alpha 90.000000
_cell_angle_beta 90.000000
_cell_angle_gamma 90.000000
_cell_volume 1817.498309
_symmetry_space_group_name_H-M "P M M 2"
_symmetry_group_IT_number 25
_symmetry_cell_setting 'orthorhombic'
loop_
_space_group_symop_operation_xyz
x,y,z
-x,-y,z
-x,y,z
x,-y,z
loop_
_atom_site_type_symbol
_atom_site_label
_atom_site_fract_x
_atom_site_fract_y
_atom_site_fract_z
Si Si1 0.333756 0.335255 0.538230
Si Si2 0.172824 0.659671 0.666112
Si Si3 0.672473 0.659922 0.031906
Si Si4 0.174671 0.152685 0.781516
Si Si5 0.666385 0.665015 0.286107
Si Si6 0.169803 0.837820 0.926408
Si Si7 0.834025 0.664519 0.160527
Si Si8 0.833625 0.335014 0.412507
O O1 0.500000 0.278628 0.536879
O O2 0.331232 0.500000 0.536737
O O3 0.253974 0.281675 0.602842
O O4 0.247965 0.276654 0.475974
O O5 0.210393 0.500000 0.677875
O O6 0.235468 0.740752 0.728346
O O7 0.000000 0.683212 0.655857
O O8 0.500000 0.680463 0.042111
O O9 0.712114 0.500000 0.018751
O O10 0.725908 0.749611 0.972024
O O11 0.752559 0.715710 0.096110
O O12 0.220661 0.199140 0.853499
O O13 0.000000 0.147239 0.778747
O O14 0.238429 0.000000 0.766385
O O15 0.500000 0.721676 0.286520
O O16 0.666767 0.500000 0.285654
O O17 0.748935 0.723600 0.222917
O O18 0.749626 0.721329 0.349421
O O19 0.000000 0.795859 0.937898
O O20 0.191857 0.000000 0.939952
O O21 0.834235 0.500000 0.163304
O O22 0.000000 0.722851 0.160587
O O23 0.833018 0.500000 0.412953
O O24 0.000000 0.278394 0.411763
#
# Coordination Sequence:
#
# PCOD8166595 Si02
#       8
#     4   4   4   4   4   4   4   4
#     4   9  16  25  36  52  78 111 143 177 220 264
#     4   9  16  26  42  64  87 112 144 180 217 260
#     4  10  20  32  46  67  95 125 156 191 233 280
#     4   8  15  29  48  68  89 113 143 181 223 266
#     4   9  15  22  33  51  78 112 147 182 222 268
#     4   9  18  33  52  72  93 119 153 192 233 278
#     4   9  16  26  40  58  82 114 151 189 228 269
#     4   9  15  22  33  50  74 107 147 185 218 258
#
# _framework density 17.606618999999998
#
# number of rings (size 3 to 8) (size 9 to 14) (size 15 to 20)
#    0.000    3.000    0.000    2.625    0.000    7.500 
#    0.000    1.875    0.000    2.625    0.000    0.000 
#    0.000    1.000    0.000    6.000    0.000    8.375 
#
# Total GULP energy -396733.395293 kJ/mol
# GULP energy per Si atom -12397.918603 kJ/mol
# Density = 1.756655 g / cm^3
# Si number density = 17.606619 Si / 1000 Ang^3
#
#
#
# Elastic Constant Matrix: (Units=GPa)
#
#
# Indices 1 2 3 4 5 6 
#
# 1 119.1306 26.3974 79.8486 0.0000 0.0000 0.0000
# 2 26.3974 28.2686 44.0955 0.0000 0.0000 0.0000
# 3 79.8486 44.0955 183.6668 0.0000 0.0000 0.0000
# 4 0.0000 0.0000 0.0000 0.3711 0.0000 0.0000
# 5 0.0000 0.0000 0.0000 0.0000 21.3851 0.0000
# 6 0.0000 0.0000 0.0000 0.0000 0.0000 11.9109
#
#
#
# Elastic Compliance Matrix: (Units=1/GPa)
#
#
# Indices 1 2 3 4 5 6 
#
# 1 0.012276 -0.005017 -0.004132 0.000000 0.000000 0.000000
# 2 -0.005017 0.058605 -0.011889 0.000000 0.000000 0.000000
# 3 -0.004132 -0.011889 0.010095 0.000000 0.000000 0.000000
# 4 0.000000 0.000000 0.000000 2.694437 0.000000 0.000000
# 5 0.000000 0.000000 0.000000 0.000000 0.046762 0.000000
# 6 0.000000 0.000000 0.000000 0.000000 0.000000 0.083957
#
#
# Mechanical properties :
#
#
# Convention : Reuss Voigt Hill
#
# Bulk Modulus (GPa) = 25.70727 70.19435 47.95081
# Shear Modulus (GPa) = 1.68852 18.78173 10.23512
#
# Velocity S-wave (km/s) = 0.98036 3.26965 2.41368
# Velocity P-wave (km/s) = 3.98925 7.36266 5.92127
#
# Compressibility (1/GPa) = 0.03889951
#
# Stress axis : x y z
#
# Youngs Moduli (GPa) = 81.46279 17.06327 99.05448
#
# Poissons Ratio (x) = 0.08561 0.40931
# Poissons Ratio (y) = 0.40872 1.17766
# Poissons Ratio (z) = 0.33662 0.20286
#
# Static dielectric constant tensor:
#      x y z
#    x 3.275790 0.000000 0.000000 
#    y 0.000000 2.755850 0.000000 
#    z 0.000000 0.000000 3.535660 
# 
# 
# High freq. dielectric constant tensor:
#      x y z
#    x 1.678950 0.000000 0.000000 
#    y 0.000000 1.611800 0.000000 
#    z 0.000000 0.000000 1.699150 
# 
# From -- ./inp_files/6281.got.cif
#   From: 2010.03.12/outbox.cif.g09.slc.cpg/sg25_4_cif.got.tgz:6281.got - 2010.04.14 03:30:10.
