data_PCOD8166411
_publ_section_title
;
Structure prediction by ZEFSAII (Michael W. Deem and Ramdas Pophale) SiO2 
 PCOD8166411
Probable space group: P M M 2
;
_chemical_formula_sum "Si O2"
_cell_formula_units_Z 32
_cell_length_a 15.497949
_cell_length_b 8.715459
_cell_length_c 11.984980
_cell_angle_alpha 90.000000
_cell_angle_beta 90.000000
_cell_angle_gamma 90.000000
_cell_volume 1618.832092
_symmetry_space_group_name_H-M "P M M 2"
_symmetry_group_IT_number 25
_symmetry_cell_setting 'orthorhombic'
loop_
_space_group_symop_operation_xyz
x,y,z
-x,-y,z
-x,y,z
x,-y,z
loop_
_atom_site_type_symbol
_atom_site_label
_atom_site_fract_x
_atom_site_fract_y
_atom_site_fract_z
Si Si1 0.661725 0.675758 0.554490
Si Si2 0.248169 0.681307 0.936405
Si Si3 0.095266 0.182145 0.325570
Si Si4 0.901979 0.180874 0.796772
Si Si5 0.842944 0.179630 0.559309
Si Si6 0.593997 0.680923 0.791664
Si Si7 0.252891 0.180125 0.177248
Si Si8 0.597479 0.324412 0.313140
O O1 0.694070 0.500000 0.564396
O O2 0.742534 0.787458 0.547669
O O3 0.606678 0.723344 0.662201
O O4 0.603318 0.700320 0.445879
O O5 0.246114 0.500000 0.926346
O O6 0.158662 0.744962 0.889454
O O7 0.328918 0.751280 0.866389
O O8 0.260223 0.729261 0.063053
O O9 0.109548 0.249476 0.450362
O O10 0.168396 0.244690 0.241833
O O11 0.000000 0.232666 0.283628
O O12 0.103565 0.000000 0.330356
O O13 0.880624 0.250174 0.674042
O O14 0.000000 0.222550 0.828043
O O15 0.886261 0.000000 0.798244
O O16 0.859709 0.000000 0.562293
O O17 0.500000 0.746985 0.828555
O O18 0.593782 0.500000 0.808302
O O19 0.337810 0.211624 0.249950
O O20 0.245329 0.000000 0.153470
O O21 0.500000 0.284897 0.276100
O O22 0.620390 0.500000 0.282131
#
# Coordination Sequence:
#
# PCOD8166411 Si02
#       8
#     4   4   4   4   4   4   4   4
#     4  10  18  32  57  86 115 145 181 228 283 342
#     4  11  23  39  59  83 112 150 194 242 288 335
#     4   9  18  34  57  83 110 144 185 227 277 338
#     4  10  21  37  59  86 116 151 189 231 283 344
#     4  10  18  32  57  86 115 145 181 228 283 342
#     4   9  18  34  57  83 110 144 185 227 277 338
#     4  11  23  39  59  83 112 150 194 242 288 335
#     4  10  21  37  59  86 116 151 189 231 283 344
#
# _framework density 19.767339
#
# number of rings (size 3 to 8) (size 9 to 14) (size 15 to 20)
#    0.000    2.000    2.500    1.500    0.000    4.500 
#    0.000    2.500    0.000    7.500    0.000    0.000 
#    0.000    0.000    0.000    0.000    0.000    0.000 
#
# Total GULP energy -396776.542388 kJ/mol
# GULP energy per Si atom -12399.266950 kJ/mol
# Density = 1.972235 g / cm^3
# Si number density = 19.767339 Si / 1000 Ang^3
#
#
#
# Elastic Constant Matrix: (Units=GPa)
#
#
# Indices 1 2 3 4 5 6 
#
# 1 152.2522 19.9623 55.6243 0.0000 0.0000 0.0000
# 2 19.9623 20.4180 11.0125 0.0000 0.0000 0.0000
# 3 55.6243 11.0125 114.4639 0.0000 0.0000 0.0000
# 4 0.0000 0.0000 0.0000 26.2384 0.0000 0.0000
# 5 0.0000 0.0000 0.0000 0.0000 17.4467 0.0000
# 6 0.0000 0.0000 0.0000 0.0000 0.0000 26.0071
#
#
#
# Elastic Compliance Matrix: (Units=1/GPa)
#
#
# Indices 1 2 3 4 5 6 
#
# 1 0.008757 -0.006609 -0.003620 0.000000 0.000000 0.000000
# 2 -0.006609 0.056645 -0.002238 0.000000 0.000000 0.000000
# 3 -0.003620 -0.002238 0.010711 0.000000 0.000000 0.000000
# 4 0.000000 0.000000 0.000000 0.038112 0.000000 0.000000
# 5 0.000000 0.000000 0.000000 0.000000 0.057317 0.000000
# 6 0.000000 0.000000 0.000000 0.000000 0.000000 0.038451
#
#
# Mechanical properties :
#
#
# Convention : Reuss Voigt Hill
#
# Bulk Modulus (GPa) = 19.53926 51.14804 35.34365
# Shear Modulus (GPa) = 19.84229 27.30743 23.57486
#
# Velocity S-wave (km/s) = 3.17170 3.72081 3.45718
# Velocity P-wave (km/s) = 4.82898 6.66261 5.81848
#
# Compressibility (1/GPa) = 0.05117900
#
# Stress axis : x y z
#
# Youngs Moduli (GPa) = 114.19405 17.65376 93.36479
#
# Poissons Ratio (x) = 0.11668 0.33795
# Poissons Ratio (y) = 0.75474 0.20895
# Poissons Ratio (z) = 0.41334 0.03951
#
# Static dielectric constant tensor:
#      x y z
#    x 3.783940 0.000000 0.000000 
#    y 0.000000 3.254520 0.000000 
#    z 0.000000 0.000000 3.698540 
# 
# 
# High freq. dielectric constant tensor:
#      x y z
#    x 1.782520 0.000000 0.000000 
#    y 0.000000 1.732830 0.000000 
#    z 0.000000 0.000000 1.774630 
# 
# From -- ./inp_files/4170.got.cif
#   From: 2010.03.12/outbox.cif.g09.slc.cpg/sg25_3_cif.got.tgz:4170.got - 2010.04.14 03:30:10.
