data_PCOD8166679
_publ_section_title
;
Structure prediction by ZEFSAII (Michael W. Deem and Ramdas Pophale) SiO2 
 PCOD8166679
Probable space group: P M M 2
;
_chemical_formula_sum "Si O2"
_cell_formula_units_Z 32
_cell_length_a 8.938785
_cell_length_b 14.045884
_cell_length_c 15.408910
_cell_angle_alpha 90.000000
_cell_angle_beta 90.000000
_cell_angle_gamma 90.000000
_cell_volume 1934.636992
_symmetry_space_group_name_H-M "P M M 2"
_symmetry_group_IT_number 25
_symmetry_cell_setting 'orthorhombic'
loop_
_space_group_symop_operation_xyz
x,y,z
-x,-y,z
-x,y,z
x,-y,z
loop_
_atom_site_type_symbol
_atom_site_label
_atom_site_fract_x
_atom_site_fract_y
_atom_site_fract_z
Si Si1 0.323739 0.215208 0.585020
Si Si2 0.175610 0.607876 0.518487
Si Si3 0.324828 0.110051 0.103510
Si Si4 0.326659 0.608458 0.335998
Si Si5 0.334916 0.887121 0.910235
Si Si6 0.829586 0.887347 0.741220
Si Si7 0.826537 0.889536 0.426789
Si Si8 0.174760 0.223469 0.254038
O O1 0.500000 0.225026 0.583199
O O2 0.252423 0.320826 0.586338
O O3 0.275909 0.161461 0.671475
O O4 0.271580 0.157087 0.501390
O O5 0.214816 0.500000 0.546174
O O6 0.236312 0.631030 0.423179
O O7 0.000000 0.626421 0.517183
O O8 0.500000 0.125074 0.122482
O O9 0.225276 0.172490 0.166834
O O10 0.280736 0.000000 0.116184
O O11 0.284224 0.145717 0.006171
O O12 0.500000 0.629776 0.353861
O O13 0.301671 0.500000 0.305621
O O14 0.263093 0.676830 0.261323
O O15 0.500000 0.846019 0.888765
O O16 0.219110 0.852008 0.837052
O O17 0.344224 0.000000 0.911235
O O18 0.000000 0.856287 0.725521
O O19 0.809826 0.000000 0.731790
O O20 0.784261 0.843459 0.335086
O O21 0.000000 0.873629 0.450132
O O22 0.785885 0.000000 0.420783
O O23 0.000000 0.245240 0.249120
#
# Coordination Sequence:
#
# PCOD8166679 Si02
#       8
#     4   4   4   4   4   4   4   4
#     4  12  23  33  49  72  98 131 168 204 244 292
#     4  10  20  35  54  73  95 125 161 203 250 295
#     4   9  18  32  50  72 101 135 168 205 247 291
#     4  10  20  34  52  73  96 124 162 207 251 294
#     4   8  15  30  50  71  96 127 164 206 249 291
#     4  10  20  33  50  72 100 133 167 206 248 291
#     4  10  21  35  47  63  95 136 172 204 239 282
#     4  11  21  32  49  72  99 133 169 204 245 292
#
# _framework density 16.540571
#
# number of rings (size 3 to 8) (size 9 to 14) (size 15 to 20)
#    0.000    2.000    1.250    4.125    0.000    5.750 
#    0.000    1.250    0.000    0.000    0.000    0.875 
#    0.000    1.000    0.000    0.000    0.000    0.000 
#
# Total GULP energy -396848.792603 kJ/mol
# GULP energy per Si atom -12401.524769 kJ/mol
# Density = 1.650292 g / cm^3
# Si number density = 16.540571 Si / 1000 Ang^3
#
#
#
# Elastic Constant Matrix: (Units=GPa)
#
#
# Indices 1 2 3 4 5 6 
#
# 1 93.7040 46.9411 49.2265 0.0000 0.0000 0.0000
# 2 46.9411 78.6678 39.1575 0.0000 0.0000 0.0000
# 3 49.2265 39.1575 99.4720 0.0000 0.0000 0.0000
# 4 0.0000 0.0000 0.0000 5.5617 0.0000 0.0000
# 5 0.0000 0.0000 0.0000 0.0000 29.5056 0.0000
# 6 0.0000 0.0000 0.0000 0.0000 0.0000 25.7010
#
#
#
# Elastic Compliance Matrix: (Units=1/GPa)
#
#
# Indices 1 2 3 4 5 6 
#
# 1 0.017442 -0.007600 -0.005640 0.000000 0.000000 0.000000
# 2 -0.007600 0.019121 -0.003766 0.000000 0.000000 0.000000
# 3 -0.005640 -0.003766 0.014327 0.000000 0.000000 0.000000
# 4 0.000000 0.000000 0.000000 0.179800 0.000000 0.000000
# 5 0.000000 0.000000 0.000000 0.000000 0.033892 0.000000
# 6 0.000000 0.000000 0.000000 0.000000 0.000000 0.038909
#
#
# Mechanical properties :
#
#
# Convention : Reuss Voigt Hill
#
# Bulk Modulus (GPa) = 59.24950 60.27709 59.76330
# Shear Modulus (GPa) = 14.57175 21.25491 17.91333
#
# Velocity S-wave (km/s) = 2.97133 3.58860 3.29446
# Velocity P-wave (km/s) = 6.90436 7.32747 7.11906
#
# Compressibility (1/GPa) = 0.01687778
#
# Stress axis : x y z
#
# Youngs Moduli (GPa) = 57.33223 52.29748 69.80048
#
# Poissons Ratio (x) = 0.39749 0.39366
# Poissons Ratio (y) = 0.43575 0.26286
# Poissons Ratio (z) = 0.32334 0.19695
#
# Static dielectric constant tensor:
#      x y z
#    x 3.236590 0.000000 0.000000 
#    y 0.000000 3.116860 0.000000 
#    z 0.000000 0.000000 3.149030 
# 
# 
# High freq. dielectric constant tensor:
#      x y z
#    x 1.648510 0.000000 0.000000 
#    y 0.000000 1.619980 0.000000 
#    z 0.000000 0.000000 1.624020 
# 
# From -- ./inp_files/5724.got.cif
#   From: 2010.03.12/outbox.cif.g09.slc.cpg/sg25_3_cif.got.tgz:5724.got - 2010.04.14 03:30:10.
