data_PCOD8166923
_publ_section_title
;
Structure prediction by ZEFSAII (Michael W. Deem and Ramdas Pophale) SiO2 
 PCOD8166923
Probable space group: P M M 2
;
_chemical_formula_sum "Si O2"
_cell_formula_units_Z 32
_cell_length_a 8.952342
_cell_length_b 13.607662
_cell_length_c 12.997106
_cell_angle_alpha 90.000000
_cell_angle_beta 90.000000
_cell_angle_gamma 90.000000
_cell_volume 1583.313224
_symmetry_space_group_name_H-M "P M M 2"
_symmetry_group_IT_number 25
_symmetry_cell_setting 'orthorhombic'
loop_
_space_group_symop_operation_xyz
x,y,z
-x,-y,z
-x,y,z
x,-y,z
loop_
_atom_site_type_symbol
_atom_site_label
_atom_site_fract_x
_atom_site_fract_y
_atom_site_fract_z
Si Si1 0.169377 0.116943 0.696270
Si Si2 0.331584 0.383320 0.780803
Si Si3 0.828203 0.800061 0.093012
Si Si4 0.823712 0.612032 0.574458
Si Si5 0.828214 0.114777 0.307045
Si Si6 0.676538 0.793091 0.499505
Si Si7 0.666986 0.116073 0.898389
Si Si8 0.828804 0.390110 0.982442
O O1 0.264232 0.151111 0.599281
O O2 0.241830 0.160665 0.801193
O O3 0.000000 0.156511 0.686757
O O4 0.170812 0.000000 0.699021
O O5 0.500000 0.345316 0.763852
O O6 0.324414 0.500000 0.786831
O O7 0.229241 0.348090 0.686088
O O8 0.267612 0.343887 0.889018
O O9 0.770028 0.828294 0.205845
O O10 0.807321 0.682324 0.079212
O O11 0.000000 0.831878 0.081936
O O12 0.739749 0.858578 0.006819
O O13 0.770489 0.500000 0.555047
O O14 0.746600 0.683234 0.491179
O O15 0.000000 0.620557 0.566445
O O16 0.723472 0.145799 0.400159
O O17 0.000000 0.141592 0.332843
O O18 0.809758 0.000000 0.286144
O O19 0.500000 0.785123 0.504812
O O20 0.500000 0.159706 0.894382
O O21 0.663743 0.000000 0.887517
O O22 0.776035 0.500000 0.014162
O O23 0.000000 0.392554 0.945411
#
# Coordination Sequence:
#
# PCOD8166923 Si02
#       8
#     4   4   4   4   4   4   4   4
#     4  10  21  38  60  85 116 154 195 241 295 358
#     4   9  17  30  50  78 114 155 195 237 286 339
#     4  10  21  37  60  86 114 153 201 249 296 348
#     4  10  21  38  60  85 116 156 201 245 289 346
#     4  10  22  42  65  87 114 151 199 253 305 361
#     4  12  25  39  60  88 119 154 194 244 303 361
#     4  10  21  36  55  83 119 153 187 236 300 364
#     4   9  18  33  53  80 116 156 197 240 287 343
#
# _framework density 20.210784
#
# number of rings (size 3 to 8) (size 9 to 14) (size 15 to 20)
#    0.000    2.000    0.000    3.375    1.750    7.000 
#    0.000    0.625    0.000    2.250    0.000    0.000 
#    0.000    0.000    0.000    0.000    0.000    0.000 
#
# Total GULP energy -396877.535583 kJ/mol
# GULP energy per Si atom -12402.422987 kJ/mol
# Density = 2.016478 g / cm^3
# Si number density = 20.210784 Si / 1000 Ang^3
#
#
#
# Elastic Constant Matrix: (Units=GPa)
#
#
# Indices 1 2 3 4 5 6 
#
# 1 117.2771 28.3538 52.4786 0.0000 0.0000 0.0000
# 2 28.3538 53.3331 40.0764 0.0000 0.0000 0.0000
# 3 52.4786 40.0764 115.2298 0.0000 0.0000 0.0000
# 4 0.0000 0.0000 0.0000 34.9629 0.0000 0.0000
# 5 0.0000 0.0000 0.0000 0.0000 8.5377 0.0000
# 6 0.0000 0.0000 0.0000 0.0000 0.0000 25.3998
#
#
#
# Elastic Compliance Matrix: (Units=1/GPa)
#
#
# Indices 1 2 3 4 5 6 
#
# 1 0.011015 -0.002825 -0.004034 0.000000 0.000000 0.000000
# 2 -0.002825 0.026108 -0.007794 0.000000 0.000000 0.000000
# 3 -0.004034 -0.007794 0.013226 0.000000 0.000000 0.000000
# 4 0.000000 0.000000 0.000000 0.028602 0.000000 0.000000
# 5 0.000000 0.000000 0.000000 0.000000 0.117127 0.000000
# 6 0.000000 0.000000 0.000000 0.000000 0.000000 0.039370
#
#
# Mechanical properties :
#
#
# Convention : Reuss Voigt Hill
#
# Bulk Modulus (GPa) = 47.51893 58.62862 53.07378
# Shear Modulus (GPa) = 18.39797 24.77550 21.58673
#
# Velocity S-wave (km/s) = 3.02040 3.50502 3.27169
# Velocity P-wave (km/s) = 5.97716 6.74179 6.37096
#
# Compressibility (1/GPa) = 0.02104424
#
# Stress axis : x y z
#
# Youngs Moduli (GPa) = 90.78654 38.30180 75.60714
#
# Poissons Ratio (x) = 0.10818 0.30501
# Poissons Ratio (y) = 0.25643 0.58928
# Poissons Ratio (z) = 0.36624 0.29853
#
# Static dielectric constant tensor:
#      x y z
#    x 3.776440 0.000000 0.000000 
#    y 0.000000 3.870660 0.000000 
#    z 0.000000 0.000000 3.540120 
# 
# 
# High freq. dielectric constant tensor:
#      x y z
#    x 1.790450 0.000000 0.000000 
#    y 0.000000 1.806490 0.000000 
#    z 0.000000 0.000000 1.768650 
# 
# From -- ./inp_files/4199.got.cif
#   From: 2010.03.12/outbox.cif.g09.slc.cpg/sg25_3_cif.got.tgz:4199.got - 2010.04.14 03:30:10.
