data_PCOD8166332
_publ_section_title
;
Structure prediction by ZEFSAII (Michael W. Deem and Ramdas Pophale) SiO2 
 PCOD8166332
Probable space group: P M M 2
;
_chemical_formula_sum "Si O2"
_cell_formula_units_Z 28
_cell_length_a 26.100844
_cell_length_b 13.877896
_cell_length_c 5.249270
_cell_angle_alpha 90.000000
_cell_angle_beta 90.000000
_cell_angle_gamma 90.000000
_cell_volume 1901.415768
_symmetry_space_group_name_H-M "P M M 2"
_symmetry_group_IT_number 25
_symmetry_cell_setting 'orthorhombic'
loop_
_space_group_symop_operation_xyz
x,y,z
-x,-y,z
-x,y,z
x,-y,z
loop_
_atom_site_type_symbol
_atom_site_label
_atom_site_fract_x
_atom_site_fract_y
_atom_site_fract_z
Si Si1 0.229832 0.109035 0.946750
Si Si2 0.381220 0.387275 0.120579
Si Si3 0.556720 0.386762 0.623346
Si Si4 0.326654 0.892219 0.662480
Si Si5 0.057986 0.114909 0.383191
Si Si6 0.319758 0.791347 0.156801
Si Si7 0.884984 0.885391 0.881868
O O1 0.264186 0.105947 0.688973
O O2 0.226596 0.000000 0.062832
O O3 0.259022 0.181272 0.144298
O O4 0.173707 0.150560 0.887086
O O5 0.365928 0.500000 0.118714
O O6 0.410507 0.353707 0.866486
O O7 0.416296 0.358706 0.359737
O O8 0.329210 0.323759 0.139626
O O9 0.500000 0.339226 0.631604
O O10 0.550393 0.500000 0.638893
O O11 0.343508 0.830658 0.419058
O O12 0.348586 0.000000 0.634004
O O13 0.349104 0.843975 0.920998
O O14 0.085689 0.154380 0.130027
O O15 0.000000 0.153893 0.387895
O O16 0.058379 0.000000 0.384847
O O17 0.087637 0.156016 0.629807
O O18 0.886804 0.000000 0.875254
#
# Coordination Sequence:
#
# PCOD8166332 Si02
#       7
#     4   4   4   4   4   4   4
#     4   8  17  27  40  58  80 103 137 179 211 238
#     4  10  19  30  45  67  93 118 141 163 197 250
#     4   9  17  30  47  65  87 113 139 171 206 238
#     4   9  17  28  42  59  83 106 135 178 213 239
#     4   9  16  24  32  45  66  93 128 165 198 239
#     4  10  18  28  42  61  88 113 137 171 208 247
#     4   9  16  23  35  49  66  95 128 165 206 236
#
# _framework density 14.725871
#
# number of rings (size 3 to 8) (size 9 to 14) (size 15 to 20)
#    0.857    2.000    0.000    2.571    2.000    3.429 
#    0.000    0.000    0.000    0.000    0.000    0.000 
#    0.000   66.286    0.000    0.000    0.000    4.286 
#
# Total GULP energy -346868.686349 kJ/mol
# GULP energy per Si atom -12388.167370 kJ/mol
# Density = 1.469235 g / cm^3
# Si number density = 14.725871 Si / 1000 Ang^3
#
#
#
# Elastic Constant Matrix: (Units=GPa)
#
#
# Indices 1 2 3 4 5 6 
#
# 1 61.3126 26.8670 15.6970 0.0000 0.0000 0.0000
# 2 26.8670 47.7945 16.2610 0.0000 0.0000 0.0000
# 3 15.6970 16.2610 105.5018 0.0000 0.0000 0.0000
# 4 0.0000 0.0000 0.0000 8.2407 0.0000 0.0000
# 5 0.0000 0.0000 0.0000 0.0000 31.4452 0.0000
# 6 0.0000 0.0000 0.0000 0.0000 0.0000 8.3307
#
#
#
# Elastic Compliance Matrix: (Units=1/GPa)
#
#
# Indices 1 2 3 4 5 6 
#
# 1 0.021844 -0.011792 -0.001433 0.000000 0.000000 0.000000
# 2 -0.011792 0.028446 -0.002630 0.000000 0.000000 0.000000
# 3 -0.001433 -0.002630 0.010097 0.000000 0.000000 0.000000
# 4 0.000000 0.000000 0.000000 0.121348 0.000000 0.000000
# 5 0.000000 0.000000 0.000000 0.000000 0.031801 0.000000
# 6 0.000000 0.000000 0.000000 0.000000 0.000000 0.120038
#
#
# Mechanical properties :
#
#
# Convention : Reuss Voigt Hill
#
# Bulk Modulus (GPa) = 34.86940 36.91765 35.89353
# Shear Modulus (GPa) = 13.33894 19.98893 16.66393
#
# Velocity S-wave (km/s) = 3.01294 3.68829 3.36759
# Velocity P-wave (km/s) = 5.98617 6.57741 6.28874
#
# Compressibility (1/GPa) = 0.02867844
#
# Stress axis : x y z
#
# Youngs Moduli (GPa) = 45.77982 35.15406 99.03924
#
# Poissons Ratio (x) = 0.41453 0.14188
# Poissons Ratio (y) = 0.53982 0.26047
# Poissons Ratio (z) = 0.06558 0.09246
#
# Static dielectric constant tensor:
#      x y z
#    x 2.795340 0.000000 0.000000 
#    y 0.000000 2.420090 0.000000 
#    z 0.000000 0.000000 3.024520 
# 
# 
# High freq. dielectric constant tensor:
#      x y z
#    x 1.544710 0.000000 0.000000 
#    y 0.000000 1.501120 0.000000 
#    z 0.000000 0.000000 1.581140 
# 
# From -- ./inp_files/1304.got.cif
#   From: 2010.03.12/outbox.cif.g09.slc.cpg/sg25_1_cif.got.tgz:1304.got - 2010.04.14 03:30:10.
