data_PCOD8166690
_publ_section_title
;
Structure prediction by ZEFSAII (Michael W. Deem and Ramdas Pophale) SiO2 
 PCOD8166690
Probable space group: P M M 2
;
_chemical_formula_sum "Si O2"
_cell_formula_units_Z 28
_cell_length_a 9.074184
_cell_length_b 9.110453
_cell_length_c 18.151453
_cell_angle_alpha 90.000000
_cell_angle_beta 90.000000
_cell_angle_gamma 90.000000
_cell_volume 1500.579292
_symmetry_space_group_name_H-M "P M M 2"
_symmetry_group_IT_number 25
_symmetry_cell_setting 'orthorhombic'
loop_
_space_group_symop_operation_xyz
x,y,z
-x,-y,z
-x,y,z
x,-y,z
loop_
_atom_site_type_symbol
_atom_site_label
_atom_site_fract_x
_atom_site_fract_y
_atom_site_fract_z
Si Si1 0.329767 0.829652 0.229680
Si Si2 0.670825 0.671677 0.949683
Si Si3 0.324457 0.665581 0.374207
Si Si4 0.826426 0.831973 0.080609
Si Si5 0.675783 0.165856 0.516997
Si Si6 0.324623 0.834309 0.803710
Si Si7 0.324205 0.665963 0.660732
O O1 0.500000 0.792710 0.214221
O O2 0.267423 0.739836 0.299176
O O3 0.238208 0.780390 0.158619
O O4 0.307375 0.000000 0.247950
O O5 0.500000 0.708701 0.963530
O O6 0.696497 0.500000 0.938332
O O7 0.731023 0.753022 0.877049
O O8 0.762802 0.726622 0.018717
O O9 0.500000 0.668938 0.375821
O O10 0.264401 0.500000 0.378080
O O11 0.262035 0.754446 0.444182
O O12 0.000000 0.813698 0.083452
O O13 0.779745 0.000000 0.064028
O O14 0.500000 0.166445 0.516662
O O15 0.735765 0.251402 0.588453
O O16 0.736139 0.000000 0.518842
O O17 0.500000 0.834088 0.801214
O O18 0.262079 0.749230 0.732597
O O19 0.262951 0.000000 0.803480
O O20 0.500000 0.666091 0.661354
O O21 0.263782 0.500000 0.660691
#
# Coordination Sequence:
#
# PCOD8166690 Si02
#       7
#     4   4   4   4   4   4   4
#     4   9  17  30  48  68  91 121 156 193 234 281
#     4  10  20  33  50  72  97 126 161 200 242 288
#     4   9  16  25  38  58  84 114 150 191 232 274
#     4  10  21  36  53  73  97 125 158 197 242 292
#     4   9  15  22  33  51  79 116 154 188 226 274
#     4   9  16  26  41  61  86 118 156 195 234 278
#     4   9  15  22  33  52  82 118 153 189 230 275
#
# _framework density 18.659459999999999
#
# number of rings (size 3 to 8) (size 9 to 14) (size 15 to 20)
#    0.000    2.714    0.000    2.571    0.000    9.143 
#    0.000    1.429    0.000    0.000    0.000    0.000 
#    0.000    1.143    0.000    6.857    0.000    9.571 
#
# Total GULP energy -347219.872357 kJ/mol
# GULP energy per Si atom -12400.709727 kJ/mol
# Density = 1.861699 g / cm^3
# Si number density = 18.659460 Si / 1000 Ang^3
#
#
#
# Elastic Constant Matrix: (Units=GPa)
#
#
# Indices 1 2 3 4 5 6 
#
# 1 23.0839 22.8438 29.5979 0.0000 0.0000 0.0000
# 2 22.8438 154.1423 101.1867 0.0000 0.0000 0.0000
# 3 29.5979 101.1867 189.0726 0.0000 0.0000 0.0000
# 4 0.0000 0.0000 0.0000 38.3122 0.0000 0.0000
# 5 0.0000 0.0000 0.0000 0.0000 -1.9009 0.0000
# 6 0.0000 0.0000 0.0000 0.0000 0.0000 10.7955
#
#
#
# Elastic Compliance Matrix: (Units=1/GPa)
#
#
# Indices 1 2 3 4 5 6 
#
# 1 0.055679 -0.003900 -0.006629 0.000000 0.000000 0.000000
# 2 -0.003900 0.010274 -0.004888 0.000000 0.000000 0.000000
# 3 -0.006629 -0.004888 0.008943 0.000000 0.000000 0.000000
# 4 0.000000 0.000000 0.000000 0.026101 0.000000 0.000000
# 5 0.000000 0.000000 0.000000 0.000000 -0.526053 0.000000
# 6 0.000000 0.000000 0.000000 0.000000 0.000000 0.092631
#
#
# Mechanical properties :
#
#
# Convention : Reuss Voigt Hill
#
# Bulk Modulus (GPa) = 22.69523 74.83954 48.76739
# Shear Modulus (GPa) = -17.42748 23.61938 3.09595
#
# Velocity S-wave (km/s) = -3.05942 3.56169 1.28949
# Velocity P-wave (km/s) = 0.53925 7.55707 5.33003
#
# Compressibility (1/GPa) = 0.04406213
#
# Stress axis : x y z
#
# Youngs Moduli (GPa) = 17.95999 97.33122 111.82426
#
# Poissons Ratio (x) = 0.37960 0.74128
# Poissons Ratio (y) = 0.07004 0.54659
# Poissons Ratio (z) = 0.11906 0.47575
#
# Static dielectric constant tensor:
#      x y z
#    x 2.721000 0.000000 0.000000 
#    y 0.000000 3.591920 0.000000 
#    z 0.000000 0.000000 3.641220 
# 
# 
# High freq. dielectric constant tensor:
#      x y z
#    x 1.647420 0.000000 0.000000 
#    y 0.000000 1.736440 0.000000 
#    z 0.000000 0.000000 1.743580 
# 
# From -- ./inp_files/6394.got.cif
#   From: 2010.03.12/outbox.cif.g09.slc.cpg/sg25_4_cif.got.tgz:6394.got - 2010.04.14 03:30:10.
