data_PCOD8166103
_publ_section_title
;
Structure prediction by ZEFSAII (Michael W. Deem and Ramdas Pophale) SiO2 
 PCOD8166103
Probable space group: I 21 21 21
;
_chemical_formula_sum "Si O2"
_cell_formula_units_Z 60
_cell_length_a 15.911817
_cell_length_b 26.237025
_cell_length_c 6.541166
_cell_angle_alpha 90.000000
_cell_angle_beta 90.000000
_cell_angle_gamma 90.000000
_cell_volume 2730.797743
_symmetry_space_group_name_H-M "I 21 21 21"
_symmetry_group_IT_number 24
_symmetry_cell_setting 'orthorhombic'
loop_
_space_group_symop_operation_xyz
x,y,z
-x,1/2-y,z
x,-y,1/2-z
1/2-x,y,-z
1/2+x,1/2+y,1/2+z
1/2-x,-y,1/2+z
1/2+x,1/2-y,-z
-x,1/2+y,1/2-z
loop_
_atom_site_type_symbol
_atom_site_label
_atom_site_fract_x
_atom_site_fract_y
_atom_site_fract_z
Si Si1 0.000000 0.750000 0.993887
Si Si2 0.997523 0.558947 0.789674
Si Si3 0.136332 0.190856 0.706419
Si Si4 0.340190 0.096116 0.547210
Si Si5 0.158329 0.386416 0.521256
Si Si6 0.571403 0.177610 0.791350
Si Si7 0.676957 0.798020 0.344656
Si Si8 0.919059 0.377281 0.056655
O O1 0.927456 0.775418 0.132083
O O2 0.958981 0.707086 0.849679
O O3 0.009725 0.500000 0.750000
O O4 0.085008 0.577928 0.889046
O O5 0.980081 0.585691 0.572537
O O6 0.917144 0.568292 0.933848
O O7 0.170313 0.155167 0.524408
O O8 0.190269 0.242003 0.746209
O O9 0.137609 0.157573 0.911845
O O10 0.250000 0.068986 0.500000
O O11 0.356487 0.092578 0.790988
O O12 0.250000 0.414542 0.500000
O O13 0.132458 0.366503 0.295723
O O14 0.172694 0.337923 0.664210
O O15 0.476586 0.156999 0.796259
O O16 0.593289 0.197824 0.017246
O O17 0.750000 0.811728 0.500000
#
# Coordination Sequence:
#
# PCOD8166103 Si02
#       8
#     4   8   8   8   8   8   8   8
#     4  12  20  36  58  94 138 186 248 284 320 396
#     4  11  26  51  76 103 132 173 234 298 364 439
#     4  11  24  36  61  98 141 185 237 275 323 412
#     4  11  26  46  70 103 140 182 230 291 357 413
#     4  12  24  45  68 100 141 179 231 294 344 415
#     4  12  21  38  62  90 135 186 230 277 334 398
#     4  12  25  37  60  99 142 194 233 267 329 406
#     4  11  22  44  70  94 138 182 224 285 351 410
#
# _framework density 21.971602000000001
#
# number of rings (size 3 to 8) (size 9 to 14) (size 15 to 20)
#    0.000    0.533    6.667    2.400    1.867    2.667 
#    2.400    2.000    0.000    0.000    0.000    0.000 
#    0.000    0.000    0.000    0.000    0.000    0.000 
#
# Total GULP energy -371920.814139 kJ/mol
# GULP energy per Si atom -12397.360471 kJ/mol
# Density = 2.192159 g / cm^3
# Si number density = 21.971602 Si / 1000 Ang^3
#
#
#
# Elastic Constant Matrix: (Units=GPa)
#
#
# Indices 1 2 3 4 5 6 
#
# 1 132.8071 29.5319 32.5099 0.0010 0.0009 -0.0005
# 2 29.5319 101.7767 19.5282 0.0025 0.0019 -0.0004
# 3 32.5099 19.5282 96.0725 0.0017 0.0085 -0.0050
# 4 0.0010 0.0025 0.0017 16.2239 0.0066 -0.0002
# 5 0.0009 0.0019 0.0085 0.0066 31.1351 0.0046
# 6 -0.0005 -0.0004 -0.0050 -0.0002 0.0046 16.5182
#
#
#
# Elastic Compliance Matrix: (Units=1/GPa)
#
#
# Indices 1 2 3 4 5 6 
#
# 1 0.008589 -0.002013 -0.002497 0.000000 0.000001 -0.000001
# 2 -0.002013 0.010696 -0.001493 -0.000001 0.000000 0.000000
# 3 -0.002497 -0.001493 0.011557 -0.000001 -0.000003 0.000003
# 4 0.000000 -0.000001 -0.000001 0.061637 -0.000013 0.000001
# 5 0.000001 0.000000 -0.000003 -0.000013 0.032118 -0.000009
# 6 -0.000001 0.000000 0.000003 0.000001 -0.000009 0.060539
#
#
# Mechanical properties :
#
#
# Convention : Reuss Voigt Hill
#
# Bulk Modulus (GPa) = 53.09052 54.86628 53.97840
# Shear Modulus (GPa) = 24.57955 29.38121 26.98038
#
# Velocity S-wave (km/s) = 3.34832 3.66079 3.50804
# Velocity P-wave (km/s) = 6.25812 6.54936 6.40540
#
# Compressibility (1/GPa) = 0.01883575
#
# Stress axis : x y z
#
# Youngs Moduli (GPa) = 116.43329 93.49309 86.52561
#
# Poissons Ratio (x) = 0.18820 0.21607
# Poissons Ratio (y) = 0.23438 0.12918
# Poissons Ratio (z) = 0.29075 0.13958
#
# Static dielectric constant tensor:
#      x y z
#    x 4.099030 0.000000 0.000020 
#    y 0.000000 3.622400 -0.000010 
#    z 0.000020 -0.000010 4.240000 
# 
# 
# High freq. dielectric constant tensor:
#      x y z
#    x 1.870040 0.000000 0.000000 
#    y 0.000000 1.823270 0.000000 
#    z 0.000000 0.000000 1.882100 
# 
# From -- ./inp_files/5074.got.cif
#   From: 2010.03.12/outbox.cif.g09.slc.cpg/sg24_3_cif.got.tgz:5074.got - 2010.04.14 03:06:53.
