data_PCOD8166394
_publ_section_title
;
Structure prediction by ZEFSAII (Michael W. Deem and Ramdas Pophale) SiO2 
 PCOD8166394
Probable space group: P M M 2
;
_chemical_formula_sum "Si O2"
_cell_formula_units_Z 32
_cell_length_a 19.164828
_cell_length_b 9.041928
_cell_length_c 10.474561
_cell_angle_alpha 90.000000
_cell_angle_beta 90.000000
_cell_angle_gamma 90.000000
_cell_volume 1815.105199
_symmetry_space_group_name_H-M "P M M 2"
_symmetry_group_IT_number 25
_symmetry_cell_setting 'orthorhombic'
loop_
_space_group_symop_operation_xyz
x,y,z
-x,-y,z
-x,y,z
x,-y,z
loop_
_atom_site_type_symbol
_atom_site_label
_atom_site_fract_x
_atom_site_fract_y
_atom_site_fract_z
Si Si1 0.287129 0.173530 0.737600
Si Si2 0.422193 0.830100 0.871145
Si Si3 0.289253 0.824439 0.230533
Si Si4 0.077861 0.827833 0.608398
Si Si5 0.079561 0.327827 0.874102
Si Si6 0.217318 0.825500 0.485103
Si Si7 0.796431 0.825014 0.983157
Si Si8 0.579197 0.673579 0.135517
O O1 0.368864 0.212063 0.757772
O O2 0.259890 0.243998 0.605257
O O3 0.244788 0.234405 0.859169
O O4 0.274258 0.000000 0.730655
O O5 0.500000 0.806395 0.816972
O O6 0.409847 0.000000 0.914940
O O7 0.407529 0.728401 0.992156
O O8 0.248074 0.760843 0.353838
O O9 0.366445 0.753601 0.229601
O O10 0.297927 0.000000 0.234212
O O11 0.245487 0.772462 0.107691
O O12 0.095913 0.739335 0.735695
O O13 0.134992 0.785601 0.500512
O O14 0.000000 0.789195 0.557307
O O15 0.083996 0.000000 0.644195
O O16 0.096287 0.500000 0.867914
O O17 0.127608 0.250942 0.981238
O O18 0.000000 0.296543 0.913905
O O19 0.227618 0.000000 0.481547
O O20 0.806203 0.000000 0.984228
O O21 0.500000 0.712950 0.178249
O O22 0.592477 0.500000 0.139725
#
# Coordination Sequence:
#
# PCOD8166394 Si02
#       8
#     4   4   4   4   4   4   4   4
#     4   9  15  27  48  74 101 126 157 201 247 289
#     4   9  16  28  49  75 101 130 165 205 248 291
#     4  10  20  34  52  75 102 132 167 207 249 295
#     4   9  16  29  51  75  99 131 167 201 246 300
#     4  10  20  32  48  74 104 131 165 209 251 292
#     4   9  17  30  49  74 103 130 160 203 246 288
#     4  10  18  31  51  74  99 128 164 204 250 296
#     4  10  20  33  50  73 101 132 167 206 248 296
#
# _framework density 17.629833000000001
#
# number of rings (size 3 to 8) (size 9 to 14) (size 15 to 20)
#    0.000    2.500    2.500    0.750    0.000    2.000 
#    0.000    1.875    0.000    4.500    0.000    3.500 
#    0.000    0.000    0.000    0.000    0.000    0.000 
#
# Total GULP energy -396689.464803 kJ/mol
# GULP energy per Si atom -12396.545775 kJ/mol
# Density = 1.758971 g / cm^3
# Si number density = 17.629833 Si / 1000 Ang^3
#
#
#
# Elastic Constant Matrix: (Units=GPa)
#
#
# Indices 1 2 3 4 5 6 
#
# 1 154.1605 37.3001 77.8088 0.0000 0.0000 0.0000
# 2 37.3001 36.7582 25.0931 0.0000 0.0000 0.0000
# 3 77.8088 25.0931 116.0369 0.0000 0.0000 0.0000
# 4 0.0000 0.0000 0.0000 6.4368 0.0000 0.0000
# 5 0.0000 0.0000 0.0000 0.0000 30.9848 0.0000
# 6 0.0000 0.0000 0.0000 0.0000 0.0000 22.0221
#
#
#
# Elastic Compliance Matrix: (Units=1/GPa)
#
#
# Indices 1 2 3 4 5 6 
#
# 1 0.011286 -0.007375 -0.005973 0.000000 0.000000 0.000000
# 2 -0.007375 0.036736 -0.002999 0.000000 0.000000 0.000000
# 3 -0.005973 -0.002999 0.013272 0.000000 0.000000 0.000000
# 4 0.000000 0.000000 0.000000 0.155356 0.000000 0.000000
# 5 0.000000 0.000000 0.000000 0.000000 0.032274 0.000000
# 6 0.000000 0.000000 0.000000 0.000000 0.000000 0.045409
#
#
# Mechanical properties :
#
#
# Convention : Reuss Voigt Hill
#
# Bulk Modulus (GPa) = 34.96536 65.26220 50.11378
# Shear Modulus (GPa) = 14.85626 23.00565 18.93095
#
# Velocity S-wave (km/s) = 2.90604 3.61630 3.28045
# Velocity P-wave (km/s) = 5.57998 7.38480 6.54490
#
# Compressibility (1/GPa) = 0.02859973
#
# Stress axis : x y z
#
# Youngs Moduli (GPa) = 88.60696 27.22158 75.34873
#
# Poissons Ratio (x) = 0.20075 0.45005
# Poissons Ratio (y) = 0.65345 0.22597
# Poissons Ratio (z) = 0.52924 0.08164
#
# Static dielectric constant tensor:
#      x y z
#    x 3.602230 0.000000 0.000000 
#    y 0.000000 3.000620 0.000000 
#    z 0.000000 0.000000 3.215830 
# 
# 
# High freq. dielectric constant tensor:
#      x y z
#    x 1.701350 0.000000 0.000000 
#    y 0.000000 1.650890 0.000000 
#    z 0.000000 0.000000 1.650660 
# 
# From -- ./inp_files/5067.got.cif
#   From: 2010.03.12/outbox.cif.g09.slc.cpg/sg25_3_cif.got.tgz:5067.got - 2010.04.14 03:30:10.
