data_PCOD8166596
_publ_section_title
;
Structure prediction by ZEFSAII (Michael W. Deem and Ramdas Pophale) SiO2 
 PCOD8166596
Probable space group: P M M 2
;
_chemical_formula_sum "Si O2"
_cell_formula_units_Z 28
_cell_length_a 9.503756
_cell_length_b 9.083159
_cell_length_c 18.427928
_cell_angle_alpha 90.000000
_cell_angle_beta 90.000000
_cell_angle_gamma 90.000000
_cell_volume 1590.774794
_symmetry_space_group_name_H-M "P M M 2"
_symmetry_group_IT_number 25
_symmetry_cell_setting 'orthorhombic'
loop_
_space_group_symop_operation_xyz
x,y,z
-x,-y,z
-x,y,z
x,-y,z
loop_
_atom_site_type_symbol
_atom_site_label
_atom_site_fract_x
_atom_site_fract_y
_atom_site_fract_z
Si Si1 0.340433 0.175824 0.056980
Si Si2 0.162664 0.327351 0.493450
Si Si3 0.832609 0.834106 0.637985
Si Si4 0.667218 0.171218 0.369519
Si Si5 0.163100 0.827722 0.922048
Si Si6 0.662001 0.827729 0.212417
Si Si7 0.167665 0.666157 0.778482
O O1 0.500000 0.232818 0.045892
O O2 0.275050 0.231278 0.135299
O O3 0.339340 0.000000 0.057226
O O4 0.244828 0.236360 0.991834
O O5 0.184293 0.500000 0.503473
O O6 0.219121 0.249572 0.566192
O O7 0.254327 0.271166 0.427031
O O8 0.000000 0.287566 0.479003
O O9 0.771281 0.751556 0.708627
O O10 0.000000 0.834136 0.641415
O O11 0.773336 0.000000 0.636678
O O12 0.500000 0.191546 0.376929
O O13 0.720188 0.231575 0.289810
O O14 0.707404 0.000000 0.381037
O O15 0.222039 0.745605 0.851150
O O16 0.000000 0.793537 0.934810
O O17 0.190592 0.000000 0.910629
O O18 0.500000 0.786996 0.207606
O O19 0.684308 0.000000 0.216952
O O20 0.225208 0.500000 0.777142
O O21 0.000000 0.668893 0.776528
#
# Coordination Sequence:
#
# PCOD8166596 Si02
#       7
#     4   4   4   4   4   4   4
#     4   8  13  23  41  63  86 113 144 178 218 262
#     4  10  20  32  46  67  96 126 154 186 227 275
#     4   9  16  27  45  67  89 114 147 187 226 262
#     4   9  17  30  49  71  93 119 154 194 233 274
#     4   9  16  25  39  62  89 112 139 179 220 255
#     4   7  11  22  41  64  87 111 143 183 222 260
#     4   9  16  26  41  61  86 116 147 177 214 263
#
# _framework density 17.601486000000001
#
# number of rings (size 3 to 8) (size 9 to 14) (size 15 to 20)
#    0.000    3.286    0.000    3.000    0.000    4.571 
#    0.000    0.714    0.000    4.714    0.000    6.000 
#    0.000    0.000    0.000    0.000    0.000    0.000 
#
# Total GULP energy -346891.678425 kJ/mol
# GULP energy per Si atom -12388.988515 kJ/mol
# Density = 1.756142 g / cm^3
# Si number density = 17.601486 Si / 1000 Ang^3
#
#
#
# Elastic Constant Matrix: (Units=GPa)
#
#
# Indices 1 2 3 4 5 6 
#
# 1 30.4922 22.4509 44.8536 0.0000 0.0000 0.0000
# 2 22.4509 76.6550 65.8181 0.0000 0.0000 0.0000
# 3 44.8536 65.8181 208.7509 0.0000 0.0000 0.0000
# 4 0.0000 0.0000 0.0000 5.6955 0.0000 0.0000
# 5 0.0000 0.0000 0.0000 0.0000 -6.0660 0.0000
# 6 0.0000 0.0000 0.0000 0.0000 0.0000 13.5400
#
#
#
# Elastic Compliance Matrix: (Units=1/GPa)
#
#
# Indices 1 2 3 4 5 6 
#
# 1 0.050969 -0.007576 -0.008563 0.000000 0.000000 0.000000
# 2 -0.007576 0.019014 -0.004367 0.000000 0.000000 0.000000
# 3 -0.008563 -0.004367 0.008007 0.000000 0.000000 0.000000
# 4 0.000000 0.000000 0.000000 0.175578 0.000000 0.000000
# 5 0.000000 0.000000 0.000000 0.000000 -0.164854 0.000000
# 6 0.000000 0.000000 0.000000 0.000000 0.000000 0.073855
#
#
# Mechanical properties :
#
#
# Convention : Reuss Voigt Hill
#
# Bulk Modulus (GPa) = 27.04251 64.68259 45.86255
# Shear Modulus (GPa) = 23.15808 14.81894 18.98851
#
# Velocity S-wave (km/s) = 3.63118 2.90472 3.28807
# Velocity P-wave (km/s) = 5.74262 6.93383 6.36615
#
# Compressibility (1/GPa) = 0.03697881
#
# Stress axis : x y z
#
# Youngs Moduli (GPa) = 19.61970 52.59257 124.88589
#
# Poissons Ratio (x) = 0.39842 1.06941
# Poissons Ratio (y) = 0.14863 0.54542
# Poissons Ratio (z) = 0.16800 0.22969
#
# Static dielectric constant tensor:
#      x y z
#    x 2.874480 0.000000 0.000000 
#    y 0.000000 3.045520 0.000000 
#    z 0.000000 0.000000 3.797340 
# 
# 
# High freq. dielectric constant tensor:
#      x y z
#    x 1.622790 0.000000 0.000000 
#    y 0.000000 1.652770 0.000000 
#    z 0.000000 0.000000 1.709520 
# 
# From -- ./inp_files/6228.got.cif
#   From: 2010.03.12/outbox.cif.g09.slc.cpg/sg25_4_cif.got.tgz:6228.got - 2010.04.14 03:30:10.
