data_PCOD8166727
_publ_section_title
;
Structure prediction by ZEFSAII (Michael W. Deem and Ramdas Pophale) SiO2 
 PCOD8166727
Probable space group: P M M 2
;
_chemical_formula_sum "Si O2"
_cell_formula_units_Z 16
_cell_length_a 7.792897
_cell_length_b 9.068064
_cell_length_c 11.924296
_cell_angle_alpha 90.000000
_cell_angle_beta 90.000000
_cell_angle_gamma 90.000000
_cell_volume 842.648129
_symmetry_space_group_name_H-M "P M M 2"
_symmetry_group_IT_number 25
_symmetry_cell_setting 'orthorhombic'
loop_
_space_group_symop_operation_xyz
x,y,z
-x,-y,z
-x,y,z
x,-y,z
loop_
_atom_site_type_symbol
_atom_site_label
_atom_site_fract_x
_atom_site_fract_y
_atom_site_fract_z
Si Si1 0.804811 0.660577 0.356090
Si Si2 0.311053 0.163712 0.151170
Si Si3 0.802645 0.828876 0.571734
Si Si4 0.500000 0.324700 0.973684
Si Si5 0.500000 0.171421 0.739455
O O1 0.713873 0.500000 0.341650
O O2 0.802737 0.750930 0.240627
O O3 0.726746 0.747118 0.461926
O O4 0.000000 0.635184 0.387288
O O5 0.500000 0.148562 0.205941
O O6 0.234463 0.000000 0.126446
O O7 0.329565 0.256872 0.034974
O O8 0.673979 0.789811 0.672537
O O9 0.000000 0.784733 0.603186
O O10 0.793579 0.000000 0.541996
O O11 0.500000 0.500000 0.984329
O O12 0.500000 0.276968 0.845796
O O13 0.500000 0.000000 0.775744
#
# Coordination Sequence:
#
# PCOD8166727 Si02
#       5
#     4   4   4   2   2
#     4  10  20  33  51  79 113 143 173 217 273 326
#     4   9  19  34  54  76 102 136 175 217 261 313
#     4   9  19  35  54  78 109 143 181 225 268 317
#     4  10  20  35  54  77 104 135 175 223 271 322
#     4  10  20  35  56  77 102 141 187 225 267 324
#
# _framework density 18.987757999999999
#
# number of rings (size 3 to 8) (size 9 to 14) (size 15 to 20)
#    0.750    1.750    0.000    2.250    1.750    2.500 
#    0.000    1.250    0.000    4.500    0.000    0.000 
#    0.000    0.000    0.000    0.000    0.000    0.000 
#
# Total GULP energy -198230.707875 kJ/mol
# GULP energy per Si atom -12389.419242 kJ/mol
# Density = 1.894454 g / cm^3
# Si number density = 18.987758 Si / 1000 Ang^3
#
#
#
# Elastic Constant Matrix: (Units=GPa)
#
#
# Indices 1 2 3 4 5 6 
#
# 1 57.2014 25.7675 33.6850 0.0000 0.0000 0.0000
# 2 25.7675 155.4892 85.1956 0.0000 0.0000 0.0000
# 3 33.6850 85.1956 141.6964 0.0000 0.0000 0.0000
# 4 0.0000 0.0000 0.0000 31.3809 0.0000 0.0000
# 5 0.0000 0.0000 0.0000 0.0000 22.4417 0.0000
# 6 0.0000 0.0000 0.0000 0.0000 0.0000 15.4854
#
#
#
# Elastic Compliance Matrix: (Units=1/GPa)
#
#
# Indices 1 2 3 4 5 6 
#
# 1 0.020449 -0.001081 -0.004211 0.000000 0.000000 0.000000
# 2 -0.001081 0.009648 -0.005544 0.000000 0.000000 0.000000
# 3 -0.004211 -0.005544 0.011392 0.000000 0.000000 0.000000
# 4 0.000000 0.000000 0.000000 0.031867 0.000000 0.000000
# 5 0.000000 0.000000 0.000000 0.000000 0.044560 0.000000
# 6 0.000000 0.000000 0.000000 0.000000 0.000000 0.064577
#
#
# Mechanical properties :
#
#
# Convention : Reuss Voigt Hill
#
# Bulk Modulus (GPa) = 50.46404 71.52035 60.99220
# Shear Modulus (GPa) = 23.72249 27.84419 25.78334
#
# Velocity S-wave (km/s) = 3.53846 3.83355 3.68896
# Velocity P-wave (km/s) = 6.58248 7.57253 7.09480
#
# Compressibility (1/GPa) = 0.01981609
#
# Stress axis : x y z
#
# Youngs Moduli (GPa) = 48.90195 103.64684 87.78311
#
# Poissons Ratio (x) = 0.11209 0.36966
# Poissons Ratio (y) = 0.05289 0.48666
# Poissons Ratio (z) = 0.20593 0.57461
#
# Static dielectric constant tensor:
#      x y z
#    x 3.332280 0.000000 0.000000 
#    y 0.000000 3.804050 0.000000 
#    z 0.000000 0.000000 3.209920 
# 
# 
# High freq. dielectric constant tensor:
#      x y z
#    x 1.712310 0.000000 0.000000 
#    y 0.000000 1.748240 0.000000 
#    z 0.000000 0.000000 1.724710 
# 
# From -- ./inp_files/3690.got.cif
#   From: 2010.03.12/outbox.cif.g09.slc.cpg/sg25_2_cif.got.tgz:3690.got - 2010.04.14 03:30:10.
