data_PCOD8166125
_publ_section_title
;
Structure prediction by ZEFSAII (Michael W. Deem and Ramdas Pophale) SiO2 
 PCOD8166125
Probable space group: I 21 21 21
;
_chemical_formula_sum "Si O2"
_cell_formula_units_Z 56
_cell_length_a 15.615639
_cell_length_b 14.701205
_cell_length_c 11.106553
_cell_angle_alpha 90.000000
_cell_angle_beta 90.000000
_cell_angle_gamma 90.000000
_cell_volume 2549.717046
_symmetry_space_group_name_H-M "I 21 21 21"
_symmetry_group_IT_number 24
_symmetry_cell_setting 'orthorhombic'
loop_
_space_group_symop_operation_xyz
x,y,z
-x,1/2-y,z
x,-y,1/2-z
1/2-x,y,-z
1/2+x,1/2+y,1/2+z
1/2-x,-y,1/2+z
1/2+x,1/2-y,-z
-x,1/2+y,1/2-z
loop_
_atom_site_type_symbol
_atom_site_label
_atom_site_fract_x
_atom_site_fract_y
_atom_site_fract_z
Si Si1 0.633217 0.290893 0.738741
Si Si2 0.798599 0.282781 0.874606
Si Si3 0.422655 0.949576 0.370713
Si Si4 0.102061 0.618712 0.588135
Si Si5 0.877711 0.914396 0.165094
Si Si6 0.063132 0.049123 0.381621
Si Si7 0.750000 0.014143 0.500000
Si Si8 0.000000 0.250000 0.085247
O O1 0.729838 0.313551 0.776208
O O2 0.616930 0.183589 0.725613
O O3 0.613274 0.354029 0.623495
O O4 0.562225 0.317444 0.839290
O O5 0.872854 0.355998 0.886362
O O6 0.843911 0.189151 0.829576
O O7 0.750000 0.264683 0.000000
O O8 0.523358 0.930389 0.345326
O O9 0.388598 0.000000 0.250000
O O10 0.402822 0.999971 0.497645
O O11 0.169553 0.545233 0.541904
O O12 0.061136 0.680037 0.483325
O O13 0.963833 0.931456 0.088876
O O14 0.869462 0.000000 0.250000
O O15 0.788522 0.915068 0.094458
O O16 0.077961 0.000000 0.250000
#
# Coordination Sequence:
#
# PCOD8166125 Si02
#       8
#     8   8   8   8   8   8   4   4
#     4  12  24  41  72 107 139 187 243 316 362 421
#     4  12  23  41  71 106 138 184 251 307 351 423
#     4  12  28  47  68 103 155 200 234 289 374 452
#     4  12  21  41  71 106 139 190 239 303 365 435
#     4  11  23  42  67 104 143 179 238 304 370 428
#     4  11  23  46  76 103 137 192 255 303 350 422
#     4  12  24  40  68 104 142 182 234 302 368 436
#     4  12  18  38  74 106 136 176 248 296 362 420
#
# _framework density 21.963221999999998
#
# number of rings (size 3 to 8) (size 9 to 14) (size 15 to 20)
#    0.000    0.286    6.429    3.429    0.000    3.429 
#    2.571    1.429    0.000    0.000    0.000    0.000 
#    0.000    0.000    0.000    0.000    0.000    0.000 
#
# Total GULP energy -346938.745682 kJ/mol
# GULP energy per Si atom -12390.669489 kJ/mol
# Density = 2.191323 g / cm^3
# Si number density = 21.963222 Si / 1000 Ang^3
#
#
#
# Elastic Constant Matrix: (Units=GPa)
#
#
# Indices 1 2 3 4 5 6 
#
# 1 92.7255 11.1764 19.1456 0.0000 0.0000 0.0000
# 2 11.1764 85.2849 34.5236 0.0000 0.0000 0.0000
# 3 19.1456 34.5236 84.9363 0.0000 0.0000 0.0000
# 4 0.0000 0.0000 0.0000 16.5585 0.0000 0.0000
# 5 0.0000 0.0000 0.0000 0.0000 -37.1674 0.0000
# 6 0.0000 0.0000 0.0000 0.0000 0.0000 41.8798
#
#
#
# Elastic Compliance Matrix: (Units=1/GPa)
#
#
# Indices 1 2 3 4 5 6 
#
# 1 0.011332 -0.000540 -0.002335 0.000000 0.000000 0.000000
# 2 -0.000540 0.014060 -0.005593 0.000000 0.000000 0.000000
# 3 -0.002335 -0.005593 0.014573 0.000000 0.000000 0.000000
# 4 0.000000 0.000000 0.000000 0.060392 0.000000 0.000000
# 5 0.000000 0.000000 0.000000 0.000000 -0.026905 0.000000
# 6 0.000000 0.000000 0.000000 0.000000 0.000000 0.023878
#
#
# Mechanical properties :
#
#
# Convention : Reuss Voigt Hill
#
# Bulk Modulus (GPa) = 43.42299 43.62643 43.52471
# Shear Modulus (GPa) = 41.00301 17.46093 29.23197
#
# Velocity S-wave (km/s) = 4.32544 2.82265 3.65218
# Velocity P-wave (km/s) = 6.69027 5.52536 6.13552
#
# Compressibility (1/GPa) = 0.02302927
#
# Stress axis : x y z
#
# Youngs Moduli (GPa) = 88.24812 71.12192 68.61849
#
# Poissons Ratio (x) = 0.03839 0.16021
# Poissons Ratio (y) = 0.04764 0.38381
# Poissons Ratio (z) = 0.20605 0.39781
#
# Static dielectric constant tensor:
#      x y z
#    x 5.003700 0.000000 0.000000 
#    y 0.000000 4.241830 0.000000 
#    z 0.000000 0.000000 3.679610 
# 
# 
# High freq. dielectric constant tensor:
#      x y z
#    x 1.886940 0.000000 0.000000 
#    y 0.000000 1.876740 0.000000 
#    z 0.000000 0.000000 1.821300 
# 
# From -- ./inp_files/20887.got.cif
#   From: 2010.03.12/outbox.cif.g09.slc.cpg/sg24_11_cif.got.tgz:20887.got - 2010.04.14 03:06:53.
