data_PCOD8166135
_publ_section_title
;
Structure prediction by ZEFSAII (Michael W. Deem and Ramdas Pophale) SiO2 
 PCOD8166135
Probable space group: I 21 21 21
;
_chemical_formula_sum "Si O2"
_cell_formula_units_Z 24
_cell_length_a 16.379038
_cell_length_b 5.080162
_cell_length_c 12.979254
_cell_angle_alpha 90.000000
_cell_angle_beta 90.000000
_cell_angle_gamma 90.000000
_cell_volume 1079.979927
_symmetry_space_group_name_H-M "I 21 21 21"
_symmetry_group_IT_number 24
_symmetry_cell_setting 'orthorhombic'
loop_
_space_group_symop_operation_xyz
x,y,z
-x,1/2-y,z
x,-y,1/2-z
1/2-x,y,-z
1/2+x,1/2+y,1/2+z
1/2-x,-y,1/2+z
1/2+x,1/2-y,-z
-x,1/2+y,1/2-z
loop_
_atom_site_type_symbol
_atom_site_label
_atom_site_fract_x
_atom_site_fract_y
_atom_site_fract_z
Si Si1 0.822517 0.000000 0.250000
Si Si2 0.556948 0.000625 0.563174
Si Si3 0.907477 0.834948 0.848707
Si Si4 0.213206 0.000000 0.750000
O O1 0.877860 0.050631 0.348838
O O2 0.769898 0.745445 0.279438
O O3 0.500000 0.750000 0.583621
O O4 0.500000 0.250000 0.559795
O O5 0.602909 0.991520 0.452424
O O6 0.845949 0.582791 0.846840
O O7 0.000000 0.750000 0.832859
O O8 0.878568 0.000000 0.750000
#
# Coordination Sequence:
#
# PCOD8166135 Si02
#       4
#     4   8   8   4
#     4  12  26  48  66 106 144 184 226 286 362 424
#     4  11  25  45  76 101 133 186 237 292 340 415
#     4  11  23  44  71  99 133 178 236 285 337 409
#     4  12  26  44  68 100 148 184 222 288 356 418
#
# _framework density 22.222635
#
# number of rings (size 3 to 8) (size 9 to 14) (size 15 to 20)
#    0.000    0.667    3.333    4.000    4.667    1.333 
#    6.000    0.000    0.000    0.000    0.000    0.000 
#    0.000    0.000    0.000    0.000    0.000    0.000 
#
# Total GULP energy -148755.579794 kJ/mol
# GULP energy per Si atom -12396.298316 kJ/mol
# Density = 2.217206 g / cm^3
# Si number density = 22.222635 Si / 1000 Ang^3
#
#
#
# Elastic Constant Matrix: (Units=GPa)
#
#
# Indices 1 2 3 4 5 6 
#
# 1 84.7912 29.2459 52.3692 0.0000 0.0000 0.0000
# 2 29.2459 116.8440 25.0652 0.0000 0.0000 0.0000
# 3 52.3692 25.0652 152.3833 0.0000 0.0000 0.0000
# 4 0.0000 0.0000 0.0000 32.6130 0.0000 0.0000
# 5 0.0000 0.0000 0.0000 0.0000 9.3610 0.0000
# 6 0.0000 0.0000 0.0000 0.0000 0.0000 31.8582
#
#
#
# Elastic Compliance Matrix: (Units=1/GPa)
#
#
# Indices 1 2 3 4 5 6 
#
# 1 0.015869 -0.002905 -0.004976 0.000000 0.000000 0.000000
# 2 -0.002905 0.009403 -0.000549 0.000000 0.000000 0.000000
# 3 -0.004976 -0.000549 0.008363 0.000000 0.000000 0.000000
# 4 0.000000 0.000000 0.000000 0.030663 0.000000 0.000000
# 5 0.000000 0.000000 0.000000 0.000000 0.106827 0.000000
# 6 0.000000 0.000000 0.000000 0.000000 0.000000 0.031389
#
#
# Mechanical properties :
#
#
# Convention : Reuss Voigt Hill
#
# Bulk Modulus (GPa) = 59.60618 63.04209 61.32414
# Shear Modulus (GPa) = 22.22591 31.25564 26.74077
#
# Velocity S-wave (km/s) = 3.16594 3.75437 3.47264
# Velocity P-wave (km/s) = 6.34388 6.87195 6.61319
#
# Compressibility (1/GPa) = 0.01677678
#
# Stress axis : x y z
#
# Youngs Moduli (GPa) = 63.01730 106.34814 119.57952
#
# Poissons Ratio (x) = 0.30889 0.59500
# Poissons Ratio (y) = 0.18303 0.06559
# Poissons Ratio (z) = 0.31356 0.05833
#
# Static dielectric constant tensor:
#      x y z
#    x 4.175680 0.000000 0.000000 
#    y 0.000000 4.209900 0.000000 
#    z 0.000000 0.000000 4.886740 
# 
# 
# High freq. dielectric constant tensor:
#      x y z
#    x 1.890230 0.000000 0.000000 
#    y 0.000000 1.889040 0.000000 
#    z 0.000000 0.000000 1.865300 
# 
# From -- ./inp_files/2934.got.cif
#   From: 2010.03.12/outbox.cif.g09.slc.cpg/sg24_2_cif.got.tgz:2934.got - 2010.04.14 03:06:53.
