data_PCOD8166947
_publ_section_title
;
Structure prediction by ZEFSAII (Michael W. Deem and Ramdas Pophale) SiO2 
 PCOD8166947
Probable space group: P M M 2
;
_chemical_formula_sum "Si O2"
_cell_formula_units_Z 24
_cell_length_a 18.680353
_cell_length_b 8.932013
_cell_length_c 7.497745
_cell_angle_alpha 90.000000
_cell_angle_beta 90.000000
_cell_angle_gamma 90.000000
_cell_volume 1251.022415
_symmetry_space_group_name_H-M "P M M 2"
_symmetry_group_IT_number 25
_symmetry_cell_setting 'orthorhombic'
loop_
_space_group_symop_operation_xyz
x,y,z
-x,-y,z
-x,y,z
x,-y,z
loop_
_atom_site_type_symbol
_atom_site_label
_atom_site_fract_x
_atom_site_fract_y
_atom_site_fract_z
Si Si1 0.674696 0.672876 0.464730
Si Si2 0.671496 0.176504 0.094232
Si Si3 0.179976 0.324741 0.055701
Si Si4 0.417028 0.326617 0.801402
Si Si5 0.161252 0.670954 0.460530
Si Si6 0.916359 0.172849 0.766944
O O1 0.660876 0.500000 0.414989
O O2 0.654474 0.770528 0.293774
O O3 0.625619 0.727412 0.626763
O O4 0.757006 0.697087 0.520553
O O5 0.745096 0.244137 0.018430
O O6 0.677769 0.000000 0.091205
O O7 0.606666 0.229121 0.969776
O O8 0.193995 0.500000 0.032513
O O9 0.151603 0.287360 0.253265
O O10 0.121067 0.271757 0.916923
O O11 0.500000 0.297711 0.764632
O O12 0.400647 0.500000 0.841699
O O13 0.138306 0.500000 0.496505
O O14 0.110502 0.780089 0.571576
O O15 0.000000 0.204541 0.778992
O O16 0.897959 0.000000 0.799008
#
# Coordination Sequence:
#
# PCOD8166947 Si02
#       6
#     4   4   4   4   4   4
#     4   9  19  37  59  83 110 143 188 236 277 324
#     4  11  22  36  58  86 115 147 182 228 285 337
#     4  10  21  39  62  84 108 144 191 237 275 321
#     4  10  21  37  58  83 113 152 193 231 273 325
#     4   9  19  36  59  83 107 142 188 234 276 323
#     4  11  24  38  54  82 119 153 182 221 278 337
#
# _framework density 19.184308000000001
#
# number of rings (size 3 to 8) (size 9 to 14) (size 15 to 20)
#    0.000    2.000    0.000    4.500    0.000    8.333 
#    0.000    5.000    0.000    0.000    0.000    0.000 
#    0.000    0.000    0.000    0.000    0.000    0.000 
#
# Total GULP energy -297734.327438 kJ/mol
# GULP energy per Si atom -12405.596977 kJ/mol
# Density = 1.914064 g / cm^3
# Si number density = 19.184308 Si / 1000 Ang^3
#
#
#
# Elastic Constant Matrix: (Units=GPa)
#
#
# Indices 1 2 3 4 5 6 
#
# 1 51.6363 28.2509 31.6529 0.0000 0.0000 0.0000
# 2 28.2509 88.2194 39.8935 0.0000 0.0000 0.0000
# 3 31.6529 39.8935 83.4319 0.0000 0.0000 0.0000
# 4 0.0000 0.0000 0.0000 14.5202 0.0000 0.0000
# 5 0.0000 0.0000 0.0000 0.0000 14.9023 0.0000
# 6 0.0000 0.0000 0.0000 0.0000 0.0000 26.7727
#
#
#
# Elastic Compliance Matrix: (Units=1/GPa)
#
#
# Indices 1 2 3 4 5 6 
#
# 1 0.026925 -0.005107 -0.007773 0.000000 0.000000 0.000000
# 2 -0.005107 0.015431 -0.005441 0.000000 0.000000 0.000000
# 3 -0.007773 -0.005441 0.017536 0.000000 0.000000 0.000000
# 4 0.000000 0.000000 0.000000 0.068870 0.000000 0.000000
# 5 0.000000 0.000000 0.000000 0.000000 0.067104 0.000000
# 6 0.000000 0.000000 0.000000 0.000000 0.000000 0.037352
#
#
# Mechanical properties :
#
#
# Convention : Reuss Voigt Hill
#
# Bulk Modulus (GPa) = 43.00984 46.98692 44.99838
# Shear Modulus (GPa) = 18.01084 19.47173 18.74129
#
# Velocity S-wave (km/s) = 3.06736 3.18933 3.12894
# Velocity P-wave (km/s) = 5.91717 6.17317 6.04652
#
# Compressibility (1/GPa) = 0.02325049
#
# Stress axis : x y z
#
# Youngs Moduli (GPa) = 37.13977 64.80294 57.02437
#
# Poissons Ratio (x) = 0.33098 0.44325
# Poissons Ratio (y) = 0.18969 0.31027
# Poissons Ratio (z) = 0.28868 0.35259
#
# Static dielectric constant tensor:
#      x y z
#    x 3.432930 0.000000 0.000000 
#    y 0.000000 3.459470 0.000000 
#    z 0.000000 0.000000 3.560370 
# 
# 
# High freq. dielectric constant tensor:
#      x y z
#    x 1.741260 0.000000 0.000000 
#    y 0.000000 1.744120 0.000000 
#    z 0.000000 0.000000 1.756830 
# 
# From -- ./inp_files/3343.got.cif
#   From: 2010.03.12/outbox.cif.g09.slc.cpg/sg25_2_cif.got.tgz:3343.got - 2010.04.14 03:30:10.
