data_PCOD8166033
_publ_section_title
;
Structure prediction by ZEFSAII (Michael W. Deem and Ramdas Pophale) SiO2 
 PCOD8166033
Probable space group: I 21 21 21
;
_chemical_formula_sum "Si O2"
_cell_formula_units_Z 48
_cell_length_a 10.393820
_cell_length_b 16.091594
_cell_length_c 14.053069
_cell_angle_alpha 90.000000
_cell_angle_beta 90.000000
_cell_angle_gamma 90.000000
_cell_volume 2350.419798
_symmetry_space_group_name_H-M "I 21 21 21"
_symmetry_group_IT_number 24
_symmetry_cell_setting 'orthorhombic'
loop_
_space_group_symop_operation_xyz
x,y,z
-x,1/2-y,z
x,-y,1/2-z
1/2-x,y,-z
1/2+x,1/2+y,1/2+z
1/2-x,-y,1/2+z
1/2+x,1/2-y,-z
-x,1/2+y,1/2-z
loop_
_atom_site_type_symbol
_atom_site_label
_atom_site_fract_x
_atom_site_fract_y
_atom_site_fract_z
Si Si1 0.144305 0.257533 0.426000
Si Si2 0.636726 0.641792 0.745373
Si Si3 0.561777 0.000000 0.750000
Si Si4 0.111901 0.810335 0.466274
Si Si5 0.607924 0.504607 0.462122
Si Si6 0.161952 0.000000 0.750000
Si Si7 0.637888 0.946993 0.935638
O O1 0.250000 0.221394 0.500000
O O2 0.157249 0.209212 0.326974
O O3 0.175141 0.353633 0.405712
O O4 0.000000 0.250000 0.468565
O O5 0.518778 0.582717 0.772550
O O6 0.609529 0.688765 0.647694
O O7 0.759382 0.583706 0.731958
O O8 0.645487 0.008850 0.844944
O O9 0.250000 0.775986 0.500000
O O10 0.084211 0.900246 0.510599
O O11 0.000000 0.750000 0.503962
O O12 0.750000 0.477001 0.500000
O O13 0.584627 0.489515 0.349030
O O14 0.502831 0.448427 0.515405
O O15 0.750000 0.984886 0.000000
#
# Coordination Sequence:
#
# PCOD8166033 Si02
#       7
#     8   8   4   8   8   4   8
#     4  11  25  41  63  98 134 171 212 269 336 390
#     4  11  21  40  69  96 122 172 232 267 308 392
#     4  11  20  39  68  92 118 178 228 260 312 392
#     4  11  23  43  65  99 132 170 221 268 329 388
#     4  11  22  44  69  99 128 173 229 268 321 392
#     4  11  22  37  74 102 122 168 228 288 312 378
#     4  11  25  42  64 100 138 170 212 275 339 393
#
# _framework density 20.421885
#
# number of rings (size 3 to 8) (size 9 to 14) (size 15 to 20)
#    0.000    1.000    6.667    1.500    2.333    1.333 
#    0.000    4.167    0.000    0.000    0.000    0.000 
#    0.000    0.000    0.000    0.000    0.000    0.000 
#
# Total GULP energy -297575.871175 kJ/mol
# GULP energy per Si atom -12398.994632 kJ/mol
# Density = 2.037540 g / cm^3
# Si number density = 20.421885 Si / 1000 Ang^3
#
#
#
# Elastic Constant Matrix: (Units=GPa)
#
#
# Indices 1 2 3 4 5 6 
#
# 1 96.0858 24.2902 37.8017 0.0000 0.0000 0.0000
# 2 24.2902 67.4380 27.8194 0.0000 0.0000 0.0000
# 3 37.8017 27.8194 163.6896 0.0001 0.0000 0.0000
# 4 0.0000 0.0000 0.0001 36.1267 0.0000 0.0000
# 5 0.0000 0.0000 0.0000 0.0000 29.9928 0.0000
# 6 0.0000 0.0000 0.0000 0.0000 0.0000 44.1262
#
#
#
# Elastic Compliance Matrix: (Units=1/GPa)
#
#
# Indices 1 2 3 4 5 6 
#
# 1 0.012156 -0.003463 -0.002219 0.000000 0.000000 0.000000
# 2 -0.003463 0.016933 -0.002078 0.000000 0.000000 0.000000
# 3 -0.002219 -0.002078 0.006975 0.000000 0.000000 0.000000
# 4 0.000000 0.000000 0.000000 0.027680 0.000000 0.000000
# 5 0.000000 0.000000 0.000000 0.000000 0.033341 0.000000
# 6 0.000000 0.000000 0.000000 0.000000 0.000000 0.022662
#
#
# Mechanical properties :
#
#
# Convention : Reuss Voigt Hill
#
# Bulk Modulus (GPa) = 48.67641 56.33735 52.50688
# Shear Modulus (GPa) = 35.18284 37.86928 36.52606
#
# Velocity S-wave (km/s) = 4.15517 4.31089 4.23374
# Velocity P-wave (km/s) = 6.84892 7.24051 7.04743
#
# Compressibility (1/GPa) = 0.02054383
#
# Stress axis : x y z
#
# Youngs Moduli (GPa) = 82.26626 59.05626 143.37643
#
# Poissons Ratio (x) = 0.20452 0.31810
# Poissons Ratio (y) = 0.28489 0.29794
# Poissons Ratio (z) = 0.18252 0.12272
#
# Static dielectric constant tensor:
#      x y z
#    x 3.735670 0.000000 0.000000 
#    y 0.000000 3.581680 0.000000 
#    z 0.000000 0.000000 3.887500 
# 
# 
# High freq. dielectric constant tensor:
#      x y z
#    x 1.780380 0.000000 0.000000 
#    y 0.000000 1.796280 0.000000 
#    z 0.000000 0.000000 1.811820 
# 
# From -- ./inp_files/25766.got.cif
#   From: 2010.03.12/outbox.cif.g09.slc.cpg/sg24_13_cif.got.tgz:25766.got - 2010.04.14 03:06:53.
