data_PCOD8166368
_publ_section_title
;
Structure prediction by ZEFSAII (Michael W. Deem and Ramdas Pophale) SiO2 
 PCOD8166368
Probable space group: P M M 2
;
_chemical_formula_sum "Si O2"
_cell_formula_units_Z 24
_cell_length_a 11.910849
_cell_length_b 9.391183
_cell_length_c 12.443414
_cell_angle_alpha 90.000000
_cell_angle_beta 90.000000
_cell_angle_gamma 90.000000
_cell_volume 1391.882495
_symmetry_space_group_name_H-M "P M M 2"
_symmetry_group_IT_number 25
_symmetry_cell_setting 'orthorhombic'
loop_
_space_group_symop_operation_xyz
x,y,z
-x,-y,z
-x,y,z
x,-y,z
loop_
_atom_site_type_symbol
_atom_site_label
_atom_site_fract_x
_atom_site_fract_y
_atom_site_fract_z
Si Si1 0.871892 0.340528 0.250000
Si Si2 0.233398 0.340832 0.638294
Si Si3 0.000000 0.349375 0.747940
Si Si4 0.000000 0.166540 0.942223
Si Si5 0.869852 0.167381 0.459010
Si Si6 0.625151 0.331555 0.841085
Si Si7 0.206361 0.663095 0.023157
O O1 0.860359 0.500000 0.298201
O O2 0.843122 0.226472 0.340722
O O3 0.782031 0.322142 0.152298
O O4 0.000000 0.318186 0.207262
O O5 0.276512 0.500000 0.605843
O O6 0.106672 0.350373 0.674036
O O7 0.225458 0.235885 0.536386
O O8 0.308981 0.274899 0.735143
O O9 0.000000 0.207246 0.817506
O O10 0.000000 0.500000 0.815470
O O11 0.109747 0.229384 0.994115
O O12 0.000000 0.000000 0.957836
O O13 0.000000 0.203063 0.490448
O O14 0.849785 0.000000 0.458810
O O15 0.500000 0.265653 0.842274
O O16 0.620259 0.500000 0.832056
O O17 0.684756 0.289283 0.953986
O O18 0.175014 0.500000 0.993083
#
# Coordination Sequence:
#
# PCOD8166368 Si02
#       7
#     4   4   2   2   4   4   4
#     4   9  17  29  48  71  98 133 171 201 237 300
#     4  10  18  30  51  72  98 131 166 203 245 301
#     4  10  18  30  47  70  97 132 167 199 249 305
#     4  12  22  28  43  74 107 134 165 203 247 303
#     4  10  20  31  45  70 106 136 163 201 246 296
#     4   9  18  32  53  79 101 126 166 217 262 296
#     4  10  18  33  53  73 102 136 169 204 250 306
#
# _framework density 17.242834999999999
#
# number of rings (size 3 to 8) (size 9 to 14) (size 15 to 20)
#    0.000    2.167    3.333    1.250    0.000    2.000 
#    0.000    0.000    0.000    3.000    0.000    4.667 
#    0.000    0.000    0.000    0.000    0.000    0.000 
#
# Total GULP energy -297339.841620 kJ/mol
# GULP energy per Si atom -12389.160067 kJ/mol
# Density = 1.720359 g / cm^3
# Si number density = 17.242835 Si / 1000 Ang^3
#
#
#
# Elastic Constant Matrix: (Units=GPa)
#
#
# Indices 1 2 3 4 5 6 
#
# 1 90.2268 30.6898 48.6644 0.0000 0.0000 0.0000
# 2 30.6898 83.6865 46.2461 0.0000 0.0000 0.0000
# 3 48.6644 46.2461 116.2407 0.0000 0.0000 0.0000
# 4 0.0000 0.0000 0.0000 8.5863 0.0000 0.0000
# 5 0.0000 0.0000 0.0000 0.0000 10.2501 0.0000
# 6 0.0000 0.0000 0.0000 0.0000 0.0000 5.1237
#
#
#
# Elastic Compliance Matrix: (Units=1/GPa)
#
#
# Indices 1 2 3 4 5 6 
#
# 1 0.014730 -0.002556 -0.005150 0.000000 0.000000 0.000000
# 2 -0.002556 0.015760 -0.005200 0.000000 0.000000 0.000000
# 3 -0.005150 -0.005200 0.012828 0.000000 0.000000 0.000000
# 4 0.000000 0.000000 0.000000 0.116465 0.000000 0.000000
# 5 0.000000 0.000000 0.000000 0.000000 0.097560 0.000000
# 6 0.000000 0.000000 0.000000 0.000000 0.000000 0.195173
#
#
# Mechanical properties :
#
#
# Convention : Reuss Voigt Hill
#
# Bulk Modulus (GPa) = 57.12279 60.15051 58.63665
# Shear Modulus (GPa) = 10.32711 15.76228 13.04469
#
# Velocity S-wave (km/s) = 2.44994 3.02675 2.75349
# Velocity P-wave (km/s) = 6.41898 6.86841 6.64749
#
# Compressibility (1/GPa) = 0.01750615
#
# Stress axis : x y z
#
# Youngs Moduli (GPa) = 67.88760 63.45034 77.95610
#
# Poissons Ratio (x) = 0.16218 0.40147
# Poissons Ratio (y) = 0.17352 0.40538
# Poissons Ratio (z) = 0.34962 0.32995
#
# Static dielectric constant tensor:
#      x y z
#    x 3.130160 0.000000 0.000000 
#    y 0.000000 3.150900 0.000000 
#    z 0.000000 0.000000 3.298910 
# 
# 
# High freq. dielectric constant tensor:
#      x y z
#    x 1.624240 0.000000 0.000000 
#    y 0.000000 1.645880 0.000000 
#    z 0.000000 0.000000 1.669310 
# 
# From -- ./inp_files/4567.got.cif
#   From: 2010.03.12/outbox.cif.g09.slc.cpg/sg25_3_cif.got.tgz:4567.got - 2010.04.14 03:30:10.
