data_PCOD8166307
_publ_section_title
;
Structure prediction by ZEFSAII (Michael W. Deem and Ramdas Pophale) SiO2 
 PCOD8166307
Probable space group: P M M 2
;
_chemical_formula_sum "Si O2"
_cell_formula_units_Z 32
_cell_length_a 9.042238
_cell_length_b 18.138295
_cell_length_c 11.437801
_cell_angle_alpha 90.000000
_cell_angle_beta 90.000000
_cell_angle_gamma 90.000000
_cell_volume 1875.922667
_symmetry_space_group_name_H-M "P M M 2"
_symmetry_group_IT_number 25
_symmetry_cell_setting 'orthorhombic'
loop_
_space_group_symop_operation_xyz
x,y,z
-x,-y,z
-x,y,z
x,-y,z
loop_
_atom_site_type_symbol
_atom_site_label
_atom_site_fract_x
_atom_site_fract_y
_atom_site_fract_z
Si Si1 0.837530 0.364554 0.801250
Si Si2 0.673760 0.419808 0.009472
Si Si3 0.830835 0.718170 0.591103
Si Si4 0.829752 0.081500 0.488901
Si Si5 0.831358 0.225246 0.348761
Si Si6 0.324691 0.268684 0.116943
Si Si7 0.326193 0.853357 0.695735
Si Si8 0.166737 0.202293 0.907046
O O1 0.801601 0.359245 0.660943
O O2 0.831667 0.280498 0.843487
O O3 0.000000 0.398711 0.821969
O O4 0.723189 0.413351 0.873840
O O5 0.500000 0.416488 0.009055
O O6 0.727587 0.500000 0.057947
O O7 0.735119 0.351798 0.086856
O O8 0.814976 0.712686 0.450851
O O9 0.710084 0.776123 0.634367
O O10 0.000000 0.744785 0.620206
O O11 0.782069 0.144491 0.396332
O O12 0.736386 0.084028 0.609087
O O13 0.000000 0.095511 0.522640
O O14 0.806398 0.000000 0.433333
O O15 0.721296 0.249092 0.247446
O O16 0.000000 0.222934 0.302198
O O17 0.500000 0.264563 0.104165
O O18 0.252974 0.209189 0.029740
O O19 0.500000 0.863317 0.712750
O O20 0.249244 0.856907 0.823727
O O21 0.000000 0.175188 0.932052
#
# Coordination Sequence:
#
# PCOD8166307 Si02
#       8
#     4   4   4   4   4   4   4   4
#     4   8  14  25  43  66  87 109 141 182 225 268
#     4   9  18  31  45  63  90 122 153 189 237 292
#     4   8  15  28  44  63  89 119 149 181 221 273
#     4   9  18  33  51  69  92 125 161 193 231 285
#     4   9  17  30  48  69  93 123 159 197 233 274
#     4  10  19  30  46  69  94 122 160 203 242 280
#     4  10  17  25  42  69  96 117 142 182 230 273
#     4   9  16  28  45  64  89 119 149 183 225 274
#
# _framework density 17.058271999999999
#
# number of rings (size 3 to 8) (size 9 to 14) (size 15 to 20)
#    0.000    3.000    0.000    3.375    0.000    6.000 
#    0.000    0.000    0.000    1.500    0.000    5.250 
#    0.000    0.000    0.000    0.000    0.000    0.000 
#
# Total GULP energy -396442.062081 kJ/mol
# GULP energy per Si atom -12388.814440 kJ/mol
# Density = 1.701945 g / cm^3
# Si number density = 17.058272 Si / 1000 Ang^3
#
#
#
# Elastic Constant Matrix: (Units=GPa)
#
#
# Indices 1 2 3 4 5 6 
#
# 1 66.7237 23.6292 37.5431 0.0000 0.0000 0.0000
# 2 23.6292 65.5669 39.6028 0.0000 0.0000 0.0000
# 3 37.5431 39.6028 110.2179 0.0000 0.0000 0.0000
# 4 0.0000 0.0000 0.0000 16.2752 0.0000 0.0000
# 5 0.0000 0.0000 0.0000 0.0000 28.8116 0.0000
# 6 0.0000 0.0000 0.0000 0.0000 0.0000 15.9221
#
#
#
# Elastic Compliance Matrix: (Units=1/GPa)
#
#
# Indices 1 2 3 4 5 6 
#
# 1 0.019256 -0.003803 -0.005192 0.000000 0.000000 0.000000
# 2 -0.003803 0.020230 -0.005974 0.000000 0.000000 0.000000
# 3 -0.005192 -0.005974 0.012988 0.000000 0.000000 0.000000
# 4 0.000000 0.000000 0.000000 0.061443 0.000000 0.000000
# 5 0.000000 0.000000 0.000000 0.000000 0.034708 0.000000
# 6 0.000000 0.000000 0.000000 0.000000 0.000000 0.062806
#
#
# Mechanical properties :
#
#
# Convention : Reuss Voigt Hill
#
# Bulk Modulus (GPa) = 44.37428 49.33987 46.85708
# Shear Modulus (GPa) = 20.08991 21.65066 20.87029
#
# Velocity S-wave (km/s) = 3.43552 3.56647 3.50161
# Velocity P-wave (km/s) = 6.46582 6.77840 6.62396
#
# Compressibility (1/GPa) = 0.02253558
#
# Stress axis : x y z
#
# Youngs Moduli (GPa) = 51.93287 49.43092 76.99409
#
# Poissons Ratio (x) = 0.18799 0.39979
# Poissons Ratio (y) = 0.19751 0.45993
# Poissons Ratio (z) = 0.26966 0.29528
#
# Static dielectric constant tensor:
#      x y z
#    x 3.139590 0.000000 0.000000 
#    y 0.000000 3.126040 0.000000 
#    z 0.000000 0.000000 3.259730 
# 
# 
# High freq. dielectric constant tensor:
#      x y z
#    x 1.657360 0.000000 0.000000 
#    y 0.000000 1.617020 0.000000 
#    z 0.000000 0.000000 1.647760 
# 
# From -- ./inp_files/4418.got.cif
#   From: 2010.03.12/outbox.cif.g09.slc.cpg/sg25_3_cif.got.tgz:4418.got - 2010.04.14 03:30:10.
