data_PCOD8166439
_publ_section_title
;
Structure prediction by ZEFSAII (Michael W. Deem and Ramdas Pophale) SiO2 
 PCOD8166439
Probable space group: P M M 2
;
_chemical_formula_sum "Si O2"
_cell_formula_units_Z 32
_cell_length_a 9.219062
_cell_length_b 14.310307
_cell_length_c 15.643108
_cell_angle_alpha 90.000000
_cell_angle_beta 90.000000
_cell_angle_gamma 90.000000
_cell_volume 2063.757812
_symmetry_space_group_name_H-M "P M M 2"
_symmetry_group_IT_number 25
_symmetry_cell_setting 'orthorhombic'
loop_
_space_group_symop_operation_xyz
x,y,z
-x,-y,z
-x,y,z
x,-y,z
loop_
_atom_site_type_symbol
_atom_site_label
_atom_site_fract_x
_atom_site_fract_y
_atom_site_fract_z
Si Si1 0.330957 0.390738 0.942610
Si Si2 0.172547 0.395974 0.633515
Si Si3 0.172652 0.279590 0.794868
Si Si4 0.327760 0.707166 0.115528
Si Si5 0.161320 0.611253 0.447082
Si Si6 0.327786 0.898558 0.045962
Si Si7 0.670465 0.607940 0.283699
Si Si8 0.331894 0.893928 0.850495
O O1 0.500000 0.366965 0.927859
O O2 0.299792 0.500000 0.934873
O O3 0.236322 0.337402 0.873362
O O4 0.279719 0.356952 0.036077
O O5 0.235414 0.500000 0.651491
O O6 0.227520 0.326881 0.707118
O O7 0.224146 0.358104 0.540147
O O8 0.000000 0.401613 0.632115
O O9 0.233863 0.174369 0.793465
O O10 0.000000 0.278401 0.801863
O O11 0.500000 0.707544 0.121029
O O12 0.267530 0.813273 0.103469
O O13 0.264240 0.664811 0.203163
O O14 0.157293 0.500000 0.445994
O O15 0.261447 0.649442 0.370620
O O16 0.000000 0.651806 0.432940
O O17 0.500000 0.900584 0.049511
O O18 0.267746 0.000000 0.077817
O O19 0.280949 0.881574 0.948318
O O20 0.500000 0.621169 0.291188
O O21 0.712470 0.500000 0.270208
O O22 0.500000 0.866344 0.840459
O O23 0.305492 0.000000 0.819668
#
# Coordination Sequence:
#
# PCOD8166439 Si02
#       8
#     4   4   4   4   4   4   4   4
#     4  10  19  30  43  59  85 123 159 181 203 251
#     4   8  15  28  44  61  84 116 149 176 210 259
#     4  11  20  29  44  66  91 116 144 183 225 261
#     4   9  15  25  41  60  84 113 145 176 209 256
#     4   8  14  27  45  60  77 107 144 177 208 249
#     4   8  13  23  42  63  79 102 141 183 212 241
#     4   9  16  25  39  61  86 109 135 173 218 253
#     4   9  17  31  49  65  84 113 149 186 220 257
#
# _framework density 15.505694999999999
#
# number of rings (size 3 to 8) (size 9 to 14) (size 15 to 20)
#    0.000    3.000    1.250    2.625    0.000    2.500 
#    0.000    1.875    0.000    4.500    0.000    0.875 
#    0.000    3.000    0.000    0.000    0.000    0.000 
#
# Total GULP energy -396589.917930 kJ/mol
# GULP energy per Si atom -12393.434935 kJ/mol
# Density = 1.547040 g / cm^3
# Si number density = 15.505695 Si / 1000 Ang^3
#
#
#
# Elastic Constant Matrix: (Units=GPa)
#
#
# Indices 1 2 3 4 5 6 
#
# 1 32.3395 29.5887 33.4832 0.0000 0.0000 0.0000
# 2 29.5887 99.5055 60.5220 0.0000 0.0000 0.0000
# 3 33.4832 60.5220 130.7549 0.0000 0.0000 0.0000
# 4 0.0000 0.0000 0.0000 11.8937 0.0000 0.0000
# 5 0.0000 0.0000 0.0000 0.0000 21.6244 0.0000
# 6 0.0000 0.0000 0.0000 0.0000 0.0000 16.4233
#
#
#
# Elastic Compliance Matrix: (Units=1/GPa)
#
#
# Indices 1 2 3 4 5 6 
#
# 1 0.047646 -0.009391 -0.007854 0.000000 0.000000 0.000000
# 2 -0.009391 0.015838 -0.004926 0.000000 0.000000 0.000000
# 3 -0.007854 -0.004926 0.011939 0.000000 0.000000 0.000000
# 4 0.000000 0.000000 0.000000 0.084078 0.000000 0.000000
# 5 0.000000 0.000000 0.000000 0.000000 0.046244 0.000000
# 6 0.000000 0.000000 0.000000 0.000000 0.000000 0.060889
#
#
# Mechanical properties :
#
#
# Convention : Reuss Voigt Hill
#
# Bulk Modulus (GPa) = 32.17385 56.64309 44.40847
# Shear Modulus (GPa) = 15.55992 19.25533 17.40763
#
# Velocity S-wave (km/s) = 3.17124 3.52777 3.35425
# Velocity P-wave (km/s) = 5.84840 7.29407 6.61087
#
# Compressibility (1/GPa) = 0.03108114
#
# Stress axis : x y z
#
# Youngs Moduli (GPa) = 20.98809 63.13763 83.75582
#
# Poissons Ratio (x) = 0.59290 0.65785
# Poissons Ratio (y) = 0.19709 0.41261
# Poissons Ratio (z) = 0.16485 0.31104
#
# Static dielectric constant tensor:
#      x y z
#    x 2.693890 0.000000 0.000000 
#    y 0.000000 3.138220 0.000000 
#    z 0.000000 0.000000 3.197460 
# 
# 
# High freq. dielectric constant tensor:
#      x y z
#    x 1.560770 0.000000 0.000000 
#    y 0.000000 1.582210 0.000000 
#    z 0.000000 0.000000 1.587280 
# 
# From -- ./inp_files/5673.got.cif
#   From: 2010.03.12/outbox.cif.g09.slc.cpg/sg25_3_cif.got.tgz:5673.got - 2010.04.14 03:30:10.
