data_PCOD8166517
_publ_section_title
;
Structure prediction by ZEFSAII (Michael W. Deem and Ramdas Pophale) SiO2 
 PCOD8166517
Probable space group: P M M 2
;
_chemical_formula_sum "Si O2"
_cell_formula_units_Z 12
_cell_length_a 9.056777
_cell_length_b 7.858464
_cell_length_c 9.353857
_cell_angle_alpha 90.000000
_cell_angle_beta 90.000000
_cell_angle_gamma 90.000000
_cell_volume 665.736040
_symmetry_space_group_name_H-M "P M M 2"
_symmetry_group_IT_number 25
_symmetry_cell_setting 'orthorhombic'
loop_
_space_group_symop_operation_xyz
x,y,z
-x,-y,z
-x,y,z
x,-y,z
loop_
_atom_site_type_symbol
_atom_site_label
_atom_site_fract_x
_atom_site_fract_y
_atom_site_fract_z
Si Si1 0.175280 0.000000 0.480891
Si Si2 0.830051 0.689039 0.292042
Si Si3 0.824210 0.000000 0.804217
Si Si4 0.664641 0.188093 0.030033
O O1 0.233477 0.170642 0.401975
O O2 0.235233 0.000000 0.642318
O O3 0.000000 0.000000 0.485123
O O4 0.812226 0.500000 0.359182
O O5 0.743711 0.689080 0.142148
O O6 0.000000 0.730686 0.257697
O O7 0.759015 0.169711 0.882514
O O8 0.000000 0.000000 0.814995
O O9 0.500000 0.257335 0.995806
O O10 0.655902 0.000000 0.101234
#
# Coordination Sequence:
#
# PCOD8166517 Si02
#       4
#     2   4   2   4
#     4   9  17  31  50  74 106 133 162 209 254 296
#     4  10  19  32  54  79 101 131 169 208 251 299
#     4   9  16  29  52  74  98 137 172 205 250 298
#     4   9  18  32  50  74 100 132 168 205 249 294
#
# _framework density 18.025164
#
# number of rings (size 3 to 8) (size 9 to 14) (size 15 to 20)
#    1.000    1.667    1.667    1.000    0.000    0.667 
#    0.000    5.000    0.000    6.000    0.000    0.000 
#    0.000    0.000    0.000    0.000    0.000    0.000 
#
# Total GULP energy -148674.368838 kJ/mol
# GULP energy per Si atom -12389.530736 kJ/mol
# Density = 1.798414 g / cm^3
# Si number density = 18.025164 Si / 1000 Ang^3
#
#
#
# Elastic Constant Matrix: (Units=GPa)
#
#
# Indices 1 2 3 4 5 6 
#
# 1 88.0613 24.2522 47.8280 0.0000 0.0000 0.0000
# 2 24.2522 93.9722 52.9986 0.0000 0.0000 0.0000
# 3 47.8280 52.9986 143.7433 0.0000 0.0000 0.0000
# 4 0.0000 0.0000 0.0000 13.1692 0.0000 0.0000
# 5 0.0000 0.0000 0.0000 0.0000 7.1539 0.0000
# 6 0.0000 0.0000 0.0000 0.0000 0.0000 12.8621
#
#
#
# Elastic Compliance Matrix: (Units=1/GPa)
#
#
# Indices 1 2 3 4 5 6 
#
# 1 0.013974 -0.001243 -0.004192 0.000000 0.000000 0.000000
# 2 -0.001243 0.013546 -0.004581 0.000000 0.000000 0.000000
# 3 -0.004192 -0.004581 0.010041 0.000000 0.000000 0.000000
# 4 0.000000 0.000000 0.000000 0.075935 0.000000 0.000000
# 5 0.000000 0.000000 0.000000 0.000000 0.139783 0.000000
# 6 0.000000 0.000000 0.000000 0.000000 0.000000 0.077748
#
#
# Mechanical properties :
#
#
# Convention : Reuss Voigt Hill
#
# Bulk Modulus (GPa) = 57.04321 63.99270 60.51795
# Shear Modulus (GPa) = 14.00954 20.01693 17.01324
#
# Velocity S-wave (km/s) = 2.79089 3.33603 3.07556
# Velocity P-wave (km/s) = 6.48850 7.10055 6.80141
#
# Compressibility (1/GPa) = 0.01753057
#
# Stress axis : x y z
#
# Youngs Moduli (GPa) = 71.55904 73.82438 99.59633
#
# Poissons Ratio (x) = 0.09173 0.41747
# Poissons Ratio (y) = 0.08891 0.45624
# Poissons Ratio (z) = 0.29995 0.33818
#
# Static dielectric constant tensor:
#      x y z
#    x 3.171980 0.000000 0.000000 
#    y 0.000000 3.133220 0.000000 
#    z 0.000000 0.000000 3.215180 
# 
# 
# High freq. dielectric constant tensor:
#      x y z
#    x 1.686920 0.000000 0.000000 
#    y 0.000000 1.676170 0.000000 
#    z 0.000000 0.000000 1.679580 
# 
# From -- ./inp_files/1390.got.cif
#   From: 2010.03.12/outbox.cif.g09.slc.cpg/sg25_1_cif.got.tgz:1390.got - 2010.04.14 03:30:10.
