data_PCOD8166156
_publ_section_title
;
Structure prediction by ZEFSAII (Michael W. Deem and Ramdas Pophale) SiO2 
 PCOD8166156
Probable space group: I 21 21 21
;
_chemical_formula_sum "Si O2"
_cell_formula_units_Z 32
_cell_length_a 4.938221
_cell_length_b 23.033140
_cell_length_c 12.588956
_cell_angle_alpha 90.000000
_cell_angle_beta 90.000000
_cell_angle_gamma 90.000000
_cell_volume 1431.902294
_symmetry_space_group_name_H-M "I 21 21 21"
_symmetry_group_IT_number 24
_symmetry_cell_setting 'orthorhombic'
loop_
_space_group_symop_operation_xyz
x,y,z
-x,1/2-y,z
x,-y,1/2-z
1/2-x,y,-z
1/2+x,1/2+y,1/2+z
1/2-x,-y,1/2+z
1/2+x,1/2-y,-z
-x,1/2+y,1/2-z
loop_
_atom_site_type_symbol
_atom_site_label
_atom_site_fract_x
_atom_site_fract_y
_atom_site_fract_z
Si Si1 0.807149 0.363770 0.809986
Si Si2 0.000000 0.250000 0.928439
Si Si3 0.296009 0.380214 0.672045
Si Si4 0.750000 0.024753 0.500000
Si Si5 0.250000 0.054806 0.000000
Si Si6 0.250000 0.710793 0.000000
O O1 0.581374 0.359016 0.718968
O O2 0.680409 0.404203 0.900796
O O3 0.883696 0.300764 0.854876
O O4 0.077832 0.393254 0.763484
O O5 0.250000 0.273646 0.000000
O O6 0.340223 0.437399 0.601334
O O7 0.172609 0.328806 0.600443
O O8 0.500846 0.984765 0.467837
O O9 0.500000 0.750000 0.967973
#
# Coordination Sequence:
#
# PCOD8166156 Si02
#       6
#     8   4   8   4   4   4
#     4  12  26  44  71 104 137 181 233 279 349 426
#     4  12  26  46  70 100 150 186 226 296 350 412
#     4  11  26  45  68 102 137 178 233 287 350 410
#     4  11  26  48  71  97 142 178 231 304 340 404
#     4  12  26  45  71 101 135 186 234 284 352 414
#     4  11  24  43  66  98 135 180 231 282 342 416
#
# _framework density 22.347894
#
# number of rings (size 3 to 8) (size 9 to 14) (size 15 to 20)
#    0.000    0.500    1.250    6.000    7.000   10.000 
#    0.000    0.000    0.000    0.000    0.000    0.000 
#    0.000    0.000    0.000    0.000    0.000    0.000 
#
# Total GULP energy -198520.489179 kJ/mol
# GULP energy per Si atom -12407.530574 kJ/mol
# Density = 2.229703 g / cm^3
# Si number density = 22.347894 Si / 1000 Ang^3
#
#
#
# Elastic Constant Matrix: (Units=GPa)
#
#
# Indices 1 2 3 4 5 6 
#
# 1 131.8965 34.4210 36.8389 0.0000 0.0000 0.0000
# 2 34.4210 122.4308 57.4589 -0.0002 0.0000 0.0000
# 3 36.8389 57.4589 109.9059 -0.0005 0.0000 0.0000
# 4 0.0000 -0.0002 -0.0005 19.8373 0.0000 -0.0001
# 5 0.0000 0.0000 0.0000 0.0000 51.2677 0.0000
# 6 0.0000 0.0000 0.0000 -0.0001 0.0000 36.4803
#
#
#
# Elastic Compliance Matrix: (Units=1/GPa)
#
#
# Indices 1 2 3 4 5 6 
#
# 1 0.008543 -0.001402 -0.002130 0.000000 0.000000 0.000000
# 2 -0.001402 0.011054 -0.005309 0.000000 0.000000 0.000000
# 3 -0.002130 -0.005309 0.012588 0.000000 0.000000 0.000000
# 4 0.000000 0.000000 0.000000 0.050410 0.000000 0.000000
# 5 0.000000 0.000000 0.000000 0.000000 0.019505 0.000000
# 6 0.000000 0.000000 0.000000 0.000000 0.000000 0.027412
#
#
# Mechanical properties :
#
#
# Convention : Reuss Voigt Hill
#
# Bulk Modulus (GPa) = 68.95618 69.07454 69.01536
# Shear Modulus (GPa) = 32.88856 37.21803 35.05329
#
# Velocity S-wave (km/s) = 3.84039 4.08535 3.96476
# Velocity P-wave (km/s) = 7.11249 7.29584 7.20475
#
# Compressibility (1/GPa) = 0.01450196
#
# Stress axis : x y z
#
# Youngs Moduli (GPa) = 117.06054 90.46836 79.43874
#
# Poissons Ratio (x) = 0.12682 0.16924
# Poissons Ratio (y) = 0.16410 0.42174
# Poissons Ratio (z) = 0.24939 0.48029
#
# Static dielectric constant tensor:
#      x y z
#    x 3.761290 0.000000 0.000000 
#    y 0.000000 3.991650 0.000000 
#    z 0.000000 0.000000 4.128970 
# 
# 
# High freq. dielectric constant tensor:
#      x y z
#    x 1.890880 0.000000 0.000000 
#    y 0.000000 1.885630 0.000000 
#    z 0.000000 0.000000 1.892580 
# 
# From -- ./inp_files/2053.got.cif
#   From: 2010.03.12/outbox.cif.g09.slc.cpg/sg24_2_cif.got.tgz:2053.got - 2010.04.14 03:06:53.
