data_PCOD8166956
_publ_section_title
;
Structure prediction by ZEFSAII (Michael W. Deem and Ramdas Pophale) SiO2 
 PCOD8166956
Probable space group: P M M 2
;
_chemical_formula_sum "Si O2"
_cell_formula_units_Z 20
_cell_length_a 8.937091
_cell_length_b 7.476664
_cell_length_c 14.840821
_cell_angle_alpha 90.000000
_cell_angle_beta 90.000000
_cell_angle_gamma 90.000000
_cell_volume 991.658117
_symmetry_space_group_name_H-M "P M M 2"
_symmetry_group_IT_number 25
_symmetry_cell_setting 'orthorhombic'
loop_
_space_group_symop_operation_xyz
x,y,z
-x,-y,z
-x,y,z
x,-y,z
loop_
_atom_site_type_symbol
_atom_site_label
_atom_site_fract_x
_atom_site_fract_y
_atom_site_fract_z
Si Si1 0.331849 0.712698 0.993750
Si Si2 0.324656 0.708418 0.352050
Si Si3 0.167768 0.287836 0.169598
Si Si4 0.176349 0.703426 0.812190
Si Si5 0.823004 0.000000 0.676197
Si Si6 0.178521 0.000000 0.472909
O O1 0.500000 0.787939 0.995672
O O2 0.330911 0.500000 0.998107
O O3 0.252649 0.778030 0.902638
O O4 0.243738 0.791787 0.079734
O O5 0.500000 0.748606 0.355374
O O6 0.289406 0.500000 0.368984
O O7 0.263864 0.773278 0.255470
O O8 0.240962 0.820213 0.428318
O O9 0.163779 0.500000 0.163656
O O10 0.000000 0.210545 0.178372
O O11 0.224631 0.500000 0.791456
O O12 0.000000 0.719388 0.827132
O O13 0.232615 0.822953 0.728660
O O14 0.760009 0.000000 0.575208
O O15 0.000000 0.000000 0.672209
O O16 0.000000 0.000000 0.467134
#
# Coordination Sequence:
#
# PCOD8166956 Si02
#       6
#     4   4   4   4   2   2
#     4   9  16  27  46  75 110 144 177 215 262 318
#     4  10  21  38  59  83 114 151 188 229 280 336
#     4   9  16  28  50  80 111 144 183 224 267 320
#     4   9  17  32  54  77 103 137 176 218 264 316
#     4   9  20  37  56  79 104 133 175 226 276 325
#     4  11  23  39  60  85 112 143 185 238 290 339
#
# _framework density 20.168241999999999
#
# number of rings (size 3 to 8) (size 9 to 14) (size 15 to 20)
#    0.000    2.600    0.000    2.100    0.000    6.800 
#    0.000    5.500    0.000    3.600    0.000    0.000 
#    0.000    0.000    0.000    0.000    0.000    0.000 
#
# Total GULP energy -248000.787910 kJ/mol
# GULP energy per Si atom -12400.039396 kJ/mol
# Density = 2.012234 g / cm^3
# Si number density = 20.168242 Si / 1000 Ang^3
#
#
#
# Elastic Constant Matrix: (Units=GPa)
#
#
# Indices 1 2 3 4 5 6 
#
# 1 115.0736 36.1330 73.4668 0.0000 0.0000 0.0000
# 2 36.1330 80.3399 66.7054 0.0000 0.0000 0.0000
# 3 73.4668 66.7054 208.3079 0.0000 0.0000 0.0000
# 4 0.0000 0.0000 0.0000 -95.6887 0.0000 0.0000
# 5 0.0000 0.0000 0.0000 0.0000 13.0598 0.0000
# 6 0.0000 0.0000 0.0000 0.0000 0.0000 16.2841
#
#
#
# Elastic Compliance Matrix: (Units=1/GPa)
#
#
# Indices 1 2 3 4 5 6 
#
# 1 0.011565 -0.002472 -0.003287 0.000000 0.000000 0.000000
# 2 -0.002472 0.017484 -0.004727 0.000000 0.000000 0.000000
# 3 -0.003287 -0.004727 0.007474 0.000000 0.000000 0.000000
# 4 0.000000 0.000000 0.000000 -0.010451 0.000000 0.000000
# 5 0.000000 0.000000 0.000000 0.000000 0.076571 0.000000
# 6 0.000000 0.000000 0.000000 0.000000 0.000000 0.061410
#
#
# Mechanical properties :
#
#
# Convention : Reuss Voigt Hill
#
# Bulk Modulus (GPa) = 64.30872 84.03686 74.17279
# Shear Modulus (GPa) = 26.28707 1.89211 14.08959
#
# Velocity S-wave (km/s) = 3.61416 0.96964 2.64598
# Velocity P-wave (km/s) = 7.02649 6.55835 6.79645
#
# Compressibility (1/GPa) = 0.01554999
#
# Stress axis : x y z
#
# Youngs Moduli (GPa) = 86.46826 57.19658 133.80520
#
# Poissons Ratio (x) = 0.14139 0.43984
# Poissons Ratio (y) = 0.21376 0.63247
# Poissons Ratio (z) = 0.28423 0.27036
#
# Static dielectric constant tensor:
#      x y z
#    x 3.668820 0.000000 0.000000 
#    y 0.000000 3.487090 0.000000 
#    z 0.000000 0.000000 3.853780 
# 
# 
# High freq. dielectric constant tensor:
#      x y z
#    x 1.783460 0.000000 0.000000 
#    y 0.000000 1.776220 0.000000 
#    z 0.000000 0.000000 1.787990 
# 
# From -- ./inp_files/5186.got.cif
#   From: 2010.03.12/outbox.cif.g09.slc.cpg/sg25_3_cif.got.tgz:5186.got - 2010.04.14 03:30:10.
