data_PCOD8166228
_publ_section_title
;
Structure prediction by ZEFSAII (Michael W. Deem and Ramdas Pophale) SiO2 
 PCOD8166228
Probable space group: I 21 21 21
;
_chemical_formula_sum "Si O2"
_cell_formula_units_Z 56
_cell_length_a 12.172000
_cell_length_b 15.138104
_cell_length_c 13.366409
_cell_angle_alpha 90.000000
_cell_angle_beta 90.000000
_cell_angle_gamma 90.000000
_cell_volume 2462.907914
_symmetry_space_group_name_H-M "I 21 21 21"
_symmetry_group_IT_number 24
_symmetry_cell_setting 'orthorhombic'
loop_
_space_group_symop_operation_xyz
x,y,z
-x,1/2-y,z
x,-y,1/2-z
1/2-x,y,-z
1/2+x,1/2+y,1/2+z
1/2-x,-y,1/2+z
1/2+x,1/2-y,-z
-x,1/2+y,1/2-z
loop_
_atom_site_type_symbol
_atom_site_label
_atom_site_fract_x
_atom_site_fract_y
_atom_site_fract_z
Si Si1 0.679564 0.598002 0.214002
Si Si2 0.046041 0.342026 0.648402
Si Si3 0.260179 0.627974 0.285825
Si Si4 0.078591 0.500000 0.250000
Si Si5 0.795689 0.703036 0.390263
Si Si6 0.453952 0.936247 0.566693
Si Si7 0.250000 0.050527 0.500000
Si Si8 0.360946 0.508443 0.440574
O O1 0.705528 0.500000 0.250000
O O2 0.549540 0.616750 0.217094
O O3 0.732603 0.660644 0.296675
O O4 0.728029 0.610079 0.100035
O O5 0.156549 0.320945 0.712020
O O6 0.078590 0.413287 0.564464
O O7 0.000000 0.250000 0.601347
O O8 0.154700 0.586334 0.230798
O O9 0.209529 0.692259 0.370873
O O10 0.329157 0.547156 0.333258
O O11 0.999681 0.495860 0.155688
O O12 0.750000 0.681840 0.500000
O O13 0.917598 0.660293 0.392626
O O14 0.354508 0.987552 0.514367
O O15 0.554727 0.922302 0.490220
O O16 0.250000 0.495095 0.500000
#
# Coordination Sequence:
#
# PCOD8166228 Si02
#       8
#     8   8   8   4   8   8   4   8
#     4  12  23  44  73 105 154 198 249 321 390 463
#     4  12  25  44  73 110 143 198 260 312 372 453
#     4  12  25  47  74 109 154 201 256 313 389 473
#     4  12  26  48  72 102 152 212 250 308 398 468
#     4  12  27  46  74 118 154 188 253 332 390 453
#     4  12  24  45  74 107 148 198 258 316 389 462
#     4  12  24  44  74 110 146 208 254 314 404 460
#     4  12  24  48  77 102 151 207 251 310 385 472
#
# _framework density 22.737349999999999
#
# number of rings (size 3 to 8) (size 9 to 14) (size 15 to 20)
#    0.000    0.000    7.857    2.143    2.000    0.571 
#    1.286    0.000    0.000    0.000    0.000    0.000 
#    0.000    0.000    0.000    0.000    0.000    0.000 
#
# Total GULP energy -347084.827758 kJ/mol
# GULP energy per Si atom -12395.886706 kJ/mol
# Density = 2.268560 g / cm^3
# Si number density = 22.737350 Si / 1000 Ang^3
#
#
#
# Elastic Constant Matrix: (Units=GPa)
#
#
# Indices 1 2 3 4 5 6 
#
# 1 137.3590 47.0828 47.7732 0.0000 0.0009 0.0000
# 2 47.0828 102.1834 28.9924 0.0000 -0.0079 0.0000
# 3 47.7732 28.9924 115.7695 -0.0001 -0.0140 0.0000
# 4 0.0000 0.0000 -0.0001 33.1566 -0.0091 0.0000
# 5 0.0009 -0.0079 -0.0140 -0.0091-1705.6749 -0.0029
# 6 0.0000 0.0000 0.0000 0.0000 -0.0029 40.8098
#
#
#
# Elastic Compliance Matrix: (Units=1/GPa)
#
#
# Indices 1 2 3 4 5 6 
#
# 1 0.009555 -0.003535 -0.003058 0.000000 0.000000 0.000000
# 2 -0.003535 0.011843 -0.001507 0.000000 0.000000 0.000000
# 3 -0.003058 -0.001507 0.010277 0.000000 0.000000 0.000000
# 4 0.000000 0.000000 0.000000 0.030160 0.000000 0.000000
# 5 0.000000 0.000000 0.000000 0.000000 -0.000586 0.000000
# 6 0.000000 0.000000 0.000000 0.000000 0.000000 0.024504
#
#
# Mechanical properties :
#
#
# Convention : Reuss Voigt Hill
#
# Bulk Modulus (GPa) = 64.61905 67.00097 65.81001
# Shear Modulus (GPa) = 46.68037 -310.91078 -132.11520
#
# Velocity S-wave (km/s) = 4.53595 -11.70628 -7.63093
# Velocity P-wave (km/s) = 7.47761 12.37678 6.97388
#
# Compressibility (1/GPa) = 0.01547531
#
# Stress axis : x y z
#
# Youngs Moduli (GPa) = 104.65202 84.43923 97.30391
#
# Poissons Ratio (x) = 0.29852 0.29754
# Poissons Ratio (y) = 0.36997 0.14663
# Poissons Ratio (z) = 0.32001 0.12725
#
# Static dielectric constant tensor:
#      x y z
#    x 4.418830 -0.000010 0.000000 
#    y -0.000010 69.715600 0.000040 
#    z 0.000000 0.000040 4.195560 
# 
# 
# High freq. dielectric constant tensor:
#      x y z
#    x 1.913990 0.000000 0.000000 
#    y 0.000000 1.889270 0.000000 
#    z 0.000000 0.000000 1.892560 
# 
# From -- ./inp_files/25857.got.cif
#   From: 2010.03.12/outbox.cif.g09.slc.cpg/sg24_13_cif.got.tgz:25857.got - 2010.04.14 03:06:53.
