data_PCOD8166735
_publ_section_title
;
Structure prediction by ZEFSAII (Michael W. Deem and Ramdas Pophale) SiO2 
 PCOD8166735
Probable space group: P M M 2
;
_chemical_formula_sum "Si O2"
_cell_formula_units_Z 24
_cell_length_a 9.361532
_cell_length_b 8.747695
_cell_length_c 15.303943
_cell_angle_alpha 90.000000
_cell_angle_beta 90.000000
_cell_angle_gamma 90.000000
_cell_volume 1253.267848
_symmetry_space_group_name_H-M "P M M 2"
_symmetry_group_IT_number 25
_symmetry_cell_setting 'orthorhombic'
loop_
_space_group_symop_operation_xyz
x,y,z
-x,-y,z
-x,y,z
x,-y,z
loop_
_atom_site_type_symbol
_atom_site_label
_atom_site_fract_x
_atom_site_fract_y
_atom_site_fract_z
Si Si1 0.157958 0.318609 0.060110
Si Si2 0.164977 0.822080 0.745798
Si Si3 0.163477 0.677582 0.564445
Si Si4 0.832640 0.323041 0.256102
Si Si5 0.659829 0.681327 0.900428
Si Si6 0.666260 0.177129 0.409575
O O1 0.150690 0.500000 0.053784
O O2 0.208558 0.273647 0.157410
O O3 0.000000 0.251145 0.041843
O O4 0.264679 0.250891 0.987349
O O5 0.211917 0.772586 0.649019
O O6 0.257546 0.729880 0.814394
O O7 0.000000 0.779991 0.761490
O O8 0.194993 0.000000 0.757384
O O9 0.182038 0.500000 0.586061
O O10 0.264469 0.721563 0.484957
O O11 0.000000 0.716078 0.538875
O O12 0.794491 0.500000 0.273337
O O13 0.739603 0.216435 0.318024
O O14 0.000000 0.295510 0.273396
O O15 0.500000 0.748029 0.897228
O O16 0.657800 0.500000 0.904656
O O17 0.500000 0.217830 0.403313
O O18 0.691460 0.000000 0.431030
#
# Coordination Sequence:
#
# PCOD8166735 Si02
#       6
#     4   4   4   4   4   4
#     4   8  15  30  53  79 106 137 176 223 268 309
#     4  10  21  37  57  80 106 139 178 218 263 315
#     4  10  21  38  61  85 105 131 173 222 268 315
#     4   9  18  34  57  83 107 135 177 225 269 314
#     4  10  20  33  52  80 111 143 179 218 263 315
#     4  11  24  38  52  76 111 147 179 213 259 315
#
# _framework density 19.149934999999999
#
# number of rings (size 3 to 8) (size 9 to 14) (size 15 to 20)
#    0.000    2.333    0.000    3.500    0.000    8.000 
#    0.000    2.500    0.000    1.000    0.000    0.000 
#    0.000    0.000    0.000    0.000    0.000    0.000 
#
# Total GULP energy -297641.750170 kJ/mol
# GULP energy per Si atom -12401.739590 kJ/mol
# Density = 1.910635 g / cm^3
# Si number density = 19.149935 Si / 1000 Ang^3
#
#
#
# Elastic Constant Matrix: (Units=GPa)
#
#
# Indices 1 2 3 4 5 6 
#
# 1 97.3547 21.5862 66.2516 0.0000 0.0000 0.0000
# 2 21.5862 27.0110 9.6205 0.0000 0.0000 0.0000
# 3 66.2516 9.6205 121.2406 0.0000 0.0000 0.0000
# 4 0.0000 0.0000 0.0000 9.8717 0.0000 0.0000
# 5 0.0000 0.0000 0.0000 0.0000 -1.0154 0.0000
# 6 0.0000 0.0000 0.0000 0.0000 0.0000 25.5998
#
#
#
# Elastic Compliance Matrix: (Units=1/GPa)
#
#
# Indices 1 2 3 4 5 6 
#
# 1 0.019611 -0.012200 -0.009748 0.000000 0.000000 0.000000
# 2 -0.012200 0.045689 0.003041 0.000000 0.000000 0.000000
# 3 -0.009748 0.003041 0.013334 0.000000 0.000000 0.000000
# 4 0.000000 0.000000 0.000000 0.101299 0.000000 0.000000
# 5 0.000000 0.000000 0.000000 0.000000 -0.984821 0.000000
# 6 0.000000 0.000000 0.000000 0.000000 0.000000 0.039063
#
#
# Mechanical properties :
#
#
# Convention : Reuss Voigt Hill
#
# Bulk Modulus (GPa) = 24.49842 48.94701 36.72271
# Shear Modulus (GPa) = -6.99881 16.76775 4.88447
#
# Velocity S-wave (km/s) = -1.91381 2.96227 1.59881
# Velocity P-wave (km/s) = 2.81729 6.10864 4.75671
#
# Compressibility (1/GPa) = 0.04081896
#
# Stress axis : x y z
#
# Youngs Moduli (GPa) = 50.99307 21.88731 74.99898
#
# Poissons Ratio (x) = 0.26703 0.73109
# Poissons Ratio (y) = 0.62212 -0.22809
# Poissons Ratio (z) = 0.49708 -0.06657
#
# Static dielectric constant tensor:
#      x y z
#    x 3.648440 0.000000 0.000000 
#    y 0.000000 3.280420 0.000000 
#    z 0.000000 0.000000 3.632100 
# 
# 
# High freq. dielectric constant tensor:
#      x y z
#    x 1.741880 0.000000 0.000000 
#    y 0.000000 1.725390 0.000000 
#    z 0.000000 0.000000 1.758860 
# 
# From -- ./inp_files/5225.got.cif
#   From: 2010.03.12/outbox.cif.g09.slc.cpg/sg25_3_cif.got.tgz:5225.got - 2010.04.14 03:30:10.
