data_PCOD8166482
_publ_section_title
;
Structure prediction by ZEFSAII (Michael W. Deem and Ramdas Pophale) SiO2 
 PCOD8166482
Probable space group: P M M 2
;
_chemical_formula_sum "Si O2"
_cell_formula_units_Z 28
_cell_length_a 9.232138
_cell_length_b 19.994996
_cell_length_c 7.776820
_cell_angle_alpha 90.000000
_cell_angle_beta 90.000000
_cell_angle_gamma 90.000000
_cell_volume 1435.574238
_symmetry_space_group_name_H-M "P M M 2"
_symmetry_group_IT_number 25
_symmetry_cell_setting 'orthorhombic'
loop_
_space_group_symop_operation_xyz
x,y,z
-x,-y,z
-x,y,z
x,-y,z
loop_
_atom_site_type_symbol
_atom_site_label
_atom_site_fract_x
_atom_site_fract_y
_atom_site_fract_z
Si Si1 0.331286 0.426363 0.685320
Si Si2 0.835546 0.428797 0.338848
Si Si3 0.332135 0.831209 0.809307
Si Si4 0.327619 0.074691 0.503080
Si Si5 0.167729 0.701890 0.708968
Si Si6 0.666564 0.837784 0.192358
Si Si7 0.837170 0.286445 0.303067
O O1 0.500000 0.407460 0.690401
O O2 0.304935 0.500000 0.771414
O O3 0.280775 0.430779 0.489167
O O4 0.240821 0.367095 0.777098
O O5 0.822738 0.500000 0.235369
O O6 0.808156 0.361658 0.226105
O O7 0.000000 0.421963 0.416064
O O8 0.500000 0.814001 0.774271
O O9 0.273478 0.883831 0.668759
O O10 0.241141 0.763550 0.805502
O O11 0.311352 0.864317 0.998068
O O12 0.500000 0.070646 0.500287
O O13 0.266525 0.109935 0.329600
O O14 0.261971 0.000000 0.512483
O O15 0.193704 0.711077 0.506307
O O16 0.000000 0.700300 0.759648
O O17 0.500000 0.828595 0.238349
O O18 0.733387 0.764516 0.208698
O O19 0.000000 0.262725 0.265852
#
# Coordination Sequence:
#
# PCOD8166482 Si02
#       7
#     4   4   4   4   4   4   4
#     4   9  16  25  41  69 103 138 177 223 273 320
#     4   8  14  25  41  65  98 135 178 224 266 312
#     4  10  20  34  54  80 108 139 177 219 263 314
#     4   9  18  34  56  82 111 139 168 211 265 317
#     4  10  19  31  50  74 102 141 184 224 268 317
#     4  10  20  33  53  80 107 139 175 213 261 315
#     4   9  17  29  48  73 101 137 177 218 264 311
#
# _framework density 19.504389
#
# number of rings (size 3 to 8) (size 9 to 14) (size 15 to 20)
#    0.000    2.714    1.429    1.714    0.000    4.286 
#    0.000    2.857    0.000    2.571    0.000    6.000 
#    0.000    0.000    0.000    0.000    0.000    0.000 
#
# Total GULP energy -346939.250645 kJ/mol
# GULP energy per Si atom -12390.687523 kJ/mol
# Density = 1.946000 g / cm^3
# Si number density = 19.504389 Si / 1000 Ang^3
#
#
#
# Elastic Constant Matrix: (Units=GPa)
#
#
# Indices 1 2 3 4 5 6 
#
# 1 68.1923 48.8212 28.2050 0.0000 0.0000 0.0000
# 2 48.8212 173.5136 56.2121 0.0000 0.0000 0.0000
# 3 28.2050 56.2121 84.2683 0.0000 0.0000 0.0000
# 4 0.0000 0.0000 0.0000 6.3536 0.0000 0.0000
# 5 0.0000 0.0000 0.0000 0.0000 12.6353 0.0000
# 6 0.0000 0.0000 0.0000 0.0000 0.0000 17.3761
#
#
#
# Elastic Compliance Matrix: (Units=1/GPa)
#
#
# Indices 1 2 3 4 5 6 
#
# 1 0.019182 -0.004232 -0.003597 0.000000 0.000000 0.000000
# 2 -0.004232 0.008286 -0.004111 0.000000 0.000000 0.000000
# 3 -0.003597 -0.004111 0.015813 0.000000 0.000000 0.000000
# 4 0.000000 0.000000 0.000000 0.157391 0.000000 0.000000
# 5 0.000000 0.000000 0.000000 0.000000 0.079144 0.000000
# 6 0.000000 0.000000 0.000000 0.000000 0.000000 0.057550
#
#
# Mechanical properties :
#
#
# Convention : Reuss Voigt Hill
#
# Bulk Modulus (GPa) = 51.54394 65.82785 58.68589
# Shear Modulus (GPa) = 13.59758 20.12206 16.85982
#
# Velocity S-wave (km/s) = 2.64323 3.21544 2.94328
# Velocity P-wave (km/s) = 5.98329 6.89993 6.45789
#
# Compressibility (1/GPa) = 0.01940092
#
# Stress axis : x y z
#
# Youngs Moduli (GPa) = 52.13217 120.69119 63.23915
#
# Poissons Ratio (x) = 0.51074 0.22750
# Poissons Ratio (y) = 0.22061 0.25995
# Poissons Ratio (z) = 0.18754 0.49612
#
# Static dielectric constant tensor:
#      x y z
#    x 3.365990 0.000000 0.000000 
#    y 0.000000 3.996050 0.000000 
#    z 0.000000 0.000000 3.248540 
# 
# 
# High freq. dielectric constant tensor:
#      x y z
#    x 1.739650 0.000000 0.000000 
#    y 0.000000 1.771680 0.000000 
#    z 0.000000 0.000000 1.721850 
# 
# From -- ./inp_files/2297.got.cif
#   From: 2010.03.12/outbox.cif.g09.slc.cpg/sg25_2_cif.got.tgz:2297.got - 2010.04.14 03:30:10.
