data_PCOD8166920
_publ_section_title
;
Structure prediction by ZEFSAII (Michael W. Deem and Ramdas Pophale) SiO2 
 PCOD8166920
Probable space group: P M M 2
;
_chemical_formula_sum "Si O2"
_cell_formula_units_Z 32
_cell_length_a 13.695939
_cell_length_b 9.091915
_cell_length_c 12.814649
_cell_angle_alpha 90.000000
_cell_angle_beta 90.000000
_cell_angle_gamma 90.000000
_cell_volume 1595.709737
_symmetry_space_group_name_H-M "P M M 2"
_symmetry_group_IT_number 25
_symmetry_cell_setting 'orthorhombic'
loop_
_space_group_symop_operation_xyz
x,y,z
-x,-y,z
-x,y,z
x,-y,z
loop_
_atom_site_type_symbol
_atom_site_label
_atom_site_fract_x
_atom_site_fract_y
_atom_site_fract_z
Si Si1 0.113140 0.171110 0.304960
Si Si2 0.608508 0.330955 0.994268
Si Si3 0.115676 0.165885 0.917251
Si Si4 0.203579 0.671292 0.111100
Si Si5 0.384546 0.161655 0.795779
Si Si6 0.611162 0.825438 0.564203
Si Si7 0.207518 0.326852 0.495433
Si Si8 0.114055 0.668879 0.714868
O O1 0.178238 0.239674 0.214131
O O2 0.136652 0.252748 0.412087
O O3 0.000000 0.194826 0.277220
O O4 0.138880 0.000000 0.315998
O O5 0.500000 0.269920 0.022523
O O6 0.601407 0.500000 0.964392
O O7 0.680513 0.305065 0.091614
O O8 0.656869 0.256110 0.891980
O O9 0.157927 0.231221 0.808337
O O10 0.000000 0.167210 0.909522
O O11 0.154991 0.000000 0.933633
O O12 0.143784 0.268098 0.013512
O O13 0.177705 0.500000 0.126190
O O14 0.500000 0.152273 0.808020
O O15 0.362254 0.229382 0.681746
O O16 0.337952 0.000000 0.804848
O O17 0.500000 0.782874 0.535292
O O18 0.683366 0.740507 0.485628
O O19 0.625558 0.000000 0.555522
O O20 0.210802 0.500000 0.474576
O O21 0.165997 0.285301 0.608275
O O22 0.134845 0.500000 0.743725
O O23 0.000000 0.697596 0.698930
#
# Coordination Sequence:
#
# PCOD8166920 Si02
#       8
#     4   4   4   4   4   4   4   4
#     4  11  25  45  67  89 114 148 195 248 300 359
#     4   9  19  35  54  80 116 154 193 237 284 339
#     4  10  21  36  55  82 116 152 190 235 290 352
#     4  11  23  38  60  87 116 152 195 241 297 353
#     4   8  15  29  50  77 111 153 196 236 280 330
#     4   9  19  36  56  82 120 162 203 246 292 345
#     4  11  23  38  61  90 119 153 197 245 300 359
#     4   9  19  36  56  81 116 153 188 232 290 356
#
# _framework density 20.053774000000001
#
# number of rings (size 3 to 8) (size 9 to 14) (size 15 to 20)
#    0.000    2.250    0.000    3.000    1.750    6.500 
#    0.000    3.125    0.000    2.250    0.000    0.000 
#    0.000    0.000    0.000    0.000    0.000    0.000 
#
# Total GULP energy -396801.399463 kJ/mol
# GULP energy per Si atom -12400.043733 kJ/mol
# Density = 2.000813 g / cm^3
# Si number density = 20.053774 Si / 1000 Ang^3
#
#
#
# Elastic Constant Matrix: (Units=GPa)
#
#
# Indices 1 2 3 4 5 6 
#
# 1 58.7783 40.2049 35.4731 0.0000 0.0000 0.0000
# 2 40.2049 98.5931 51.3709 0.0000 0.0000 0.0000
# 3 35.4731 51.3709 84.0174 0.0000 0.0000 0.0000
# 4 0.0000 0.0000 0.0000 37.1578 0.0000 0.0000
# 5 0.0000 0.0000 0.0000 0.0000 31.0653 0.0000
# 6 0.0000 0.0000 0.0000 0.0000 0.0000 24.5531
#
#
#
# Elastic Compliance Matrix: (Units=1/GPa)
#
#
# Indices 1 2 3 4 5 6 
#
# 1 0.025841 -0.007122 -0.006556 0.000000 0.000000 0.000000
# 2 -0.007122 0.016847 -0.007294 0.000000 0.000000 0.000000
# 3 -0.006556 -0.007294 0.019130 0.000000 0.000000 0.000000
# 4 0.000000 0.000000 0.000000 0.026912 0.000000 0.000000
# 5 0.000000 0.000000 0.000000 0.000000 0.032190 0.000000
# 6 0.000000 0.000000 0.000000 0.000000 0.000000 0.040728
#
#
# Mechanical properties :
#
#
# Convention : Reuss Voigt Hill
#
# Bulk Modulus (GPa) = 50.31459 55.05406 52.68433
# Shear Modulus (GPa) = 23.78489 26.17791 24.98140
#
# Velocity S-wave (km/s) = 3.44765 3.61693 3.53331
# Velocity P-wave (km/s) = 6.40255 6.70490 6.55547
#
# Compressibility (1/GPa) = 0.01987495
#
# Stress axis : x y z
#
# Youngs Moduli (GPa) = 38.69831 59.35647 52.27345
#
# Poissons Ratio (x) = 0.42272 0.34270
# Poissons Ratio (y) = 0.27560 0.38129
# Poissons Ratio (z) = 0.25370 0.43296
#
# Static dielectric constant tensor:
#      x y z
#    x 3.739530 0.000000 0.000000 
#    y 0.000000 3.747550 0.000000 
#    z 0.000000 0.000000 3.552250 
# 
# 
# High freq. dielectric constant tensor:
#      x y z
#    x 1.793830 0.000000 0.000000 
#    y 0.000000 1.783770 0.000000 
#    z 0.000000 0.000000 1.765910 
# 
# From -- ./inp_files/4232.got.cif
#   From: 2010.03.12/outbox.cif.g09.slc.cpg/sg25_3_cif.got.tgz:4232.got - 2010.04.14 03:30:10.
