data_PCOD8166204
_publ_section_title
;
Structure prediction by ZEFSAII (Michael W. Deem and Ramdas Pophale) SiO2 
 PCOD8166204
Probable space group: I 21 21 21
;
_chemical_formula_sum "Si O2"
_cell_formula_units_Z 36
_cell_length_a 13.667709
_cell_length_b 5.524261
_cell_length_c 18.780131
_cell_angle_alpha 90.000000
_cell_angle_beta 90.000000
_cell_angle_gamma 90.000000
_cell_volume 1417.974857
_symmetry_space_group_name_H-M "I 21 21 21"
_symmetry_group_IT_number 24
_symmetry_cell_setting 'orthorhombic'
loop_
_space_group_symop_operation_xyz
x,y,z
-x,1/2-y,z
x,-y,1/2-z
1/2-x,y,-z
1/2+x,1/2+y,1/2+z
1/2-x,-y,1/2+z
1/2+x,1/2-y,-z
-x,1/2+y,1/2-z
loop_
_atom_site_type_symbol
_atom_site_label
_atom_site_fract_x
_atom_site_fract_y
_atom_site_fract_z
Si Si1 0.765158 0.729952 0.617259
Si Si2 0.750000 0.608929 0.000000
Si Si3 0.500000 0.750000 0.831972
Si Si4 0.600337 0.007022 0.550380
Si Si5 0.666082 0.500000 0.750000
Si Si6 0.452833 0.505586 0.395295
O O1 0.811485 0.530596 0.563417
O O2 0.737782 0.631165 0.694606
O O3 0.836821 0.965172 0.624595
O O4 0.669120 0.783371 0.569809
O O5 0.831284 0.759464 0.041970
O O6 0.525801 0.973472 0.883440
O O7 0.595497 0.700047 0.784737
O O8 0.535371 0.974062 0.480248
O O9 0.500000 0.750000 0.360384
O O10 0.500000 0.250000 0.366657
#
# Coordination Sequence:
#
# PCOD8166204 Si02
#       6
#     8   4   4   8   4   8
#     4  12  26  45  73 108 159 221 262 329 421 495
#     4  12  20  46  70 106 150 218 258 328 396 484
#     4  12  26  44  70 112 160 208 264 322 406 490
#     4  12  24  40  74 108 159 200 262 332 401 485
#     4  12  28  48  70 110 170 224 268 328 412 516
#     4  12  26  44  78 119 149 201 275 355 398 463
#
# _framework density 25.38832
#
# number of rings (size 3 to 8) (size 9 to 14) (size 15 to 20)
#    0.000    0.000    7.778    2.667    3.111    0.000 
#    0.000    0.000    0.000    6.667    0.000    0.000 
#    0.000    0.000    0.000    0.000    0.000    0.000 
#
# Total GULP energy -223065.031447 kJ/mol
# GULP energy per Si atom -12392.501747 kJ/mol
# Density = 2.533053 g / cm^3
# Si number density = 25.388320 Si / 1000 Ang^3
#
#
#
# Elastic Constant Matrix: (Units=GPa)
#
#
# Indices 1 2 3 4 5 6 
#
# 1 88.5688 42.9312 39.6594 0.0000 0.0000 0.0000
# 2 42.9312 122.9488 35.7003 0.0000 0.0000 0.0000
# 3 39.6594 35.7003 136.1994 0.0000 0.0000 0.0000
# 4 0.0000 0.0000 0.0000 31.9414 0.0000 0.0000
# 5 0.0000 0.0000 0.0000 0.0000 38.6913 0.0000
# 6 0.0000 0.0000 0.0000 0.0000 0.0000 52.7231
#
#
#
# Elastic Compliance Matrix: (Units=1/GPa)
#
#
# Indices 1 2 3 4 5 6 
#
# 1 0.014771 -0.004231 -0.003192 0.000000 0.000000 0.000000
# 2 -0.004231 0.010015 -0.001393 0.000000 0.000000 0.000000
# 3 -0.003192 -0.001393 0.008637 0.000000 0.000000 0.000000
# 4 0.000000 0.000000 0.000000 0.031307 0.000000 0.000000
# 5 0.000000 0.000000 0.000000 0.000000 0.025846 0.000000
# 6 0.000000 0.000000 0.000000 0.000000 0.000000 0.018967
#
#
# Mechanical properties :
#
#
# Convention : Reuss Voigt Hill
#
# Bulk Modulus (GPa) = 63.32826 64.92206 64.12516
# Shear Modulus (GPa) = 37.75333 39.96624 38.85978
#
# Velocity S-wave (km/s) = 3.86039 3.97192 3.91655
# Velocity P-wave (km/s) = 6.69837 6.83096 6.76499
#
# Compressibility (1/GPa) = 0.01579074
#
# Stress axis : x y z
#
# Youngs Moduli (GPa) = 67.70133 99.84707 115.78282
#
# Poissons Ratio (x) = 0.42243 0.36959
# Poissons Ratio (y) = 0.28643 0.16131
# Poissons Ratio (z) = 0.21611 0.13911
#
# Static dielectric constant tensor:
#      x y z
#    x 4.782510 0.000000 0.000000 
#    y 0.000000 4.686270 0.000000 
#    z 0.000000 0.000000 4.353690 
# 
# 
# High freq. dielectric constant tensor:
#      x y z
#    x 2.021630 0.000000 0.000000 
#    y 0.000000 2.016980 0.000000 
#    z 0.000000 0.000000 1.986230 
# 
# From -- ./inp_files/23645.got.cif
#   From: 2010.03.12/outbox.cif.g09.slc.cpg/sg24_12_cif.got.tgz:23645.got - 2010.04.14 03:06:53.
