data_PCOD8166744
_publ_section_title
;
Structure prediction by ZEFSAII (Michael W. Deem and Ramdas Pophale) SiO2 
 PCOD8166744
Probable space group: P M M 2
;
_chemical_formula_sum "Si O2"
_cell_formula_units_Z 32
_cell_length_a 9.400456
_cell_length_b 13.941107
_cell_length_c 12.979383
_cell_angle_alpha 90.000000
_cell_angle_beta 90.000000
_cell_angle_gamma 90.000000
_cell_volume 1700.984003
_symmetry_space_group_name_H-M "P M M 2"
_symmetry_group_IT_number 25
_symmetry_cell_setting 'orthorhombic'
loop_
_space_group_symop_operation_xyz
x,y,z
-x,-y,z
-x,y,z
x,-y,z
loop_
_atom_site_type_symbol
_atom_site_label
_atom_site_fract_x
_atom_site_fract_y
_atom_site_fract_z
Si Si1 0.663121 0.107020 0.803670
Si Si2 0.837288 0.613640 0.889097
Si Si3 0.332511 0.280910 0.293999
Si Si4 0.336340 0.387562 0.085090
Si Si5 0.832001 0.890568 0.222729
Si Si6 0.668768 0.607526 0.493666
Si Si7 0.843665 0.113412 0.993484
Si Si8 0.665155 0.702451 0.703376
O O1 0.500000 0.100988 0.836359
O O2 0.686177 0.181823 0.710263
O O3 0.717912 0.000000 0.771985
O O4 0.742617 0.151716 0.903011
O O5 0.826774 0.500000 0.889093
O O6 0.757230 0.649936 0.788695
O O7 0.000000 0.649067 0.887803
O O8 0.761681 0.653651 0.992795
O O9 0.500000 0.262639 0.301981
O O10 0.290446 0.336989 0.190662
O O11 0.253454 0.178561 0.299243
O O12 0.274732 0.342202 0.390297
O O13 0.500000 0.365746 0.057121
O O14 0.311492 0.500000 0.101598
O O15 0.784062 0.861507 0.106634
O O16 0.000000 0.876374 0.235582
O O17 0.789434 0.000000 0.247935
O O18 0.500000 0.602739 0.490252
O O19 0.732023 0.500000 0.500532
O O20 0.720376 0.668654 0.592080
O O21 0.000000 0.158761 0.977224
O O22 0.854476 0.000000 0.985187
O O23 0.500000 0.674573 0.720087
#
# Coordination Sequence:
#
# PCOD8166744 Si02
#       8
#     4   4   4   4   4   4   4   4
#     4   9  18  31  47  72 106 138 171 214 259 302
#     4  10  21  35  51  75 107 138 170 215 269 321
#     4  10  20  33  54  82 106 133 179 228 267 308
#     4   9  18  33  52  75 106 140 171 210 265 327
#     4   9  19  35  52  73 106 146 182 215 260 319
#     4   9  18  35  58  81 105 136 176 222 269 319
#     4   8  15  29  48  69  96 135 177 210 247 301
#     4  10  20  34  55  79 104 139 181 216 261 320
#
# _framework density 18.812640999999999
#
# number of rings (size 3 to 8) (size 9 to 14) (size 15 to 20)
#    0.000    2.750    0.000    1.875    1.750    4.500 
#    0.000    2.500    0.000    4.125    0.000    1.750 
#    0.000    0.000    0.000    0.000    0.000    0.000 
#
# Total GULP energy -396733.346270 kJ/mol
# GULP energy per Si atom -12397.917071 kJ/mol
# Density = 1.876982 g / cm^3
# Si number density = 18.812641 Si / 1000 Ang^3
#
#
#
# Elastic Constant Matrix: (Units=GPa)
#
#
# Indices 1 2 3 4 5 6 
#
# 1 59.4459 36.0199 51.9553 0.0000 0.0000 0.0000
# 2 36.0199 93.5647 70.2194 0.0000 0.0000 0.0000
# 3 51.9553 70.2194 143.7851 0.0000 0.0000 0.0000
# 4 0.0000 0.0000 0.0000 34.2482 0.0000 0.0000
# 5 0.0000 0.0000 0.0000 0.0000 5.6392 0.0000
# 6 0.0000 0.0000 0.0000 0.0000 0.0000 21.4629
#
#
#
# Elastic Compliance Matrix: (Units=1/GPa)
#
#
# Indices 1 2 3 4 5 6 
#
# 1 0.025800 -0.004634 -0.007059 0.000000 0.000000 0.000000
# 2 -0.004634 0.017704 -0.006971 0.000000 0.000000 0.000000
# 3 -0.007059 -0.006971 0.012910 0.000000 0.000000 0.000000
# 4 0.000000 0.000000 0.000000 0.029199 0.000000 0.000000
# 5 0.000000 0.000000 0.000000 0.000000 0.177331 0.000000
# 6 0.000000 0.000000 0.000000 0.000000 0.000000 0.046592
#
#
# Mechanical properties :
#
#
# Convention : Reuss Voigt Hill
#
# Bulk Modulus (GPa) = 52.40004 68.13166 60.26585
# Shear Modulus (GPa) = 14.15522 21.51011 17.83266
#
# Velocity S-wave (km/s) = 2.74602 3.38507 3.08215
# Velocity P-wave (km/s) = 6.16184 7.18142 6.69108
#
# Compressibility (1/GPa) = 0.01908396
#
# Stress axis : x y z
#
# Youngs Moduli (GPa) = 38.75986 56.48506 77.45828
#
# Poissons Ratio (x) = 0.26177 0.54680
# Poissons Ratio (y) = 0.17963 0.53999
# Poissons Ratio (z) = 0.27362 0.39378
#
# Static dielectric constant tensor:
#      x y z
#    x 3.370820 0.000000 0.000000 
#    y 0.000000 3.582790 0.000000 
#    z 0.000000 0.000000 3.454910 
# 
# 
# High freq. dielectric constant tensor:
#      x y z
#    x 1.709200 0.000000 0.000000 
#    y 0.000000 1.743560 0.000000 
#    z 0.000000 0.000000 1.714040 
# 
# From -- ./inp_files/4219.got.cif
#   From: 2010.03.12/outbox.cif.g09.slc.cpg/sg25_3_cif.got.tgz:4219.got - 2010.04.14 03:30:10.
