data_PCOD8166250
_publ_section_title
;
Structure prediction by ZEFSAII (Michael W. Deem and Ramdas Pophale) SiO2 
 PCOD8166250
Probable space group: I 21 21 21
;
_chemical_formula_sum "Si O2"
_cell_formula_units_Z 32
_cell_length_a 10.112856
_cell_length_b 7.694535
_cell_length_c 15.128079
_cell_angle_alpha 90.000000
_cell_angle_beta 90.000000
_cell_angle_gamma 90.000000
_cell_volume 1177.172171
_symmetry_space_group_name_H-M "I 21 21 21"
_symmetry_group_IT_number 24
_symmetry_cell_setting 'orthorhombic'
loop_
_space_group_symop_operation_xyz
x,y,z
-x,1/2-y,z
x,-y,1/2-z
1/2-x,y,-z
1/2+x,1/2+y,1/2+z
1/2-x,-y,1/2+z
1/2+x,1/2-y,-z
-x,1/2+y,1/2-z
loop_
_atom_site_type_symbol
_atom_site_label
_atom_site_fract_x
_atom_site_fract_y
_atom_site_fract_z
Si Si1 0.094540 0.445682 0.975256
Si Si2 0.000000 0.250000 0.402733
Si Si3 0.250000 0.125741 0.000000
Si Si4 0.383556 0.051010 0.348361
Si Si5 0.755289 0.112959 0.662194
O O1 0.115313 0.245757 0.007690
O O2 0.242971 0.499710 0.930547
O O3 0.017965 0.456433 0.880316
O O4 0.006842 0.575319 0.036520
O O5 0.126624 0.261908 0.338571
O O6 0.237226 0.007769 0.913088
O O7 0.384123 0.262692 0.347032
O O8 0.346990 0.000000 0.250000
O O9 0.756682 0.000000 0.750000
#
# Coordination Sequence:
#
# PCOD8166250 Si02
#       5
#     8   4   4   8   8
#     4  12  24  48  80 118 155 215 277 347 408 494
#     4  12  24  46  78 104 154 214 272 322 418 490
#     4  12  26  46  80 124 174 210 268 348 432 498
#     4  12  27  47  77 123 163 210 276 346 417 496
#     4  12  26  47  77 112 159 214 275 342 409 495
#
# _framework density 27.183789000000001
#
# number of rings (size 3 to 8) (size 9 to 14) (size 15 to 20)
#    0.000    0.000    5.000    4.500    0.000    3.000 
#    0.000    2.500    0.000    0.000    0.000    0.000 
#    0.000    0.000    0.000    0.000    0.000    0.000 
#
# Total GULP energy -198309.488362 kJ/mol
# GULP energy per Si atom -12394.343023 kJ/mol
# Density = 2.712192 g / cm^3
# Si number density = 27.183789 Si / 1000 Ang^3
#
#
#
# Elastic Constant Matrix: (Units=GPa)
#
#
# Indices 1 2 3 4 5 6 
#
# 1 90.8294 -0.2763 29.4869 0.0000 0.0000 0.0000
# 2 -0.2763 154.6203 67.3832 0.0000 0.0000 0.0000
# 3 29.4869 67.3832 168.9322 0.0000 0.0000 0.0000
# 4 0.0000 0.0000 0.0000 63.7921 0.0000 0.0000
# 5 0.0000 0.0000 0.0000 0.0000 35.7428 0.0000
# 6 0.0000 0.0000 0.0000 0.0000 0.0000 29.7735
#
#
#
# Elastic Compliance Matrix: (Units=1/GPa)
#
#
# Indices 1 2 3 4 5 6 
#
# 1 0.011828 0.001115 -0.002509 0.000000 0.000000 0.000000
# 2 0.001115 0.007933 -0.003359 0.000000 0.000000 0.000000
# 3 -0.002509 -0.003359 0.007697 0.000000 0.000000 0.000000
# 4 0.000000 0.000000 0.000000 0.015676 0.000000 0.000000
# 5 0.000000 0.000000 0.000000 0.000000 0.027978 0.000000
# 6 0.000000 0.000000 0.000000 0.000000 0.000000 0.033587
#
#
# Mechanical properties :
#
#
# Convention : Reuss Voigt Hill
#
# Bulk Modulus (GPa) = 55.70634 67.50773 61.60703
# Shear Modulus (GPa) = 41.60104 47.04754 44.32429
#
# Velocity S-wave (km/s) = 3.91623 4.16471 4.04238
# Velocity P-wave (km/s) = 6.40204 6.92922 6.67084
#
# Compressibility (1/GPa) = 0.01795128
#
# Stress axis : x y z
#
# Youngs Moduli (GPa) = 84.54810 126.05141 129.91568
#
# Poissons Ratio (x) = -0.14049 0.32597
# Poissons Ratio (y) = -0.09424 0.43638
# Poissons Ratio (z) = 0.21214 0.42340
#
# Static dielectric constant tensor:
#      x y z
#    x 5.740020 0.000000 0.000000 
#    y 0.000000 5.230530 0.000000 
#    z 0.000000 0.000000 4.728110 
# 
# 
# High freq. dielectric constant tensor:
#      x y z
#    x 2.140190 0.000000 0.000000 
#    y 0.000000 2.109730 0.000000 
#    z 0.000000 0.000000 2.092970 
# 
# From -- ./inp_files/18042.got.cif
#   From: 2010.03.12/outbox.cif.g09.slc.cpg/sg24_10_cif.got.tgz:18042.got - 2010.04.14 03:06:53.
