data_PCOD8166812
_publ_section_title
;
Structure prediction by ZEFSAII (Michael W. Deem and Ramdas Pophale) SiO2 
 PCOD8166812
Probable space group: P M M 2
;
_chemical_formula_sum "Si O2"
_cell_formula_units_Z 20
_cell_length_a 12.685626
_cell_length_b 8.972400
_cell_length_c 9.217796
_cell_angle_alpha 90.000000
_cell_angle_beta 90.000000
_cell_angle_gamma 90.000000
_cell_volume 1049.174248
_symmetry_space_group_name_H-M "P M M 2"
_symmetry_group_IT_number 25
_symmetry_cell_setting 'orthorhombic'
loop_
_space_group_symop_operation_xyz
x,y,z
-x,-y,z
-x,y,z
x,-y,z
loop_
_atom_site_type_symbol
_atom_site_label
_atom_site_fract_x
_atom_site_fract_y
_atom_site_fract_z
Si Si1 0.694860 0.824443 0.091620
Si Si2 0.311412 0.675467 0.783723
Si Si3 0.500000 0.824255 0.284899
Si Si4 0.118817 0.826134 0.296838
Si Si5 0.118043 0.325927 0.590883
Si Si6 0.500000 0.822102 0.612496
O O1 0.603598 0.770024 0.200288
O O2 0.806606 0.782255 0.163240
O O3 0.685752 0.000000 0.056748
O O4 0.682706 0.730425 0.947170
O O5 0.334300 0.500000 0.777422
O O6 0.196022 0.716324 0.721517
O O7 0.396746 0.761191 0.689698
O O8 0.500000 0.760245 0.447841
O O9 0.500000 0.000000 0.295621
O O10 0.158841 0.748578 0.443155
O O11 0.000000 0.775793 0.256900
O O12 0.125939 0.000000 0.328132
O O13 0.117939 0.500000 0.561538
O O14 0.000000 0.269324 0.631035
O O15 0.500000 0.000000 0.620909
#
# Coordination Sequence:
#
# PCOD8166812 Si02
#       6
#     4   4   2   4   4   2
#     4  10  20  35  54  77 107 141 177 218 268 323
#     4  11  23  37  54  81 114 144 180 225 269 318
#     4   9  19  35  56  78  98 129 174 217 258 316
#     4   9  18  33  54  80 108 139 181 230 271 313
#     4   9  19  36  56  78 108 147 187 226 270 320
#     4  11  22  39  62  82 104 139 180 221 274 332
#
# _framework density 19.062609999999999
#
# number of rings (size 3 to 8) (size 9 to 14) (size 15 to 20)
#    0.000    2.200    0.000    2.700    0.000    5.600 
#    0.000    2.000    0.000    0.000    0.000    0.000 
#    0.000    0.000    0.000    0.000    0.000    0.000 
#
# Total GULP energy -248036.382979 kJ/mol
# GULP energy per Si atom -12401.819149 kJ/mol
# Density = 1.901922 g / cm^3
# Si number density = 19.062610 Si / 1000 Ang^3
#
#
#
# Elastic Constant Matrix: (Units=GPa)
#
#
# Indices 1 2 3 4 5 6 
#
# 1 123.1400 42.8835 79.7295 0.0000 0.0000 0.0000
# 2 42.8835 53.0713 48.4634 0.0000 0.0000 0.0000
# 3 79.7295 48.4634 162.7208 0.0000 0.0000 0.0000
# 4 0.0000 0.0000 0.0000 25.2689 0.0000 0.0000
# 5 0.0000 0.0000 0.0000 0.0000 2937.0926 0.0000
# 6 0.0000 0.0000 0.0000 0.0000 0.0000 19.5699
#
#
#
# Elastic Compliance Matrix: (Units=1/GPa)
#
#
# Indices 1 2 3 4 5 6 
#
# 1 0.013406 -0.006640 -0.004591 0.000000 0.000000 0.000000
# 2 -0.006640 0.029171 -0.005434 0.000000 0.000000 0.000000
# 3 -0.004591 -0.005434 0.010013 0.000000 0.000000 0.000000
# 4 0.000000 0.000000 0.000000 0.039574 0.000000 0.000000
# 5 0.000000 0.000000 0.000000 0.000000 0.000340 0.000000
# 6 0.000000 0.000000 0.000000 0.000000 0.000000 0.051099
#
#
# Mechanical properties :
#
#
# Convention : Reuss Voigt Hill
#
# Bulk Modulus (GPa) = 51.92368 75.67609 63.79988
# Shear Modulus (GPa) = 27.26968 607.57667 317.42318
#
# Velocity S-wave (km/s) = 3.78634 17.87229 12.91811
# Velocity P-wave (km/s) = 6.81269 21.57954 16.00140
#
# Compressibility (1/GPa) = 0.01925904
#
# Stress axis : x y z
#
# Youngs Moduli (GPa) = 74.59531 34.28112 99.86544
#
# Poissons Ratio (x) = 0.22763 0.45847
# Poissons Ratio (y) = 0.49531 0.54272
# Poissons Ratio (z) = 0.34246 0.18630
#
# Static dielectric constant tensor:
#      x y z
#    x -2.503670 0.000000 0.000000 
#    y 0.000000 3.351210 0.000000 
#    z 0.000000 0.000000 3.518380 
# 
# 
# High freq. dielectric constant tensor:
#      x y z
#    x 1.757750 0.000000 0.000000 
#    y 0.000000 1.728150 0.000000 
#    z 0.000000 0.000000 1.743500 
# 
# From -- ./inp_files/2551.got.cif
#   From: 2010.03.12/outbox.cif.g09.slc.cpg/sg25_2_cif.got.tgz:2551.got - 2010.04.14 03:30:10.
