data_PCOD8166365
_publ_section_title
;
Structure prediction by ZEFSAII (Michael W. Deem and Ramdas Pophale) SiO2 
 PCOD8166365
Probable space group: P M M 2
;
_chemical_formula_sum "Si O2"
_cell_formula_units_Z 32
_cell_length_a 14.401343
_cell_length_b 9.044538
_cell_length_c 15.589369
_cell_angle_alpha 90.000000
_cell_angle_beta 90.000000
_cell_angle_gamma 90.000000
_cell_volume 2030.569782
_symmetry_space_group_name_H-M "P M M 2"
_symmetry_group_IT_number 25
_symmetry_cell_setting 'orthorhombic'
loop_
_space_group_symop_operation_xyz
x,y,z
-x,-y,z
-x,y,z
x,-y,z
loop_
_atom_site_type_symbol
_atom_site_label
_atom_site_fract_x
_atom_site_fract_y
_atom_site_fract_z
Si Si1 0.610341 0.836480 0.276380
Si Si2 0.705186 0.675697 0.621140
Si Si3 0.605484 0.673998 0.110739
Si Si4 0.100603 0.675221 0.878663
Si Si5 0.390220 0.829326 0.780681
Si Si6 0.294664 0.324091 0.940397
Si Si7 0.899101 0.324835 0.686110
Si Si8 0.607537 0.826113 0.466744
O O1 0.500000 0.839808 0.275371
O O2 0.648560 0.734016 0.199840
O O3 0.640579 0.780499 0.370744
O O4 0.650254 0.000000 0.260356
O O5 0.694795 0.500000 0.628688
O O6 0.646178 0.749030 0.696193
O O7 0.813101 0.727601 0.627743
O O8 0.669629 0.730087 0.529843
O O9 0.500000 0.730053 0.097702
O O10 0.609341 0.500000 0.116306
O O11 0.665738 0.732471 0.031042
O O12 0.098981 0.500000 0.875457
O O13 0.186592 0.726955 0.937525
O O14 0.116528 0.736523 0.782459
O O15 0.000000 0.732463 0.913925
O O16 0.500000 0.813320 0.782192
O O17 0.351000 0.751886 0.864869
O O18 0.359323 0.000000 0.778792
O O19 0.305886 0.500000 0.929849
O O20 0.900396 0.500000 0.689713
O O21 0.000000 0.268159 0.651022
O O22 0.500000 0.785863 0.481657
O O23 0.623144 0.000000 0.482504
#
# Coordination Sequence:
#
# PCOD8166365 Si02
#       8
#     4   4   4   4   4   4   4   4
#     4   8  15  29  47  63  82 114 151 180 211 258
#     4  11  20  30  47  69  88 114 150 185 221 263
#     4   9  17  27  41  64  92 116 140 180 227 259
#     4   8  13  24  44  66  86 111 145 184 223 261
#     4  11  23  34  42  57  88 127 157 180 211 255
#     4  10  18  30  47  67  89 116 150 186 222 261
#     4   8  14  26  44  65  87 111 143 183 223 261
#     4   9  18  32  47  64  90 121 149 181 221 262
#
# _framework density 15.759123000000001
#
# number of rings (size 3 to 8) (size 9 to 14) (size 15 to 20)
#    0.000    2.750    1.250    3.000    0.000    4.250 
#    0.000    2.500    0.000    2.625    0.000    0.875 
#    0.000    5.000    0.000    0.000    0.000    0.000 
#
# Total GULP energy -396556.599819 kJ/mol
# GULP energy per Si atom -12392.393744 kJ/mol
# Density = 1.572326 g / cm^3
# Si number density = 15.759123 Si / 1000 Ang^3
#
#
#
# Elastic Constant Matrix: (Units=GPa)
#
#
# Indices 1 2 3 4 5 6 
#
# 1 102.7053 30.5835 61.6401 0.0000 0.0000 0.0000
# 2 30.5835 38.6855 37.6221 0.0000 0.0000 0.0000
# 3 61.6401 37.6221 129.1114 0.0000 0.0000 0.0000
# 4 0.0000 0.0000 0.0000 22.2046 0.0000 0.0000
# 5 0.0000 0.0000 0.0000 0.0000 7.9887 0.0000
# 6 0.0000 0.0000 0.0000 0.0000 0.0000 8.4310
#
#
#
# Elastic Compliance Matrix: (Units=1/GPa)
#
#
# Indices 1 2 3 4 5 6 
#
# 1 0.014808 -0.006742 -0.005105 0.000000 0.000000 0.000000
# 2 -0.006742 0.039141 -0.008187 0.000000 0.000000 0.000000
# 3 -0.005105 -0.008187 0.012568 0.000000 0.000000 0.000000
# 4 0.000000 0.000000 0.000000 0.045036 0.000000 0.000000
# 5 0.000000 0.000000 0.000000 0.000000 0.125176 0.000000
# 6 0.000000 0.000000 0.000000 0.000000 0.000000 0.118610
#
#
# Mechanical properties :
#
#
# Convention : Reuss Voigt Hill
#
# Bulk Modulus (GPa) = 37.80763 58.91041 48.35902
# Shear Modulus (GPa) = 12.36941 17.10197 14.73569
#
# Velocity S-wave (km/s) = 2.80465 3.29783 3.06119
# Velocity P-wave (km/s) = 5.87632 7.20859 6.57628
#
# Compressibility (1/GPa) = 0.02644969
#
# Stress axis : x y z
#
# Youngs Moduli (GPa) = 67.53048 25.54858 79.56694
#
# Poissons Ratio (x) = 0.17225 0.40620
# Poissons Ratio (y) = 0.45530 0.65139
# Poissons Ratio (z) = 0.34475 0.20916
#
# Static dielectric constant tensor:
#      x y z
#    x 3.281780 0.000000 0.000000 
#    y 0.000000 2.861420 0.000000 
#    z 0.000000 0.000000 3.124360 
# 
# 
# High freq. dielectric constant tensor:
#      x y z
#    x 1.592260 0.000000 0.000000 
#    y 0.000000 1.585850 0.000000 
#    z 0.000000 0.000000 1.595790 
# 
# From -- ./inp_files/5681.got.cif
#   From: 2010.03.12/outbox.cif.g09.slc.cpg/sg25_3_cif.got.tgz:5681.got - 2010.04.14 03:30:10.
