data_PCOD8166375
_publ_section_title
;
Structure prediction by ZEFSAII (Michael W. Deem and Ramdas Pophale) SiO2 
 PCOD8166375
Probable space group: P M M 2
;
_chemical_formula_sum "Si O2"
_cell_formula_units_Z 24
_cell_length_a 8.434380
_cell_length_b 16.743091
_cell_length_c 9.199648
_cell_angle_alpha 90.000000
_cell_angle_beta 90.000000
_cell_angle_gamma 90.000000
_cell_volume 1299.152137
_symmetry_space_group_name_H-M "P M M 2"
_symmetry_group_IT_number 25
_symmetry_cell_setting 'orthorhombic'
loop_
_space_group_symop_operation_xyz
x,y,z
-x,-y,z
-x,y,z
x,-y,z
loop_
_atom_site_type_symbol
_atom_site_label
_atom_site_fract_x
_atom_site_fract_y
_atom_site_fract_z
Si Si1 0.685240 0.909920 0.141290
Si Si2 0.317942 0.678295 0.076079
Si Si3 0.184720 0.820016 0.899171
Si Si4 0.817263 0.233664 0.327776
Si Si5 0.311696 0.412546 0.804988
Si Si6 0.685164 0.742595 0.640283
O O1 0.500000 0.890412 0.133905
O O2 0.767381 0.849412 0.253598
O O3 0.715833 0.000000 0.195671
O O4 0.763755 0.901952 0.979480
O O5 0.500000 0.669708 0.124356
O O6 0.213836 0.690469 0.221338
O O7 0.297275 0.755321 0.975297
O O8 0.262959 0.604395 0.974060
O O9 0.226038 0.814613 0.727720
O O10 0.000000 0.802931 0.926458
O O11 0.715869 0.247113 0.471320
O O12 0.000000 0.230415 0.370082
O O13 0.500000 0.413201 0.794438
O O14 0.242923 0.500000 0.761546
O O15 0.247278 0.343683 0.696212
O O16 0.500000 0.749494 0.671303
#
# Coordination Sequence:
#
# PCOD8166375 Si02
#       6
#     4   4   4   4   4   4
#     4  10  20  35  55  77 101 130 166 207 250 297
#     4   9  16  29  50  72  96 128 166 203 241 292
#     4  10  18  30  50  74 100 128 162 201 241 291
#     4  11  21  33  51  74 103 135 169 208 250 301
#     4   8  15  29  51  77  99 124 166 216 256 292
#     4  10  19  33  53  74 101 135 171 209 250 301
#
# _framework density 18.473587999999999
#
# number of rings (size 3 to 8) (size 9 to 14) (size 15 to 20)
#    0.000    2.333    0.000    7.500    0.000    1.333 
#    0.000    1.667    0.000   28.000    0.000    0.000 
#    0.000    0.000    0.000    0.000    0.000    0.000 
#
# Total GULP energy -297389.736762 kJ/mol
# GULP energy per Si atom -12391.239032 kJ/mol
# Density = 1.843154 g / cm^3
# Si number density = 18.473588 Si / 1000 Ang^3
#
#
#
# Elastic Constant Matrix: (Units=GPa)
#
#
# Indices 1 2 3 4 5 6 
#
# 1 68.5221 21.8674 10.7021 0.0000 0.0000 0.0000
# 2 21.8674 79.1163 33.9952 0.0000 0.0000 0.0000
# 3 10.7021 33.9952 101.2259 0.0000 0.0000 0.0000
# 4 0.0000 0.0000 0.0000 19.4859 0.0000 0.0000
# 5 0.0000 0.0000 0.0000 0.0000 27.1288 0.0000
# 6 0.0000 0.0000 0.0000 0.0000 0.0000 7.9646
#
#
#
# Elastic Compliance Matrix: (Units=1/GPa)
#
#
# Indices 1 2 3 4 5 6 
#
# 1 0.016011 -0.004322 -0.000241 0.000000 0.000000 0.000000
# 2 -0.004322 0.015938 -0.004896 0.000000 0.000000 0.000000
# 3 -0.000241 -0.004896 0.011548 0.000000 0.000000 0.000000
# 4 0.000000 0.000000 0.000000 0.051319 0.000000 0.000000
# 5 0.000000 0.000000 0.000000 0.000000 0.036861 0.000000
# 6 0.000000 0.000000 0.000000 0.000000 0.000000 0.125555
#
#
# Mechanical properties :
#
#
# Convention : Reuss Voigt Hill
#
# Bulk Modulus (GPa) = 40.68371 42.44373 41.56372
# Shear Modulus (GPa) = 17.58445 23.06918 20.32682
#
# Velocity S-wave (km/s) = 3.08859 3.53762 3.32070
# Velocity P-wave (km/s) = 5.89827 6.30171 6.10333
#
# Compressibility (1/GPa) = 0.02457987
#
# Stress axis : x y z
#
# Youngs Moduli (GPa) = 62.45838 62.74467 86.59137
#
# Poissons Ratio (x) = 0.27115 0.02090
# Poissons Ratio (y) = 0.26992 0.42391
# Poissons Ratio (z) = 0.01508 0.30717
#
# Static dielectric constant tensor:
#      x y z
#    x 3.247240 0.000000 0.000000 
#    y 0.000000 3.560250 0.000000 
#    z 0.000000 0.000000 3.536400 
# 
# 
# High freq. dielectric constant tensor:
#      x y z
#    x 1.714350 0.000000 0.000000 
#    y 0.000000 1.691150 0.000000 
#    z 0.000000 0.000000 1.710240 
# 
# From -- ./inp_files/2109.got.cif
#   From: 2010.03.12/outbox.cif.g09.slc.cpg/sg25_2_cif.got.tgz:2109.got - 2010.04.14 03:30:10.
