data_PCOD8166083
_publ_section_title
;
Structure prediction by ZEFSAII (Michael W. Deem and Ramdas Pophale) SiO2 
 PCOD8166083
Probable space group: I 21 21 21
;
_chemical_formula_sum "Si O2"
_cell_formula_units_Z 48
_cell_length_a 24.714843
_cell_length_b 10.012980
_cell_length_c 9.330497
_cell_angle_alpha 90.000000
_cell_angle_beta 90.000000
_cell_angle_gamma 90.000000
_cell_volume 2309.010896
_symmetry_space_group_name_H-M "I 21 21 21"
_symmetry_group_IT_number 24
_symmetry_cell_setting 'orthorhombic'
loop_
_space_group_symop_operation_xyz
x,y,z
-x,1/2-y,z
x,-y,1/2-z
1/2-x,y,-z
1/2+x,1/2+y,1/2+z
1/2-x,-y,1/2+z
1/2+x,1/2-y,-z
-x,1/2+y,1/2-z
loop_
_atom_site_type_symbol
_atom_site_label
_atom_site_fract_x
_atom_site_fract_y
_atom_site_fract_z
Si Si1 0.541881 0.992547 0.421438
Si Si2 0.880364 0.221622 0.471037
Si Si3 0.875116 0.235380 0.966433
Si Si4 0.928555 0.497385 0.078060
Si Si5 0.307267 0.342146 0.282991
Si Si6 0.189522 0.652361 0.279638
O O1 0.572138 0.122860 0.480483
O O2 0.534378 0.000000 0.250000
O O3 0.573053 0.859795 0.467992
O O4 0.485531 0.980495 0.501538
O O5 0.901684 0.370711 0.487210
O O6 0.824882 0.188392 0.554962
O O7 0.862602 0.205622 0.306306
O O8 0.851177 0.242941 0.807054
O O9 0.889632 0.378357 0.030141
O O10 0.825097 0.173033 0.055194
O O11 0.935524 0.500000 0.250000
O O12 0.313554 0.500000 0.250000
O O13 0.247497 0.281042 0.257331
O O14 0.199685 0.500000 0.250000
#
# Coordination Sequence:
#
# PCOD8166083 Si02
#       6
#     8   8   8   8   8   8
#     4  12  26  46  71 101 128 174 229 275 329 394
#     4  12  23  45  67  99 138 171 219 277 325 395
#     4  12  23  45  67  99 138 171 219 277 325 395
#     4  12  30  44  65  97 138 178 225 269 335 400
#     4  11  22  43  70 106 131 168 227 275 328 394
#     4  11  22  39  74 102 129 176 221 275 330 386
#
# _framework density 20.788122000000001
#
# number of rings (size 3 to 8) (size 9 to 14) (size 15 to 20)
#    0.000    0.333    6.667    2.000    4.667    5.333 
#    0.000    5.000    0.000    0.000    0.000    0.000 
#    0.000    0.000    0.000    0.000    0.000    0.000 
#
# Total GULP energy -297635.309129 kJ/mol
# GULP energy per Si atom -12401.471214 kJ/mol
# Density = 2.074081 g / cm^3
# Si number density = 20.788122 Si / 1000 Ang^3
#
#
#
# Elastic Constant Matrix: (Units=GPa)
#
#
# Indices 1 2 3 4 5 6 
#
# 1 106.1375 25.5054 22.0059 0.0000 0.0000 0.0000
# 2 25.5054 98.3061 21.4521 0.0000 0.0000 0.0000
# 3 22.0059 21.4521 66.6781 0.0000 0.0000 0.0000
# 4 0.0000 0.0000 0.0000 28.7628 0.0000 0.0000
# 5 0.0000 0.0000 0.0000 0.0000 -604.9387 0.0000
# 6 0.0000 0.0000 0.0000 0.0000 0.0000 19.1527
#
#
#
# Elastic Compliance Matrix: (Units=1/GPa)
#
#
# Indices 1 2 3 4 5 6 
#
# 1 0.010509 -0.002118 -0.002787 0.000000 0.000000 0.000000
# 2 -0.002118 0.011367 -0.002958 0.000000 0.000000 0.000000
# 3 -0.002787 -0.002958 0.016869 0.000000 0.000000 0.000000
# 4 0.000000 0.000000 0.000000 0.034767 0.000000 0.000000
# 5 0.000000 0.000000 0.000000 0.000000 -0.001653 0.000000
# 6 0.000000 0.000000 0.000000 0.000000 0.000000 0.052212
#
#
# Mechanical properties :
#
#
# Convention : Reuss Voigt Hill
#
# Bulk Modulus (GPa) = 43.44300 45.44983 44.44641
# Shear Modulus (GPa) = 33.90526 -97.92741 -32.01108
#
# Velocity S-wave (km/s) = 4.04294 -6.87093 -3.92838
# Velocity P-wave (km/s) = 6.53736 6.40589 0.92243
#
# Compressibility (1/GPa) = 0.02301867
#
# Stress axis : x y z
#
# Youngs Moduli (GPa) = 95.16055 87.97082 59.28105
#
# Poissons Ratio (x) = 0.18635 0.16520
# Poissons Ratio (y) = 0.20158 0.17536
# Poissons Ratio (z) = 0.26518 0.26022
#
# Static dielectric constant tensor:
#      x y z
#    x 3.989860 0.000000 0.000000 
#    y 0.000000 4.285990 0.000000 
#    z 0.000000 0.000000 3.953220 
# 
# 
# High freq. dielectric constant tensor:
#      x y z
#    x 1.826500 0.000000 0.000000 
#    y 0.000000 1.798810 0.000000 
#    z 0.000000 0.000000 1.833290 
# 
# From -- ./inp_files/15831.got.cif
#   From: 2010.03.12/outbox.cif.g09.slc.cpg/sg24_8_cif.got.tgz:15831.got - 2010.04.14 03:06:53.
