data_PCOD8166354
_publ_section_title
;
Structure prediction by ZEFSAII (Michael W. Deem and Ramdas Pophale) SiO2 
 PCOD8166354
Probable space group: P M M 2
;
_chemical_formula_sum "Si O2"
_cell_formula_units_Z 32
_cell_length_a 9.457475
_cell_length_b 14.612285
_cell_length_c 12.469636
_cell_angle_alpha 90.000000
_cell_angle_beta 90.000000
_cell_angle_gamma 90.000000
_cell_volume 1723.245338
_symmetry_space_group_name_H-M "P M M 2"
_symmetry_group_IT_number 25
_symmetry_cell_setting 'orthorhombic'
loop_
_space_group_symop_operation_xyz
x,y,z
-x,-y,z
-x,y,z
x,-y,z
loop_
_atom_site_type_symbol
_atom_site_label
_atom_site_fract_x
_atom_site_fract_y
_atom_site_fract_z
Si Si1 0.842748 0.161742 0.761930
Si Si2 0.333815 0.794309 0.563289
Si Si3 0.661731 0.401035 0.638332
Si Si4 0.668413 0.895055 0.351519
Si Si5 0.839198 0.100463 0.983698
Si Si6 0.661129 0.398755 0.050974
Si Si7 0.160987 0.636350 0.841041
Si Si8 0.335573 0.788149 0.144860
O O1 0.733330 0.154230 0.664897
O O2 0.832766 0.256071 0.826072
O O3 0.000000 0.146603 0.714233
O O4 0.806344 0.090371 0.856174
O O5 0.500000 0.808790 0.571164
O O6 0.292777 0.685596 0.563873
O O7 0.273790 0.842785 0.456817
O O8 0.500000 0.385130 0.675056
O O9 0.675908 0.500000 0.577281
O O10 0.757948 0.410097 0.742763
O O11 0.500000 0.894598 0.351695
O O12 0.727939 0.836273 0.251164
O O13 0.724593 0.000000 0.347736
O O14 0.734680 0.170573 0.039472
O O15 0.000000 0.135035 0.000227
O O16 0.817855 0.000000 0.034559
O O17 0.500000 0.385254 0.009848
O O18 0.680014 0.500000 0.102936
O O19 0.693559 0.321506 0.141846
O O20 0.765578 0.390741 0.951419
O O21 0.000000 0.600197 0.843145
O O22 0.500000 0.810949 0.138749
#
# Coordination Sequence:
#
# PCOD8166354 Si02
#       8
#     4   4   4   4   4   4   4   4
#     4   9  18  32  48  71 105 137 163 201 251 300
#     4   9  18  32  51  73  97 128 167 207 250 298
#     4   9  17  29  45  68 100 134 166 202 246 296
#     4   9  18  34  55  77  99 125 164 216 263 298
#     4  10  20  34  52  75 105 137 165 204 261 313
#     4  10  20  32  47  71 103 136 169 208 255 302
#     4  10  18  29  47  71 100 136 174 206 241 295
#     4  10  20  35  55  75 100 134 173 214 256 306
#
# _framework density 18.569614000000001
#
# number of rings (size 3 to 8) (size 9 to 14) (size 15 to 20)
#    0.000    2.500    1.250    1.125    0.000    4.250 
#    0.000    1.250    0.000    4.500    0.000    0.000 
#    0.000    4.000    0.000    0.000    0.000    0.000 
#
# Total GULP energy -396564.151683 kJ/mol
# GULP energy per Si atom -12392.629740 kJ/mol
# Density = 1.852735 g / cm^3
# Si number density = 18.569614 Si / 1000 Ang^3
#
#
#
# Elastic Constant Matrix: (Units=GPa)
#
#
# Indices 1 2 3 4 5 6 
#
# 1 51.3030 33.2915 35.6378 0.0000 0.0000 0.0000
# 2 33.2915 128.8572 65.4747 0.0000 0.0000 0.0000
# 3 35.6378 65.4747 105.9738 0.0000 0.0000 0.0000
# 4 0.0000 0.0000 0.0000 19.2851 0.0000 0.0000
# 5 0.0000 0.0000 0.0000 0.0000 7.6831 0.0000
# 6 0.0000 0.0000 0.0000 0.0000 0.0000 12.2430
#
#
#
# Elastic Compliance Matrix: (Units=1/GPa)
#
#
# Indices 1 2 3 4 5 6 
#
# 1 0.026399 -0.003366 -0.006798 0.000000 0.000000 0.000000
# 2 -0.003366 0.011741 -0.006122 0.000000 0.000000 0.000000
# 3 -0.006798 -0.006122 0.015505 0.000000 0.000000 0.000000
# 4 0.000000 0.000000 0.000000 0.051853 0.000000 0.000000
# 5 0.000000 0.000000 0.000000 0.000000 0.130156 0.000000
# 6 0.000000 0.000000 0.000000 0.000000 0.000000 0.081680
#
#
# Mechanical properties :
#
#
# Convention : Reuss Voigt Hill
#
# Bulk Modulus (GPa) = 47.45577 61.66021 54.55799
# Shear Modulus (GPa) = 14.00840 17.95757 15.98299
#
# Velocity S-wave (km/s) = 2.74956 3.11310 2.93696
# Velocity P-wave (km/s) = 5.97421 6.79697 6.39883
#
# Compressibility (1/GPa) = 0.02107225
#
# Stress axis : x y z
#
# Youngs Moduli (GPa) = 37.88087 85.17230 64.49675
#
# Poissons Ratio (x) = 0.28671 0.43843
# Poissons Ratio (y) = 0.12752 0.39485
# Poissons Ratio (z) = 0.25750 0.52142
#
# Static dielectric constant tensor:
#      x y z
#    x 3.281100 0.000000 0.000000 
#    y 0.000000 3.807890 0.000000 
#    z 0.000000 0.000000 3.256870 
# 
# 
# High freq. dielectric constant tensor:
#      x y z
#    x 1.702140 0.000000 0.000000 
#    y 0.000000 1.738730 0.000000 
#    z 0.000000 0.000000 1.688810 
# 
# From -- ./inp_files/4182.got.cif
#   From: 2010.03.12/outbox.cif.g09.slc.cpg/sg25_3_cif.got.tgz:4182.got - 2010.04.14 03:30:10.
