data_PCOD8166696
_publ_section_title
;
Structure prediction by ZEFSAII (Michael W. Deem and Ramdas Pophale) SiO2 
 PCOD8166696
Probable space group: P M M 2
;
_chemical_formula_sum "Si O2"
_cell_formula_units_Z 32
_cell_length_a 9.622162
_cell_length_b 14.630873
_cell_length_c 12.412632
_cell_angle_alpha 90.000000
_cell_angle_beta 90.000000
_cell_angle_gamma 90.000000
_cell_volume 1747.458155
_symmetry_space_group_name_H-M "P M M 2"
_symmetry_group_IT_number 25
_symmetry_cell_setting 'orthorhombic'
loop_
_space_group_symop_operation_xyz
x,y,z
-x,-y,z
-x,y,z
x,-y,z
loop_
_atom_site_type_symbol
_atom_site_label
_atom_site_fract_x
_atom_site_fract_y
_atom_site_fract_z
Si Si1 0.165020 0.291222 0.870620
Si Si2 0.165199 0.901397 0.805060
Si Si3 0.653811 0.599850 0.462115
Si Si4 0.164897 0.606946 0.083878
Si Si5 0.844159 0.140973 0.569167
Si Si6 0.845079 0.654819 0.638755
Si Si7 0.662979 0.714666 0.260911
Si Si8 0.659275 0.101613 0.364494
O O1 0.222322 0.185555 0.874170
O O2 0.216111 0.337752 0.759736
O O3 0.000000 0.287968 0.869116
O O4 0.217205 0.352140 0.969924
O O5 0.217184 0.898233 0.681328
O O6 0.000000 0.893180 0.801797
O O7 0.211785 0.000000 0.855224
O O8 0.500000 0.629709 0.499167
O O9 0.652083 0.500000 0.407006
O O10 0.747286 0.590811 0.568346
O O11 0.709288 0.670729 0.374127
O O12 0.206437 0.500000 0.091170
O O13 0.243279 0.667846 0.171034
O O14 0.000000 0.618940 0.099220
O O15 0.846389 0.249348 0.577747
O O16 0.748807 0.109032 0.471911
O O17 0.000000 0.104023 0.547758
O O18 0.000000 0.612916 0.642257
O O19 0.500000 0.697150 0.235571
O O20 0.698362 0.822861 0.273160
O O21 0.500000 0.118130 0.399011
O O22 0.680355 0.000000 0.314518
#
# Coordination Sequence:
#
# PCOD8166696 Si02
#       8
#     4   4   4   4   4   4   4   4
#     4   8  16  31  49  72 102 133 167 208 255 305
#     4   8  13  23  43  72 104 136 167 199 242 298
#     4  10  20  33  50  73 101 134 169 207 257 312
#     4  10  21  37  57  78  99 129 174 225 267 304
#     4   9  16  27  46  74 106 138 171 206 242 288
#     4   9  17  30  50  76 106 138 168 201 249 309
#     4  10  21  38  56  73 101 137 172 213 260 310
#     4  10  20  33  51  75 102 136 174 207 249 306
#
# _framework density 18.312313
#
# number of rings (size 3 to 8) (size 9 to 14) (size 15 to 20)
#    0.000    2.750    1.250    2.250    0.000    3.250 
#    0.000    2.500    0.000    1.500    0.000    0.000 
#    0.000    0.000    0.000    0.000    0.000    0.000 
#
# Total GULP energy -396497.026953 kJ/mol
# GULP energy per Si atom -12390.532092 kJ/mol
# Density = 1.827063 g / cm^3
# Si number density = 18.312313 Si / 1000 Ang^3
#
#
#
# Elastic Constant Matrix: (Units=GPa)
#
#
# Indices 1 2 3 4 5 6 
#
# 1 47.2599 33.7032 43.3886 0.0000 0.0000 0.0000
# 2 33.7032 131.5434 64.6481 0.0000 0.0000 0.0000
# 3 43.3886 64.6481 106.5127 0.0000 0.0000 0.0000
# 4 0.0000 0.0000 0.0000 21.5097 0.0000 0.0000
# 5 0.0000 0.0000 0.0000 0.0000 0.9031 0.0000
# 6 0.0000 0.0000 0.0000 0.0000 0.0000 19.1094
#
#
#
# Elastic Compliance Matrix: (Units=1/GPa)
#
#
# Indices 1 2 3 4 5 6 
#
# 1 0.034486 -0.002753 -0.012377 0.000000 0.000000 0.000000
# 2 -0.002753 0.011053 -0.005587 0.000000 0.000000 0.000000
# 3 -0.012377 -0.005587 0.017822 0.000000 0.000000 0.000000
# 4 0.000000 0.000000 0.000000 0.046491 0.000000 0.000000
# 5 0.000000 0.000000 0.000000 0.000000 1.107266 0.000000
# 6 0.000000 0.000000 0.000000 0.000000 0.000000 0.052330
#
#
# Mechanical properties :
#
#
# Convention : Reuss Voigt Hill
#
# Bulk Modulus (GPa) = 45.60770 63.19952 54.40361
# Shear Modulus (GPa) = 3.79307 17.87620 10.83464
#
# Velocity S-wave (km/s) = 1.44077 3.12778 2.43504
# Velocity P-wave (km/s) = 5.26567 6.90152 6.13834
#
# Compressibility (1/GPa) = 0.02192612
#
# Stress axis : x y z
#
# Youngs Moduli (GPa) = 28.99713 90.47000 56.11097
#
# Poissons Ratio (x) = 0.24905 0.69450
# Poissons Ratio (y) = 0.07983 0.31352
# Poissons Ratio (z) = 0.35891 0.50550
#
# Static dielectric constant tensor:
#      x y z
#    x 3.129240 0.000000 0.000000 
#    y 0.000000 3.714070 0.000000 
#    z 0.000000 0.000000 3.288370 
# 
# 
# High freq. dielectric constant tensor:
#      x y z
#    x 1.674670 0.000000 0.000000 
#    y 0.000000 1.729500 0.000000 
#    z 0.000000 0.000000 1.683870 
# 
# From -- ./inp_files/4175.got.cif
#   From: 2010.03.12/outbox.cif.g09.slc.cpg/sg25_3_cif.got.tgz:4175.got - 2010.04.14 03:30:10.
