data_PCOD8166019
_publ_section_title
;
Structure prediction by ZEFSAII (Michael W. Deem and Ramdas Pophale) SiO2 
 PCOD8166019
Probable space group: I 21 21 21
;
_chemical_formula_sum "Si O2"
_cell_formula_units_Z 56
_cell_length_a 20.891383
_cell_length_b 8.890224
_cell_length_c 14.177268
_cell_angle_alpha 90.000000
_cell_angle_beta 90.000000
_cell_angle_gamma 90.000000
_cell_volume 2633.130865
_symmetry_space_group_name_H-M "I 21 21 21"
_symmetry_group_IT_number 24
_symmetry_cell_setting 'orthorhombic'
loop_
_space_group_symop_operation_xyz
x,y,z
-x,1/2-y,z
x,-y,1/2-z
1/2-x,y,-z
1/2+x,1/2+y,1/2+z
1/2-x,-y,1/2+z
1/2+x,1/2-y,-z
-x,1/2+y,1/2-z
loop_
_atom_site_type_symbol
_atom_site_label
_atom_site_fract_x
_atom_site_fract_y
_atom_site_fract_z
Si Si1 0.749086 0.332127 0.762383
Si Si2 0.557757 0.166151 0.777329
Si Si3 0.433527 0.822436 0.056007
Si Si4 0.620624 0.176305 0.259153
Si Si5 0.853112 0.688340 0.402222
Si Si6 0.127495 0.144001 0.364434
Si Si7 0.935217 0.669985 0.578583
O O1 0.777886 0.500000 0.750000
O O2 0.804202 0.211457 0.747478
O O3 0.721745 0.312116 0.870834
O O4 0.694867 0.305196 0.682143
O O5 0.500000 0.250000 0.831260
O O6 0.616913 0.166763 0.849708
O O7 0.570603 0.265851 0.684637
O O8 0.538883 0.000000 0.750000
O O9 0.500000 0.750000 0.020475
O O10 0.406435 0.726298 0.141261
O O11 0.447519 0.993058 0.087787
O O12 0.378607 0.816403 0.975280
O O13 0.581079 0.262972 0.179705
O O14 0.609735 0.000000 0.250000
O O15 0.881954 0.536200 0.353789
O O16 0.872341 0.698345 0.511789
O O17 0.000000 0.750000 0.539757
#
# Coordination Sequence:
#
# PCOD8166019 Si02
#       7
#     8   8   8   8   8   8   8
#     4   9  19  40  64  89 121 157 197 238 289 355
#     4  11  20  30  50  80 118 157 193 236 289 348
#     4  11  23  41  64  90 119 155 199 248 300 354
#     4  12  26  42  60  85 119 160 203 250 298 349
#     4   9  20  38  61  87 117 153 194 240 294 354
#     4   9  20  38  61  87 117 153 194 240 294 354
#     4  11  23  41  64  90 119 155 199 248 300 354
#
# _framework density 21.267458999999999
#
# number of rings (size 3 to 8) (size 9 to 14) (size 15 to 20)
#    0.000    1.714    0.000    5.571    0.000    8.000 
#    0.000    5.714    0.000    0.000    0.000    0.000 
#    0.000    0.000    0.000    0.000    0.000    0.000 
#
# Total GULP energy -347037.889065 kJ/mol
# GULP energy per Si atom -12394.210324 kJ/mol
# Density = 2.121905 g / cm^3
# Si number density = 21.267459 Si / 1000 Ang^3
#
#
#
# Elastic Constant Matrix: (Units=GPa)
#
#
# Indices 1 2 3 4 5 6 
#
# 1 79.5072 27.0702 21.1359 0.0000 0.0000 0.0000
# 2 27.0702 111.1882 17.3422 0.0000 0.0000 0.0000
# 3 21.1359 17.3422 85.6421 0.0000 0.0000 0.0000
# 4 0.0000 0.0000 0.0000 20.3145 0.0000 0.0000
# 5 0.0000 0.0000 0.0000 0.0000 38.8828 0.0000
# 6 0.0000 0.0000 0.0000 0.0000 0.0000 35.1953
#
#
#
# Elastic Compliance Matrix: (Units=1/GPa)
#
#
# Indices 1 2 3 4 5 6 
#
# 1 0.014395 -0.003047 -0.002936 0.000000 0.000000 0.000000
# 2 -0.003047 0.009932 -0.001259 0.000000 0.000000 0.000000
# 3 -0.002936 -0.001259 0.012656 0.000000 0.000000 0.000000
# 4 0.000000 0.000000 0.000000 0.049226 0.000000 0.000000
# 5 0.000000 0.000000 0.000000 0.000000 0.025718 0.000000
# 6 0.000000 0.000000 0.000000 0.000000 0.000000 0.028413
#
#
# Mechanical properties :
#
#
# Convention : Reuss Voigt Hill
#
# Bulk Modulus (GPa) = 44.44505 45.27047 44.85776
# Shear Modulus (GPa) = 30.80264 32.93112 31.86688
#
# Velocity S-wave (km/s) = 3.80984 3.93928 3.87510
# Velocity P-wave (km/s) = 6.34797 6.48251 6.41559
#
# Compressibility (1/GPa) = 0.02249969
#
# Stress axis : x y z
#
# Youngs Moduli (GPa) = 69.46733 100.68503 79.01387
#
# Poissons Ratio (x) = 0.30677 0.23196
# Poissons Ratio (y) = 0.21166 0.09950
# Poissons Ratio (z) = 0.20393 0.12679
#
# Static dielectric constant tensor:
#      x y z
#    x 3.790230 0.000000 0.000000 
#    y 0.000000 3.794810 0.000000 
#    z 0.000000 0.000000 3.828840 
# 
# 
# High freq. dielectric constant tensor:
#      x y z
#    x 1.826700 0.000000 0.000000 
#    y 0.000000 1.830770 0.000000 
#    z 0.000000 0.000000 1.834300 
# 
# From -- ./inp_files/27550.got.cif
#   From: 2010.03.12/outbox.cif.g09.slc.cpg/sg24_14_cif.got.tgz:27550.got - 2010.04.14 03:06:53.
