data_PCOD8166568
_publ_section_title
;
Structure prediction by ZEFSAII (Michael W. Deem and Ramdas Pophale) SiO2 
 PCOD8166568
Probable space group: P M M 2
;
_chemical_formula_sum "Si O2"
_cell_formula_units_Z 16
_cell_length_a 11.847949
_cell_length_b 8.906925
_cell_length_c 7.627560
_cell_angle_alpha 90.000000
_cell_angle_beta 90.000000
_cell_angle_gamma 90.000000
_cell_volume 804.927201
_symmetry_space_group_name_H-M "P M M 2"
_symmetry_group_IT_number 25
_symmetry_cell_setting 'orthorhombic'
loop_
_space_group_symop_operation_xyz
x,y,z
-x,-y,z
-x,y,z
x,-y,z
loop_
_atom_site_type_symbol
_atom_site_label
_atom_site_fract_x
_atom_site_fract_y
_atom_site_fract_z
Si Si1 0.500000 0.176458 0.952641
Si Si2 0.500000 0.670428 0.587698
Si Si3 0.272456 0.674377 0.058975
Si Si4 0.743171 0.670771 0.453222
Si Si5 0.131107 0.174366 0.760007
O O1 0.500000 0.215866 0.748342
O O2 0.500000 0.000000 0.974787
O O3 0.609918 0.240687 0.045514
O O4 0.500000 0.500000 0.660764
O O5 0.609464 0.700768 0.469530
O O6 0.295259 0.500000 0.022904
O O7 0.221706 0.701549 0.252536
O O8 0.182829 0.732940 0.919358
O O9 0.772003 0.500000 0.507377
O O10 0.812463 0.781873 0.576307
O O11 0.000000 0.212964 0.748314
O O12 0.153745 0.000000 0.794875
#
# Coordination Sequence:
#
# PCOD8166568 Si02
#       5
#     2   2   4   4   4
#     4  12  23  36  60  95 129 163 199 243 307 372
#     4  10  19  36  62  91 123 159 195 245 307 364
#     4  11  23  41  65  93 124 161 206 253 302 362
#     4  10  22  40  65  93 122 159 204 252 305 363
#     4  11  25  43  62  88 124 164 206 255 310 364
#
# _framework density 19.877573999999999
#
# number of rings (size 3 to 8) (size 9 to 14) (size 15 to 20)
#    0.000    1.250    2.500    3.375    0.000    7.000 
#    0.000    6.250    0.000    0.000    0.000    0.000 
#    0.000    0.000    0.000    0.000    0.000    0.000 
#
# Total GULP energy -198484.570065 kJ/mol
# GULP energy per Si atom -12405.285629 kJ/mol
# Density = 1.983233 g / cm^3
# Si number density = 19.877574 Si / 1000 Ang^3
#
#
#
# Elastic Constant Matrix: (Units=GPa)
#
#
# Indices 1 2 3 4 5 6 
#
# 1 116.1830 60.8006 49.8301 0.0000 0.0000 0.0000
# 2 60.8006 124.4963 57.8853 0.0000 0.0000 0.0000
# 3 49.8301 57.8853 129.5438 0.0000 0.0000 0.0000
# 4 0.0000 0.0000 0.0000 8.2681 0.0000 0.0000
# 5 0.0000 0.0000 0.0000 0.0000 0.1966 0.0000
# 6 0.0000 0.0000 0.0000 0.0000 0.0000 44.3042
#
#
#
# Elastic Compliance Matrix: (Units=1/GPa)
#
#
# Indices 1 2 3 4 5 6 
#
# 1 0.012201 -0.004767 -0.002563 0.000000 0.000000 0.000000
# 2 -0.004767 0.012001 -0.003529 0.000000 0.000000 0.000000
# 3 -0.002563 -0.003529 0.010282 0.000000 0.000000 0.000000
# 4 0.000000 0.000000 0.000000 0.120947 0.000000 0.000000
# 5 0.000000 0.000000 0.000000 0.000000 5.086441 0.000000
# 6 0.000000 0.000000 0.000000 0.000000 0.000000 0.022571
#
#
# Mechanical properties :
#
#
# Convention : Reuss Voigt Hill
#
# Bulk Modulus (GPa) = 78.33092 78.58387 78.45739
# Shear Modulus (GPa) = 0.94510 24.00092 12.47301
#
# Velocity S-wave (km/s) = 0.69029 3.47859 2.50770
# Velocity P-wave (km/s) = 6.33463 7.46685 6.92392
#
# Compressibility (1/GPa) = 0.01276635
#
# Stress axis : x y z
#
# Youngs Moduli (GPa) = 81.96019 83.32496 97.25500
#
# Poissons Ratio (x) = 0.39720 0.24928
# Poissons Ratio (y) = 0.39069 0.34321
# Poissons Ratio (z) = 0.21008 0.29405
#
# Static dielectric constant tensor:
#      x y z
#    x 3.621020 0.000000 0.000000 
#    y 0.000000 3.659550 0.000000 
#    z 0.000000 0.000000 3.646620 
# 
# 
# High freq. dielectric constant tensor:
#      x y z
#    x 1.774050 0.000000 0.000000 
#    y 0.000000 1.779900 0.000000 
#    z 0.000000 0.000000 1.785610 
# 
# From -- ./inp_files/2478.got.cif
#   From: 2010.03.12/outbox.cif.g09.slc.cpg/sg25_2_cif.got.tgz:2478.got - 2010.04.14 03:30:10.
