data_PCOD8166928
_publ_section_title
;
Structure prediction by ZEFSAII (Michael W. Deem and Ramdas Pophale) SiO2 
 PCOD8166928
Probable space group: P M M 2
;
_chemical_formula_sum "Si O2"
_cell_formula_units_Z 24
_cell_length_a 11.673284
_cell_length_b 8.530661
_cell_length_c 12.547510
_cell_angle_alpha 90.000000
_cell_angle_beta 90.000000
_cell_angle_gamma 90.000000
_cell_volume 1249.491442
_symmetry_space_group_name_H-M "P M M 2"
_symmetry_group_IT_number 25
_symmetry_cell_setting 'orthorhombic'
loop_
_space_group_symop_operation_xyz
x,y,z
-x,-y,z
-x,y,z
x,-y,z
loop_
_atom_site_type_symbol
_atom_site_label
_atom_site_fract_x
_atom_site_fract_y
_atom_site_fract_z
Si Si1 0.500000 0.319461 0.184820
Si Si2 0.130238 0.180999 0.678902
Si Si3 0.869075 0.682133 0.454350
Si Si4 0.132920 0.180348 0.063626
Si Si5 0.276059 0.819068 0.270054
Si Si6 0.735546 0.318130 0.872480
Si Si7 0.500000 0.815606 0.952271
O O1 0.500000 0.500000 0.149902
O O2 0.610296 0.283717 0.256699
O O3 0.500000 0.215203 0.078510
O O4 0.163150 0.283932 0.576526
O O5 0.215439 0.222413 0.773554
O O6 0.000000 0.217112 0.715759
O O7 0.144628 0.000000 0.648177
O O8 0.852168 0.500000 0.430013
O O9 0.784258 0.780888 0.381071
O O10 0.000000 0.735030 0.432485
O O11 0.188478 0.222583 0.176116
O O12 0.000000 0.216831 0.074136
O O13 0.156585 0.000000 0.031476
O O14 0.185478 0.292305 0.975018
O O15 0.311730 0.000000 0.268154
O O16 0.733939 0.500000 0.843402
O O17 0.608849 0.259378 0.896060
O O18 0.500000 0.000000 0.933890
#
# Coordination Sequence:
#
# PCOD8166928 Si02
#       7
#     2   4   4   4   4   4   2
#     4  12  24  40  61  88 119 156 200 249 301 351
#     4  10  21  39  63  89 120 160 203 244 293 357
#     4  10  21  38  61  90 124 159 198 248 302 352
#     4  10  21  36  56  84 119 157 196 240 291 352
#     4  11  22  38  61  87 118 160 203 243 293 356
#     4  12  24  38  59  88 120 155 197 247 301 353
#     4  12  24  42  63  84 115 160 204 243 293 357
#
# _framework density 19.207815
#
# number of rings (size 3 to 8) (size 9 to 14) (size 15 to 20)
#    0.000    1.167    1.667    5.500    0.000    5.667 
#    0.000    0.833    0.000    0.000    0.000    0.000 
#    0.000    0.000    0.000    0.000    0.000    0.000 
#
# Total GULP energy -297773.434632 kJ/mol
# GULP energy per Si atom -12407.226443 kJ/mol
# Density = 1.916410 g / cm^3
# Si number density = 19.207815 Si / 1000 Ang^3
#
#
#
# Elastic Constant Matrix: (Units=GPa)
#
#
# Indices 1 2 3 4 5 6 
#
# 1 126.7647 24.8291 50.7245 0.0000 0.0000 0.0000
# 2 24.8291 70.4808 12.0257 0.0000 0.0000 0.0000
# 3 50.7245 12.0257 92.5711 0.0000 0.0000 0.0000
# 4 0.0000 0.0000 0.0000 32.1501 0.0000 0.0000
# 5 0.0000 0.0000 0.0000 0.0000 50.2811 0.0000
# 6 0.0000 0.0000 0.0000 0.0000 0.0000 28.4259
#
#
#
# Elastic Compliance Matrix: (Units=1/GPa)
#
#
# Indices 1 2 3 4 5 6 
#
# 1 0.010622 -0.002811 -0.005455 0.000000 0.000000 0.000000
# 2 -0.002811 0.015254 -0.000441 0.000000 0.000000 0.000000
# 3 -0.005455 -0.000441 0.013849 0.000000 0.000000 0.000000
# 4 0.000000 0.000000 0.000000 0.031104 0.000000 0.000000
# 5 0.000000 0.000000 0.000000 0.000000 0.019888 0.000000
# 6 0.000000 0.000000 0.000000 0.000000 0.000000 0.035179
#
#
# Mechanical properties :
#
#
# Convention : Reuss Voigt Hill
#
# Bulk Modulus (GPa) = 44.82335 51.66390 48.24363
# Shear Modulus (GPa) = 33.16784 35.65389 34.41086
#
# Velocity S-wave (km/s) = 4.15997 4.31306 4.23721
# Velocity P-wave (km/s) = 6.81619 7.19437 7.00784
#
# Compressibility (1/GPa) = 0.02230980
#
# Stress axis : x y z
#
# Youngs Moduli (GPa) = 94.14297 65.55709 72.20725
#
# Poissons Ratio (x) = 0.18429 0.39391
# Poissons Ratio (y) = 0.26465 0.03186
# Poissons Ratio (z) = 0.51357 0.02892
#
# Static dielectric constant tensor:
#      x y z
#    x 3.584860 0.000000 0.000000 
#    y 0.000000 3.543130 0.000000 
#    z 0.000000 0.000000 3.425030 
# 
# 
# High freq. dielectric constant tensor:
#      x y z
#    x 1.751170 0.000000 0.000000 
#    y 0.000000 1.757860 0.000000 
#    z 0.000000 0.000000 1.745320 
# 
# From -- ./inp_files/3943.got.cif
#   From: 2010.03.12/outbox.cif.g09.slc.cpg/sg25_2_cif.got.tgz:3943.got - 2010.04.14 03:30:10.
