data_PCOD8166995
_publ_section_title
;
Structure prediction by ZEFSAII (Michael W. Deem and Ramdas Pophale) SiO2 
 PCOD8166995
Probable space group: P M M 2
;
_chemical_formula_sum "Si O2"
_cell_formula_units_Z 32
_cell_length_a 9.055331
_cell_length_b 13.884575
_cell_length_c 12.672937
_cell_angle_alpha 90.000000
_cell_angle_beta 90.000000
_cell_angle_gamma 90.000000
_cell_volume 1593.361049
_symmetry_space_group_name_H-M "P M M 2"
_symmetry_group_IT_number 25
_symmetry_cell_setting 'orthorhombic'
loop_
_space_group_symop_operation_xyz
x,y,z
-x,-y,z
-x,y,z
x,-y,z
loop_
_atom_site_type_symbol
_atom_site_label
_atom_site_fract_x
_atom_site_fract_y
_atom_site_fract_z
Si Si1 0.829157 0.706911 0.316940
Si Si2 0.671590 0.388233 0.510185
Si Si3 0.661992 0.114102 0.001193
Si Si4 0.675273 0.109418 0.766290
Si Si5 0.825485 0.290678 0.702625
Si Si6 0.669260 0.612356 0.891661
Si Si7 0.170315 0.893244 0.203424
Si Si8 0.665411 0.614025 0.129103
O O1 0.727192 0.673361 0.411789
O O2 0.801988 0.821569 0.301407
O O3 0.786699 0.654287 0.208707
O O4 0.000000 0.684496 0.342392
O O5 0.500000 0.366331 0.529191
O O6 0.699044 0.500000 0.484977
O O7 0.761355 0.360299 0.613656
O O8 0.500000 0.160204 0.013952
O O9 0.758460 0.153176 0.098123
O O10 0.652405 0.000000 0.008894
O O11 0.724605 0.139458 0.885274
O O12 0.500000 0.119968 0.753825
O O13 0.759264 0.182740 0.688333
O O14 0.723816 0.000000 0.739766
O O15 0.780279 0.332165 0.815730
O O16 0.000000 0.286132 0.691166
O O17 0.500000 0.630918 0.856270
O O18 0.706226 0.500000 0.886048
O O19 0.694606 0.652864 0.010210
O O20 0.000000 0.901138 0.176280
O O21 0.233521 0.000000 0.231530
O O22 0.500000 0.643390 0.166153
O O23 0.678908 0.500000 0.126683
#
# Coordination Sequence:
#
# PCOD8166995 Si02
#       8
#     4   4   4   4   4   4   4   4
#     4  11  23  37  58  88 119 151 193 243 301 356
#     4  11  25  46  69  88 110 148 199 249 299 361
#     4   8  15  29  51  79 110 149 197 243 281 321
#     4   9  19  37  59  84 118 160 205 248 289 341
#     4  12  25  38  59  90 122 154 193 243 305 363
#     4   9  19  37  59  83 115 156 199 242 292 354
#     4   9  19  35  53  78 118 161 195 231 282 345
#     4   9  19  36  57  82 114 153 194 236 288 352
#
# _framework density 20.083331999999999
#
# number of rings (size 3 to 8) (size 9 to 14) (size 15 to 20)
#    0.000    2.250    0.000    4.125    1.750    6.750 
#    0.000    3.125    0.000    2.250    0.000    0.000 
#    0.000    0.000    0.000    0.000    0.000    0.000 
#
# Total GULP energy -396762.574426 kJ/mol
# GULP energy per Si atom -12398.830451 kJ/mol
# Density = 2.003762 g / cm^3
# Si number density = 20.083332 Si / 1000 Ang^3
#
#
#
# Elastic Constant Matrix: (Units=GPa)
#
#
# Indices 1 2 3 4 5 6 
#
# 1 90.8525 44.4161 35.1391 0.0000 0.0000 0.0000
# 2 44.4161 69.4274 35.0166 0.0000 0.0000 0.0000
# 3 35.1391 35.0166 73.6520 0.0000 0.0000 0.0000
# 4 0.0000 0.0000 0.0000 30.8863 0.0000 0.0000
# 5 0.0000 0.0000 0.0000 0.0000 15.2222 0.0000
# 6 0.0000 0.0000 0.0000 0.0000 0.0000 27.8503
#
#
#
# Elastic Compliance Matrix: (Units=1/GPa)
#
#
# Indices 1 2 3 4 5 6 
#
# 1 0.016795 -0.008818 -0.003821 0.000000 0.000000 0.000000
# 2 -0.008818 0.023576 -0.007002 0.000000 0.000000 0.000000
# 3 -0.003821 -0.007002 0.018729 0.000000 0.000000 0.000000
# 4 0.000000 0.000000 0.000000 0.032377 0.000000 0.000000
# 5 0.000000 0.000000 0.000000 0.000000 0.065693 0.000000
# 6 0.000000 0.000000 0.000000 0.000000 0.000000 0.035906
#
#
# Mechanical properties :
#
#
# Convention : Reuss Voigt Hill
#
# Bulk Modulus (GPa) = 50.45462 51.45283 50.95372
# Shear Modulus (GPa) = 20.92355 22.74912 21.83634
#
# Velocity S-wave (km/s) = 3.23125 3.36927 3.30098
# Velocity P-wave (km/s) = 6.25288 6.38837 6.32099
#
# Compressibility (1/GPa) = 0.01981979
#
# Stress axis : x y z
#
# Youngs Moduli (GPa) = 59.53983 42.41554 53.39256
#
# Poissons Ratio (x) = 0.37401 0.20400
# Poissons Ratio (y) = 0.52501 0.37385
# Poissons Ratio (z) = 0.22749 0.29699
#
# Static dielectric constant tensor:
#      x y z
#    x 3.617800 0.000000 0.000000 
#    y 0.000000 3.864240 0.000000 
#    z 0.000000 0.000000 3.588530 
# 
# 
# High freq. dielectric constant tensor:
#      x y z
#    x 1.772230 0.000000 0.000000 
#    y 0.000000 1.800420 0.000000 
#    z 0.000000 0.000000 1.766430 
# 
# From -- ./inp_files/4193.got.cif
#   From: 2010.03.12/outbox.cif.g09.slc.cpg/sg25_3_cif.got.tgz:4193.got - 2010.04.14 03:30:10.
