data_PCOD8166277
_publ_section_title
;
Structure prediction by ZEFSAII (Michael W. Deem and Ramdas Pophale) SiO2 
 PCOD8166277
Probable space group: I 21 21 21
;
_chemical_formula_sum "Si O2"
_cell_formula_units_Z 16
_cell_length_a 5.057816
_cell_length_b 4.901120
_cell_length_c 26.818605
_cell_angle_alpha 90.000000
_cell_angle_beta 90.000000
_cell_angle_gamma 90.000000
_cell_volume 664.805411
_symmetry_space_group_name_H-M "I 21 21 21"
_symmetry_group_IT_number 24
_symmetry_cell_setting 'orthorhombic'
loop_
_space_group_symop_operation_xyz
x,y,z
-x,1/2-y,z
x,-y,1/2-z
1/2-x,y,-z
1/2+x,1/2+y,1/2+z
1/2-x,-y,1/2+z
1/2+x,1/2-y,-z
-x,1/2+y,1/2-z
loop_
_atom_site_type_symbol
_atom_site_label
_atom_site_fract_x
_atom_site_fract_y
_atom_site_fract_z
Si Si1 0.500000 0.750000 0.283912
Si Si2 0.000000 0.750000 0.083758
Si Si3 0.750000 0.441713 0.000000
Si Si4 0.500000 0.750000 0.651023
O O1 0.405626 0.500000 0.250000
O O2 0.249481 0.845874 0.316417
O O3 0.103649 0.501861 0.117697
O O4 0.765689 0.636947 0.048414
O O5 0.500000 0.250000 0.005838
#
# Coordination Sequence:
#
# PCOD8166277 Si02
#       4
#     4   4   4   4
#     4  12  26  50  76 106 146 188 242 314 394 446
#     4  12  28  49  73 114 152 200 257 301 372 434
#     4  12  28  50  76 108 162 212 252 310 372 440
#     4  12  28  45  79 108 146 192 253 311 364 464
#
# _framework density 24.067188999999999
#
# number of rings (size 3 to 8) (size 9 to 14) (size 15 to 20)
#    0.000    0.000    2.500    6.000    3.500    4.000 
#    0.000    0.000    0.000    0.000    0.000    0.000 
#    0.000    0.000    0.000    0.000    0.000    0.000 
#
# Total GULP energy -99249.881303 kJ/mol
# GULP energy per Si atom -12406.235163 kJ/mol
# Density = 2.401241 g / cm^3
# Si number density = 24.067189 Si / 1000 Ang^3
#
#
#
# Elastic Constant Matrix: (Units=GPa)
#
#
# Indices 1 2 3 4 5 6 
#
# 1 155.6912 43.5810 54.5299 0.0000 0.0000 0.0000
# 2 43.5810 178.2435 70.3694 0.0000 0.0000 0.0000
# 3 54.5299 70.3694 141.3278 0.0000 0.0000 0.0000
# 4 0.0000 0.0000 0.0000 46.8689 0.0000 0.0000
# 5 0.0000 0.0000 0.0000 0.0000 19.2870 0.0000
# 6 0.0000 0.0000 0.0000 0.0000 0.0000 33.2117
#
#
#
# Elastic Compliance Matrix: (Units=1/GPa)
#
#
# Indices 1 2 3 4 5 6 
#
# 1 0.007532 -0.000864 -0.002476 0.000000 0.000000 0.000000
# 2 -0.000864 0.007082 -0.003193 0.000000 0.000000 0.000000
# 3 -0.002476 -0.003193 0.009621 0.000000 0.000000 0.000000
# 4 0.000000 0.000000 0.000000 0.021336 0.000000 0.000000
# 5 0.000000 0.000000 0.000000 0.000000 0.051848 0.000000
# 6 0.000000 0.000000 0.000000 0.000000 0.000000 0.030110
#
#
# Mechanical properties :
#
#
# Convention : Reuss Voigt Hill
#
# Bulk Modulus (GPa) = 89.53223 90.24700 89.88962
# Shear Modulus (GPa) = 34.64568 40.32566 37.48567
#
# Velocity S-wave (km/s) = 3.79824 4.09778 3.95085
# Velocity P-wave (km/s) = 7.51780 7.74393 7.63170
#
# Compressibility (1/GPa) = 0.01116916
#
# Stress axis : x y z
#
# Youngs Moduli (GPa) = 132.76640 141.20078 103.94111
#
# Poissons Ratio (x) = 0.12202 0.25735
# Poissons Ratio (y) = 0.11473 0.33187
# Poissons Ratio (z) = 0.32871 0.45084
#
# Static dielectric constant tensor:
#      x y z
#    x 4.242180 0.000000 0.000000 
#    y 0.000000 4.678580 0.000000 
#    z 0.000000 0.000000 4.711630 
# 
# 
# High freq. dielectric constant tensor:
#      x y z
#    x 1.942590 0.000000 0.000000 
#    y 0.000000 1.977950 0.000000 
#    z 0.000000 0.000000 1.971580 
# 
# From -- ./inp_files/213.got.cif
#   From: 2010.03.12/outbox.cif.g09.slc.cpg/sg24_1_cif.got.tgz:213.got - 2010.04.14 03:06:53.
