data_PCOD8166955
_publ_section_title
;
Structure prediction by ZEFSAII (Michael W. Deem and Ramdas Pophale) SiO2 
 PCOD8166955
Probable space group: P M M 2
;
_chemical_formula_sum "Si O2"
_cell_formula_units_Z 32
_cell_length_a 9.037518
_cell_length_b 14.122949
_cell_length_c 13.047765
_cell_angle_alpha 90.000000
_cell_angle_beta 90.000000
_cell_angle_gamma 90.000000
_cell_volume 1665.369828
_symmetry_space_group_name_H-M "P M M 2"
_symmetry_group_IT_number 25
_symmetry_cell_setting 'orthorhombic'
loop_
_space_group_symop_operation_xyz
x,y,z
-x,-y,z
-x,y,z
x,-y,z
loop_
_atom_site_type_symbol
_atom_site_label
_atom_site_fract_x
_atom_site_fract_y
_atom_site_fract_z
Si Si1 0.674952 0.715812 0.356310
Si Si2 0.176560 0.104289 0.839021
Si Si3 0.825004 0.707464 0.746310
Si Si4 0.673420 0.608610 0.151916
Si Si5 0.827054 0.388837 0.540765
Si Si6 0.826784 0.609492 0.949876
Si Si7 0.160435 0.888399 0.059015
Si Si8 0.176743 0.892228 0.281290
O O1 0.500000 0.724328 0.366826
O O2 0.724738 0.666103 0.251200
O O3 0.735431 0.651539 0.446962
O O4 0.747011 0.820633 0.361301
O O5 0.221218 0.181277 0.753019
O O6 0.000000 0.100385 0.850845
O O7 0.237031 0.000000 0.807187
O O8 0.241684 0.137908 0.951117
O O9 0.762045 0.661376 0.642917
O O10 0.760540 0.656484 0.847280
O O11 0.000000 0.693582 0.745401
O O12 0.500000 0.616199 0.134430
O O13 0.723553 0.500000 0.167852
O O14 0.752360 0.653782 0.051880
O O15 0.798151 0.500000 0.551062
O O16 0.000000 0.366479 0.524736
O O17 0.785219 0.500000 0.943194
O O18 0.000000 0.627632 0.958528
O O19 0.241156 0.864796 0.167133
O O20 0.000000 0.837808 0.060608
O O21 0.136071 0.000000 0.057170
O O22 0.000000 0.881132 0.284095
O O23 0.220690 0.000000 0.310706
#
# Coordination Sequence:
#
# PCOD8166955 Si02
#       8
#     4   4   4   4   4   4   4   4
#     4  11  23  37  55  78 106 143 186 228 274 328
#     4   8  13  22  39  68 105 139 169 202 249 312
#     4   9  17  29  48  74 104 137 171 215 274 326
#     4   9  19  35  51  70 102 140 174 215 270 329
#     4  10  21  38  58  78 103 137 181 234 285 332
#     4   9  17  29  48  76 105 131 164 210 266 327
#     4   7  11  21  39  67 103 138 169 204 247 297
#     4   9  18  33  54  81 112 144 181 225 268 315
#
# _framework density 19.214952
#
# number of rings (size 3 to 8) (size 9 to 14) (size 15 to 20)
#    0.000    3.000    0.000    2.625    1.750    3.500 
#    0.000    2.500    0.000    3.750    0.000    0.000 
#    0.000    1.000    0.000    0.000    0.000    0.000 
#
# Total GULP energy -396511.244483 kJ/mol
# GULP energy per Si atom -12390.976390 kJ/mol
# Density = 1.917122 g / cm^3
# Si number density = 19.214952 Si / 1000 Ang^3
#
#
#
# Elastic Constant Matrix: (Units=GPa)
#
#
# Indices 1 2 3 4 5 6 
#
# 1 30.5530 29.8812 34.0380 0.0000 0.0000 0.0000
# 2 29.8812 96.7559 61.2988 0.0000 0.0000 0.0000
# 3 34.0380 61.2988 125.0484 0.0000 0.0000 0.0000
# 4 0.0000 0.0000 0.0000 37.0011 0.0000 0.0000
# 5 0.0000 0.0000 0.0000 0.0000 2.6578 0.0000
# 6 0.0000 0.0000 0.0000 0.0000 0.0000 13.9757
#
#
#
# Elastic Compliance Matrix: (Units=1/GPa)
#
#
# Indices 1 2 3 4 5 6 
#
# 1 0.053540 -0.010591 -0.009382 0.000000 0.000000 0.000000
# 2 -0.010591 0.017086 -0.005493 0.000000 0.000000 0.000000
# 3 -0.009382 -0.005493 0.013243 0.000000 0.000000 0.000000
# 4 0.000000 0.000000 0.000000 0.027026 0.000000 0.000000
# 5 0.000000 0.000000 0.000000 0.000000 0.376248 0.000000
# 6 0.000000 0.000000 0.000000 0.000000 0.000000 0.071553
#
#
# Mechanical properties :
#
#
# Convention : Reuss Voigt Hill
#
# Bulk Modulus (GPa) = 30.36000 55.86592 43.11296
# Shear Modulus (GPa) = 8.05663 19.20289 13.62976
#
# Velocity S-wave (km/s) = 2.04988 3.16471 2.66622
# Velocity P-wave (km/s) = 4.63003 6.51853 5.65369
#
# Compressibility (1/GPa) = 0.03293808
#
# Stress axis : x y z
#
# Youngs Moduli (GPa) = 18.67760 58.52753 75.51100
#
# Poissons Ratio (x) = 0.61987 0.70843
# Poissons Ratio (y) = 0.19782 0.41476
# Poissons Ratio (z) = 0.17523 0.32147
#
# Static dielectric constant tensor:
#      x y z
#    x 3.000880 0.000000 0.000000 
#    y 0.000000 3.645100 0.000000 
#    z 0.000000 0.000000 3.703280 
# 
# 
# High freq. dielectric constant tensor:
#      x y z
#    x 1.688050 0.000000 0.000000 
#    y 0.000000 1.759510 0.000000 
#    z 0.000000 0.000000 1.741960 
# 
# From -- ./inp_files/4287.got.cif
#   From: 2010.03.12/outbox.cif.g09.slc.cpg/sg25_3_cif.got.tgz:4287.got - 2010.04.14 03:30:10.
