data_PCOD8166361
_publ_section_title
;
Structure prediction by ZEFSAII (Michael W. Deem and Ramdas Pophale) SiO2 
 PCOD8166361
Probable space group: P M M 2
;
_chemical_formula_sum "Si O2"
_cell_formula_units_Z 32
_cell_length_a 9.392580
_cell_length_b 13.438068
_cell_length_c 14.412512
_cell_angle_alpha 90.000000
_cell_angle_beta 90.000000
_cell_angle_gamma 90.000000
_cell_volume 1819.120295
_symmetry_space_group_name_H-M "P M M 2"
_symmetry_group_IT_number 25
_symmetry_cell_setting 'orthorhombic'
loop_
_space_group_symop_operation_xyz
x,y,z
-x,-y,z
-x,y,z
x,-y,z
loop_
_atom_site_type_symbol
_atom_site_label
_atom_site_fract_x
_atom_site_fract_y
_atom_site_fract_z
Si Si1 0.332231 0.219976 0.118450
Si Si2 0.163378 0.113421 0.484348
Si Si3 0.833193 0.386129 0.011508
Si Si4 0.832058 0.609801 0.800422
Si Si5 0.656208 0.885869 0.816131
Si Si6 0.664408 0.887169 0.305207
Si Si7 0.156839 0.114564 0.977435
Si Si8 0.834563 0.792018 0.674696
O O1 0.500000 0.222080 0.095490
O O2 0.258045 0.321622 0.084693
O O3 0.304773 0.195043 0.226167
O O4 0.254713 0.128905 0.066900
O O5 0.252357 0.148545 0.395972
O O6 0.191934 0.195416 0.564953
O O7 0.000000 0.116502 0.454616
O O8 0.204168 0.000000 0.515087
O O9 0.796010 0.500000 0.032855
O O10 0.000000 0.365879 0.027417
O O11 0.787712 0.359229 0.905494
O O12 0.768119 0.500000 0.777036
O O13 0.781363 0.687477 0.720444
O O14 0.000000 0.601823 0.797505
O O15 0.500000 0.834273 0.814877
O O16 0.759373 0.833950 0.891950
O O17 0.735765 0.877298 0.718333
O O18 0.635133 0.000000 0.842252
O O19 0.500000 0.887110 0.331437
O O20 0.710524 0.000000 0.275593
O O21 0.000000 0.165589 0.987177
O O22 0.133152 0.000000 0.957978
O O23 0.000000 0.811707 0.698463
#
# Coordination Sequence:
#
# PCOD8166361 Si02
#       8
#     4   4   4   4   4   4   4   4
#     4  11  21  32  50  74  98 125 161 207 255 302
#     4   9  18  31  47  70  98 126 161 206 249 290
#     4   9  18  33  52  74 101 133 169 206 243 292
#     4   8  15  29  49  72  97 126 160 196 235 281
#     4  10  20  31  43  64  96 130 161 195 236 285
#     4   9  19  35  52  70  95 129 166 202 244 296
#     4  10  20  32  46  66  95 131 165 196 237 293
#     4  10  18  29  49  73  96 125 161 201 245 292
#
# _framework density 17.590920000000001
#
# number of rings (size 3 to 8) (size 9 to 14) (size 15 to 20)
#    0.000    2.500    0.000    3.375    0.000    5.250 
#    0.000    2.500    0.000    1.875    0.000    1.750 
#    0.000    0.000    0.000    0.000    0.000    0.000 
#
# Total GULP energy -396472.342719 kJ/mol
# GULP energy per Si atom -12389.760710 kJ/mol
# Density = 1.755088 g / cm^3
# Si number density = 17.590920 Si / 1000 Ang^3
#
#
#
# Elastic Constant Matrix: (Units=GPa)
#
#
# Indices 1 2 3 4 5 6 
#
# 1 99.1025 36.7800 69.1143 0.0000 0.0000 0.0000
# 2 36.7800 86.4764 53.0814 0.0000 0.0000 0.0000
# 3 69.1143 53.0814 128.4502 0.0000 0.0000 0.0000
# 4 0.0000 0.0000 0.0000 26.0525 0.0000 0.0000
# 5 0.0000 0.0000 0.0000 0.0000 26.0905 0.0000
# 6 0.0000 0.0000 0.0000 0.0000 0.0000 18.8354
#
#
#
# Elastic Compliance Matrix: (Units=1/GPa)
#
#
# Indices 1 2 3 4 5 6 
#
# 1 0.016429 -0.002092 -0.007975 0.000000 0.000000 0.000000
# 2 -0.002092 0.015760 -0.005387 0.000000 0.000000 0.000000
# 3 -0.007975 -0.005387 0.014303 0.000000 0.000000 0.000000
# 4 0.000000 0.000000 0.000000 0.038384 0.000000 0.000000
# 5 0.000000 0.000000 0.000000 0.000000 0.038328 0.000000
# 6 0.000000 0.000000 0.000000 0.000000 0.000000 0.053091
#
#
# Mechanical properties :
#
#
# Convention : Reuss Voigt Hill
#
# Bulk Modulus (GPa) = 64.17345 70.22004 67.19675
# Shear Modulus (GPa) = 23.54057 24.53257 24.03657
#
# Velocity S-wave (km/s) = 3.66214 3.73851 3.70052
# Velocity P-wave (km/s) = 7.37848 7.65769 7.51938
#
# Compressibility (1/GPa) = 0.01558277
#
# Stress axis : x y z
#
# Youngs Moduli (GPa) = 60.86804 63.44976 69.91747
#
# Poissons Ratio (x) = 0.13274 0.55761
# Poissons Ratio (y) = 0.12734 0.37666
# Poissons Ratio (z) = 0.48544 0.34182
#
# Static dielectric constant tensor:
#      x y z
#    x 3.377270 0.000000 0.000000 
#    y 0.000000 3.595740 0.000000 
#    z 0.000000 0.000000 3.137220 
# 
# 
# High freq. dielectric constant tensor:
#      x y z
#    x 1.677920 0.000000 0.000000 
#    y 0.000000 1.665550 0.000000 
#    z 0.000000 0.000000 1.662870 
# 
# From -- ./inp_files/5715.got.cif
#   From: 2010.03.12/outbox.cif.g09.slc.cpg/sg25_3_cif.got.tgz:5715.got - 2010.04.14 03:30:10.
