data_PCOD8166863
_publ_section_title
;
Structure prediction by ZEFSAII (Michael W. Deem and Ramdas Pophale) SiO2 
 PCOD8166863
Probable space group: P M M 2
;
_chemical_formula_sum "Si O2"
_cell_formula_units_Z 28
_cell_length_a 9.107098
_cell_length_b 9.648519
_cell_length_c 17.990984
_cell_angle_alpha 90.000000
_cell_angle_beta 90.000000
_cell_angle_gamma 90.000000
_cell_volume 1580.867910
_symmetry_space_group_name_H-M "P M M 2"
_symmetry_group_IT_number 25
_symmetry_cell_setting 'orthorhombic'
loop_
_space_group_symop_operation_xyz
x,y,z
-x,-y,z
-x,y,z
x,-y,z
loop_
_atom_site_type_symbol
_atom_site_label
_atom_site_fract_x
_atom_site_fract_y
_atom_site_fract_z
Si Si1 0.668873 0.662044 0.349310
Si Si2 0.674231 0.653521 0.516644
Si Si3 0.674709 0.344223 0.781284
Si Si4 0.328191 0.159871 0.079278
Si Si5 0.827923 0.840446 0.228511
Si Si6 0.675443 0.843563 0.648406
Si Si7 0.674426 0.344645 0.945928
O O1 0.500000 0.705537 0.336598
O O2 0.689703 0.500000 0.332608
O O3 0.719506 0.696937 0.433340
O O4 0.772521 0.749791 0.296564
O O5 0.500000 0.646965 0.521682
O O6 0.736583 0.500000 0.535560
O O7 0.736440 0.765114 0.575221
O O8 0.500000 0.342682 0.779119
O O9 0.729621 0.500000 0.762445
O O10 0.737287 0.236194 0.720967
O O11 0.730134 0.300032 0.863677
O O12 0.500000 0.188222 0.090222
O O13 0.247834 0.212991 0.153136
O O14 0.293943 0.000000 0.063969
O O15 0.262483 0.242593 0.008769
O O16 0.000000 0.820010 0.219503
O O17 0.785603 0.000000 0.243624
O O18 0.500000 0.844241 0.648511
O O19 0.737044 0.000000 0.648615
O O20 0.500000 0.338129 0.946593
O O21 0.728428 0.500000 0.963868
#
# Coordination Sequence:
#
# PCOD8166863 Si02
#       7
#     4   4   4   4   4   4   4
#     4   9  18  32  50  71  92 117 153 194 233 274
#     4   8  14  25  39  55  79 111 144 178 218 263
#     4   8  13  21  32  47  73 110 144 172 209 257
#     4   9  17  29  45  64  86 114 148 185 225 267
#     4  10  21  35  49  67  93 123 153 186 228 279
#     4   9  15  20  29  50  79 110 144 178 211 251
#     4   8  14  24  38  57  80 108 144 182 218 259
#
# _framework density 17.711789
#
# number of rings (size 3 to 8) (size 9 to 14) (size 15 to 20)
#    0.000    3.286    0.000    2.571    0.000    4.571 
#    0.000    5.714    0.000    0.000    0.000    0.000 
#    0.000    1.143    0.000    8.571    0.000   11.000 
#
# Total GULP energy -347062.832238 kJ/mol
# GULP energy per Si atom -12395.101151 kJ/mol
# Density = 1.767148 g / cm^3
# Si number density = 17.711789 Si / 1000 Ang^3
#
#
#
# Elastic Constant Matrix: (Units=GPa)
#
#
# Indices 1 2 3 4 5 6 
#
# 1 20.5599 20.2931 26.5694 0.0000 0.0000 0.0000
# 2 20.2931 112.6993 98.9625 0.0000 0.0000 0.0000
# 3 26.5694 98.9625 172.3294 0.0000 0.0000 0.0000
# 4 0.0000 0.0000 0.0000 34.1705 0.0000 0.0000
# 5 0.0000 0.0000 0.0000 0.0000 -0.1685 0.0000
# 6 0.0000 0.0000 0.0000 0.0000 0.0000 12.1176
#
#
#
# Elastic Compliance Matrix: (Units=1/GPa)
#
#
# Indices 1 2 3 4 5 6 
#
# 1 0.062462 -0.005630 -0.006397 0.000000 0.000000 0.000000
# 2 -0.005630 0.018406 -0.009702 0.000000 0.000000 0.000000
# 3 -0.006397 -0.009702 0.012361 0.000000 0.000000 0.000000
# 4 0.000000 0.000000 0.000000 0.029265 0.000000 0.000000
# 5 0.000000 0.000000 0.000000 0.000000 -5.933020 0.000000
# 6 0.000000 0.000000 0.000000 0.000000 0.000000 0.082524
#
#
# Mechanical properties :
#
#
# Convention : Reuss Voigt Hill
#
# Bulk Modulus (GPa) = 20.09196 66.35984 43.22590
# Shear Modulus (GPa) = -0.88215 19.87482 9.49633
#
# Velocity S-wave (km/s) = -0.70650 3.35345 2.31802
# Velocity P-wave (km/s) = 3.27153 7.24858 5.62338
#
# Compressibility (1/GPa) = 0.04977115
#
# Stress axis : x y z
#
# Youngs Moduli (GPa) = 16.00964 54.32872 80.90088
#
# Poissons Ratio (x) = 0.30585 0.51756
# Poissons Ratio (y) = 0.09013 0.78492
# Poissons Ratio (z) = 0.10242 0.52711
#
# Static dielectric constant tensor:
#      x y z
#    x 2.629960 0.000000 0.000000 
#    y 0.000000 3.465570 0.000000 
#    z 0.000000 0.000000 3.642860 
# 
# 
# High freq. dielectric constant tensor:
#      x y z
#    x 1.614410 0.000000 0.000000 
#    y 0.000000 1.684760 0.000000 
#    z 0.000000 0.000000 1.700920 
# 
# From -- ./inp_files/6325.got.cif
#   From: 2010.03.12/outbox.cif.g09.slc.cpg/sg25_4_cif.got.tgz:6325.got - 2010.04.14 03:30:10.
