data_PCOD8166424
_publ_section_title
;
Structure prediction by ZEFSAII (Michael W. Deem and Ramdas Pophale) SiO2 
 PCOD8166424
Probable space group: P M M 2
;
_chemical_formula_sum "Si O2"
_cell_formula_units_Z 28
_cell_length_a 15.059446
_cell_length_b 9.634385
_cell_length_c 12.320083
_cell_angle_alpha 90.000000
_cell_angle_beta 90.000000
_cell_angle_gamma 90.000000
_cell_volume 1787.502370
_symmetry_space_group_name_H-M "P M M 2"
_symmetry_group_IT_number 25
_symmetry_cell_setting 'orthorhombic'
loop_
_space_group_symop_operation_xyz
x,y,z
-x,-y,z
-x,y,z
x,-y,z
loop_
_atom_site_type_symbol
_atom_site_label
_atom_site_fract_x
_atom_site_fract_y
_atom_site_fract_z
Si Si1 0.395906 0.339267 0.228210
Si Si2 0.605450 0.346584 0.985071
Si Si3 0.098639 0.656082 0.361973
Si Si4 0.398646 0.161141 0.790556
Si Si5 0.737831 0.836712 0.363671
Si Si6 0.743787 0.840770 0.616615
Si Si7 0.902505 0.655370 0.619773
O O1 0.500000 0.310032 0.241841
O O2 0.374769 0.500000 0.256424
O O3 0.345819 0.234980 0.307712
O O4 0.363162 0.304721 0.105855
O O5 0.500000 0.346648 0.985307
O O6 0.641082 0.500000 0.955879
O O7 0.641676 0.240376 0.894914
O O8 0.123234 0.500000 0.322538
O O9 0.171400 0.765964 0.319030
O O10 0.097547 0.660151 0.490782
O O11 0.000000 0.696797 0.318594
O O12 0.500000 0.205426 0.767169
O O13 0.343771 0.201221 0.683406
O O14 0.391282 0.000000 0.818306
O O15 0.725434 0.807991 0.491235
O O16 0.740655 0.000000 0.336859
O O17 0.826853 0.756204 0.665411
O O18 0.768772 0.000000 0.633653
O O19 0.881997 0.500000 0.660563
O O20 0.000000 0.702717 0.661956
#
# Coordination Sequence:
#
# PCOD8166424 Si02
#       7
#     4   4   4   4   4   4   4
#     4   9  18  32  47  62  84 114 145 179 218 257
#     4   8  15  29  47  64  80 101 137 184 223 250
#     4   8  14  26  43  60  81 112 146 178 213 252
#     4   9  17  29  44  61  84 114 144 174 209 249
#     4  10  19  28  41  64  92 119 146 176 209 251
#     4   9  18  29  40  60  90 120 145 169 204 250
#     4   8  14  25  41  60  81 107 141 179 213 244
#
# _framework density 15.664315
#
# number of rings (size 3 to 8) (size 9 to 14) (size 15 to 20)
#    0.000    3.286    0.000    2.143    0.000    3.143 
#    0.000    5.714    0.000    1.714    0.000    1.000 
#    0.000    5.714    0.000    0.000    0.000    0.000 
#
# Total GULP energy -347027.426472 kJ/mol
# GULP energy per Si atom -12393.836660 kJ/mol
# Density = 1.562866 g / cm^3
# Si number density = 15.664315 Si / 1000 Ang^3
#
#
#
# Elastic Constant Matrix: (Units=GPa)
#
#
# Indices 1 2 3 4 5 6 
#
# 1 94.9592 66.1004 43.4231 0.0000 0.0000 0.0000
# 2 66.1004 93.9223 47.7307 0.0000 0.0000 0.0000
# 3 43.4231 47.7307 58.0947 0.0000 0.0000 0.0000
# 4 0.0000 0.0000 0.0000 23.9100 0.0000 0.0000
# 5 0.0000 0.0000 0.0000 0.0000 2.0477 0.0000
# 6 0.0000 0.0000 0.0000 0.0000 0.0000 29.2315
#
#
#
# Elastic Compliance Matrix: (Units=1/GPa)
#
#
# Indices 1 2 3 4 5 6 
#
# 1 0.021938 -0.012200 -0.006374 0.000000 0.000000 0.000000
# 2 -0.012200 0.025064 -0.011474 0.000000 0.000000 0.000000
# 3 -0.006374 -0.011474 0.031404 0.000000 0.000000 0.000000
# 4 0.000000 0.000000 0.000000 0.041823 0.000000 0.000000
# 5 0.000000 0.000000 0.000000 0.000000 0.488342 0.000000
# 6 0.000000 0.000000 0.000000 0.000000 0.000000 0.034210
#
#
# Mechanical properties :
#
#
# Convention : Reuss Voigt Hill
#
# Bulk Modulus (GPa) = 54.61251 62.38719 58.49985
# Shear Modulus (GPa) = 7.05237 17.01932 12.03584
#
# Velocity S-wave (km/s) = 2.12414 3.29979 2.77494
# Velocity P-wave (km/s) = 6.39968 7.37782 6.90609
#
# Compressibility (1/GPa) = 0.01831082
#
# Stress axis : x y z
#
# Youngs Moduli (GPa) = 45.58283 39.89744 31.84287
#
# Poissons Ratio (x) = 0.48676 0.20296
# Poissons Ratio (y) = 0.55613 0.36535
# Poissons Ratio (z) = 0.29054 0.45777
#
# Static dielectric constant tensor:
#      x y z
#    x 3.094380 0.000000 0.000000 
#    y 0.000000 3.134430 0.000000 
#    z 0.000000 0.000000 2.800660 
# 
# 
# High freq. dielectric constant tensor:
#      x y z
#    x 1.591780 0.000000 0.000000 
#    y 0.000000 1.605930 0.000000 
#    z 0.000000 0.000000 1.564170 
# 
# From -- ./inp_files/4332.got.cif
#   From: 2010.03.12/outbox.cif.g09.slc.cpg/sg25_3_cif.got.tgz:4332.got - 2010.04.14 03:30:10.
