data_PCOD8166366
_publ_section_title
;
Structure prediction by ZEFSAII (Michael W. Deem and Ramdas Pophale) SiO2 
 PCOD8166366
Probable space group: P M M 2
;
_chemical_formula_sum "Si O2"
_cell_formula_units_Z 32
_cell_length_a 13.043713
_cell_length_b 10.335901
_cell_length_c 13.470088
_cell_angle_alpha 90.000000
_cell_angle_beta 90.000000
_cell_angle_gamma 90.000000
_cell_volume 1816.017412
_symmetry_space_group_name_H-M "P M M 2"
_symmetry_group_IT_number 25
_symmetry_cell_setting 'orthorhombic'
loop_
_space_group_symop_operation_xyz
x,y,z
-x,-y,z
-x,y,z
x,-y,z
loop_
_atom_site_type_symbol
_atom_site_label
_atom_site_fract_x
_atom_site_fract_y
_atom_site_fract_z
Si Si1 0.691223 0.150150 0.016070
Si Si2 0.612751 0.361883 0.160364
Si Si3 0.886709 0.851565 0.134337
Si Si4 0.739401 0.153821 0.610586
Si Si5 0.389999 0.851667 0.425174
Si Si6 0.615483 0.847396 0.801555
Si Si7 0.226817 0.716940 0.306208
Si Si8 0.119578 0.646245 0.507332
O O1 0.626318 0.239321 0.089189
O O2 0.811072 0.173062 0.041337
O O3 0.659760 0.000000 0.032648
O O4 0.667718 0.195175 0.904622
O O5 0.500000 0.345480 0.208885
O O6 0.617803 0.500000 0.101716
O O7 0.699023 0.377757 0.245122
O O8 0.858500 0.773087 0.232861
O O9 0.000000 0.809012 0.099211
O O10 0.884011 0.000000 0.166552
O O11 0.650692 0.188494 0.533059
O O12 0.693062 0.198900 0.715872
O O13 0.836107 0.245444 0.583069
O O14 0.770157 0.000000 0.607990
O O15 0.500000 0.780037 0.406725
O O16 0.304265 0.827987 0.342535
O O17 0.413761 0.000000 0.423736
O O18 0.500000 0.788103 0.792051
O O19 0.605348 0.000000 0.795019
O O20 0.171900 0.649691 0.398824
O O21 0.136346 0.500000 0.549002
O O22 0.000000 0.677394 0.494786
#
# Coordination Sequence:
#
# PCOD8166366 Si02
#       8
#     4   4   4   4   4   4   4   4
#     4   9  18  32  51  74  98 128 165 200 237 285
#     4  10  20  32  46  68 100 133 161 196 244 290
#     4   9  17  29  45  68  99 130 161 203 249 284
#     4   9  18  32  51  74  97 123 157 196 239 288
#     4   9  16  26  42  67  97 124 152 192 242 293
#     4   9  16  29  52  79 103 126 155 194 238 284
#     4  10  18  30  47  67  90 126 170 205 235 284
#     4  10  21  36  52  70  95 128 163 201 245 287
#
# _framework density 17.620977
#
# number of rings (size 3 to 8) (size 9 to 14) (size 15 to 20)
#    0.000    2.625    0.000    2.250    0.000    3.500 
#    0.000    1.250    0.000   13.875    0.000    0.000 
#    0.000    0.000    0.000    0.000    0.000    0.000 
#
# Total GULP energy -396438.013560 kJ/mol
# GULP energy per Si atom -12388.687924 kJ/mol
# Density = 1.758087 g / cm^3
# Si number density = 17.620977 Si / 1000 Ang^3
#
#
#
# Elastic Constant Matrix: (Units=GPa)
#
#
# Indices 1 2 3 4 5 6 
#
# 1 137.0951 48.2095 50.2789 0.0000 0.0000 0.0000
# 2 48.2095 54.5033 37.5601 0.0000 0.0000 0.0000
# 3 50.2789 37.5601 101.3602 0.0000 0.0000 0.0000
# 4 0.0000 0.0000 0.0000 12.8917 0.0000 0.0000
# 5 0.0000 0.0000 0.0000 0.0000 19.9023 0.0000
# 6 0.0000 0.0000 0.0000 0.0000 0.0000 2.4691
#
#
#
# Elastic Compliance Matrix: (Units=1/GPa)
#
#
# Indices 1 2 3 4 5 6 
#
# 1 0.011038 -0.008044 -0.002494 0.000000 0.000000 0.000000
# 2 -0.008044 0.030502 -0.007313 0.000000 0.000000 0.000000
# 3 -0.002494 -0.007313 0.013813 0.000000 0.000000 0.000000
# 4 0.000000 0.000000 0.000000 0.077569 0.000000 0.000000
# 5 0.000000 0.000000 0.000000 0.000000 0.050246 0.000000
# 6 0.000000 0.000000 0.000000 0.000000 0.000000 0.405001
#
#
# Mechanical properties :
#
#
# Convention : Reuss Voigt Hill
#
# Bulk Modulus (GPa) = 50.88938 62.78395 56.83667
# Shear Modulus (GPa) = 7.93121 17.51330 12.72225
#
# Velocity S-wave (km/s) = 2.12386 3.15602 2.68991
# Velocity P-wave (km/s) = 5.91245 6.99916 6.47863
#
# Compressibility (1/GPa) = 0.01965046
#
# Stress axis : x y z
#
# Youngs Moduli (GPa) = 90.59829 32.78450 72.39633
#
# Poissons Ratio (x) = 0.26373 0.18058
# Poissons Ratio (y) = 0.72879 0.52941
# Poissons Ratio (z) = 0.22598 0.23974
#
# Static dielectric constant tensor:
#      x y z
#    x 3.466060 0.000000 0.000000 
#    y 0.000000 3.133760 0.000000 
#    z 0.000000 0.000000 3.253220 
# 
# 
# High freq. dielectric constant tensor:
#      x y z
#    x 1.691970 0.000000 0.000000 
#    y 0.000000 1.660100 0.000000 
#    z 0.000000 0.000000 1.665130 
# 
# From -- ./inp_files/4700.got.cif
#   From: 2010.03.12/outbox.cif.g09.slc.cpg/sg25_3_cif.got.tgz:4700.got - 2010.04.14 03:30:10.
