data_PCOD8166620
_publ_section_title
;
Structure prediction by ZEFSAII (Michael W. Deem and Ramdas Pophale) SiO2 
 PCOD8166620
Probable space group: P M M 2
;
_chemical_formula_sum "Si O2"
_cell_formula_units_Z 32
_cell_length_a 9.201990
_cell_length_b 9.246423
_cell_length_c 20.761167
_cell_angle_alpha 90.000000
_cell_angle_beta 90.000000
_cell_angle_gamma 90.000000
_cell_volume 1766.474108
_symmetry_space_group_name_H-M "P M M 2"
_symmetry_group_IT_number 25
_symmetry_cell_setting 'orthorhombic'
loop_
_space_group_symop_operation_xyz
x,y,z
-x,-y,z
-x,y,z
x,-y,z
loop_
_atom_site_type_symbol
_atom_site_label
_atom_site_fract_x
_atom_site_fract_y
_atom_site_fract_z
Si Si1 0.172792 0.337341 0.332960
Si Si2 0.827445 0.338009 0.190898
Si Si3 0.329248 0.331335 0.955094
Si Si4 0.670473 0.666788 0.705075
Si Si5 0.826657 0.837550 0.453313
Si Si6 0.827520 0.834245 0.068375
Si Si7 0.327267 0.836655 0.829137
Si Si8 0.831018 0.332296 0.577477
O O1 0.226734 0.500000 0.346488
O O2 0.226776 0.287173 0.261860
O O3 0.237979 0.234546 0.388396
O O4 0.000000 0.332032 0.335373
O O5 0.768906 0.500000 0.175832
O O6 0.771327 0.226142 0.137166
O O7 0.000000 0.341781 0.190762
O O8 0.500000 0.306188 0.965047
O O9 0.291042 0.500000 0.950083
O O10 0.272168 0.253593 0.890496
O O11 0.245124 0.262094 0.014116
O O12 0.500000 0.689082 0.695785
O O13 0.708967 0.500000 0.718969
O O14 0.731548 0.760380 0.764550
O O15 0.747933 0.723133 0.640671
O O16 0.769267 0.753293 0.515994
O O17 0.000000 0.832278 0.451791
O O18 0.767503 0.000000 0.456568
O O19 0.000000 0.820102 0.062049
O O20 0.776757 0.000000 0.061958
O O21 0.500000 0.836479 0.827938
O O22 0.266181 0.000000 0.833055
O O23 0.800015 0.500000 0.564556
O O24 0.000000 0.300993 0.588370
#
# Coordination Sequence:
#
# PCOD8166620 Si02
#       8
#     4   4   4   4   4   4   4   4
#     4   8  13  22  37  57  82 114 151 187 222 262
#     4   8  14  25  41  61  87 120 155 189 226 269
#     4  10  20  34  53  74  94 121 159 198 233 273
#     4   9  17  30  48  68  88 112 146 185 220 259
#     4   9  16  24  36  57  85 115 146 182 223 264
#     4  10  20  32  47  70 100 130 157 189 234 284
#     4   9  17  30  49  71  93 117 147 186 230 272
#     4   9  17  29  44  62  87 118 147 176 216 266
#
# _framework density 18.115182000000001
#
# number of rings (size 3 to 8) (size 9 to 14) (size 15 to 20)
#    0.000    3.000    0.000    2.250    0.000    5.500 
#    0.000    3.125    0.000    2.250    0.000    0.875 
#    0.000    3.000    0.000    0.000    0.000    0.000 
#
# Total GULP energy -396704.011874 kJ/mol
# GULP energy per Si atom -12397.000371 kJ/mol
# Density = 1.807395 g / cm^3
# Si number density = 18.115182 Si / 1000 Ang^3
#
#
#
# Elastic Constant Matrix: (Units=GPa)
#
#
# Indices 1 2 3 4 5 6 
#
# 1 14.0217 22.4120 27.7397 0.0000 0.0000 0.0000
# 2 22.4120 131.5809 99.6033 0.0000 0.0000 0.0000
# 3 27.7397 99.6033 191.4119 0.0000 0.0000 0.0000
# 4 0.0000 0.0000 0.0000 24.2883 0.0000 0.0000
# 5 0.0000 0.0000 0.0000 0.0000 -18.9918 0.0000
# 6 0.0000 0.0000 0.0000 0.0000 0.0000 15.0160
#
#
#
# Elastic Compliance Matrix: (Units=1/GPa)
#
#
# Indices 1 2 3 4 5 6 
#
# 1 0.108653 -0.010868 -0.010091 0.000000 0.000000 0.000000
# 2 -0.010868 0.013626 -0.005515 0.000000 0.000000 0.000000
# 3 -0.010091 -0.005515 0.009557 0.000000 0.000000 0.000000
# 4 0.000000 0.000000 0.000000 0.041172 0.000000 0.000000
# 5 0.000000 0.000000 0.000000 0.000000 -0.052654 0.000000
# 6 0.000000 0.000000 0.000000 0.000000 0.000000 0.066596
#
#
# Mechanical properties :
#
#
# Convention : Reuss Voigt Hill
#
# Bulk Modulus (GPa) = 12.67641 70.72495 41.70068
# Shear Modulus (GPa) = 18.78333 16.54646 17.66489
#
# Velocity S-wave (km/s) = 3.22356 3.02553 3.12612
# Velocity P-wave (km/s) = 4.56815 7.16462 6.00831
#
# Compressibility (1/GPa) = 0.07888671
#
# Stress axis : x y z
#
# Youngs Moduli (GPa) = 9.20363 73.38847 104.63835
#
# Poissons Ratio (x) = 0.79761 1.05587
# Poissons Ratio (y) = 0.10003 0.57713
# Poissons Ratio (z) = 0.09287 0.40477
#
# Static dielectric constant tensor:
#      x y z
#    x 2.769810 0.000000 0.000000 
#    y 0.000000 3.514920 0.000000 
#    z 0.000000 0.000000 3.725660 
# 
# 
# High freq. dielectric constant tensor:
#      x y z
#    x 1.635700 0.000000 0.000000 
#    y 0.000000 1.706100 0.000000 
#    z 0.000000 0.000000 1.721280 
# 
# From -- ./inp_files/6300.got.cif
#   From: 2010.03.12/outbox.cif.g09.slc.cpg/sg25_4_cif.got.tgz:6300.got - 2010.04.14 03:30:10.
