data_PCOD8166239
_publ_section_title
;
Structure prediction by ZEFSAII (Michael W. Deem and Ramdas Pophale) SiO2 
 PCOD8166239
Probable space group: I 21 21 21
;
_chemical_formula_sum "Si O2"
_cell_formula_units_Z 48
_cell_length_a 9.229696
_cell_length_b 16.385489
_cell_length_c 14.261086
_cell_angle_alpha 90.000000
_cell_angle_beta 90.000000
_cell_angle_gamma 90.000000
_cell_volume 2156.747992
_symmetry_space_group_name_H-M "I 21 21 21"
_symmetry_group_IT_number 24
_symmetry_cell_setting 'orthorhombic'
loop_
_space_group_symop_operation_xyz
x,y,z
-x,1/2-y,z
x,-y,1/2-z
1/2-x,y,-z
1/2+x,1/2+y,1/2+z
1/2-x,-y,1/2+z
1/2+x,1/2-y,-z
-x,1/2+y,1/2-z
loop_
_atom_site_type_symbol
_atom_site_label
_atom_site_fract_x
_atom_site_fract_y
_atom_site_fract_z
Si Si1 0.250000 0.994057 0.500000
Si Si2 0.547007 0.399929 0.387801
Si Si3 0.649712 0.140544 0.756594
Si Si4 0.610097 0.819913 0.947838
Si Si5 0.151753 0.500000 0.750000
Si Si6 0.645450 0.575849 0.676772
Si Si7 0.644498 0.709658 0.268976
O O1 0.364240 0.943816 0.564679
O O2 0.315314 0.047625 0.416306
O O3 0.463518 0.382538 0.482676
O O4 0.446478 0.454935 0.324245
O O5 0.597142 0.315883 0.337062
O O6 0.649545 0.128318 0.644127
O O7 0.489336 0.135285 0.799826
O O8 0.722911 0.227780 0.775118
O O9 0.746603 0.067796 0.799903
O O10 0.500000 0.750000 0.915762
O O11 0.750000 0.781314 0.000000
O O12 0.643468 0.500000 0.750000
O O13 0.798075 0.625567 0.685336
O O14 0.500000 0.750000 0.316885
#
# Coordination Sequence:
#
# PCOD8166239 Si02
#       7
#     4   8   8   8   4   8   8
#     4  12  28  44  78 108 146 190 252 306 374 446
#     4  12  25  42  70 107 143 189 239 301 370 439
#     4  12  26  44  72 106 150 197 245 300 372 439
#     4  12  24  40  65 108 148 180 233 303 371 436
#     4  12  24  46  70 100 148 200 240 292 370 448
#     4  12  25  49  74 105 148 195 247 304 368 444
#     4  12  24  46  73 106 143 196 242 297 371 439
#
# _framework density 22.255731000000001
#
# number of rings (size 3 to 8) (size 9 to 14) (size 15 to 20)
#    0.000    0.000    5.833    5.000    3.500    0.000 
#    0.000    1.667    0.000    0.000    0.000    0.000 
#    0.000    0.000    0.000    0.000    0.000    0.000 
#
# Total GULP energy -297491.990637 kJ/mol
# GULP energy per Si atom -12395.499610 kJ/mol
# Density = 2.220508 g / cm^3
# Si number density = 22.255731 Si / 1000 Ang^3
#
#
#
# Elastic Constant Matrix: (Units=GPa)
#
#
# Indices 1 2 3 4 5 6 
#
# 1 126.2893 47.3891 25.4191 0.0000 0.0000 0.0000
# 2 47.3891 111.3000 24.4311 0.0000 0.0000 0.0000
# 3 25.4191 24.4311 71.8952 0.0000 0.0000 0.0000
# 4 0.0000 0.0000 0.0000 24.5784 0.0000 0.0000
# 5 0.0000 0.0000 0.0000 0.0000 35.1372 0.0000
# 6 0.0000 0.0000 0.0000 0.0000 0.0000 53.8153
#
#
#
# Elastic Compliance Matrix: (Units=1/GPa)
#
#
# Indices 1 2 3 4 5 6 
#
# 1 0.009735 -0.003663 -0.002197 0.000000 0.000000 0.000000
# 2 -0.003663 0.011087 -0.002473 0.000000 0.000000 0.000000
# 3 -0.002197 -0.002473 0.015526 0.000000 0.000000 0.000000
# 4 0.000000 0.000000 0.000000 0.040686 0.000000 0.000000
# 5 0.000000 0.000000 0.000000 0.000000 0.028460 0.000000
# 6 0.000000 0.000000 0.000000 0.000000 0.000000 0.018582
#
#
# Mechanical properties :
#
#
# Convention : Reuss Voigt Hill
#
# Bulk Modulus (GPa) = 50.80470 55.99591 53.40030
# Shear Modulus (GPa) = 33.94384 36.85587 35.39986
#
# Velocity S-wave (km/s) = 3.90958 4.07383 3.99255
# Velocity P-wave (km/s) = 6.57701 6.88063 6.73053
#
# Compressibility (1/GPa) = 0.01968322
#
# Stress axis : x y z
#
# Youngs Moduli (GPa) = 102.72271 90.19628 64.40725
#
# Poissons Ratio (x) = 0.33035 0.14152
# Poissons Ratio (y) = 0.37623 0.15925
# Poissons Ratio (z) = 0.22571 0.22302
#
# Static dielectric constant tensor:
#      x y z
#    x 4.309700 0.000000 0.000000 
#    y 0.000000 3.588460 0.000000 
#    z 0.000000 0.000000 3.822430 
# 
# 
# High freq. dielectric constant tensor:
#      x y z
#    x 1.897550 0.000000 0.000000 
#    y 0.000000 1.884600 0.000000 
#    z 0.000000 0.000000 1.845590 
# 
# From -- ./inp_files/24825.got.cif
#   From: 2010.03.12/outbox.cif.g09.slc.cpg/sg24_13_cif.got.tgz:24825.got - 2010.04.14 03:06:53.
