data_PCOD8166691
_publ_section_title
;
Structure prediction by ZEFSAII (Michael W. Deem and Ramdas Pophale) SiO2 
 PCOD8166691
Probable space group: P M M 2
;
_chemical_formula_sum "Si O2"
_cell_formula_units_Z 32
_cell_length_a 9.251271
_cell_length_b 9.238650
_cell_length_c 20.756621
_cell_angle_alpha 90.000000
_cell_angle_beta 90.000000
_cell_angle_gamma 90.000000
_cell_volume 1774.052930
_symmetry_space_group_name_H-M "P M M 2"
_symmetry_group_IT_number 25
_symmetry_cell_setting 'orthorhombic'
loop_
_space_group_symop_operation_xyz
x,y,z
-x,-y,z
-x,y,z
x,-y,z
loop_
_atom_site_type_symbol
_atom_site_label
_atom_site_fract_x
_atom_site_fract_y
_atom_site_fract_z
Si Si1 0.159410 0.328258 0.547860
Si Si2 0.167131 0.669581 0.691216
Si Si3 0.667004 0.671176 0.042301
Si Si4 0.333880 0.169654 0.800996
Si Si5 0.662929 0.672037 0.288759
Si Si6 0.168144 0.830137 0.929000
Si Si7 0.837469 0.672228 0.168023
Si Si8 0.661265 0.327945 0.430174
O O1 0.154336 0.500000 0.541101
O O2 0.219312 0.288978 0.618824
O O3 0.251236 0.258479 0.489661
O O4 0.000000 0.263118 0.540542
O O5 0.184630 0.500000 0.703738
O O6 0.272300 0.753217 0.738438
O O7 0.000000 0.715438 0.701513
O O8 0.500000 0.719924 0.042304
O O9 0.681349 0.500000 0.034120
O O10 0.751719 0.745526 0.984867
O O11 0.740027 0.724688 0.108478
O O12 0.500000 0.215595 0.812110
O O13 0.240407 0.219184 0.862245
O O14 0.319386 0.000000 0.789586
O O15 0.500000 0.731267 0.278451
O O16 0.658928 0.500000 0.283663
O O17 0.767634 0.735809 0.233669
O O18 0.722612 0.718064 0.359657
O O19 0.000000 0.786656 0.927521
O O20 0.189269 0.000000 0.940709
O O21 0.841082 0.500000 0.170618
O O22 0.000000 0.733915 0.160744
O O23 0.500000 0.267930 0.436444
O O24 0.662724 0.500000 0.435643
#
# Coordination Sequence:
#
# PCOD8166691 Si02
#       8
#     4   4   4   4   4   4   4   4
#     4   8  14  24  37  55  82 114 147 185 227 269
#     4   9  18  32  49  70  96 126 159 194 234 280
#     4  10  20  33  50  72  98 128 159 192 233 279
#     4  10  21  36  53  73  96 122 154 192 233 278
#     4   8  13  21  32  48  75 112 151 188 226 270
#     4  10  21  37  56  75  95 122 155 191 233 279
#     4   9  16  25  38  58  85 117 153 192 232 273
#     4   8  13  20  31  49  75 110 150 187 224 269
#
# _framework density 18.037794000000002
#
# number of rings (size 3 to 8) (size 9 to 14) (size 15 to 20)
#    0.000    3.000    0.000    3.000    0.000    5.500 
#    0.000    3.750    0.000    0.000    0.000    0.000 
#    0.000    1.000    0.000    7.000    0.000   13.000 
#
# Total GULP energy -396624.598344 kJ/mol
# GULP energy per Si atom -12394.518698 kJ/mol
# Density = 1.799674 g / cm^3
# Si number density = 18.037794 Si / 1000 Ang^3
#
#
#
# Elastic Constant Matrix: (Units=GPa)
#
#
# Indices 1 2 3 4 5 6 
#
# 1 142.5106 26.2596 101.6582 0.0000 0.0000 0.0000
# 2 26.2596 14.1943 30.6977 0.0000 0.0000 0.0000
# 3 101.6582 30.6977 185.0899 0.0000 0.0000 0.0000
# 4 0.0000 0.0000 0.0000 -7.0205 0.0000 0.0000
# 5 0.0000 0.0000 0.0000 0.0000 43.5675 0.0000
# 6 0.0000 0.0000 0.0000 0.0000 0.0000 17.7836
#
#
#
# Elastic Compliance Matrix: (Units=1/GPa)
#
#
# Indices 1 2 3 4 5 6 
#
# 1 0.012992 -0.013415 -0.004911 0.000000 0.000000 0.000000
# 2 -0.013415 0.123705 -0.013149 0.000000 0.000000 0.000000
# 3 -0.004911 -0.013149 0.010281 0.000000 0.000000 0.000000
# 4 0.000000 0.000000 0.000000 -0.142441 0.000000 0.000000
# 5 0.000000 0.000000 0.000000 0.000000 0.022953 0.000000
# 6 0.000000 0.000000 0.000000 0.000000 0.000000 0.056232
#
#
# Mechanical properties :
#
#
# Convention : Reuss Voigt Hill
#
# Bulk Modulus (GPa) = 11.90067 73.22508 42.56288
# Shear Modulus (GPa) = 28.62374 23.07807 25.85090
#
# Velocity S-wave (km/s) = 3.98788 3.58079 3.78981
# Velocity P-wave (km/s) = 5.27411 7.60129 6.54201
#
# Compressibility (1/GPa) = 0.08402885
#
# Stress axis : x y z
#
# Youngs Moduli (GPa) = 76.97090 8.08373 97.26917
#
# Poissons Ratio (x) = 0.10844 0.47767
# Poissons Ratio (y) = 1.03255 1.27899
# Poissons Ratio (z) = 0.37799 0.10629
#
# Static dielectric constant tensor:
#      x y z
#    x 3.636980 0.000000 0.000000 
#    y 0.000000 2.730520 0.000000 
#    z 0.000000 0.000000 3.664150 
# 
# 
# High freq. dielectric constant tensor:
#      x y z
#    x 1.704800 0.000000 0.000000 
#    y 0.000000 1.630610 0.000000 
#    z 0.000000 0.000000 1.719110 
# 
# From -- ./inp_files/6283.got.cif
#   From: 2010.03.12/outbox.cif.g09.slc.cpg/sg25_4_cif.got.tgz:6283.got - 2010.04.14 03:30:10.
