data_PCOD8166873
_publ_section_title
;
Structure prediction by ZEFSAII (Michael W. Deem and Ramdas Pophale) SiO2 
 PCOD8166873
Probable space group: P M M 2
;
_chemical_formula_sum "Si O2"
_cell_formula_units_Z 24
_cell_length_a 9.222758
_cell_length_b 9.330361
_cell_length_c 15.466490
_cell_angle_alpha 90.000000
_cell_angle_beta 90.000000
_cell_angle_gamma 90.000000
_cell_volume 1330.917163
_symmetry_space_group_name_H-M "P M M 2"
_symmetry_group_IT_number 25
_symmetry_cell_setting 'orthorhombic'
loop_
_space_group_symop_operation_xyz
x,y,z
-x,-y,z
-x,y,z
x,-y,z
loop_
_atom_site_type_symbol
_atom_site_label
_atom_site_fract_x
_atom_site_fract_y
_atom_site_fract_z
Si Si1 0.830888 0.165772 0.008260
Si Si2 0.164792 0.669263 0.691432
Si Si3 0.172067 0.658909 0.498370
Si Si4 0.172607 0.337953 0.174583
Si Si5 0.173114 0.161441 0.338320
Si Si6 0.668860 0.165952 0.836532
O O1 0.772410 0.258932 0.088304
O O2 0.000000 0.192291 0.991608
O O3 0.798719 0.000000 0.029274
O O4 0.746832 0.218851 0.923599
O O5 0.175810 0.500000 0.704366
O O6 0.215032 0.711573 0.594379
O O7 0.272991 0.746080 0.755907
O O8 0.000000 0.720896 0.708480
O O9 0.235770 0.500000 0.480382
O O10 0.233511 0.768208 0.426772
O O11 0.000000 0.650209 0.492234
O O12 0.233008 0.500000 0.176202
O O13 0.233163 0.252723 0.257563
O O14 0.000000 0.337824 0.176783
O O15 0.000000 0.160821 0.337901
O O16 0.233441 0.000000 0.331807
O O17 0.500000 0.196199 0.847255
O O18 0.703182 0.000000 0.819772
#
# Coordination Sequence:
#
# PCOD8166873 Si02
#       6
#     4   4   4   4   4   4
#     4   9  17  30  47  66  90 121 156 194 235 278
#     4   9  18  32  50  72  97 126 161 200 241 285
#     4   8  14  25  40  60  89 122 153 187 228 272
#     4   9  16  25  39  61  89 120 152 187 228 273
#     4   9  15  22  35  59  91 123 152 183 222 270
#     4  10  21  35  50  70  96 126 160 198 242 291
#
# _framework density 18.032678000000001
#
# number of rings (size 3 to 8) (size 9 to 14) (size 15 to 20)
#    0.000    3.000    0.000    2.500    0.000    6.667 
#    0.000    3.333    0.000    0.000    0.000    1.167 
#    0.000    6.667    0.000    0.000    0.000    0.000 
#
# Total GULP energy -297558.697647 kJ/mol
# GULP energy per Si atom -12398.279069 kJ/mol
# Density = 1.799163 g / cm^3
# Si number density = 18.032678 Si / 1000 Ang^3
#
#
#
# Elastic Constant Matrix: (Units=GPa)
#
#
# Indices 1 2 3 4 5 6 
#
# 1 30.8781 23.9878 37.5535 0.0000 0.0000 0.0000
# 2 23.9878 111.0772 90.3186 0.0000 0.0000 0.0000
# 3 37.5535 90.3186 180.3036 0.0000 0.0000 0.0000
# 4 0.0000 0.0000 0.0000 38.6189 0.0000 0.0000
# 5 0.0000 0.0000 0.0000 0.0000 0.1150 0.0000
# 6 0.0000 0.0000 0.0000 0.0000 0.0000 14.0652
#
#
#
# Elastic Compliance Matrix: (Units=1/GPa)
#
#
# Indices 1 2 3 4 5 6 
#
# 1 0.044151 -0.003471 -0.007457 0.000000 0.000000 0.000000
# 2 -0.003471 0.015463 -0.007023 0.000000 0.000000 0.000000
# 3 -0.007457 -0.007023 0.010617 0.000000 0.000000 0.000000
# 4 0.000000 0.000000 0.000000 0.025894 0.000000 0.000000
# 5 0.000000 0.000000 0.000000 0.000000 8.696853 0.000000
# 6 0.000000 0.000000 0.000000 0.000000 0.000000 0.071098
#
#
# Mechanical properties :
#
#
# Convention : Reuss Voigt Hill
#
# Bulk Modulus (GPa) = 29.12986 69.55318 49.34152
# Shear Modulus (GPa) = 0.56108 21.91974 11.24041
#
# Velocity S-wave (km/s) = 0.55841 3.49027 2.49938
# Velocity P-wave (km/s) = 4.07489 7.40925 5.97920
#
# Compressibility (1/GPa) = 0.03432904
#
# Stress axis : x y z
#
# Youngs Moduli (GPa) = 22.64954 64.67228 94.18791
#
# Poissons Ratio (x) = 0.22451 0.70234
# Poissons Ratio (y) = 0.07863 0.66144
# Poissons Ratio (z) = 0.16889 0.45416
#
# Static dielectric constant tensor:
#      x y z
#    x 2.748350 0.000000 0.000000 
#    y 0.000000 3.475350 0.000000 
#    z 0.000000 0.000000 3.575400 
# 
# 
# High freq. dielectric constant tensor:
#      x y z
#    x 1.633310 0.000000 0.000000 
#    y 0.000000 1.700200 0.000000 
#    z 0.000000 0.000000 1.715250 
# 
# From -- ./inp_files/5234.got.cif
#   From: 2010.03.12/outbox.cif.g09.slc.cpg/sg25_3_cif.got.tgz:5234.got - 2010.04.14 03:30:10.
