data_PCOD8166688
_publ_section_title
;
Structure prediction by ZEFSAII (Michael W. Deem and Ramdas Pophale) SiO2 
 PCOD8166688
Probable space group: P M M 2
;
_chemical_formula_sum "Si O2"
_cell_formula_units_Z 32
_cell_length_a 9.075961
_cell_length_b 9.538811
_cell_length_c 20.799644
_cell_angle_alpha 90.000000
_cell_angle_beta 90.000000
_cell_angle_gamma 90.000000
_cell_volume 1800.705813
_symmetry_space_group_name_H-M "P M M 2"
_symmetry_group_IT_number 25
_symmetry_cell_setting 'orthorhombic'
loop_
_space_group_symop_operation_xyz
x,y,z
-x,-y,z
-x,y,z
x,-y,z
loop_
_atom_site_type_symbol
_atom_site_label
_atom_site_fract_x
_atom_site_fract_y
_atom_site_fract_z
Si Si1 0.334032 0.833376 0.922740
Si Si2 0.827189 0.836720 0.051390
Si Si3 0.164690 0.333486 0.289763
Si Si4 0.675578 0.343845 0.552804
Si Si5 0.327708 0.162446 0.670924
Si Si6 0.335627 0.332900 0.412127
Si Si7 0.328626 0.664635 0.162031
Si Si8 0.166382 0.167076 0.798132
O O1 0.500000 0.773564 0.925784
O O2 0.253666 0.772236 0.859590
O O3 0.336359 0.000000 0.919184
O O4 0.245377 0.783419 0.985293
O O5 0.758586 0.747899 0.108282
O O6 0.000000 0.807704 0.047229
O O7 0.792976 0.000000 0.063415
O O8 0.160877 0.500000 0.293530
O O9 0.231541 0.272004 0.356015
O O10 0.266139 0.285258 0.230641
O O11 0.000000 0.273193 0.280616
O O12 0.500000 0.346727 0.552352
O O13 0.737187 0.500000 0.565943
O O14 0.735108 0.242366 0.608518
O O15 0.727514 0.288557 0.482415
O O16 0.500000 0.190303 0.681440
O O17 0.244461 0.221469 0.733444
O O18 0.293694 0.000000 0.659891
O O19 0.500000 0.272280 0.401481
O O20 0.342234 0.500000 0.409213
O O21 0.500000 0.703393 0.158975
O O22 0.302039 0.500000 0.151401
O O23 0.000000 0.224259 0.800123
O O24 0.169011 0.000000 0.799846
#
# Coordination Sequence:
#
# PCOD8166688 Si02
#       8
#     4   4   4   4   4   4   4   4
#     4   9  16  27  45  68  92 118 151 191 229 265
#     4  10  20  33  50  73 100 128 156 189 233 282
#     4   9  16  26  42  65  91 117 148 189 233 272
#     4   8  14  25  42  63  86 113 144 178 218 264
#     4   9  16  26  42  64  87 111 142 180 219 260
#     4   8  13  23  40  60  81 108 145 185 221 261
#     4  10  20  33  50  72  97 126 160 196 233 275
#     4   9  16  26  41  62  88 116 146 182 224 267
#
# _framework density 17.770810000000001
#
# number of rings (size 3 to 8) (size 9 to 14) (size 15 to 20)
#    0.000    3.000    0.000    2.625    0.000    6.000 
#    0.000    0.625    0.000    2.625    0.000    3.500 
#    0.000    0.000    0.000    0.000    0.000    0.000 
#
# Total GULP energy -396698.897773 kJ/mol
# GULP energy per Si atom -12396.840555 kJ/mol
# Density = 1.773036 g / cm^3
# Si number density = 17.770810 Si / 1000 Ang^3
#
#
#
# Elastic Constant Matrix: (Units=GPa)
#
#
# Indices 1 2 3 4 5 6 
#
# 1 111.0206 25.5432 76.1511 0.0000 0.0000 0.0000
# 2 25.5432 25.5949 40.3643 0.0000 0.0000 0.0000
# 3 76.1511 40.3643 187.5606 0.0000 0.0000 0.0000
# 4 0.0000 0.0000 0.0000 25.7385 0.0000 0.0000
# 5 0.0000 0.0000 0.0000 0.0000 17.6999 0.0000
# 6 0.0000 0.0000 0.0000 0.0000 0.0000 14.1553
#
#
#
# Elastic Compliance Matrix: (Units=1/GPa)
#
#
# Indices 1 2 3 4 5 6 
#
# 1 0.013307 -0.007205 -0.003852 0.000000 0.000000 0.000000
# 2 -0.007205 0.063044 -0.010642 0.000000 0.000000 0.000000
# 3 -0.003852 -0.010642 0.009186 0.000000 0.000000 0.000000
# 4 0.000000 0.000000 0.000000 0.038852 0.000000 0.000000
# 5 0.000000 0.000000 0.000000 0.000000 0.056497 0.000000
# 6 0.000000 0.000000 0.000000 0.000000 0.000000 0.070645
#
#
# Mechanical properties :
#
#
# Convention : Reuss Voigt Hill
#
# Bulk Modulus (GPa) = 23.73154 67.58814 45.65984
# Shear Modulus (GPa) = 16.18241 23.65992 19.92116
#
# Velocity S-wave (km/s) = 3.02092 3.65278 3.35177
# Velocity P-wave (km/s) = 5.05481 7.47705 6.38190
#
# Compressibility (1/GPa) = 0.04213802
#
# Stress axis : x y z
#
# Youngs Moduli (GPa) = 75.14574 15.86194 108.86216
#
# Poissons Ratio (x) = 0.11429 0.41937
# Poissons Ratio (y) = 0.54145 1.15852
# Poissons Ratio (z) = 0.28949 0.16880
#
# Static dielectric constant tensor:
#      x y z
#    x 3.373240 0.000000 0.000000 
#    y 0.000000 2.737240 0.000000 
#    z 0.000000 0.000000 3.656770 
# 
# 
# High freq. dielectric constant tensor:
#      x y z
#    x 1.684810 0.000000 0.000000 
#    y 0.000000 1.621560 0.000000 
#    z 0.000000 0.000000 1.708100 
# 
# From -- ./inp_files/6278.got.cif
#   From: 2010.03.12/outbox.cif.g09.slc.cpg/sg25_4_cif.got.tgz:6278.got - 2010.04.14 03:30:10.
