data_PCOD8166592
_publ_section_title
;
Structure prediction by ZEFSAII (Michael W. Deem and Ramdas Pophale) SiO2 
 PCOD8166592
Probable space group: P M M 2
;
_chemical_formula_sum "Si O2"
_cell_formula_units_Z 32
_cell_length_a 14.277111
_cell_length_b 8.963827
_cell_length_c 15.639576
_cell_angle_alpha 90.000000
_cell_angle_beta 90.000000
_cell_angle_gamma 90.000000
_cell_volume 2001.514667
_symmetry_space_group_name_H-M "P M M 2"
_symmetry_group_IT_number 25
_symmetry_cell_setting 'orthorhombic'
loop_
_space_group_symop_operation_xyz
x,y,z
-x,-y,z
-x,y,z
x,-y,z
loop_
_atom_site_type_symbol
_atom_site_label
_atom_site_fract_x
_atom_site_fract_y
_atom_site_fract_z
Si Si1 0.604413 0.672437 0.233320
Si Si2 0.894965 0.677958 0.481284
Si Si3 0.393687 0.825465 0.054632
Si Si4 0.780737 0.323320 0.987319
Si Si5 0.111130 0.665851 0.667755
Si Si6 0.894671 0.322349 0.151687
Si Si7 0.890132 0.172590 0.836344
Si Si8 0.210786 0.675812 0.318317
O O1 0.500000 0.702222 0.269491
O O2 0.617595 0.500000 0.206083
O O3 0.625150 0.769746 0.150376
O O4 0.679236 0.715843 0.306682
O O5 0.897033 0.500000 0.479206
O O6 0.855599 0.727457 0.574660
O O7 0.827576 0.744656 0.407141
O O8 0.000000 0.739525 0.465158
O O9 0.500000 0.787661 0.026810
O O10 0.373954 0.000000 0.051687
O O11 0.323934 0.743631 0.989226
O O12 0.774117 0.500000 0.985443
O O13 0.833629 0.269622 0.903507
O O14 0.837109 0.264014 0.070016
O O15 0.152072 0.500000 0.685872
O O16 0.143807 0.778033 0.741938
O O17 0.000000 0.655330 0.663981
O O18 0.894959 0.500000 0.152163
O O19 0.847130 0.259247 0.237879
O O20 0.000000 0.259338 0.145907
O O21 0.000000 0.205104 0.848749
O O22 0.866184 0.000000 0.848775
O O23 0.195421 0.500000 0.321281
#
# Coordination Sequence:
#
# PCOD8166592 Si02
#       8
#     4   4   4   4   4   4   4   4
#     4   9  16  27  43  63  87 115 151 192 230 269
#     4   8  13  21  37  62  89 113 142 185 229 267
#     4  10  20  33  48  65  87 117 153 193 234 274
#     4  11  20  31  47  68  92 120 153 190 229 270
#     4   8  14  26  43  63  85 111 147 190 230 266
#     4   9  16  24  36  59  90 120 149 178 212 257
#     4  10  20  32  46  66  93 124 154 187 229 275
#     4   9  14  22  37  61  89 117 147 182 225 268
#
# _framework density 15.987893
#
# number of rings (size 3 to 8) (size 9 to 14) (size 15 to 20)
#    0.000    2.750    1.250    2.625    0.000    3.500 
#    0.000    0.000    0.000    0.750    0.000    0.875 
#    0.000    3.000    0.000    0.000    0.000    0.000 
#
# Total GULP energy -396654.164340 kJ/mol
# GULP energy per Si atom -12395.442636 kJ/mol
# Density = 1.595150 g / cm^3
# Si number density = 15.987893 Si / 1000 Ang^3
#
#
#
# Elastic Constant Matrix: (Units=GPa)
#
#
# Indices 1 2 3 4 5 6 
#
# 1 98.8196 31.3028 57.1453 0.0000 0.0000 0.0000
# 2 31.3028 44.2807 29.9718 0.0000 0.0000 0.0000
# 3 57.1453 29.9718 122.1939 0.0000 0.0000 0.0000
# 4 0.0000 0.0000 0.0000 7.7080 0.0000 0.0000
# 5 0.0000 0.0000 0.0000 0.0000 13.2848 0.0000
# 6 0.0000 0.0000 0.0000 0.0000 0.0000 15.9338
#
#
#
# Elastic Compliance Matrix: (Units=1/GPa)
#
#
# Indices 1 2 3 4 5 6 
#
# 1 0.015624 -0.007314 -0.005513 0.000000 0.000000 0.000000
# 2 -0.007314 0.030502 -0.004061 0.000000 0.000000 0.000000
# 3 -0.005513 -0.004061 0.011758 0.000000 0.000000 0.000000
# 4 0.000000 0.000000 0.000000 0.129736 0.000000 0.000000
# 5 0.000000 0.000000 0.000000 0.000000 0.075274 0.000000
# 6 0.000000 0.000000 0.000000 0.000000 0.000000 0.062760
#
#
# Mechanical properties :
#
#
# Convention : Reuss Voigt Hill
#
# Bulk Modulus (GPa) = 41.47856 55.79267 48.63561
# Shear Modulus (GPa) = 13.60670 17.17693 15.39182
#
# Velocity S-wave (km/s) = 2.92046 3.28132 3.10613
# Velocity P-wave (km/s) = 6.11328 7.02343 6.58410
#
# Compressibility (1/GPa) = 0.02410884
#
# Stress axis : x y z
#
# Youngs Moduli (GPa) = 64.00343 32.78446 85.04795
#
# Poissons Ratio (x) = 0.23977 0.46886
# Poissons Ratio (y) = 0.46809 0.34541
# Poissons Ratio (z) = 0.35285 0.13315
#
# Static dielectric constant tensor:
#      x y z
#    x 3.094570 0.000000 0.000000 
#    y 0.000000 2.772050 0.000000 
#    z 0.000000 0.000000 3.228740 
# 
# 
# High freq. dielectric constant tensor:
#      x y z
#    x 1.598760 0.000000 0.000000 
#    y 0.000000 1.584840 0.000000 
#    z 0.000000 0.000000 1.605610 
# 
# From -- ./inp_files/5737.got.cif
#   From: 2010.03.12/outbox.cif.g09.slc.cpg/sg25_3_cif.got.tgz:5737.got - 2010.04.14 03:30:10.
