data_PCOD8166393
_publ_section_title
;
Structure prediction by ZEFSAII (Michael W. Deem and Ramdas Pophale) SiO2 
 PCOD8166393
Probable space group: P M M 2
;
_chemical_formula_sum "Si O2"
_cell_formula_units_Z 32
_cell_length_a 9.182650
_cell_length_b 19.052802
_cell_length_c 10.405230
_cell_angle_alpha 90.000000
_cell_angle_beta 90.000000
_cell_angle_gamma 90.000000
_cell_volume 1820.449224
_symmetry_space_group_name_H-M "P M M 2"
_symmetry_group_IT_number 25
_symmetry_cell_setting 'orthorhombic'
loop_
_space_group_symop_operation_xyz
x,y,z
-x,-y,z
-x,y,z
x,-y,z
loop_
_atom_site_type_symbol
_atom_site_label
_atom_site_fract_x
_atom_site_fract_y
_atom_site_fract_z
Si Si1 0.332278 0.421710 0.559540
Si Si2 0.829167 0.920234 0.843102
Si Si3 0.672748 0.790473 0.942380
Si Si4 0.672008 0.204013 0.444568
Si Si5 0.328145 0.291010 0.196765
Si Si6 0.170873 0.420022 0.295513
Si Si7 0.168342 0.080016 0.549412
Si Si8 0.329127 0.285990 0.692324
O O1 0.500000 0.409399 0.516437
O O2 0.308022 0.500000 0.613364
O O3 0.233153 0.406521 0.437178
O O4 0.290099 0.368378 0.674318
O O5 0.742741 0.867792 0.936730
O O6 0.779209 0.907301 0.696000
O O7 0.000000 0.906517 0.857254
O O8 0.791321 0.000000 0.883647
O O9 0.500000 0.799239 0.937249
O O10 0.736965 0.744083 0.824193
O O11 0.721894 0.751401 0.071330
O O12 0.500000 0.195958 0.445030
O O13 0.723379 0.245250 0.318336
O O14 0.741428 0.126806 0.449034
O O15 0.732695 0.245223 0.568722
O O16 0.500000 0.305089 0.197613
O O17 0.247902 0.366377 0.197311
O O18 0.204469 0.500000 0.251628
O O19 0.000000 0.405199 0.298285
O O20 0.000000 0.099529 0.537135
O O21 0.196480 0.000000 0.509602
O O22 0.500000 0.274633 0.698859
#
# Coordination Sequence:
#
# PCOD8166393 Si02
#       8
#     4   4   4   4   4   4   4   4
#     4   9  16  29  51  75 101 133 165 203 254 302
#     4   9  18  33  52  74 101 131 165 206 251 301
#     4  10  20  34  52  75 103 133 168 210 249 294
#     4  10  18  31  51  74 100 129 165 207 250 296
#     4  10  21  36  52  74 105 137 167 205 253 300
#     4  10  20  33  51  76 103 131 169 212 248 292
#     4   9  18  32  50  75 104 131 165 210 254 297
#     4   9  16  29  49  75 101 125 162 208 248 292
#
# _framework density 17.578078000000001
#
# number of rings (size 3 to 8) (size 9 to 14) (size 15 to 20)
#    0.000    2.500    2.500    1.125    0.000    2.250 
#    0.000    3.125    0.000    6.000    0.000    1.750 
#    0.000    0.000    0.000    0.000    0.000    0.000 
#
# Total GULP energy -396746.849385 kJ/mol
# GULP energy per Si atom -12398.339043 kJ/mol
# Density = 1.753807 g / cm^3
# Si number density = 17.578078 Si / 1000 Ang^3
#
#
#
# Elastic Constant Matrix: (Units=GPa)
#
#
# Indices 1 2 3 4 5 6 
#
# 1 42.7573 48.4847 31.7748 0.0000 0.0000 0.0000
# 2 48.4847 144.7981 69.7229 0.0000 0.0000 0.0000
# 3 31.7748 69.7229 108.2732 0.0000 0.0000 0.0000
# 4 0.0000 0.0000 0.0000 31.2082 0.0000 0.0000
# 5 0.0000 0.0000 0.0000 0.0000 14.9985 0.0000
# 6 0.0000 0.0000 0.0000 0.0000 0.0000 30.4702
#
#
#
# Elastic Compliance Matrix: (Units=1/GPa)
#
#
# Indices 1 2 3 4 5 6 
#
# 1 0.039106 -0.010970 -0.004412 0.000000 0.000000 0.000000
# 2 -0.010970 0.013087 -0.005208 0.000000 0.000000 0.000000
# 3 -0.004412 -0.005208 0.013885 0.000000 0.000000 0.000000
# 4 0.000000 0.000000 0.000000 0.032043 0.000000 0.000000
# 5 0.000000 0.000000 0.000000 0.000000 0.066673 0.000000
# 6 0.000000 0.000000 0.000000 0.000000 0.000000 0.032819
#
#
# Mechanical properties :
#
#
# Convention : Reuss Voigt Hill
#
# Bulk Modulus (GPa) = 40.16537 66.19926 53.18231
# Shear Modulus (GPa) = 20.23532 25.05846 22.64689
#
# Velocity S-wave (km/s) = 3.39657 3.77974 3.59327
# Velocity P-wave (km/s) = 6.18721 7.53595 6.89464
#
# Compressibility (1/GPa) = 0.02489707
#
# Stress axis : x y z
#
# Youngs Moduli (GPa) = 25.57154 76.41051 72.02193
#
# Poissons Ratio (x) = 0.83821 0.31779
# Poissons Ratio (y) = 0.28051 0.37511
# Poissons Ratio (z) = 0.11283 0.39797
#
# Static dielectric constant tensor:
#      x y z
#    x 3.040750 0.000000 0.000000 
#    y 0.000000 3.448930 0.000000 
#    z 0.000000 0.000000 3.147150 
# 
# 
# High freq. dielectric constant tensor:
#      x y z
#    x 1.660840 0.000000 0.000000 
#    y 0.000000 1.694650 0.000000 
#    z 0.000000 0.000000 1.650900 
# 
# From -- ./inp_files/4436.got.cif
#   From: 2010.03.12/outbox.cif.g09.slc.cpg/sg25_3_cif.got.tgz:4436.got - 2010.04.14 03:30:10.
