data_PCOD8166772
_publ_section_title
;
Structure prediction by ZEFSAII (Michael W. Deem and Ramdas Pophale) SiO2 
 PCOD8166772
Probable space group: P M M 2
;
_chemical_formula_sum "Si O2"
_cell_formula_units_Z 28
_cell_length_a 9.175991
_cell_length_b 9.209858
_cell_length_c 18.074068
_cell_angle_alpha 90.000000
_cell_angle_beta 90.000000
_cell_angle_gamma 90.000000
_cell_volume 1527.431789
_symmetry_space_group_name_H-M "P M M 2"
_symmetry_group_IT_number 25
_symmetry_cell_setting 'orthorhombic'
loop_
_space_group_symop_operation_xyz
x,y,z
-x,-y,z
-x,y,z
x,-y,z
loop_
_atom_site_type_symbol
_atom_site_label
_atom_site_fract_x
_atom_site_fract_y
_atom_site_fract_z
Si Si1 0.164397 0.827463 0.957790
Si Si2 0.329202 0.832573 0.526735
Si Si3 0.670952 0.168765 0.103375
Si Si4 0.326558 0.663868 0.669321
Si Si5 0.330400 0.169579 0.813467
Si Si6 0.169584 0.833584 0.380351
Si Si7 0.168159 0.670841 0.232996
O O1 0.243319 0.769394 0.884147
O O2 0.000000 0.766491 0.960707
O O3 0.165911 0.000000 0.956575
O O4 0.251357 0.771964 0.029454
O O5 0.500000 0.808213 0.517216
O O6 0.266271 0.742225 0.595901
O O7 0.253882 0.775423 0.452196
O O8 0.290455 0.000000 0.541303
O O9 0.500000 0.194614 0.094313
O O10 0.729921 0.260755 0.171268
O O11 0.707458 0.000000 0.117124
O O12 0.500000 0.669328 0.668583
O O13 0.267387 0.500000 0.670810
O O14 0.269295 0.746922 0.741866
O O15 0.500000 0.201338 0.827451
O O16 0.302206 0.000000 0.800309
O O17 0.217865 0.736095 0.311328
O O18 0.000000 0.817006 0.397085
O O19 0.211879 0.000000 0.362785
O O20 0.193045 0.500000 0.235186
O O21 0.000000 0.711033 0.216391
#
# Coordination Sequence:
#
# PCOD8166772 Si02
#       7
#     4   4   4   4   4   4   4
#     4   9  17  30  50  75 100 127 162 204 248 293
#     4   9  17  30  49  72  96 123 159 202 244 287
#     4  10  20  34  54  79 104 131 167 210 253 298
#     4   9  17  29  46  69  96 126 160 197 240 290
#     4   9  16  28  48  71  94 122 159 202 244 287
#     4   9  18  33  52  73  98 129 164 202 246 295
#     4  10  21  36  53  74 102 136 171 206 249 302
#
# _framework density 18.331426
#
# number of rings (size 3 to 8) (size 9 to 14) (size 15 to 20)
#    0.000    2.714    0.000    1.714    0.000    6.286 
#    0.000    2.857    0.000    7.286    0.000    0.000 
#    0.000    0.000    0.000    0.000    0.000    0.000 
#
# Total GULP energy -347243.171802 kJ/mol
# GULP energy per Si atom -12401.541850 kJ/mol
# Density = 1.828970 g / cm^3
# Si number density = 18.331426 Si / 1000 Ang^3
#
#
#
# Elastic Constant Matrix: (Units=GPa)
#
#
# Indices 1 2 3 4 5 6 
#
# 1 69.5152 37.9029 70.2579 0.0000 0.0000 0.0000
# 2 37.9029 74.3240 72.0566 0.0000 0.0000 0.0000
# 3 70.2579 72.0566 191.7531 0.0000 0.0000 0.0000
# 4 0.0000 0.0000 0.0000 2.9909 0.0000 0.0000
# 5 0.0000 0.0000 0.0000 0.0000 18.8839 0.0000
# 6 0.0000 0.0000 0.0000 0.0000 0.0000 16.6445
#
#
#
# Elastic Compliance Matrix: (Units=1/GPa)
#
#
# Indices 1 2 3 4 5 6 
#
# 1 0.024406 -0.005941 -0.006710 0.000000 0.000000 0.000000
# 2 -0.005941 0.022612 -0.006320 0.000000 0.000000 0.000000
# 3 -0.006710 -0.006320 0.010048 0.000000 0.000000 0.000000
# 4 0.000000 0.000000 0.000000 0.334345 0.000000 0.000000
# 5 0.000000 0.000000 0.000000 0.000000 0.052955 0.000000
# 6 0.000000 0.000000 0.000000 0.000000 0.000000 0.060080
#
#
# Mechanical properties :
#
#
# Convention : Reuss Voigt Hill
#
# Bulk Modulus (GPa) = 52.29021 77.33635 64.81328
# Shear Modulus (GPa) = 9.11139 18.06219 13.58679
#
# Velocity S-wave (km/s) = 2.23185 3.14237 2.72541
# Velocity P-wave (km/s) = 5.93535 7.44617 6.73327
#
# Compressibility (1/GPa) = 0.01912404
#
# Stress axis : x y z
#
# Youngs Moduli (GPa) = 40.97298 44.22463 99.51789
#
# Poissons Ratio (x) = 0.26276 0.66774
# Poissons Ratio (y) = 0.24344 0.62896
# Poissons Ratio (z) = 0.27492 0.27950
#
# Static dielectric constant tensor:
#      x y z
#    x 3.239510 0.000000 0.000000 
#    y 0.000000 3.219950 0.000000 
#    z 0.000000 0.000000 3.599620 
# 
# 
# High freq. dielectric constant tensor:
#      x y z
#    x 1.692550 0.000000 0.000000 
#    y 0.000000 1.689360 0.000000 
#    z 0.000000 0.000000 1.726680 
# 
# From -- ./inp_files/6036.got.cif
#   From: 2010.03.12/outbox.cif.g09.slc.cpg/sg25_4_cif.got.tgz:6036.got - 2010.04.14 03:30:10.
