data_PCOD8166621
_publ_section_title
;
Structure prediction by ZEFSAII (Michael W. Deem and Ramdas Pophale) SiO2 
 PCOD8166621
Probable space group: P M M 2
;
_chemical_formula_sum "Si O2"
_cell_formula_units_Z 28
_cell_length_a 9.355662
_cell_length_b 9.490703
_cell_length_c 18.116722
_cell_angle_alpha 90.000000
_cell_angle_beta 90.000000
_cell_angle_gamma 90.000000
_cell_volume 1608.616527
_symmetry_space_group_name_H-M "P M M 2"
_symmetry_group_IT_number 25
_symmetry_cell_setting 'orthorhombic'
loop_
_space_group_symop_operation_xyz
x,y,z
-x,-y,z
-x,y,z
x,-y,z
loop_
_atom_site_type_symbol
_atom_site_label
_atom_site_fract_x
_atom_site_fract_y
_atom_site_fract_z
Si Si1 0.169533 0.654286 0.889060
Si Si2 0.838940 0.668878 0.730709
Si Si3 0.336646 0.164182 0.333074
Si Si4 0.666836 0.157486 0.163833
Si Si5 0.162643 0.332269 0.047969
Si Si6 0.166239 0.334718 0.450833
Si Si7 0.338805 0.667677 0.593223
O O1 0.241242 0.500000 0.888865
O O2 0.212265 0.730189 0.811374
O O3 0.000000 0.636785 0.889231
O O4 0.212959 0.728445 0.966853
O O5 0.835574 0.500000 0.733915
O O6 0.734004 0.727898 0.667632
O O7 0.000000 0.719342 0.712321
O O8 0.500000 0.206938 0.351557
O O9 0.301327 0.198268 0.248223
O O10 0.227275 0.255225 0.380253
O O11 0.313165 0.000000 0.349901
O O12 0.500000 0.164065 0.147989
O O13 0.741586 0.268780 0.111571
O O14 0.724257 0.000000 0.147648
O O15 0.178895 0.500000 0.048405
O O16 0.000000 0.287777 0.063651
O O17 0.191192 0.500000 0.438973
O O18 0.249036 0.279117 0.523096
O O19 0.000000 0.298900 0.460661
O O20 0.500000 0.726506 0.587816
O O21 0.338032 0.500000 0.595630
#
# Coordination Sequence:
#
# PCOD8166621 Si02
#       7
#     4   4   4   4   4   4   4
#     4   7  11  21  37  58  86 119 150 181 222 270
#     4   8  12  20  36  56  81 116 153 185 221 266
#     4   9  19  36  54  69  88 118 155 192 231 277
#     4   9  19  35  51  67  90 121 156 191 228 275
#     4   9  17  29  46  70  98 124 153 191 232 274
#     4  10  20  32  47  70  98 124 152 188 229 273
#     4   9  16  25  38  59  89 122 153 186 225 268
#
# _framework density 17.406261000000001
#
# number of rings (size 3 to 8) (size 9 to 14) (size 15 to 20)
#    0.000    3.286    0.000    3.429    0.000    4.571 
#    0.000    5.000    0.000    2.571    0.000    1.000 
#    0.000    5.714    0.000    0.000    0.000    0.000 
#
# Total GULP energy -346920.739761 kJ/mol
# GULP energy per Si atom -12390.026420 kJ/mol
# Density = 1.736664 g / cm^3
# Si number density = 17.406261 Si / 1000 Ang^3
#
#
#
# Elastic Constant Matrix: (Units=GPa)
#
#
# Indices 1 2 3 4 5 6 
#
# 1 95.0019 26.8194 78.3794 0.0000 0.0000 0.0000
# 2 26.8194 23.8017 38.1775 0.0000 0.0000 0.0000
# 3 78.3794 38.1775 152.9055 0.0000 0.0000 0.0000
# 4 0.0000 0.0000 0.0000 -1.7078 0.0000 0.0000
# 5 0.0000 0.0000 0.0000 0.0000 16.9426 0.0000
# 6 0.0000 0.0000 0.0000 0.0000 0.0000 18.9491
#
#
#
# Elastic Compliance Matrix: (Units=1/GPa)
#
#
# Indices 1 2 3 4 5 6 
#
# 1 0.019554 -0.009934 -0.007543 0.000000 0.000000 0.000000
# 2 -0.009934 0.075126 -0.013665 0.000000 0.000000 0.000000
# 3 -0.007543 -0.013665 0.013818 0.000000 0.000000 0.000000
# 4 0.000000 0.000000 0.000000 -0.585553 0.000000 0.000000
# 5 0.000000 0.000000 0.000000 0.000000 0.059023 0.000000
# 6 0.000000 0.000000 0.000000 0.000000 0.000000 0.052773
#
#
# Mechanical properties :
#
#
# Convention : Reuss Voigt Hill
#
# Bulk Modulus (GPa) = 21.63857 62.05128 41.84493
# Shear Modulus (GPa) = -17.38707 15.39230 -0.99738
#
# Velocity S-wave (km/s) = -3.16396 2.97694 -0.75779
# Velocity P-wave (km/s) = 0.94291 6.89510 4.82977
#
# Compressibility (1/GPa) = 0.04621378
#
# Stress axis : x y z
#
# Youngs Moduli (GPa) = 51.14145 13.31089 72.36737
#
# Poissons Ratio (x) = 0.13223 0.54585
# Poissons Ratio (y) = 0.50805 0.98892
# Poissons Ratio (z) = 0.38575 0.18190
#
# Static dielectric constant tensor:
#      x y z
#    x 3.140610 0.000000 0.000000 
#    y 0.000000 2.715280 0.000000 
#    z 0.000000 0.000000 3.606730 
# 
# 
# High freq. dielectric constant tensor:
#      x y z
#    x 1.658850 0.000000 0.000000 
#    y 0.000000 1.613020 0.000000 
#    z 0.000000 0.000000 1.695300 
# 
# From -- ./inp_files/6406.got.cif
#   From: 2010.03.12/outbox.cif.g09.slc.cpg/sg25_4_cif.got.tgz:6406.got - 2010.04.14 03:30:10.
