data_PCOD8166261
_publ_section_title
;
Structure prediction by ZEFSAII (Michael W. Deem and Ramdas Pophale) SiO2 
 PCOD8166261
Probable space group: I 21 21 21
;
_chemical_formula_sum "Si O2"
_cell_formula_units_Z 20
_cell_length_a 7.999739
_cell_length_b 4.946333
_cell_length_c 22.404696
_cell_angle_alpha 90.000000
_cell_angle_beta 90.000000
_cell_angle_gamma 90.000000
_cell_volume 886.539773
_symmetry_space_group_name_H-M "I 21 21 21"
_symmetry_group_IT_number 24
_symmetry_cell_setting 'orthorhombic'
loop_
_space_group_symop_operation_xyz
x,y,z
-x,1/2-y,z
x,-y,1/2-z
1/2-x,y,-z
1/2+x,1/2+y,1/2+z
1/2-x,-y,1/2+z
1/2+x,1/2-y,-z
-x,1/2+y,1/2-z
loop_
_atom_site_type_symbol
_atom_site_label
_atom_site_fract_x
_atom_site_fract_y
_atom_site_fract_z
Si Si1 0.308833 0.169731 0.434766
Si Si2 0.114175 0.500000 0.750000
Si Si3 0.810590 0.165631 0.133605
O O1 0.500000 0.250000 0.435629
O O2 0.250000 0.078954 0.500000
O O3 0.194496 0.418662 0.413037
O O4 0.294416 0.916727 0.390852
O O5 0.232352 0.577616 0.695728
O O6 0.000000 0.750000 0.770308
O O7 0.000000 0.250000 0.144410
#
# Coordination Sequence:
#
# PCOD8166261 Si02
#       3
#     8   4   8
#     4  12  25  45  70 100 136 177 221 273 332 397
#     4  12  26  46  70  98 134 178 224 274 332 396
#     4  12  26  45  69 101 135 175 223 276 332 394
#
# _framework density 22.559621
#
# number of rings (size 3 to 8) (size 9 to 14) (size 15 to 20)
#    0.000    0.000    0.000   12.000    0.000    4.800 
#    0.000    0.000    0.000    0.000    0.000    0.000 
#    0.000    0.000    0.000    0.000    0.000    0.000 
#
# Total GULP energy -124117.333802 kJ/mol
# GULP energy per Si atom -12411.733380 kJ/mol
# Density = 2.250827 g / cm^3
# Si number density = 22.559621 Si / 1000 Ang^3
#
#
#
# Elastic Constant Matrix: (Units=GPa)
#
#
# Indices 1 2 3 4 5 6 
#
# 1 137.6338 55.1188 98.9696 0.0000 0.0000 0.0000
# 2 55.1188 157.1624 64.6447 0.0000 0.0000 0.0000
# 3 98.9696 64.6447 147.8862 0.0000 0.0000 0.0000
# 4 0.0000 0.0000 0.0000 56.1404 0.0000 0.0000
# 5 0.0000 0.0000 0.0000 0.0000 20.9652 0.0000
# 6 0.0000 0.0000 0.0000 0.0000 0.0000 56.5200
#
#
#
# Elastic Compliance Matrix: (Units=1/GPa)
#
#
# Indices 1 2 3 4 5 6 
#
# 1 0.014223 -0.001308 -0.008946 0.000000 0.000000 0.000000
# 2 -0.001308 0.007878 -0.002568 0.000000 0.000000 0.000000
# 3 -0.008946 -0.002568 0.013872 0.000000 0.000000 0.000000
# 4 0.000000 0.000000 0.000000 0.017812 0.000000 0.000000
# 5 0.000000 0.000000 0.000000 0.000000 0.047698 0.000000
# 6 0.000000 0.000000 0.000000 0.000000 0.000000 0.017693
#
#
# Mechanical properties :
#
#
# Convention : Reuss Voigt Hill
#
# Bulk Modulus (GPa) = 96.83442 97.79430 97.31436
# Shear Modulus (GPa) = 33.72366 41.65508 37.68937
#
# Velocity S-wave (km/s) = 3.87055 4.30169 4.09180
# Velocity P-wave (km/s) = 7.93674 8.25325 8.09654
#
# Compressibility (1/GPa) = 0.01032691
#
# Stress axis : x y z
#
# Youngs Moduli (GPa) = 70.30993 126.93572 72.08892
#
# Poissons Ratio (x) = 0.16606 0.64494
# Poissons Ratio (y) = 0.09198 0.18514
# Poissons Ratio (z) = 0.62902 0.32599
#
# Static dielectric constant tensor:
#      x y z
#    x 4.075680 0.000000 0.000000 
#    y 0.000000 4.387140 0.000000 
#    z 0.000000 0.000000 3.716050 
# 
# 
# High freq. dielectric constant tensor:
#      x y z
#    x 1.906210 0.000000 0.000000 
#    y 0.000000 1.911160 0.000000 
#    z 0.000000 0.000000 1.904960 
# 
# From -- ./inp_files/594.got.cif
#   From: 2010.03.12/outbox.cif.g09.slc.cpg/sg24_1_cif.got.tgz:594.got - 2010.04.14 03:06:53.
