data_PCOD8166085
_publ_section_title
;
Structure prediction by ZEFSAII (Michael W. Deem and Ramdas Pophale) SiO2 
 PCOD8166085
Probable space group: I 21 21 21
;
_chemical_formula_sum "Si O2"
_cell_formula_units_Z 48
_cell_length_a 19.545848
_cell_length_b 15.092873
_cell_length_c 7.738193
_cell_angle_alpha 90.000000
_cell_angle_beta 90.000000
_cell_angle_gamma 90.000000
_cell_volume 2282.790162
_symmetry_space_group_name_H-M "I 21 21 21"
_symmetry_group_IT_number 24
_symmetry_cell_setting 'orthorhombic'
loop_
_space_group_symop_operation_xyz
x,y,z
-x,1/2-y,z
x,-y,1/2-z
1/2-x,y,-z
1/2+x,1/2+y,1/2+z
1/2-x,-y,1/2+z
1/2+x,1/2-y,-z
-x,1/2+y,1/2-z
loop_
_atom_site_type_symbol
_atom_site_label
_atom_site_fract_x
_atom_site_fract_y
_atom_site_fract_z
Si Si1 0.500000 0.250000 0.735659
Si Si2 0.937861 0.697930 0.728999
Si Si3 0.750000 0.268249 0.500000
Si Si4 0.113283 0.681954 0.996403
Si Si5 0.424654 0.903377 0.593842
Si Si6 0.992249 0.051388 0.572956
Si Si7 0.727048 0.403288 0.804883
O O1 0.568832 0.235909 0.631381
O O2 0.484240 0.160917 0.841124
O O3 0.900208 0.633089 0.594840
O O4 0.000000 0.750000 0.634280
O O5 0.967812 0.642881 0.892691
O O6 0.888231 0.772197 0.806142
O O7 0.691449 0.196633 0.546750
O O8 0.757893 0.332023 0.668645
O O9 0.084258 0.580344 0.991835
O O10 0.356218 0.907838 0.708509
O O11 0.462828 0.998655 0.569643
O O12 0.982827 0.000000 0.750000
O O13 0.755804 0.500000 0.750000
O O14 0.750000 0.379768 0.000000
#
# Coordination Sequence:
#
# PCOD8166085 Si02
#       7
#     4   8   4   8   8   8   8
#     4  12  22  36  64  96 128 162 214 274 326 392
#     4   9  17  36  60  88 122 160 208 259 317 386
#     4  12  26  46  68  88 138 188 218 272 340 416
#     4  11  22  41  64  91 123 170 218 259 332 396
#     4  11  23  37  64  95 128 160 214 277 328 386
#     4   9  20  37  66  95 120 163 214 280 327 380
#     4  12  27  43  62  95 136 177 218 263 335 417
#
# _framework density 21.026899
#
# number of rings (size 3 to 8) (size 9 to 14) (size 15 to 20)
#    0.000    1.333    5.833    1.000    4.667    2.000 
#    0.000    0.000    3.667    0.000    0.000    0.000 
#    0.000    0.000    0.000    0.000    0.000    0.000 
#
# Total GULP energy -297320.257494 kJ/mol
# GULP energy per Si atom -12388.344062 kJ/mol
# Density = 2.097904 g / cm^3
# Si number density = 21.026899 Si / 1000 Ang^3
#
#
#
# Elastic Constant Matrix: (Units=GPa)
#
#
# Indices 1 2 3 4 5 6 
#
# 1 97.8553 30.2100 20.4980 0.0000 0.0000 0.0000
# 2 30.2100 80.7162 12.3541 0.0000 0.0000 0.0000
# 3 20.4980 12.3541 66.1754 0.0000 0.0000 0.0000
# 4 0.0000 0.0000 0.0000 28.9897 0.0000 0.0000
# 5 0.0000 0.0000 0.0000 0.0000 26.4184 0.0000
# 6 0.0000 0.0000 0.0000 0.0000 0.0000 36.7185
#
#
#
# Elastic Compliance Matrix: (Units=1/GPa)
#
#
# Indices 1 2 3 4 5 6 
#
# 1 0.012102 -0.004072 -0.002988 0.000000 0.000000 0.000000
# 2 -0.004072 0.014124 -0.001375 0.000000 0.000000 0.000000
# 3 -0.002988 -0.001375 0.016294 0.000000 0.000000 0.000000
# 4 0.000000 0.000000 0.000000 0.034495 0.000000 0.000000
# 5 0.000000 0.000000 0.000000 0.000000 0.037852 0.000000
# 6 0.000000 0.000000 0.000000 0.000000 0.000000 0.027234
#
#
# Mechanical properties :
#
#
# Convention : Reuss Voigt Hill
#
# Bulk Modulus (GPa) = 38.98971 41.20789 40.09880
# Shear Modulus (GPa) = 29.84667 30.53764 30.19216
#
# Velocity S-wave (km/s) = 3.77165 3.81506 3.79342
# Velocity P-wave (km/s) = 6.12782 6.24872 6.18856
#
# Compressibility (1/GPa) = 0.02564779
#
# Stress axis : x y z
#
# Youngs Moduli (GPa) = 82.62855 70.80290 61.37306
#
# Poissons Ratio (x) = 0.28832 0.18341
# Poissons Ratio (y) = 0.33648 0.08441
# Poissons Ratio (z) = 0.24694 0.09738
#
# Static dielectric constant tensor:
#      x y z
#    x 3.659250 0.000000 0.000000 
#    y 0.000000 3.958320 0.000000 
#    z 0.000000 0.000000 3.836880 
# 
# 
# High freq. dielectric constant tensor:
#      x y z
#    x 1.799920 0.000000 0.000000 
#    y 0.000000 1.816690 0.000000 
#    z 0.000000 0.000000 1.832420 
# 
# From -- ./inp_files/14223.got.cif
#   From: 2010.03.12/outbox.cif.g09.slc.cpg/sg24_8_cif.got.tgz:14223.got - 2010.04.14 03:06:53.
