data_PCOD8166306
_publ_section_title
;
Structure prediction by ZEFSAII (Michael W. Deem and Ramdas Pophale) SiO2 
 PCOD8166306
Probable space group: P M M 2
;
_chemical_formula_sum "Si O2"
_cell_formula_units_Z 32
_cell_length_a 14.492073
_cell_length_b 9.576614
_cell_length_c 15.482566
_cell_angle_alpha 90.000000
_cell_angle_beta 90.000000
_cell_angle_gamma 90.000000
_cell_volume 2148.747755
_symmetry_space_group_name_H-M "P M M 2"
_symmetry_group_IT_number 25
_symmetry_cell_setting 'orthorhombic'
loop_
_space_group_symop_operation_xyz
x,y,z
-x,-y,z
-x,y,z
x,-y,z
loop_
_atom_site_type_symbol
_atom_site_label
_atom_site_fract_x
_atom_site_fract_y
_atom_site_fract_z
Si Si1 0.899228 0.333996 0.109760
Si Si2 0.396573 0.334123 0.011003
Si Si3 0.609400 0.153898 0.504522
Si Si4 0.290256 0.333663 0.178099
Si Si5 0.710559 0.334420 0.840464
Si Si6 0.100902 0.665424 0.915785
Si Si7 0.607679 0.337333 0.347382
Si Si8 0.606561 0.836344 0.698091
O O1 0.896790 0.500000 0.106614
O O2 0.816218 0.281075 0.171424
O O3 0.000000 0.283413 0.144434
O O4 0.883300 0.276058 0.012704
O O5 0.500000 0.273566 0.008748
O O6 0.397466 0.500000 0.015196
O O7 0.345735 0.274016 0.095693
O O8 0.344484 0.284763 0.925133
O O9 0.500000 0.147627 0.501773
O O10 0.646273 0.261460 0.432911
O O11 0.638607 0.200823 0.600645
O O12 0.649558 0.000000 0.484020
O O13 0.296384 0.500000 0.177926
O O14 0.335874 0.276496 0.265853
O O15 0.701198 0.500000 0.825631
O O16 0.817148 0.285715 0.852462
O O17 0.671192 0.255134 0.758478
O O18 0.104046 0.500000 0.921882
O O19 0.000000 0.714997 0.880927
O O20 0.500000 0.306778 0.330878
O O21 0.626110 0.500000 0.361125
O O22 0.500000 0.794405 0.713210
O O23 0.620512 0.000000 0.716749
#
# Coordination Sequence:
#
# PCOD8166306 Si02
#       8
#     4   4   4   4   4   4   4   4
#     4   8  12  19  32  50  75 107 138 165 193 229
#     4   9  15  21  30  49  80 112 136 157 186 228
#     4   8  15  29  45  57  73 102 136 165 196 238
#     4   9  14  21  32  51  80 109 132 157 193 235
#     4  10  17  25  40  63  84 106 139 174 202 233
#     4   8  13  22  36  56  83 110 136 170 208 239
#     4   9  16  24  37  59  83 104 128 162 201 234
#     4   9  18  31  44  58  80 110 138 165 204 251
#
# _framework density 14.892393999999999
#
# number of rings (size 3 to 8) (size 9 to 14) (size 15 to 20)
#    0.000    3.250    1.250    2.250    0.000    2.750 
#    0.000    1.250    0.000    1.125    0.000    2.625 
#    0.000    5.500    0.000    0.000    0.000    0.000 
#
# Total GULP energy -396518.662835 kJ/mol
# GULP energy per Si atom -12391.208214 kJ/mol
# Density = 1.485850 g / cm^3
# Si number density = 14.892394 Si / 1000 Ang^3
#
#
#
# Elastic Constant Matrix: (Units=GPa)
#
#
# Indices 1 2 3 4 5 6 
#
# 1 115.4700 27.0133 66.0142 0.0000 0.0000 0.0000
# 2 27.0133 25.9434 38.7300 0.0000 0.0000 0.0000
# 3 66.0142 38.7300 126.0663 0.0000 0.0000 0.0000
# 4 0.0000 0.0000 0.0000 0.6306 0.0000 0.0000
# 5 0.0000 0.0000 0.0000 0.0000 13.1233 0.0000
# 6 0.0000 0.0000 0.0000 0.0000 0.0000 7.7023
#
#
#
# Elastic Compliance Matrix: (Units=1/GPa)
#
#
# Indices 1 2 3 4 5 6 
#
# 1 0.012874 -0.006171 -0.004846 0.000000 0.000000 0.000000
# 2 -0.006171 0.074159 -0.019551 0.000000 0.000000 0.000000
# 3 -0.004846 -0.019551 0.016476 0.000000 0.000000 0.000000
# 4 0.000000 0.000000 0.000000 1.585784 0.000000 0.000000
# 5 0.000000 0.000000 0.000000 0.000000 0.076201 0.000000
# 6 0.000000 0.000000 0.000000 0.000000 0.000000 0.129831
#
#
# Mechanical properties :
#
#
# Convention : Reuss Voigt Hill
#
# Bulk Modulus (GPa) = 23.60013 58.99941 41.29977
# Shear Modulus (GPa) = 2.53732 13.33939 7.93835
#
# Velocity S-wave (km/s) = 1.30670 2.99610 2.31129
# Velocity P-wave (km/s) = 4.26123 7.18832 5.90890
#
# Compressibility (1/GPa) = 0.04237266
#
# Stress axis : x y z
#
# Youngs Moduli (GPa) = 77.67463 13.48458 60.69330
#
# Poissons Ratio (x) = 0.08322 0.29410
# Poissons Ratio (y) = 0.47935 1.18664
# Poissons Ratio (z) = 0.37638 0.26364
#
# Static dielectric constant tensor:
#      x y z
#    x 3.101630 0.000000 0.000000 
#    y 0.000000 2.478480 0.000000 
#    z 0.000000 0.000000 2.950930 
# 
# 
# High freq. dielectric constant tensor:
#      x y z
#    x 1.561290 0.000000 0.000000 
#    y 0.000000 1.519350 0.000000 
#    z 0.000000 0.000000 1.561300 
# 
# From -- ./inp_files/5749.got.cif
#   From: 2010.03.12/outbox.cif.g09.slc.cpg/sg25_3_cif.got.tgz:5749.got - 2010.04.14 03:30:10.
