data_PCOD8166425
_publ_section_title
;
Structure prediction by ZEFSAII (Michael W. Deem and Ramdas Pophale) SiO2 
 PCOD8166425
Probable space group: P M M 2
;
_chemical_formula_sum "Si O2"
_cell_formula_units_Z 32
_cell_length_a 9.107842
_cell_length_b 14.364660
_cell_length_c 15.820008
_cell_angle_alpha 90.000000
_cell_angle_beta 90.000000
_cell_angle_gamma 90.000000
_cell_volume 2069.748316
_symmetry_space_group_name_H-M "P M M 2"
_symmetry_group_IT_number 25
_symmetry_cell_setting 'orthorhombic'
loop_
_space_group_symop_operation_xyz
x,y,z
-x,-y,z
-x,y,z
x,-y,z
loop_
_atom_site_type_symbol
_atom_site_label
_atom_site_fract_x
_atom_site_fract_y
_atom_site_fract_z
Si Si1 0.324830 0.606543 0.694020
Si Si2 0.673827 0.289847 0.168769
Si Si3 0.670657 0.390501 0.999625
Si Si4 0.660448 0.389836 0.510791
Si Si5 0.326869 0.897849 0.095059
Si Si6 0.831768 0.896595 0.922273
Si Si7 0.171341 0.293838 0.844612
Si Si8 0.323974 0.605040 0.330135
O O1 0.500000 0.617822 0.696934
O O2 0.282366 0.500000 0.715989
O O3 0.261694 0.634813 0.600263
O O4 0.250417 0.675501 0.759404
O O5 0.500000 0.299860 0.173470
O O6 0.723717 0.181811 0.160786
O O7 0.741527 0.330382 0.255568
O O8 0.729328 0.347440 0.087536
O O9 0.500000 0.366010 0.984474
O O10 0.696338 0.500000 0.003272
O O11 0.764245 0.348656 0.923884
O O12 0.500000 0.342694 0.512947
O O13 0.640911 0.500000 0.506756
O O14 0.739372 0.359864 0.422181
O O15 0.500000 0.895533 0.084693
O O16 0.273296 0.000000 0.126601
O O17 0.264500 0.873769 0.003638
O O18 0.799794 0.817249 0.852873
O O19 0.000000 0.891984 0.951739
O O20 0.794412 0.000000 0.885778
O O21 0.000000 0.317074 0.838326
O O22 0.500000 0.609158 0.333894
O O23 0.272224 0.500000 0.310800
#
# Coordination Sequence:
#
# PCOD8166425 Si02
#       8
#     4   4   4   4   4   4   4   4
#     4   9  17  29  44  61  83 111 140 170 204 243
#     4   9  15  23  36  57  83 109 136 166 200 237
#     4  10  19  29  40  56  83 117 145 165 191 234
#     4   7  11  21  37  57  79 103 134 170 202 231
#     4   9  16  26  41  60  81 105 135 172 208 240
#     4   9  18  32  46  58  75 102 137 175 211 245
#     4  11  21  30  42  61  82 106 137 172 208 246
#     4   8  12  19  34  57  83 107 133 167 201 233
#
# _framework density 15.460817
#
# number of rings (size 3 to 8) (size 9 to 14) (size 15 to 20)
#    0.000    3.000    1.250    2.625    0.000    4.000 
#    0.000    0.000    0.000    0.000    0.000    2.625 
#    0.000    7.000    0.000    0.000    0.000    0.000 
#
# Total GULP energy -396421.992941 kJ/mol
# GULP energy per Si atom -12388.187279 kJ/mol
# Density = 1.542563 g / cm^3
# Si number density = 15.460817 Si / 1000 Ang^3
#
#
#
# Elastic Constant Matrix: (Units=GPa)
#
#
# Indices 1 2 3 4 5 6 
#
# 1 20.0184 23.1542 23.8721 0.0000 0.0000 0.0000
# 2 23.1542 100.5225 70.9159 0.0000 0.0000 0.0000
# 3 23.8721 70.9159 147.8463 0.0000 0.0000 0.0000
# 4 0.0000 0.0000 0.0000 11.2560 0.0000 0.0000
# 5 0.0000 0.0000 0.0000 0.0000 -2.6654 0.0000
# 6 0.0000 0.0000 0.0000 0.0000 0.0000 15.2834
#
#
#
# Elastic Compliance Matrix: (Units=1/GPa)
#
#
# Indices 1 2 3 4 5 6 
#
# 1 0.070901 -0.012477 -0.005463 0.000000 0.000000 0.000000
# 2 -0.012477 0.017232 -0.006251 0.000000 0.000000 0.000000
# 3 -0.005463 -0.006251 0.010644 0.000000 0.000000 0.000000
# 4 0.000000 0.000000 0.000000 0.088841 0.000000 0.000000
# 5 0.000000 0.000000 0.000000 0.000000 -0.375176 0.000000
# 6 0.000000 0.000000 0.000000 0.000000 0.000000 0.065431
#
#
# Mechanical properties :
#
#
# Convention : Reuss Voigt Hill
#
# Bulk Modulus (GPa) = 19.84348 56.03017 37.93683
# Shear Modulus (GPa) = -87.79928 14.80446 -36.49741
#
# Velocity S-wave (km/s) = -7.54397 3.09778 -4.86391
# Velocity P-wave (km/s) = 7.93848 7.00812 2.63683
#
# Compressibility (1/GPa) = 0.05039439
#
# Stress axis : x y z
#
# Youngs Moduli (GPa) = 14.10426 58.03271 93.94830
#
# Poissons Ratio (x) = 0.72407 0.51327
# Poissons Ratio (y) = 0.17598 0.58725
# Poissons Ratio (z) = 0.07706 0.36275
#
# Static dielectric constant tensor:
#      x y z
#    x 2.642970 0.000000 0.000000 
#    y 0.000000 3.120420 0.000000 
#    z 0.000000 0.000000 3.252680 
# 
# 
# High freq. dielectric constant tensor:
#      x y z
#    x 1.555940 0.000000 0.000000 
#    y 0.000000 1.580170 0.000000 
#    z 0.000000 0.000000 1.588950 
# 
# From -- ./inp_files/5670.got.cif
#   From: 2010.03.12/outbox.cif.g09.slc.cpg/sg25_3_cif.got.tgz:5670.got - 2010.04.14 03:30:10.
