data_PCOD8166275
_publ_section_title
;
Structure prediction by ZEFSAII (Michael W. Deem and Ramdas Pophale) SiO2 
 PCOD8166275
Probable space group: I 21 21 21
;
_chemical_formula_sum "Si O2"
_cell_formula_units_Z 24
_cell_length_a 14.061423
_cell_length_b 7.902532
_cell_length_c 8.781927
_cell_angle_alpha 90.000000
_cell_angle_beta 90.000000
_cell_angle_gamma 90.000000
_cell_volume 975.855151
_symmetry_space_group_name_H-M "I 21 21 21"
_symmetry_group_IT_number 24
_symmetry_cell_setting 'orthorhombic'
loop_
_space_group_symop_operation_xyz
x,y,z
-x,1/2-y,z
x,-y,1/2-z
1/2-x,y,-z
1/2+x,1/2+y,1/2+z
1/2-x,-y,1/2+z
1/2+x,1/2-y,-z
-x,1/2+y,1/2-z
loop_
_atom_site_type_symbol
_atom_site_label
_atom_site_fract_x
_atom_site_fract_y
_atom_site_fract_z
Si Si1 0.582581 0.369541 0.362976
Si Si2 0.752723 0.814818 0.316423
Si Si3 0.427128 0.887719 0.623797
O O1 0.500000 0.250000 0.428565
O O2 0.530236 0.500000 0.250000
O O3 0.664189 0.271208 0.270337
O O4 0.621102 0.488897 0.498673
O O5 0.750000 0.824452 0.500000
O O6 0.844642 0.703537 0.279062
O O7 0.766032 0.000000 0.250000
O O8 0.500000 0.750000 0.551002
O O9 0.483005 0.000000 0.750000
#
# Coordination Sequence:
#
# PCOD8166275 Si02
#       3
#     8   8   8
#     4  12  26  49  81 111 152 203 259 315 387 466
#     4  12  29  48  77 115 154 204 262 322 385 455
#     4  12  28  50  78 116 158 202 259 320 388 462
#
# _framework density 24.593812
#
# number of rings (size 3 to 8) (size 9 to 14) (size 15 to 20)
#    0.000    0.000    3.333    5.000    9.333    0.000 
#    0.000    0.000    0.000    0.000    0.000    0.000 
#    0.000    0.000    0.000    0.000    0.000    0.000 
#
# Total GULP energy -148679.267629 kJ/mol
# GULP energy per Si atom -12389.938969 kJ/mol
# Density = 2.453784 g / cm^3
# Si number density = 24.593812 Si / 1000 Ang^3
#
#
#
# Elastic Constant Matrix: (Units=GPa)
#
#
# Indices 1 2 3 4 5 6 
#
# 1 140.4409 79.4429 39.4155 0.0000 0.0000 0.0000
# 2 79.4429 190.4289 86.2162 0.0000 0.0000 0.0000
# 3 39.4155 86.2162 138.2851 0.0000 0.0000 0.0000
# 4 0.0000 0.0000 0.0000 56.2013 0.0000 0.0000
# 5 0.0000 0.0000 0.0000 0.0000 28.3153 0.0000
# 6 0.0000 0.0000 0.0000 0.0000 0.0000 30.9007
#
#
#
# Elastic Compliance Matrix: (Units=1/GPa)
#
#
# Indices 1 2 3 4 5 6 
#
# 1 0.009330 -0.003746 -0.000324 0.000000 0.000000 0.000000
# 2 -0.003746 0.008820 -0.004432 0.000000 0.000000 0.000000
# 3 -0.000324 -0.004432 0.010087 0.000000 0.000000 0.000000
# 4 0.000000 0.000000 0.000000 0.017793 0.000000 0.000000
# 5 0.000000 0.000000 0.000000 0.000000 0.035317 0.000000
# 6 0.000000 0.000000 0.000000 0.000000 0.000000 0.032362
#
#
# Mechanical properties :
#
#
# Convention : Reuss Voigt Hill
#
# Bulk Modulus (GPa) = 89.01036 97.70047 93.35542
# Shear Modulus (GPa) = 37.18687 40.68881 38.93784
#
# Velocity S-wave (km/s) = 3.89272 4.07188 3.98331
# Velocity P-wave (km/s) = 7.51499 7.86885 7.69396
#
# Compressibility (1/GPa) = 0.01123465
#
# Stress axis : x y z
#
# Youngs Moduli (GPa) = 107.17921 113.37545 99.14011
#
# Poissons Ratio (x) = 0.42466 0.03213
# Poissons Ratio (y) = 0.40145 0.43934
# Poissons Ratio (z) = 0.03474 0.50243
#
# Static dielectric constant tensor:
#      x y z
#    x 4.108200 0.000000 0.000000 
#    y 0.000000 4.896160 0.000000 
#    z 0.000000 0.000000 4.594700 
# 
# 
# High freq. dielectric constant tensor:
#      x y z
#    x 1.958460 0.000000 0.000000 
#    y 0.000000 2.012530 0.000000 
#    z 0.000000 0.000000 1.990940 
# 
# From -- ./inp_files/8515.got.cif
#   From: 2010.03.12/outbox.cif.g09.slc.cpg/sg24_5_cif.got.tgz:8515.got - 2010.04.14 03:06:53.
