data_PCOD8166096
_publ_section_title
;
Structure prediction by ZEFSAII (Michael W. Deem and Ramdas Pophale) SiO2 
 PCOD8166096
Probable space group: I 21 21 21
;
_chemical_formula_sum "Si O2"
_cell_formula_units_Z 44
_cell_length_a 8.962342
_cell_length_b 18.319767
_cell_length_c 13.516731
_cell_angle_alpha 90.000000
_cell_angle_beta 90.000000
_cell_angle_gamma 90.000000
_cell_volume 2219.285262
_symmetry_space_group_name_H-M "I 21 21 21"
_symmetry_group_IT_number 24
_symmetry_cell_setting 'orthorhombic'
loop_
_space_group_symop_operation_xyz
x,y,z
-x,1/2-y,z
x,-y,1/2-z
1/2-x,y,-z
1/2+x,1/2+y,1/2+z
1/2-x,-y,1/2+z
1/2+x,1/2-y,-z
-x,1/2+y,1/2-z
loop_
_atom_site_type_symbol
_atom_site_label
_atom_site_fract_x
_atom_site_fract_y
_atom_site_fract_z
Si Si1 0.583446 0.500000 0.750000
Si Si2 0.545562 0.946244 0.408008
Si Si3 0.137957 0.416357 0.123328
Si Si4 0.686631 0.574217 0.105957
Si Si5 0.824928 0.755846 0.395758
Si Si6 0.401104 0.177390 0.228333
O O1 0.477703 0.436632 0.791827
O O2 0.681991 0.534026 0.835851
O O3 0.549246 0.915594 0.519509
O O4 0.715150 0.968142 0.376300
O O5 0.475246 0.885343 0.337449
O O6 0.451606 0.019827 0.404486
O O7 0.210170 0.337062 0.142465
O O8 0.629627 0.646393 0.162182
O O9 0.750000 0.598600 0.000000
O O10 0.750000 0.739439 0.500000
O O11 0.759395 0.697670 0.318290
O O12 0.000000 0.750000 0.406345
O O13 0.500000 0.250000 0.233817
#
# Coordination Sequence:
#
# PCOD8166096 Si02
#       6
#     4   8   8   8   8   8
#     4  12  24  40  68  96 132 170 224 278 332 396
#     4  11  22  43  68  97 136 170 226 278 336 394
#     4  11  23  39  62 103 130 167 216 286 335 386
#     4  12  26  45  67  99 132 179 229 274 329 402
#     4  12  23  38  63  99 137 169 216 275 342 399
#     4  12  24  44  69  96 134 186 220 272 338 405
#
# _framework density 19.826201999999999
#
# number of rings (size 3 to 8) (size 9 to 14) (size 15 to 20)
#    0.000    0.364    7.273    2.727    2.545    0.727 
#    0.000    2.727    4.000    0.000    0.000    0.000 
#    0.000    0.000    0.000    0.000    0.000    0.000 
#
# Total GULP energy -272832.527977 kJ/mol
# GULP energy per Si atom -12401.478544 kJ/mol
# Density = 1.978108 g / cm^3
# Si number density = 19.826202 Si / 1000 Ang^3
#
#
#
# Elastic Constant Matrix: (Units=GPa)
#
#
# Indices 1 2 3 4 5 6 
#
# 1 123.9443 26.9229 50.4150 0.0000 0.0000 0.0000
# 2 26.9229 75.3774 40.6956 0.0000 0.0000 0.0000
# 3 50.4150 40.6956 117.6233 0.0000 0.0000 0.0000
# 4 0.0000 0.0000 0.0000 27.0189 0.0000 0.0000
# 5 0.0000 0.0000 0.0000 0.0000 24.3127 0.0000
# 6 0.0000 0.0000 0.0000 0.0000 0.0000 35.3410
#
#
#
# Elastic Compliance Matrix: (Units=1/GPa)
#
#
# Indices 1 2 3 4 5 6 
#
# 1 0.009914 -0.001533 -0.003719 0.000000 0.000000 0.000000
# 2 -0.001533 0.016551 -0.005069 0.000000 0.000000 0.000000
# 3 -0.003719 -0.005069 0.011849 0.000000 0.000000 0.000000
# 4 0.000000 0.000000 0.000000 0.037011 0.000000 0.000000
# 5 0.000000 0.000000 0.000000 0.000000 0.041131 0.000000
# 6 0.000000 0.000000 0.000000 0.000000 0.000000 0.028296
#
#
# Mechanical properties :
#
#
# Convention : Reuss Voigt Hill
#
# Bulk Modulus (GPa) = 56.58678 61.44575 59.01627
# Shear Modulus (GPa) = 29.19114 30.59530 29.89322
#
# Velocity S-wave (km/s) = 3.84129 3.93259 3.88721
# Velocity P-wave (km/s) = 6.94819 7.18887 7.06955
#
# Compressibility (1/GPa) = 0.01767197
#
# Stress axis : x y z
#
# Youngs Moduli (GPa) = 100.86955 60.41922 84.39202
#
# Poissons Ratio (x) = 0.09264 0.31383
# Poissons Ratio (y) = 0.15466 0.42780
# Poissons Ratio (z) = 0.37510 0.30628
#
# Static dielectric constant tensor:
#      x y z
#    x 3.958380 0.000000 0.000000 
#    y 0.000000 3.928390 0.000000 
#    z 0.000000 0.000000 3.655310 
# 
# 
# High freq. dielectric constant tensor:
#      x y z
#    x 1.799340 0.000000 0.000000 
#    y 0.000000 1.763520 0.000000 
#    z 0.000000 0.000000 1.763780 
# 
# From -- ./inp_files/24708.got.cif
#   From: 2010.03.12/outbox.cif.g09.slc.cpg/sg24_13_cif.got.tgz:24708.got - 2010.04.14 03:06:53.
