data_PCOD8166008
_publ_section_title
;
Structure prediction by ZEFSAII (Michael W. Deem and Ramdas Pophale) SiO2 
 PCOD8166008
Probable space group: I 21 21 21
;
_chemical_formula_sum "Si O2"
_cell_formula_units_Z 64
_cell_length_a 12.114798
_cell_length_b 11.709808
_cell_length_c 23.215272
_cell_angle_alpha 90.000000
_cell_angle_beta 90.000000
_cell_angle_gamma 90.000000
_cell_volume 3293.363954
_symmetry_space_group_name_H-M "I 21 21 21"
_symmetry_group_IT_number 24
_symmetry_cell_setting 'orthorhombic'
loop_
_space_group_symop_operation_xyz
x,y,z
-x,1/2-y,z
x,-y,1/2-z
1/2-x,y,-z
1/2+x,1/2+y,1/2+z
1/2-x,-y,1/2+z
1/2+x,1/2-y,-z
-x,1/2+y,1/2-z
loop_
_atom_site_type_symbol
_atom_site_label
_atom_site_fract_x
_atom_site_fract_y
_atom_site_fract_z
Si Si1 0.050812 0.910471 0.013217
Si Si2 0.440022 0.076286 0.382412
Si Si3 0.874186 0.724654 0.780501
Si Si4 0.433587 0.635701 0.512611
Si Si5 0.728167 0.136344 0.091677
Si Si6 0.807429 0.095461 0.644085
Si Si7 0.889570 0.323331 0.843366
Si Si8 0.329730 0.713446 0.950230
O O1 0.148127 0.851500 0.051429
O O2 0.940412 0.848471 0.031559
O O3 0.091168 0.889778 0.947350
O O4 0.030369 0.043957 0.024782
O O5 0.363030 0.143861 0.336835
O O6 0.567444 0.112621 0.377174
O O7 0.420094 0.943159 0.371341
O O8 0.807499 0.844342 0.792447
O O9 0.835431 0.664916 0.720859
O O10 0.000000 0.750000 0.768026
O O11 0.500000 0.750000 0.500417
O O12 0.351440 0.645157 0.566638
O O13 0.361901 0.601054 0.456641
O O14 0.701510 0.259730 0.117760
O O15 0.724608 0.038381 0.141504
O O16 0.717784 0.168466 0.609280
O O17 0.000000 0.250000 0.843170
O O18 0.250000 0.673274 0.000000
#
# Coordination Sequence:
#
# PCOD8166008 Si02
#       8
#     8   8   8   8   8   8   8   8
#     4  11  21  32  57  82 112 157 191 241 288 341
#     4  11  19  33  55  77 119 158 185 224 291 343
#     4   9  22  33  53  84 117 148 186 238 294 340
#     4  11  22  39  54  82 117 151 199 239 288 357
#     4  11  21  36  62  79 110 160 196 235 294 355
#     4  11  19  35  55  79 112 155 191 233 281 347
#     4  11  20  36  55  86 115 151 193 237 279 350
#     4  11  20  33  52  81 119 148 196 238 288 348
#
# _framework density 19.433018000000001
#
# number of rings (size 3 to 8) (size 9 to 14) (size 15 to 20)
#    0.000    1.250    5.000    2.250    3.500    0.500 
#    6.750    0.000    0.000    0.000    3.250    0.000 
#    0.000    0.000    0.000    0.000    0.000    0.000 
#
# Total GULP energy -396492.395438 kJ/mol
# GULP energy per Si atom -12390.387357 kJ/mol
# Density = 1.938879 g / cm^3
# Si number density = 19.433018 Si / 1000 Ang^3
#
#
#
# Elastic Constant Matrix: (Units=GPa)
#
#
# Indices 1 2 3 4 5 6 
#
# 1 35.1052 16.1214 22.1649 0.0000 0.0000 0.0000
# 2 16.1214 102.8464 23.6636 0.0000 0.0000 0.0000
# 3 22.1649 23.6636 75.2477 0.0000 0.0000 0.0000
# 4 0.0000 0.0000 0.0000 23.7026 0.0000 0.0000
# 5 0.0000 0.0000 0.0000 0.0000 8.8870 0.0000
# 6 0.0000 0.0000 0.0000 0.0000 0.0000 258.1870
#
#
#
# Elastic Compliance Matrix: (Units=1/GPa)
#
#
# Indices 1 2 3 4 5 6 
#
# 1 0.036103 -0.003463 -0.009545 0.000000 0.000000 0.000000
# 2 -0.003463 0.010814 -0.002381 0.000000 0.000000 0.000000
# 3 -0.009545 -0.002381 0.016850 0.000000 0.000000 0.000000
# 4 0.000000 0.000000 0.000000 0.042189 0.000000 0.000000
# 5 0.000000 0.000000 0.000000 0.000000 0.112524 0.000000
# 6 0.000000 0.000000 0.000000 0.000000 0.000000 0.003873
#
#
# Mechanical properties :
#
#
# Convention : Reuss Voigt Hill
#
# Bulk Modulus (GPa) = 30.31361 37.45547 33.88454
# Shear Modulus (GPa) = 18.93025 68.23860 43.58443
#
# Velocity S-wave (km/s) = 3.12449 5.93220 4.74096
# Velocity P-wave (km/s) = 5.35252 8.13863 6.88792
#
# Compressibility (1/GPa) = 0.03298848
#
# Stress axis : x y z
#
# Youngs Moduli (GPa) = 27.69855 92.47427 59.34783
#
# Poissons Ratio (x) = 0.32023 0.56650
# Poissons Ratio (y) = 0.09592 0.14129
# Poissons Ratio (z) = 0.26440 0.22015
#
# Static dielectric constant tensor:
#      x y z
#    x 3.675590 0.000000 0.000000 
#    y 0.000000 4.127400 0.000000 
#    z 0.000000 0.000000 3.294980 
# 
# 
# High freq. dielectric constant tensor:
#      x y z
#    x 1.721440 0.000000 0.000000 
#    y 0.000000 1.772600 0.000000 
#    z 0.000000 0.000000 1.736100 
# 
# From -- ./inp_files/22718.got.cif
#   From: 2010.03.12/outbox.cif.g09.slc.cpg/sg24_12_cif.got.tgz:22718.got - 2010.04.14 03:06:53.
