data_PCOD8166246
_publ_section_title
;
Structure prediction by ZEFSAII (Michael W. Deem and Ramdas Pophale) SiO2 
 PCOD8166246
Probable space group: I 21 21 21
;
_chemical_formula_sum "Si O2"
_cell_formula_units_Z 32
_cell_length_a 13.926465
_cell_length_b 20.012473
_cell_length_c 4.871756
_cell_angle_alpha 90.000000
_cell_angle_beta 90.000000
_cell_angle_gamma 90.000000
_cell_volume 1357.773036
_symmetry_space_group_name_H-M "I 21 21 21"
_symmetry_group_IT_number 24
_symmetry_cell_setting 'orthorhombic'
loop_
_space_group_symop_operation_xyz
x,y,z
-x,1/2-y,z
x,-y,1/2-z
1/2-x,y,-z
1/2+x,1/2+y,1/2+z
1/2-x,-y,1/2+z
1/2+x,1/2-y,-z
-x,1/2+y,1/2-z
loop_
_atom_site_type_symbol
_atom_site_label
_atom_site_fract_x
_atom_site_fract_y
_atom_site_fract_z
Si Si1 0.992563 0.456494 0.490747
Si Si2 0.187713 0.119478 0.238447
Si Si3 0.146152 0.345423 0.581064
Si Si4 0.392823 0.741632 0.573800
O O1 0.043006 0.500000 0.250000
O O2 0.901312 0.423950 0.340549
O O3 0.069454 0.404531 0.608832
O O4 0.957368 0.500000 0.750000
O O5 0.250000 0.139486 0.500000
O O6 0.154578 0.186118 0.083401
O O7 0.250000 0.080933 0.000000
O O8 0.250000 0.375122 0.500000
O O9 0.105092 0.291282 0.371505
O O10 0.163121 0.307094 0.866769
O O11 0.500000 0.750000 0.460362
#
# Coordination Sequence:
#
# PCOD8166246 Si02
#       4
#     8   8   8   8
#     4  12  28  49  73 103 146 196 247 292 346 421
#     4  12  26  46  75 108 144 186 236 296 362 431
#     4  12  26  46  73 109 142 186 236 297 363 428
#     4  12  24  44  75 107 147 182 225 298 373 430
#
# _framework density 23.568003999999998
#
# number of rings (size 3 to 8) (size 9 to 14) (size 15 to 20)
#    0.000    0.000    2.500    8.250    3.500    3.000 
#    0.000    0.000    0.000    0.000    0.000    0.000 
#    0.000    0.000    0.000    0.000    0.000    0.000 
#
# Total GULP energy -198477.781408 kJ/mol
# GULP energy per Si atom -12404.861338 kJ/mol
# Density = 2.351436 g / cm^3
# Si number density = 23.568004 Si / 1000 Ang^3
#
#
#
# Elastic Constant Matrix: (Units=GPa)
#
#
# Indices 1 2 3 4 5 6 
#
# 1 147.6562 48.2058 47.3429 0.0000 0.0000 0.0000
# 2 48.2058 113.3437 51.2782 0.0000 0.0000 0.0000
# 3 47.3429 51.2782 146.0648 -0.0005 0.0000 0.0000
# 4 0.0000 0.0000 -0.0005 -611.7210 -0.0001 0.0000
# 5 0.0000 0.0000 0.0000 -0.0001 39.6350 0.0000
# 6 0.0000 0.0000 0.0000 0.0000 0.0000 0.7659
#
#
#
# Elastic Compliance Matrix: (Units=1/GPa)
#
#
# Indices 1 2 3 4 5 6 
#
# 1 0.008207 -0.002719 -0.001706 0.000000 0.000000 0.000000
# 2 -0.002719 0.011389 -0.003117 0.000000 0.000000 0.000000
# 3 -0.001706 -0.003117 0.008493 0.000000 0.000000 0.000000
# 4 0.000000 0.000000 0.000000 -0.001635 0.000000 0.000000
# 5 0.000000 0.000000 0.000000 0.000000 0.025230 0.000000
# 6 0.000000 0.000000 0.000000 0.000000 0.000000 1.305575
#
#
# Mechanical properties :
#
#
# Convention : Reuss Voigt Hill
#
# Bulk Modulus (GPa) = 76.88432 77.85761 77.37097
# Shear Modulus (GPa) = 3.63193 -96.91481 -46.64144
#
# Velocity S-wave (km/s) = 1.24273 -6.41955 -4.45344
# Velocity P-wave (km/s) = 5.89511 4.67338 2.54085
#
# Compressibility (1/GPa) = 0.01300655
#
# Stress axis : x y z
#
# Youngs Moduli (GPa) = 121.84749 87.80171 117.73831
#
# Poissons Ratio (x) = 0.23872 0.20081
# Poissons Ratio (y) = 0.33129 0.36701
# Poissons Ratio (z) = 0.20782 0.27369
#
# Static dielectric constant tensor:
#      x y z
#    x 4.346310 0.000000 0.000000 
#    y 0.000000 4.181650 0.000000 
#    z 0.000000 0.000000 4.650360 
# 
# 
# High freq. dielectric constant tensor:
#      x y z
#    x 1.945870 0.000000 0.000000 
#    y 0.000000 1.923540 0.000000 
#    z 0.000000 0.000000 1.956460 
# 
# From -- ./inp_files/3075.got.cif
#   From: 2010.03.12/outbox.cif.g09.slc.cpg/sg24_2_cif.got.tgz:3075.got - 2010.04.14 03:06:53.
