data_PCOD8166333
_publ_section_title
;
Structure prediction by ZEFSAII (Michael W. Deem and Ramdas Pophale) SiO2 
 PCOD8166333
Probable space group: P M M 2
;
_chemical_formula_sum "Si O2"
_cell_formula_units_Z 32
_cell_length_a 14.258296
_cell_length_b 9.556556
_cell_length_c 15.657642
_cell_angle_alpha 90.000000
_cell_angle_beta 90.000000
_cell_angle_gamma 90.000000
_cell_volume 2133.513496
_symmetry_space_group_name_H-M "P M M 2"
_symmetry_group_IT_number 25
_symmetry_cell_setting 'orthorhombic'
loop_
_space_group_symop_operation_xyz
x,y,z
-x,-y,z
-x,y,z
x,-y,z
loop_
_atom_site_type_symbol
_atom_site_label
_atom_site_fract_x
_atom_site_fract_y
_atom_site_fract_z
Si Si1 0.205782 0.163589 0.678460
Si Si2 0.110080 0.837722 0.509559
Si Si3 0.604019 0.339688 0.919243
Si Si4 0.111626 0.344019 0.352623
Si Si5 0.895596 0.333813 0.166240
Si Si6 0.110374 0.837902 0.850463
Si Si7 0.794544 0.663436 0.998578
Si Si8 0.396106 0.838132 0.752923
O O1 0.162579 0.228262 0.592084
O O2 0.155568 0.222884 0.763253
O O3 0.317426 0.197083 0.681981
O O4 0.184277 0.000000 0.675136
O O5 0.149407 0.757589 0.426563
O O6 0.000000 0.813494 0.523058
O O7 0.134069 0.000000 0.496225
O O8 0.500000 0.304617 0.956031
O O9 0.608974 0.500000 0.888955
O O10 0.682692 0.309364 0.990770
O O11 0.627298 0.246874 0.837606
O O12 0.152087 0.500000 0.368466
O O13 0.142607 0.284496 0.259316
O O14 0.000000 0.349107 0.353768
O O15 0.901402 0.500000 0.168841
O O16 0.000000 0.273062 0.148123
O O17 0.825553 0.282167 0.092036
O O18 0.148374 0.748403 0.928624
O O19 0.000000 0.818274 0.843690
O O20 0.138176 0.000000 0.864547
O O21 0.818977 0.500000 0.986758
O O22 0.500000 0.800927 0.717025
O O23 0.389651 0.000000 0.779048
#
# Coordination Sequence:
#
# PCOD8166333 Si02
#       8
#     4   4   4   4   4   4   4   4
#     4   9  16  27  41  58  81 108 136 164 197 241
#     4   9  16  26  41  59  79 105 134 162 196 240
#     4   9  17  28  41  59  83 107 133 171 214 244
#     4   8  14  26  42  58  77 101 130 167 205 236
#     4   8  14  25  41  59  79 104 133 164 200 241
#     4  10  19  29  40  56  83 116 142 164 196 238
#     4  10  18  28  43  61  81 109 142 171 200 241
#     4   9  16  27  44  61  76 101 139 176 203 234
#
# _framework density 14.998733
#
# number of rings (size 3 to 8) (size 9 to 14) (size 15 to 20)
#    0.000    3.000    1.250    1.500    0.000    2.250 
#    0.000    1.875    0.000    3.750    0.000    0.875 
#    0.000    1.000    0.000    0.000    0.000    0.000 
#
# Total GULP energy -396585.913111 kJ/mol
# GULP energy per Si atom -12393.309785 kJ/mol
# Density = 1.496460 g / cm^3
# Si number density = 14.998733 Si / 1000 Ang^3
#
#
#
# Elastic Constant Matrix: (Units=GPa)
#
#
# Indices 1 2 3 4 5 6 
#
# 1 82.5069 26.2002 59.8441 0.0000 0.0000 0.0000
# 2 26.2002 35.7839 39.8808 0.0000 0.0000 0.0000
# 3 59.8441 39.8808 142.9945 0.0000 0.0000 0.0000
# 4 0.0000 0.0000 0.0000 15.9707 0.0000 0.0000
# 5 0.0000 0.0000 0.0000 0.0000 12.8661 0.0000
# 6 0.0000 0.0000 0.0000 0.0000 0.0000 14.4750
#
#
#
# Elastic Compliance Matrix: (Units=1/GPa)
#
#
# Indices 1 2 3 4 5 6 
#
# 1 0.018589 -0.007168 -0.005780 0.000000 0.000000 0.000000
# 2 -0.007168 0.043314 -0.009080 0.000000 0.000000 0.000000
# 3 -0.005780 -0.009080 0.011945 0.000000 0.000000 0.000000
# 4 0.000000 0.000000 0.000000 0.062615 0.000000 0.000000
# 5 0.000000 0.000000 0.000000 0.000000 0.077723 0.000000
# 6 0.000000 0.000000 0.000000 0.000000 0.000000 0.069085
#
#
# Mechanical properties :
#
#
# Convention : Reuss Voigt Hill
#
# Bulk Modulus (GPa) = 33.56832 57.01504 45.29168
# Shear Modulus (GPa) = 14.82543 17.68637 16.25590
#
# Velocity S-wave (km/s) = 3.14737 3.43766 3.29571
# Velocity P-wave (km/s) = 5.96969 7.33842 6.68916
#
# Compressibility (1/GPa) = 0.02978999
#
# Stress axis : x y z
#
# Youngs Moduli (GPa) = 53.79454 23.08737 83.71799
#
# Poissons Ratio (x) = 0.16550 0.48393
# Poissons Ratio (y) = 0.38562 0.76017
# Poissons Ratio (z) = 0.31096 0.20964
#
# Static dielectric constant tensor:
#      x y z
#    x 2.978610 0.000000 0.000000 
#    y 0.000000 2.910250 0.000000 
#    z 0.000000 0.000000 3.094480 
# 
# 
# High freq. dielectric constant tensor:
#      x y z
#    x 1.561230 0.000000 0.000000 
#    y 0.000000 1.553650 0.000000 
#    z 0.000000 0.000000 1.563390 
# 
# From -- ./inp_files/5672.got.cif
#   From: 2010.03.12/outbox.cif.g09.slc.cpg/sg25_3_cif.got.tgz:5672.got - 2010.04.14 03:30:10.
