data_PCOD8166396
_publ_section_title
;
Structure prediction by ZEFSAII (Michael W. Deem and Ramdas Pophale) SiO2 
 PCOD8166396
Probable space group: P M M 2
;
_chemical_formula_sum "Si O2"
_cell_formula_units_Z 28
_cell_length_a 17.783186
_cell_length_b 9.448135
_cell_length_c 9.450422
_cell_angle_alpha 90.000000
_cell_angle_beta 90.000000
_cell_angle_gamma 90.000000
_cell_volume 1587.840456
_symmetry_space_group_name_H-M "P M M 2"
_symmetry_group_IT_number 25
_symmetry_cell_setting 'orthorhombic'
loop_
_space_group_symop_operation_xyz
x,y,z
-x,-y,z
-x,y,z
x,-y,z
loop_
_atom_site_type_symbol
_atom_site_label
_atom_site_fract_x
_atom_site_fract_y
_atom_site_fract_z
Si Si1 0.085021 0.345678 0.343010
Si Si2 0.806492 0.840840 0.195555
Si Si3 0.705248 0.339505 0.011591
Si Si4 0.688398 0.162758 0.443353
Si Si5 0.082110 0.667140 0.660289
Si Si6 0.413763 0.336262 0.243155
Si Si7 0.752024 0.663996 0.704438
O O1 0.125852 0.500000 0.336068
O O2 0.116824 0.239121 0.227401
O O3 0.092752 0.279794 0.499465
O O4 0.000000 0.366967 0.299313
O O5 0.768446 0.767339 0.062745
O O6 0.756735 0.829358 0.335429
O O7 0.824383 0.000000 0.151595
O O8 0.730372 0.500000 0.045504
O O9 0.627370 0.305054 0.092971
O O10 0.699806 0.317274 0.843024
O O11 0.617862 0.242111 0.371800
O O12 0.713358 0.239873 0.586374
O O13 0.666316 0.000000 0.476269
O O14 0.073838 0.500000 0.661240
O O15 0.160361 0.711625 0.738541
O O16 0.000000 0.727248 0.718944
O O17 0.500000 0.294738 0.219375
O O18 0.404178 0.500000 0.286549
O O19 0.752243 0.500000 0.654263
#
# Coordination Sequence:
#
# PCOD8166396 Si02
#       7
#     4   4   4   4   4   4   4
#     4   9  16  27  46  70  94 125 168 217 262 299
#     4  10  19  31  47  69  97 132 168 205 252 304
#     4   9  19  33  51  75 101 132 171 210 254 303
#     4  10  20  32  50  76 103 130 163 205 252 303
#     4   8  14  25  44  70  97 128 168 214 258 294
#     4   9  18  35  57  77  99 130 168 209 251 300
#     4  10  18  31  52  76 103 136 174 215 256 301
#
# _framework density 17.634012999999999
#
# number of rings (size 3 to 8) (size 9 to 14) (size 15 to 20)
#    0.000    2.714    1.429    1.714    0.000    2.286 
#    0.000    1.429    0.000    5.571    0.000    0.000 
#    0.000    0.000    0.000    0.000    0.000    0.000 
#
# Total GULP energy -346931.232700 kJ/mol
# GULP energy per Si atom -12390.401168 kJ/mol
# Density = 1.759388 g / cm^3
# Si number density = 17.634013 Si / 1000 Ang^3
#
#
#
# Elastic Constant Matrix: (Units=GPa)
#
#
# Indices 1 2 3 4 5 6 
#
# 1 99.0983 37.6463 43.1432 0.0000 0.0000 0.0000
# 2 37.6463 87.3772 44.3107 0.0000 0.0000 0.0000
# 3 43.1432 44.3107 81.5680 0.0000 0.0000 0.0000
# 4 0.0000 0.0000 0.0000 19.0267 0.0000 0.0000
# 5 0.0000 0.0000 0.0000 0.0000 20.6298 0.0000
# 6 0.0000 0.0000 0.0000 0.0000 0.0000 7.8705
#
#
#
# Elastic Compliance Matrix: (Units=1/GPa)
#
#
# Indices 1 2 3 4 5 6 
#
# 1 0.013682 -0.003071 -0.005568 0.000000 0.000000 0.000000
# 2 -0.003071 0.016486 -0.007331 0.000000 0.000000 0.000000
# 3 -0.005568 -0.007331 0.019188 0.000000 0.000000 0.000000
# 4 0.000000 0.000000 0.000000 0.052558 0.000000 0.000000
# 5 0.000000 0.000000 0.000000 0.000000 0.048474 0.000000
# 6 0.000000 0.000000 0.000000 0.000000 0.000000 0.127057
#
#
# Mechanical properties :
#
#
# Convention : Reuss Voigt Hill
#
# Bulk Modulus (GPa) = 57.42580 57.58264 57.50422
# Shear Modulus (GPa) = 15.86352 19.03496 17.44924
#
# Velocity S-wave (km/s) = 3.00258 3.28906 3.14908
# Velocity P-wave (km/s) = 6.68257 6.86652 6.77517
#
# Compressibility (1/GPa) = 0.01741378
#
# Stress axis : x y z
#
# Youngs Moduli (GPa) = 73.08952 60.65906 52.11704
#
# Poissons Ratio (x) = 0.18628 0.29021
# Poissons Ratio (y) = 0.22445 0.38208
# Poissons Ratio (z) = 0.40699 0.44471
#
# Static dielectric constant tensor:
#      x y z
#    x 3.337750 0.000000 0.000000 
#    y 0.000000 3.278090 0.000000 
#    z 0.000000 0.000000 3.066320 
# 
# 
# High freq. dielectric constant tensor:
#      x y z
#    x 1.674220 0.000000 0.000000 
#    y 0.000000 1.667410 0.000000 
#    z 0.000000 0.000000 1.659660 
# 
# From -- ./inp_files/3552.got.cif
#   From: 2010.03.12/outbox.cif.g09.slc.cpg/sg25_2_cif.got.tgz:3552.got - 2010.04.14 03:30:10.
