data_PCOD8166050
_publ_section_title
;
Structure prediction by ZEFSAII (Michael W. Deem and Ramdas Pophale) SiO2 
 PCOD8166050
Probable space group: I 21 21 21
;
_chemical_formula_sum "Si O2"
_cell_formula_units_Z 60
_cell_length_a 17.021165
_cell_length_b 11.416835
_cell_length_c 14.404181
_cell_angle_alpha 90.000000
_cell_angle_beta 90.000000
_cell_angle_gamma 90.000000
_cell_volume 2799.133270
_symmetry_space_group_name_H-M "I 21 21 21"
_symmetry_group_IT_number 24
_symmetry_cell_setting 'orthorhombic'
loop_
_space_group_symop_operation_xyz
x,y,z
-x,1/2-y,z
x,-y,1/2-z
1/2-x,y,-z
1/2+x,1/2+y,1/2+z
1/2-x,-y,1/2+z
1/2+x,1/2-y,-z
-x,1/2+y,1/2-z
loop_
_atom_site_type_symbol
_atom_site_label
_atom_site_fract_x
_atom_site_fract_y
_atom_site_fract_z
Si Si1 0.550490 0.503439 0.474986
Si Si2 0.421947 0.178562 0.183595
Si Si3 0.190204 0.011421 0.084182
Si Si4 0.749293 0.257904 0.162748
Si Si5 0.250000 0.593239 0.500000
Si Si6 0.618667 0.287878 0.390624
Si Si7 0.113901 0.421110 0.500513
Si Si8 0.703542 0.256209 0.634173
O O1 0.560317 0.560579 0.373136
O O2 0.608197 0.568559 0.547565
O O3 0.587640 0.373736 0.469737
O O4 0.463802 0.498328 0.520894
O O5 0.500000 0.250000 0.167241
O O6 0.345261 0.249184 0.149663
O O7 0.405195 0.157098 0.292365
O O8 0.170851 0.889155 0.136572
O O9 0.226959 0.106017 0.153947
O O10 0.250000 0.990389 0.000000
O O11 0.781958 0.210653 0.260599
O O12 0.783305 0.173546 0.083197
O O13 0.179971 0.510430 0.534905
O O14 0.583558 0.158647 0.411978
O O15 0.710654 0.266702 0.412308
O O16 0.146065 0.337766 0.416647
#
# Coordination Sequence:
#
# PCOD8166050 Si02
#       8
#     8   8   8   8   4   8   8   8
#     4  12  23  36  68  95 133 173 224 292 344 407
#     4  11  22  38  59 102 139 168 214 285 365 423
#     4  12  20  40  70  98 125 171 229 286 363 408
#     4  11  24  42  69  97 132 178 230 292 352 431
#     4  12  24  46  66  92 134 184 232 272 362 440
#     4  11  21  39  61  95 133 172 223 273 343 421
#     4  12  24  42  65  97 135 191 229 273 350 432
#     4  11  22  41  68  97 130 176 229 281 338 433
#
# _framework density 21.435207999999999
#
# number of rings (size 3 to 8) (size 9 to 14) (size 15 to 20)
#    0.000    0.533    6.000    2.800    0.000    2.667 
#    0.000    1.333    8.800    0.000    0.000    0.000 
#    0.000    0.000    0.000    0.000    0.000    0.000 
#
# Total GULP energy -371752.910952 kJ/mol
# GULP energy per Si atom -12391.763698 kJ/mol
# Density = 2.138642 g / cm^3
# Si number density = 21.435208 Si / 1000 Ang^3
#
#
#
# Elastic Constant Matrix: (Units=GPa)
#
#
# Indices 1 2 3 4 5 6 
#
# 1 124.0496 21.8166 43.8942 0.0000 0.0000 0.0000
# 2 21.8166 77.3924 31.4182 0.0000 0.0000 0.0000
# 3 43.8942 31.4182 74.1256 0.0000 0.0000 0.0000
# 4 0.0000 0.0000 0.0000 29.0349 0.0000 0.0000
# 5 0.0000 0.0000 0.0000 0.0000 31.6658 0.0000
# 6 0.0000 0.0000 0.0000 0.0000 0.0000 26.2358
#
#
#
# Elastic Compliance Matrix: (Units=1/GPa)
#
#
# Indices 1 2 3 4 5 6 
#
# 1 0.010215 -0.000512 -0.005832 0.000000 0.000000 0.000000
# 2 -0.000512 0.015632 -0.006323 0.000000 0.000000 0.000000
# 3 -0.005832 -0.006323 0.019624 0.000000 0.000000 0.000000
# 4 0.000000 0.000000 0.000000 0.034441 0.000000 0.000000
# 5 0.000000 0.000000 0.000000 0.000000 0.031580 0.000000
# 6 0.000000 0.000000 0.000000 0.000000 0.000000 0.038116
#
#
# Mechanical properties :
#
#
# Convention : Reuss Voigt Hill
#
# Bulk Modulus (GPa) = 49.65703 52.20282 50.92992
# Shear Modulus (GPa) = 27.52495 29.28320 28.40408
#
# Velocity S-wave (km/s) = 3.58732 3.70012 3.64416
# Velocity P-wave (km/s) = 6.35412 6.53155 6.44345
#
# Compressibility (1/GPa) = 0.02013814
#
# Stress axis : x y z
#
# Youngs Moduli (GPa) = 97.89621 63.97053 50.95856
#
# Poissons Ratio (x) = 0.03276 0.29718
# Poissons Ratio (y) = 0.05013 0.32219
# Poissons Ratio (z) = 0.57091 0.40445
#
# Static dielectric constant tensor:
#      x y z
#    x 3.989140 0.000000 0.000000 
#    y 0.000000 3.936370 0.000000 
#    z 0.000000 0.000000 3.736590 
# 
# 
# High freq. dielectric constant tensor:
#      x y z
#    x 1.841330 0.000000 0.000000 
#    y 0.000000 1.838480 0.000000 
#    z 0.000000 0.000000 1.825120 
# 
# From -- ./inp_files/27202.got.cif
#   From: 2010.03.12/outbox.cif.g09.slc.cpg/sg24_14_cif.got.tgz:27202.got - 2010.04.14 03:06:53.
