data_PCOD8166857
_publ_section_title
;
Structure prediction by ZEFSAII (Michael W. Deem and Ramdas Pophale) SiO2 
 PCOD8166857
Probable space group: P M M 2
;
_chemical_formula_sum "Si O2"
_cell_formula_units_Z 28
_cell_length_a 7.926641
_cell_length_b 19.579278
_cell_length_c 10.075187
_cell_angle_alpha 90.000000
_cell_angle_beta 90.000000
_cell_angle_gamma 90.000000
_cell_volume 1563.647943
_symmetry_space_group_name_H-M "P M M 2"
_symmetry_group_IT_number 25
_symmetry_cell_setting 'orthorhombic'
loop_
_space_group_symop_operation_xyz
x,y,z
-x,-y,z
-x,y,z
x,-y,z
loop_
_atom_site_type_symbol
_atom_site_label
_atom_site_fract_x
_atom_site_fract_y
_atom_site_fract_z
Si Si1 0.811466 0.164766 0.811120
Si Si2 0.692795 0.424079 0.288489
Si Si3 0.200306 0.683485 0.800604
Si Si4 0.500000 0.077584 0.494485
Si Si5 0.500000 0.077097 0.811324
Si Si6 0.805578 0.575687 0.006298
Si Si7 0.812914 0.165284 0.495642
Si Si8 0.803081 0.680428 0.504565
O O1 0.752598 0.240839 0.852607
O O2 0.670307 0.112814 0.866956
O O3 0.819301 0.161234 0.653307
O O4 0.000000 0.147081 0.867124
O O5 0.500000 0.427748 0.247282
O O6 0.758737 0.500000 0.328980
O O7 0.789125 0.397511 0.157237
O O8 0.713105 0.372813 0.409489
O O9 0.272779 0.670404 0.652713
O O10 0.000000 0.679062 0.792956
O O11 0.279979 0.628379 0.902529
O O12 0.500000 0.080108 0.652835
O O13 0.668673 0.114836 0.439021
O O14 0.500000 0.000000 0.442129
O O15 0.500000 0.000000 0.864165
O O16 0.722712 0.500000 0.992593
O O17 0.000000 0.571231 0.968691
O O18 0.767543 0.242695 0.453454
O O19 0.000000 0.144904 0.440610
O O20 0.000000 0.664573 0.503465
#
# Coordination Sequence:
#
# PCOD8166857 Si02
#       8
#     4   4   4   2   2   4   4   4
#     4   8  14  26  40  58  89 120 148 190 234 270
#     4  10  21  34  45  63  94 126 155 192 237 283
#     4   8  15  29  48  70  92 116 154 197 236 280
#     4   9  16  24  38  60  88 125 158 184 225 277
#     4   9  16  24  36  60  88 119 160 186 215 279
#     4   9  17  31  50  68  89 120 154 192 239 283
#     4   8  15  26  40  61  89 119 153 192 232 275
#     4   9  17  30  49  70  90 119 158 197 237 280
#
# _framework density 17.906842999999999
#
# number of rings (size 3 to 8) (size 9 to 14) (size 15 to 20)
#    0.000    3.286    0.000    2.143    1.000    2.000 
#    2.571    4.286    0.000    1.714    0.000    0.000 
#    0.000    2.286    0.000    7.429    0.000    8.286 
#
# Total GULP energy -346974.277049 kJ/mol
# GULP energy per Si atom -12391.938466 kJ/mol
# Density = 1.786609 g / cm^3
# Si number density = 17.906843 Si / 1000 Ang^3
#
#
#
# Elastic Constant Matrix: (Units=GPa)
#
#
# Indices 1 2 3 4 5 6 
#
# 1 82.2479 60.3161 20.5843 0.0000 0.0000 0.0000
# 2 60.3161 140.2504 53.1980 0.0000 0.0000 0.0000
# 3 20.5843 53.1980 52.0716 0.0000 0.0000 0.0000
# 4 0.0000 0.0000 0.0000 2.5033 0.0000 0.0000
# 5 0.0000 0.0000 0.0000 0.0000 7.1069 0.0000
# 6 0.0000 0.0000 0.0000 0.0000 0.0000 27.2923
#
#
#
# Elastic Compliance Matrix: (Units=1/GPa)
#
#
# Indices 1 2 3 4 5 6 
#
# 1 0.017812 -0.008146 0.001281 0.000000 0.000000 0.000000
# 2 -0.008146 0.015367 -0.012479 0.000000 0.000000 0.000000
# 3 0.001281 -0.012479 0.031447 0.000000 0.000000 0.000000
# 4 0.000000 0.000000 0.000000 0.399479 0.000000 0.000000
# 5 0.000000 0.000000 0.000000 0.000000 0.140709 0.000000
# 6 0.000000 0.000000 0.000000 0.000000 0.000000 0.036640
#
#
# Mechanical properties :
#
#
# Convention : Reuss Voigt Hill
#
# Bulk Modulus (GPa) = 38.55423 60.30740 49.43081
# Shear Modulus (GPa) = 7.25914 16.74526 12.00220
#
# Velocity S-wave (km/s) = 2.01560 3.06131 2.59174
# Velocity P-wave (km/s) = 5.19558 6.80052 6.05149
#
# Compressibility (1/GPa) = 0.02593749
#
# Stress axis : x y z
#
# Youngs Moduli (GPa) = 56.14329 65.07556 31.79974
#
# Poissons Ratio (x) = 0.53011 -0.04074
# Poissons Ratio (y) = 0.45734 0.39683
# Poissons Ratio (z) = -0.07193 0.81208
#
# Static dielectric constant tensor:
#      x y z
#    x 3.426290 0.000000 0.000000 
#    y 0.000000 3.565060 0.000000 
#    z 0.000000 0.000000 2.894930 
# 
# 
# High freq. dielectric constant tensor:
#      x y z
#    x 1.691170 0.000000 0.000000 
#    y 0.000000 1.692670 0.000000 
#    z 0.000000 0.000000 1.632620 
# 
# From -- ./inp_files/4360.got.cif
#   From: 2010.03.12/outbox.cif.g09.slc.cpg/sg25_3_cif.got.tgz:4360.got - 2010.04.14 03:30:10.
