data_PCOD8166710
_publ_section_title
;
Structure prediction by ZEFSAII (Michael W. Deem and Ramdas Pophale) SiO2 
 PCOD8166710
Probable space group: P M M 2
;
_chemical_formula_sum "Si O2"
_cell_formula_units_Z 32
_cell_length_a 9.324353
_cell_length_b 9.212824
_cell_length_c 20.693956
_cell_angle_alpha 90.000000
_cell_angle_beta 90.000000
_cell_angle_gamma 90.000000
_cell_volume 1777.685797
_symmetry_space_group_name_H-M "P M M 2"
_symmetry_group_IT_number 25
_symmetry_cell_setting 'orthorhombic'
loop_
_space_group_symop_operation_xyz
x,y,z
-x,-y,z
-x,y,z
x,-y,z
loop_
_atom_site_type_symbol
_atom_site_label
_atom_site_fract_x
_atom_site_fract_y
_atom_site_fract_z
Si Si1 0.668395 0.668613 0.089290
Si Si2 0.334697 0.829745 0.851782
Si Si3 0.829696 0.337456 0.328299
Si Si4 0.828536 0.837644 0.449633
Si Si5 0.164714 0.330017 0.961041
Si Si6 0.658243 0.827822 0.707684
Si Si7 0.166042 0.171093 0.200783
Si Si8 0.841285 0.173099 0.590681
O O1 0.500000 0.700094 0.083047
O O2 0.699267 0.500000 0.104520
O O3 0.734439 0.766055 0.145162
O O4 0.744227 0.717346 0.023265
O O5 0.500000 0.782434 0.862951
O O6 0.228485 0.747842 0.898997
O O7 0.284312 0.787789 0.779111
O O8 0.318813 0.000000 0.863890
O O9 0.767885 0.500000 0.320962
O O10 0.767034 0.267531 0.394063
O O11 0.780599 0.241876 0.267539
O O12 0.000000 0.340115 0.332288
O O13 0.775292 0.783267 0.520508
O O14 0.000000 0.839289 0.449970
O O15 0.771673 0.000000 0.435429
O O16 0.177698 0.500000 0.949009
O O17 0.000000 0.282405 0.971338
O O18 0.500000 0.762849 0.699180
O O19 0.752680 0.759277 0.650254
O O20 0.653530 0.000000 0.700990
O O21 0.000000 0.210355 0.186578
O O22 0.188413 0.000000 0.205988
O O23 0.000000 0.238156 0.597537
O O24 0.846094 0.000000 0.594663
#
# Coordination Sequence:
#
# PCOD8166710 Si02
#       8
#     4   4   4   4   4   4   4   4
#     4  10  21  37  56  75  96 127 164 198 237 288
#     4   9  18  32  50  73 100 130 165 204 245 290
#     4   9  16  26  43  67  94 125 160 197 238 285
#     4   8  13  22  37  59  87 117 152 195 239 283
#     4  10  21  36  54  76 101 129 162 200 241 287
#     4   8  14  25  41  63  92 123 155 193 236 282
#     4  10  20  33  51  76 103 129 159 199 245 288
#     4   8  13  21  36  59  85 115 153 195 237 282
#
# _framework density 18.00093
#
# number of rings (size 3 to 8) (size 9 to 14) (size 15 to 20)
#    0.000    3.000    0.000    3.000    0.000    5.000 
#    0.000    1.250    0.000    1.500    0.000    3.500 
#    0.000    0.000    0.000    0.000    0.000    0.000 
#
# Total GULP energy -396653.861191 kJ/mol
# GULP energy per Si atom -12395.433162 kJ/mol
# Density = 1.795996 g / cm^3
# Si number density = 18.000930 Si / 1000 Ang^3
#
#
#
# Elastic Constant Matrix: (Units=GPa)
#
#
# Indices 1 2 3 4 5 6 
#
# 1 77.8792 36.0053 71.0734 0.0000 0.0000 0.0000
# 2 36.0053 62.5237 62.0930 0.0000 0.0000 0.0000
# 3 71.0734 62.0930 179.1389 0.0000 0.0000 0.0000
# 4 0.0000 0.0000 0.0000 0.8256 0.0000 0.0000
# 5 0.0000 0.0000 0.0000 0.0000 5.1353 0.0000
# 6 0.0000 0.0000 0.0000 0.0000 0.0000 19.0943
#
#
#
# Elastic Compliance Matrix: (Units=1/GPa)
#
#
# Indices 1 2 3 4 5 6 
#
# 1 0.021493 -0.005960 -0.006461 0.000000 0.000000 0.000000
# 2 -0.005960 0.026042 -0.006662 0.000000 0.000000 0.000000
# 3 -0.006461 -0.006662 0.010455 0.000000 0.000000 0.000000
# 4 0.000000 0.000000 0.000000 1.211292 0.000000 0.000000
# 5 0.000000 0.000000 0.000000 0.000000 0.194729 0.000000
# 6 0.000000 0.000000 0.000000 0.000000 0.000000 0.052372
#
#
# Mechanical properties :
#
#
# Convention : Reuss Voigt Hill
#
# Bulk Modulus (GPa) = 50.44660 73.09835 61.77248
# Shear Modulus (GPa) = 3.20275 15.03571 9.11923
#
# Velocity S-wave (km/s) = 1.33532 2.89325 2.25321
# Velocity P-wave (km/s) = 5.51930 7.20121 6.41561
#
# Compressibility (1/GPa) = 0.01982294
#
# Stress axis : x y z
#
# Youngs Moduli (GPa) = 46.52785 38.39893 95.64804
#
# Poissons Ratio (x) = 0.22886 0.61801
# Poissons Ratio (y) = 0.27731 0.63722
# Poissons Ratio (z) = 0.30063 0.25582
#
# Static dielectric constant tensor:
#      x y z
#    x 3.212860 0.000000 0.000000 
#    y 0.000000 3.102700 0.000000 
#    z 0.000000 0.000000 3.627190 
# 
# 
# High freq. dielectric constant tensor:
#      x y z
#    x 1.666370 0.000000 0.000000 
#    y 0.000000 1.667070 0.000000 
#    z 0.000000 0.000000 1.716110 
# 
# From -- ./inp_files/6538.got.cif
#   From: 2010.03.12/outbox.cif.g09.slc.cpg/sg25_4_cif.got.tgz:6538.got - 2010.04.14 03:30:10.
