data_PCOD8166774
_publ_section_title
;
Structure prediction by ZEFSAII (Michael W. Deem and Ramdas Pophale) SiO2 
 PCOD8166774
Probable space group: P M M 2
;
_chemical_formula_sum "Si O2"
_cell_formula_units_Z 32
_cell_length_a 9.368130
_cell_length_b 8.951273
_cell_length_c 20.589482
_cell_angle_alpha 90.000000
_cell_angle_beta 90.000000
_cell_angle_gamma 90.000000
_cell_volume 1726.565791
_symmetry_space_group_name_H-M "P M M 2"
_symmetry_group_IT_number 25
_symmetry_cell_setting 'orthorhombic'
loop_
_space_group_symop_operation_xyz
x,y,z
-x,-y,z
-x,y,z
x,-y,z
loop_
_atom_site_type_symbol
_atom_site_label
_atom_site_fract_x
_atom_site_fract_y
_atom_site_fract_z
Si Si1 0.663672 0.675676 0.067290
Si Si2 0.165732 0.674439 0.560490
Si Si3 0.169852 0.831504 0.689326
Si Si4 0.332230 0.673051 0.294642
Si Si5 0.166640 0.174196 0.181805
Si Si6 0.342488 0.322740 0.439783
Si Si7 0.168998 0.671463 0.818785
Si Si8 0.664123 0.825109 0.933212
O O1 0.500000 0.718094 0.083900
O O2 0.683259 0.500000 0.060646
O O3 0.765449 0.734582 0.123193
O O4 0.712495 0.749327 0.000070
O O5 0.196710 0.500000 0.569935
O O6 0.229656 0.757932 0.623339
O O7 0.239046 0.740067 0.495635
O O8 0.000000 0.708037 0.552332
O O9 0.225770 0.737980 0.750817
O O10 0.000000 0.827422 0.687821
O O11 0.227748 0.000000 0.694859
O O12 0.500000 0.698889 0.282423
O O13 0.293999 0.500000 0.281638
O O14 0.240343 0.777641 0.248494
O O15 0.289592 0.722120 0.367842
O O16 0.000000 0.212433 0.185787
O O17 0.193926 0.000000 0.170099
O O18 0.500000 0.256557 0.452268
O O19 0.348384 0.500000 0.443083
O O20 0.216885 0.500000 0.822735
O O21 0.238569 0.763063 0.876428
O O22 0.000000 0.689075 0.824563
O O23 0.500000 0.786841 0.917570
O O24 0.690217 0.000000 0.940043
#
# Coordination Sequence:
#
# PCOD8166774 Si02
#       8
#     4   4   4   4   4   4   4   4
#     4  10  21  38  60  82 103 133 174 214 253 303
#     4   9  16  27  46  71  96 125 165 209 250 298
#     4   9  17  30  48  70  98 133 171 211 257 307
#     4   9  18  34  56  79 102 133 174 215 256 307
#     4  11  24  38  52  76 109 140 171 211 258 305
#     4   8  15  29  49  73 100 128 161 204 252 302
#     4  10  20  34  54  79 105 136 176 219 260 304
#     4  10  21  37  57  81 109 140 172 208 254 307
#
# _framework density 18.533901
#
# number of rings (size 3 to 8) (size 9 to 14) (size 15 to 20)
#    0.000    2.500    0.000    3.000    0.000    7.500 
#    0.000    2.500    0.000    4.875    0.000    0.000 
#    0.000    0.000    0.000    0.000    0.000    0.000 
#
# Total GULP energy -396818.927031 kJ/mol
# GULP energy per Si atom -12400.591470 kJ/mol
# Density = 1.849172 g / cm^3
# Si number density = 18.533901 Si / 1000 Ang^3
#
#
#
# Elastic Constant Matrix: (Units=GPa)
#
#
# Indices 1 2 3 4 5 6 
#
# 1 53.2015 33.9275 55.2251 0.0000 0.0000 0.0000
# 2 33.9275 73.2842 52.3710 0.0000 0.0000 0.0000
# 3 55.2251 52.3710 161.0370 0.0000 0.0000 0.0000
# 4 0.0000 0.0000 0.0000 -0.8167 0.0000 0.0000
# 5 0.0000 0.0000 0.0000 0.0000 35.1120 0.0000
# 6 0.0000 0.0000 0.0000 0.0000 0.0000 23.4664
#
#
#
# Elastic Compliance Matrix: (Units=1/GPa)
#
#
# Indices 1 2 3 4 5 6 
#
# 1 0.033636 -0.009548 -0.008430 0.000000 0.000000 0.000000
# 2 -0.009548 0.020487 -0.003388 0.000000 0.000000 0.000000
# 3 -0.008430 -0.003388 0.010203 0.000000 0.000000 0.000000
# 4 0.000000 0.000000 0.000000 -1.224375 0.000000 0.000000
# 5 0.000000 0.000000 0.000000 0.000000 0.028480 0.000000
# 6 0.000000 0.000000 0.000000 0.000000 0.000000 0.042614
#
#
# Mechanical properties :
#
#
# Convention : Reuss Voigt Hill
#
# Bulk Modulus (GPa) = 46.31017 63.39666 54.85342
# Shear Modulus (GPa) = -4.81220 21.28560 8.23670
#
# Velocity S-wave (km/s) = -1.61309 3.39258 2.11040
# Velocity P-wave (km/s) = 4.64452 7.04459 5.96648
#
# Compressibility (1/GPa) = 0.02159353
#
# Stress axis : x y z
#
# Youngs Moduli (GPa) = 29.73040 48.81112 98.01459
#
# Poissons Ratio (x) = 0.46603 0.82624
# Poissons Ratio (y) = 0.28386 0.33211
# Poissons Ratio (z) = 0.25062 0.16539
#
# Static dielectric constant tensor:
#      x y z
#    x 3.279180 0.000000 0.000000 
#    y 0.000000 3.400750 0.000000 
#    z 0.000000 0.000000 3.726080 
# 
# 
# High freq. dielectric constant tensor:
#      x y z
#    x 1.697820 0.000000 0.000000 
#    y 0.000000 1.713560 0.000000 
#    z 0.000000 0.000000 1.736480 
# 
# From -- ./inp_files/6475.got.cif
#   From: 2010.03.12/outbox.cif.g09.slc.cpg/sg25_4_cif.got.tgz:6475.got - 2010.04.14 03:30:10.
