data_PCOD8166379
_publ_section_title
;
Structure prediction by ZEFSAII (Michael W. Deem and Ramdas Pophale) SiO2 
 PCOD8166379
Probable space group: P M M 2
;
_chemical_formula_sum "Si O2"
_cell_formula_units_Z 32
_cell_length_a 9.068060
_cell_length_b 14.722120
_cell_length_c 12.475092
_cell_angle_alpha 90.000000
_cell_angle_beta 90.000000
_cell_angle_gamma 90.000000
_cell_volume 1665.438099
_symmetry_space_group_name_H-M "P M M 2"
_symmetry_group_IT_number 25
_symmetry_cell_setting 'orthorhombic'
loop_
_space_group_symop_operation_xyz
x,y,z
-x,-y,z
-x,y,z
x,-y,z
loop_
_atom_site_type_symbol
_atom_site_label
_atom_site_fract_x
_atom_site_fract_y
_atom_site_fract_z
Si Si1 0.675457 0.226632 0.670710
Si Si2 0.170846 0.398160 0.591942
Si Si3 0.167013 0.341490 0.355057
Si Si4 0.670180 0.172568 0.276441
Si Si5 0.673257 0.903823 0.492838
Si Si6 0.826224 0.893453 0.851053
Si Si7 0.168556 0.596644 0.123006
Si Si8 0.826093 0.206833 0.068233
O O1 0.500000 0.230974 0.680858
O O2 0.737527 0.328892 0.666745
O O3 0.737837 0.179213 0.561925
O O4 0.737157 0.165669 0.766422
O O5 0.212068 0.500000 0.629184
O O6 0.207720 0.392135 0.465290
O O7 0.000000 0.377670 0.612721
O O8 0.287491 0.264648 0.336781
O O9 0.179397 0.406761 0.252220
O O10 0.000000 0.301510 0.361057
O O11 0.500000 0.174787 0.243772
O O12 0.707109 0.097588 0.366126
O O13 0.763057 0.152375 0.170010
O O14 0.500000 0.900350 0.512191
O O15 0.736957 0.000000 0.536183
O O16 0.000000 0.882985 0.830714
O O17 0.780251 0.000000 0.848333
O O18 0.779843 0.849294 0.964270
O O19 0.240933 0.500000 0.082969
O O20 0.239611 0.688930 0.071567
O O21 0.000000 0.596367 0.085881
O O22 0.000000 0.211462 0.082714
#
# Coordination Sequence:
#
# PCOD8166379 Si02
#       8
#     4   4   4   4   4   4   4   4
#     4  11  22  38  59  82 112 147 188 238 287 341
#     4  10  20  34  55  83 115 152 193 234 278 333
#     4   9  16  28  48  74 108 147 185 224 267 320
#     4  10  18  30  50  77 111 146 180 223 276 332
#     4   9  18  32  50  75 108 144 178 219 277 339
#     4  10  22  41  62  82 107 142 188 243 297 347
#     4   8  13  24  46  75 103 134 175 216 258 315
#     4   9  19  35  54  77 106 141 181 230 284 335
#
# _framework density 19.214162999999999
#
# number of rings (size 3 to 8) (size 9 to 14) (size 15 to 20)
#    0.000    2.500    1.250    2.250    0.000    3.500 
#    0.000    0.625    0.000   14.625    0.000    0.000 
#    0.000    0.000    0.000    0.000    0.000    0.000 
#
# Total GULP energy -396427.402951 kJ/mol
# GULP energy per Si atom -12388.356342 kJ/mol
# Density = 1.917043 g / cm^3
# Si number density = 19.214163 Si / 1000 Ang^3
#
#
#
# Elastic Constant Matrix: (Units=GPa)
#
#
# Indices 1 2 3 4 5 6 
#
# 1 38.5039 39.1372 47.3921 0.0000 0.0000 0.0000
# 2 39.1372 141.6081 68.7239 0.0000 0.0000 0.0000
# 3 47.3921 68.7239 104.2108 0.0000 0.0000 0.0000
# 4 0.0000 0.0000 0.0000 17.1276 0.0000 0.0000
# 5 0.0000 0.0000 0.0000 0.0000 25.6936 0.0000
# 6 0.0000 0.0000 0.0000 0.0000 0.0000 18.3383
#
#
#
# Elastic Compliance Matrix: (Units=1/GPa)
#
#
# Indices 1 2 3 4 5 6 
#
# 1 0.061328 -0.005021 -0.024579 0.000000 0.000000 0.000000
# 2 -0.005021 0.010797 -0.004837 0.000000 0.000000 0.000000
# 3 -0.024579 -0.004837 0.023963 0.000000 0.000000 0.000000
# 4 0.000000 0.000000 0.000000 0.058385 0.000000 0.000000
# 5 0.000000 0.000000 0.000000 0.000000 0.038920 0.000000
# 6 0.000000 0.000000 0.000000 0.000000 0.000000 0.054531
#
#
# Mechanical properties :
#
#
# Convention : Reuss Voigt Hill
#
# Bulk Modulus (GPa) = 36.74504 66.09215 51.41859
# Shear Modulus (GPa) = 15.34358 20.83653 18.09005
#
# Velocity S-wave (km/s) = 2.82894 3.29665 3.07171
# Velocity P-wave (km/s) = 5.46223 6.99734 6.27689
#
# Compressibility (1/GPa) = 0.02721456
#
# Stress axis : x y z
#
# Youngs Moduli (GPa) = 16.30578 92.62038 41.73038
#
# Poissons Ratio (x) = 0.46507 1.02569
# Poissons Ratio (y) = 0.08187 0.20183
# Poissons Ratio (z) = 0.40078 0.44797
#
# Static dielectric constant tensor:
#      x y z
#    x 3.216010 0.000000 0.000000 
#    y 0.000000 3.818150 0.000000 
#    z 0.000000 0.000000 3.502190 
# 
# 
# High freq. dielectric constant tensor:
#      x y z
#    x 1.714880 0.000000 0.000000 
#    y 0.000000 1.756040 0.000000 
#    z 0.000000 0.000000 1.734020 
# 
# From -- ./inp_files/4255.got.cif
#   From: 2010.03.12/outbox.cif.g09.slc.cpg/sg25_3_cif.got.tgz:4255.got - 2010.04.14 03:30:10.
