data_PCOD8166658
_publ_section_title
;
Structure prediction by ZEFSAII (Michael W. Deem and Ramdas Pophale) SiO2 
 PCOD8166658
Probable space group: P M M 2
;
_chemical_formula_sum "Si O2"
_cell_formula_units_Z 28
_cell_length_a 8.746830
_cell_length_b 9.589515
_cell_length_c 17.916433
_cell_angle_alpha 90.000000
_cell_angle_beta 90.000000
_cell_angle_gamma 90.000000
_cell_volume 1502.792014
_symmetry_space_group_name_H-M "P M M 2"
_symmetry_group_IT_number 25
_symmetry_cell_setting 'orthorhombic'
loop_
_space_group_symop_operation_xyz
x,y,z
-x,-y,z
-x,y,z
x,-y,z
loop_
_atom_site_type_symbol
_atom_site_label
_atom_site_fract_x
_atom_site_fract_y
_atom_site_fract_z
Si Si1 0.681531 0.157732 0.705050
Si Si2 0.176238 0.163301 0.294055
Si Si3 0.677461 0.838481 0.139618
Si Si4 0.681959 0.656763 0.839310
Si Si5 0.681581 0.343629 0.004356
Si Si6 0.820995 0.340289 0.576981
Si Si7 0.676596 0.340596 0.421570
O O1 0.500000 0.156941 0.707159
O O2 0.748656 0.236679 0.777972
O O3 0.733339 0.237517 0.631563
O O4 0.745714 0.000000 0.704382
O O5 0.228629 0.209756 0.211843
O O6 0.278156 0.243607 0.353301
O O7 0.000000 0.203291 0.304908
O O8 0.205678 0.000000 0.305514
O O9 0.500000 0.802832 0.153485
O O10 0.746598 0.757504 0.068259
O O11 0.701930 0.000000 0.122529
O O12 0.500000 0.658492 0.837387
O O13 0.739958 0.500000 0.821062
O O14 0.739728 0.702384 0.921897
O O15 0.500000 0.336936 0.004871
O O16 0.738101 0.500000 0.021592
O O17 0.771243 0.500000 0.593231
O O18 0.776283 0.298181 0.493139
O O19 0.000000 0.319623 0.587749
O O20 0.500000 0.316991 0.441565
O O21 0.709084 0.500000 0.398528
#
# Coordination Sequence:
#
# PCOD8166658 Si02
#       7
#     4   4   4   4   4   4   4
#     4  10  20  32  49  76 106 135 170 211 253 298
#     4  10  21  36  53  74 103 139 174 207 248 299
#     4   9  17  29  46  69  97 129 166 209 255 301
#     4   8  14  26  45  69  98 131 166 208 257 303
#     4   8  14  25  43  69  98 127 163 208 255 299
#     4  10  21  37  56  76 100 133 170 206 249 302
#     4  10  21  37  58  82 104 128 163 208 255 301
#
# _framework density 18.631988
#
# number of rings (size 3 to 8) (size 9 to 14) (size 15 to 20)
#    0.000    2.714    0.000    2.571    0.000    5.143 
#    0.000    4.286    0.000    0.857    0.000    4.000 
#    0.000    0.000    0.000    0.000    0.000    0.000 
#
# Total GULP energy -347175.886514 kJ/mol
# GULP energy per Si atom -12399.138804 kJ/mol
# Density = 1.858958 g / cm^3
# Si number density = 18.631988 Si / 1000 Ang^3
#
#
#
# Elastic Constant Matrix: (Units=GPa)
#
#
# Indices 1 2 3 4 5 6 
#
# 1 23.2098 17.3037 11.9751 0.0000 0.0000 0.0000
# 2 17.3037 96.9777 76.3712 0.0000 0.0000 0.0000
# 3 11.9751 76.3712 129.2198 0.0000 0.0000 0.0000
# 4 0.0000 0.0000 0.0000 28.0065 0.0000 0.0000
# 5 0.0000 0.0000 0.0000 0.0000 3.8748 0.0000
# 6 0.0000 0.0000 0.0000 0.0000 0.0000 18.9637
#
#
#
# Elastic Compliance Matrix: (Units=1/GPa)
#
#
# Indices 1 2 3 4 5 6 
#
# 1 0.049794 -0.009822 0.001191 0.000000 0.000000 0.000000
# 2 -0.009822 0.021227 -0.011636 0.000000 0.000000 0.000000
# 3 0.001191 -0.011636 0.014505 0.000000 0.000000 0.000000
# 4 0.000000 0.000000 0.000000 0.035706 0.000000 0.000000
# 5 0.000000 0.000000 0.000000 0.000000 0.258080 0.000000
# 6 0.000000 0.000000 0.000000 0.000000 0.000000 0.052732
#
#
# Mechanical properties :
#
#
# Convention : Reuss Voigt Hill
#
# Bulk Modulus (GPa) = 22.22617 51.18971 36.70794
# Shear Modulus (GPa) = 10.25480 19.75281 15.00381
#
# Velocity S-wave (km/s) = 2.34858 3.25954 2.84081
# Velocity P-wave (km/s) = 4.39424 6.45754 5.52310
#
# Compressibility (1/GPa) = 0.04499201
#
# Stress axis : x y z
#
# Youngs Moduli (GPa) = 20.08280 47.10897 68.94081
#
# Poissons Ratio (x) = 0.46273 -0.08209
# Poissons Ratio (y) = 0.19726 0.80216
# Poissons Ratio (z) = -0.02391 0.54814
#
# Static dielectric constant tensor:
#      x y z
#    x 3.107020 0.000000 0.000000 
#    y 0.000000 3.528600 0.000000 
#    z 0.000000 0.000000 3.646200 
# 
# 
# High freq. dielectric constant tensor:
#      x y z
#    x 1.691490 0.000000 0.000000 
#    y 0.000000 1.719940 0.000000 
#    z 0.000000 0.000000 1.735960 
# 
# From -- ./inp_files/6078.got.cif
#   From: 2010.03.12/outbox.cif.g09.slc.cpg/sg25_4_cif.got.tgz:6078.got - 2010.04.14 03:30:10.
