data_PCOD8166815
_publ_section_title
;
Structure prediction by ZEFSAII (Michael W. Deem and Ramdas Pophale) SiO2 
 PCOD8166815
Probable space group: P M M 2
;
_chemical_formula_sum "Si O2"
_cell_formula_units_Z 32
_cell_length_a 19.845482
_cell_length_b 9.111598
_cell_length_c 9.793589
_cell_angle_alpha 90.000000
_cell_angle_beta 90.000000
_cell_angle_gamma 90.000000
_cell_volume 1770.916467
_symmetry_space_group_name_H-M "P M M 2"
_symmetry_group_IT_number 25
_symmetry_cell_setting 'orthorhombic'
loop_
_space_group_symop_operation_xyz
x,y,z
-x,-y,z
-x,y,z
x,-y,z
loop_
_atom_site_type_symbol
_atom_site_label
_atom_site_fract_x
_atom_site_fract_y
_atom_site_fract_z
Si Si1 0.921780 0.332225 0.068890
Si Si2 0.921667 0.331291 0.755993
Si Si3 0.685851 0.669956 0.255910
Si Si4 0.576987 0.669822 0.036912
Si Si5 0.319487 0.327533 0.569710
Si Si6 0.180311 0.171240 0.257073
Si Si7 0.578699 0.170215 0.762418
Si Si8 0.183126 0.827767 0.571439
O O1 0.904330 0.500000 0.104507
O O2 0.881850 0.226788 0.168975
O O3 0.000000 0.300629 0.092918
O O4 0.902312 0.298554 0.912563
O O5 0.905327 0.500000 0.719715
O O6 0.879790 0.223767 0.660336
O O7 0.000000 0.298181 0.730713
O O8 0.703194 0.500000 0.239758
O O9 0.668629 0.709924 0.411336
O O10 0.750882 0.756905 0.203175
O O11 0.621891 0.716121 0.165795
O O12 0.500000 0.702005 0.078022
O O13 0.587385 0.500000 0.997268
O O14 0.599875 0.767660 0.909543
O O15 0.316318 0.500000 0.598599
O O16 0.382278 0.258079 0.646796
O O17 0.250059 0.255707 0.621934
O O18 0.167434 0.212763 0.414682
O O19 0.187407 0.000000 0.235679
O O20 0.500000 0.196547 0.735878
O O21 0.598188 0.000000 0.756298
O O22 0.194527 0.000000 0.591586
#
# Coordination Sequence:
#
# PCOD8166815 Si02
#       8
#     4   4   4   4   4   4   4   4
#     4   9  19  36  56  77 102 133 170 212 256 303
#     4   9  19  36  56  78 104 135 174 217 258 304
#     4   9  19  35  55  78 103 133 171 215 259 304
#     4   9  18  34  55  78 104 134 170 213 258 303
#     4  10  20  35  56  79 103 135 175 216 258 305
#     4  10  21  35  52  76 106 138 171 209 253 305
#     4  10  21  36  53  76 107 140 173 210 254 306
#     4  10  21  36  53  76 107 139 172 212 258 308
#
# _framework density 18.069739999999999
#
# number of rings (size 3 to 8) (size 9 to 14) (size 15 to 20)
#    0.000    2.500    0.000    2.250    0.000    6.250 
#    0.000    6.250    0.000    1.500    0.000    0.000 
#    0.000    0.000    0.000    0.000    0.000    0.000 
#
# Total GULP energy -396911.529910 kJ/mol
# GULP energy per Si atom -12403.485310 kJ/mol
# Density = 1.802861 g / cm^3
# Si number density = 18.069740 Si / 1000 Ang^3
#
#
#
# Elastic Constant Matrix: (Units=GPa)
#
#
# Indices 1 2 3 4 5 6 
#
# 1 94.1155 54.1575 64.7247 0.0000 0.0000 0.0000
# 2 54.1575 85.8354 52.0342 0.0000 0.0000 0.0000
# 3 64.7247 52.0342 87.4731 0.0000 0.0000 0.0000
# 4 0.0000 0.0000 0.0000 29.8070 0.0000 0.0000
# 5 0.0000 0.0000 0.0000 0.0000 29.4868 0.0000
# 6 0.0000 0.0000 0.0000 0.0000 0.0000 29.2243
#
#
#
# Elastic Compliance Matrix: (Units=1/GPa)
#
#
# Indices 1 2 3 4 5 6 
#
# 1 0.023948 -0.006831 -0.013656 0.000000 0.000000 0.000000
# 2 -0.006831 0.020169 -0.006943 0.000000 0.000000 0.000000
# 3 -0.013656 -0.006943 0.025667 0.000000 0.000000 0.000000
# 4 0.000000 0.000000 0.000000 0.033549 0.000000 0.000000
# 5 0.000000 0.000000 0.000000 0.000000 0.033913 0.000000
# 6 0.000000 0.000000 0.000000 0.000000 0.000000 0.034218
#
#
# Mechanical properties :
#
#
# Convention : Reuss Voigt Hill
#
# Bulk Modulus (GPa) = 67.01146 67.69519 67.35333
# Shear Modulus (GPa) = 21.61686 24.13747 22.87716
#
# Velocity S-wave (km/s) = 3.46251 3.65882 3.56202
# Velocity P-wave (km/s) = 7.29045 7.44271 7.36697
#
# Compressibility (1/GPa) = 0.01492282
#
# Stress axis : x y z
#
# Youngs Moduli (GPa) = 41.75744 49.58007 38.96023
#
# Poissons Ratio (x) = 0.33869 0.53205
# Poissons Ratio (y) = 0.28525 0.27051
# Poissons Ratio (z) = 0.57025 0.34425
#
# Static dielectric constant tensor:
#      x y z
#    x 3.327100 0.000000 0.000000 
#    y 0.000000 3.348380 0.000000 
#    z 0.000000 0.000000 3.328870 
# 
# 
# High freq. dielectric constant tensor:
#      x y z
#    x 1.702860 0.000000 0.000000 
#    y 0.000000 1.704540 0.000000 
#    z 0.000000 0.000000 1.698300 
# 
# From -- ./inp_files/5056.got.cif
#   From: 2010.03.12/outbox.cif.g09.slc.cpg/sg25_3_cif.got.tgz:5056.got - 2010.04.14 03:30:10.
