data_PCOD8166590
_publ_section_title
;
Structure prediction by ZEFSAII (Michael W. Deem and Ramdas Pophale) SiO2 
 PCOD8166590
Probable space group: P M M 2
;
_chemical_formula_sum "Si O2"
_cell_formula_units_Z 32
_cell_length_a 9.301026
_cell_length_b 9.628216
_cell_length_c 20.917417
_cell_angle_alpha 90.000000
_cell_angle_beta 90.000000
_cell_angle_gamma 90.000000
_cell_volume 1873.202538
_symmetry_space_group_name_H-M "P M M 2"
_symmetry_group_IT_number 25
_symmetry_cell_setting 'orthorhombic'
loop_
_space_group_symop_operation_xyz
x,y,z
-x,-y,z
-x,y,z
x,-y,z
loop_
_atom_site_type_symbol
_atom_site_label
_atom_site_fract_x
_atom_site_fract_y
_atom_site_fract_z
Si Si1 0.338504 0.666094 0.042940
Si Si2 0.661932 0.333523 0.769024
Si Si3 0.670839 0.652300 0.906234
Si Si4 0.169289 0.340742 0.164491
Si Si5 0.838250 0.665124 0.649433
Si Si6 0.170429 0.153214 0.278411
Si Si7 0.331658 0.337955 0.524839
Si Si8 0.834190 0.836858 0.422100
O O1 0.500000 0.716951 0.057647
O O2 0.333196 0.500000 0.038629
O O3 0.237434 0.721501 0.099669
O O4 0.284375 0.726902 0.973458
O O5 0.500000 0.283613 0.753385
O O6 0.665322 0.500000 0.771655
O O7 0.713709 0.273317 0.838859
O O8 0.766502 0.274905 0.714086
O O9 0.500000 0.636478 0.907013
O O10 0.742622 0.500000 0.905706
O O11 0.214496 0.500000 0.174170
O O12 0.232264 0.258854 0.225627
O O13 0.000000 0.322754 0.158282
O O14 0.838514 0.500000 0.652292
O O15 0.746519 0.715624 0.588857
O O16 0.000000 0.723774 0.643762
O O17 0.212159 0.201574 0.349721
O O18 0.000000 0.147062 0.273843
O O19 0.234015 0.000000 0.264672
O O20 0.500000 0.308806 0.532440
O O21 0.300329 0.500000 0.512612
O O22 0.270313 0.251507 0.466138
O O23 0.000000 0.795310 0.434884
O O24 0.812302 0.000000 0.434818
#
# Coordination Sequence:
#
# PCOD8166590 Si02
#       8
#     4   4   4   4   4   4   4   4
#     4   8  13  22  35  51  75 108 141 170 204 248
#     4   8  12  19  32  49  71 102 139 175 209 249
#     4   7  10  17  30  47  68 100 140 172 200 244
#     4   9  16  25  39  61  85 107 135 172 209 243
#     4   9  16  25  37  55  81 112 144 178 216 256
#     4   8  15  29  47  64  83 109 139 169 205 254
#     4  10  20  32  46  66  92 121 151 182 218 262
#     4   9  18  33  52  71  89 112 145 184 225 268
#
# _framework density 17.083043
#
# number of rings (size 3 to 8) (size 9 to 14) (size 15 to 20)
#    0.000    3.500    0.000    3.000    0.000    3.000 
#    0.000    2.500    0.000    6.375    0.000    0.000 
#    0.000    1.000    0.000    8.000    0.000    8.875 
#
# Total GULP energy -396432.173016 kJ/mol
# GULP energy per Si atom -12388.505407 kJ/mol
# Density = 1.704416 g / cm^3
# Si number density = 17.083043 Si / 1000 Ang^3
#
#
#
# Elastic Constant Matrix: (Units=GPa)
#
#
# Indices 1 2 3 4 5 6 
#
# 1 73.2556 24.2267 67.1777 0.0000 0.0000 0.0000
# 2 24.2267 28.2773 45.8069 0.0000 0.0000 0.0000
# 3 67.1777 45.8069 189.1109 0.0000 0.0000 0.0000
# 4 0.0000 0.0000 0.0000 0.5398 0.0000 0.0000
# 5 0.0000 0.0000 0.0000 0.0000 32.2452 0.0000
# 6 0.0000 0.0000 0.0000 0.0000 0.0000 11.9716
#
#
#
# Elastic Compliance Matrix: (Units=1/GPa)
#
#
# Indices 1 2 3 4 5 6 
#
# 1 0.021877 -0.010129 -0.005318 0.000000 0.000000 0.000000
# 2 -0.010129 0.062890 -0.011635 0.000000 0.000000 0.000000
# 3 -0.005318 -0.011635 0.009995 0.000000 0.000000 0.000000
# 4 0.000000 0.000000 0.000000 1.852602 0.000000 0.000000
# 5 0.000000 0.000000 0.000000 0.000000 0.031012 0.000000
# 6 0.000000 0.000000 0.000000 0.000000 0.000000 0.083531
#
#
# Mechanical properties :
#
#
# Convention : Reuss Voigt Hill
#
# Bulk Modulus (GPa) = 24.63133 62.78513 43.70823
# Shear Modulus (GPa) = 2.34785 19.18015 10.76400
#
# Velocity S-wave (km/s) = 1.17361 3.35440 2.51290
# Velocity P-wave (km/s) = 4.03564 7.19967 5.83617
#
# Compressibility (1/GPa) = 0.04059871
#
# Stress axis : x y z
#
# Youngs Moduli (GPa) = 45.70925 15.90068 100.04604
#
# Poissons Ratio (x) = 0.16105 0.53205
# Poissons Ratio (y) = 0.46298 1.16408
# Poissons Ratio (z) = 0.24309 0.18501
#
# Static dielectric constant tensor:
#      x y z
#    x 3.013170 0.000000 0.000000 
#    y 0.000000 2.720080 0.000000 
#    z 0.000000 0.000000 3.725530 
# 
# 
# High freq. dielectric constant tensor:
#      x y z
#    x 1.633610 0.000000 0.000000 
#    y 0.000000 1.591470 0.000000 
#    z 0.000000 0.000000 1.684840 
# 
# From -- ./inp_files/6305.got.cif
#   From: 2010.03.12/outbox.cif.g09.slc.cpg/sg25_4_cif.got.tgz:6305.got - 2010.04.14 03:30:10.
