data_PCOD8166973
_publ_section_title
;
Structure prediction by ZEFSAII (Michael W. Deem and Ramdas Pophale) SiO2 
 PCOD8166973
Probable space group: P M M 2
;
_chemical_formula_sum "Si O2"
_cell_formula_units_Z 16
_cell_length_a 12.241536
_cell_length_b 8.786848
_cell_length_c 7.502087
_cell_angle_alpha 90.000000
_cell_angle_beta 90.000000
_cell_angle_gamma 90.000000
_cell_volume 806.958358
_symmetry_space_group_name_H-M "P M M 2"
_symmetry_group_IT_number 25
_symmetry_cell_setting 'orthorhombic'
loop_
_space_group_symop_operation_xyz
x,y,z
-x,-y,z
-x,y,z
x,-y,z
loop_
_atom_site_type_symbol
_atom_site_label
_atom_site_fract_x
_atom_site_fract_y
_atom_site_fract_z
Si Si1 0.872847 0.323450 0.326740
Si Si2 0.500000 0.334476 0.631451
Si Si3 0.723453 0.821244 0.039805
Si Si4 0.500000 0.332329 0.052909
Si Si5 0.732151 0.319385 0.660600
O O1 0.849494 0.500000 0.284088
O O2 0.818601 0.220504 0.176630
O O3 0.826230 0.279189 0.520905
O O4 0.000000 0.286006 0.330401
O O5 0.500000 0.500000 0.539703
O O6 0.500000 0.348091 0.843175
O O7 0.615253 0.253458 0.582330
O O8 0.710798 0.000000 0.023151
O O9 0.609146 0.754984 0.114127
O O10 0.760056 0.756621 0.848416
O O11 0.500000 0.500000 0.141976
O O12 0.720348 0.500000 0.692896
#
# Coordination Sequence:
#
# PCOD8166973 Si02
#       5
#     4   2   4   2   4
#     4  10  22  39  58  81 110 150 202 247 278 324
#     4   7  12  26  51  80 105 131 171 224 279 329
#     4  11  22  36  57  87 121 151 181 228 291 349
#     4   9  17  34  59  84 113 149 189 230 273 333
#     4   9  18  35  58  82 109 146 191 236 282 335
#
# _framework density 19.827542999999999
#
# number of rings (size 3 to 8) (size 9 to 14) (size 15 to 20)
#    0.000    2.500    0.000    4.125    0.000    3.500 
#    0.000    5.000    0.000    3.000    0.000    0.000 
#    0.000    0.000    0.000    0.000    0.000    0.000 
#
# Total GULP energy -198311.325720 kJ/mol
# GULP energy per Si atom -12394.457858 kJ/mol
# Density = 1.978242 g / cm^3
# Si number density = 19.827543 Si / 1000 Ang^3
#
#
#
# Elastic Constant Matrix: (Units=GPa)
#
#
# Indices 1 2 3 4 5 6 
#
# 1 152.0842 52.0986 66.0076 0.0000 0.0000 0.0000
# 2 52.0986 100.7334 49.3758 0.0000 0.0000 0.0000
# 3 66.0076 49.3758 99.2528 0.0000 0.0000 0.0000
# 4 0.0000 0.0000 0.0000 12.4891 0.0000 0.0000
# 5 0.0000 0.0000 0.0000 0.0000 33.8007 0.0000
# 6 0.0000 0.0000 0.0000 0.0000 0.0000 21.5374
#
#
#
# Elastic Compliance Matrix: (Units=1/GPa)
#
#
# Indices 1 2 3 4 5 6 
#
# 1 0.009679 -0.002448 -0.005219 0.000000 0.000000 0.000000
# 2 -0.002448 0.013747 -0.005211 0.000000 0.000000 0.000000
# 3 -0.005219 -0.005211 0.016139 0.000000 0.000000 0.000000
# 4 0.000000 0.000000 0.000000 0.080070 0.000000 0.000000
# 5 0.000000 0.000000 0.000000 0.000000 0.029585 0.000000
# 6 0.000000 0.000000 0.000000 0.000000 0.000000 0.046431
#
#
# Mechanical properties :
#
#
# Convention : Reuss Voigt Hill
#
# Bulk Modulus (GPa) = 72.41704 76.33717 74.37710
# Shear Modulus (GPa) = 22.12286 25.87133 23.99710
#
# Velocity S-wave (km/s) = 3.34393 3.61614 3.48270
# Velocity P-wave (km/s) = 7.17718 7.48462 7.33251
#
# Compressibility (1/GPa) = 0.01380891
#
# Stress axis : x y z
#
# Youngs Moduli (GPa) = 103.31546 72.74081 61.96211
#
# Poissons Ratio (x) = 0.17804 0.32341
# Poissons Ratio (y) = 0.25287 0.32290
# Poissons Ratio (z) = 0.53925 0.37907
#
# Static dielectric constant tensor:
#      x y z
#    x 4.325770 0.000000 0.000000 
#    y 0.000000 3.374260 0.000000 
#    z 0.000000 0.000000 3.390840 
# 
# 
# High freq. dielectric constant tensor:
#      x y z
#    x 1.782860 0.000000 0.000000 
#    y 0.000000 1.745540 0.000000 
#    z 0.000000 0.000000 1.765290 
# 
# From -- ./inp_files/2471.got.cif
#   From: 2010.03.12/outbox.cif.g09.slc.cpg/sg25_2_cif.got.tgz:2471.got - 2010.04.14 03:30:10.
