data_PCOD8166811
_publ_section_title
;
Structure prediction by ZEFSAII (Michael W. Deem and Ramdas Pophale) SiO2 
 PCOD8166811
Probable space group: P M M 2
;
_chemical_formula_sum "Si O2"
_cell_formula_units_Z 32
_cell_length_a 8.622055
_cell_length_b 19.524089
_cell_length_c 10.153941
_cell_angle_alpha 90.000000
_cell_angle_beta 90.000000
_cell_angle_gamma 90.000000
_cell_volume 1709.291776
_symmetry_space_group_name_H-M "P M M 2"
_symmetry_group_IT_number 25
_symmetry_cell_setting 'orthorhombic'
loop_
_space_group_symop_operation_xyz
x,y,z
-x,-y,z
-x,y,z
x,-y,z
loop_
_atom_site_type_symbol
_atom_site_label
_atom_site_fract_x
_atom_site_fract_y
_atom_site_fract_z
Si Si1 0.682853 0.672601 0.373550
Si Si2 0.817142 0.672593 0.092886
Si Si3 0.684100 0.818873 0.092219
Si Si4 0.184099 0.181125 0.374210
Si Si5 0.816673 0.922681 0.595666
Si Si6 0.321188 0.580634 0.871455
Si Si7 0.683332 0.077314 0.870793
Si Si8 0.821185 0.580633 0.594955
O O1 0.500000 0.680250 0.360920
O O2 0.750027 0.649169 0.233230
O O3 0.753932 0.744941 0.418011
O O4 0.725362 0.615561 0.479271
O O5 0.746071 0.744936 0.048440
O O6 0.000000 0.680231 0.105447
O O7 0.774560 0.615551 0.987193
O O8 0.500000 0.816331 0.099599
O O9 0.749980 0.841024 0.233221
O O10 0.744897 0.874260 0.987171
O O11 0.244861 0.125733 0.479260
O O12 0.000000 0.183672 0.366784
O O13 0.749945 0.894987 0.733211
O O14 0.000000 0.920065 0.603920
O O15 0.757661 0.000000 0.568277
O O16 0.500000 0.603149 0.877427
O O17 0.301353 0.500000 0.889645
O O18 0.249943 0.604995 0.733226
O O19 0.500000 0.079897 0.862646
O O20 0.742418 0.000000 0.898147
O O21 0.801304 0.500000 0.576774
O O22 0.000000 0.603136 0.588881
#
# Coordination Sequence:
#
# PCOD8166811 Si02
#       8
#     4   4   4   4   4   4   4   4
#     4  11  22  37  57  80 109 143 181 223 268 318
#     4  11  22  37  57  80 109 143 181 223 268 318
#     4  10  20  35  54  77 107 139 176 220 265 316
#     4  10  20  35  54  77 107 139 176 220 265 316
#     4   9  19  35  54  77 105 137 174 217 263 313
#     4  10  21  38  59  83 111 142 178 220 266 317
#     4   9  19  35  54  77 105 137 174 217 263 313
#     4  10  21  38  59  83 111 142 178 220 266 317
#
# _framework density 18.721202999999999
#
# number of rings (size 3 to 8) (size 9 to 14) (size 15 to 20)
#    0.000    2.000    0.000    5.250    0.000    5.500 
#    0.000    2.500    0.000    0.000    0.000    0.000 
#    0.000    0.000    0.000    0.000    0.000    0.000 
#
# Total GULP energy -396918.146106 kJ/mol
# GULP energy per Si atom -12403.692066 kJ/mol
# Density = 1.867859 g / cm^3
# Si number density = 18.721203 Si / 1000 Ang^3
#
#
#
# Elastic Constant Matrix: (Units=GPa)
#
#
# Indices 1 2 3 4 5 6 
#
# 1 88.9257 31.2404 44.2214 0.0000 0.0000 0.0000
# 2 31.2404 67.8257 70.7263 0.0000 0.0000 0.0000
# 3 44.2214 70.7263 137.4169 0.0000 0.0000 0.0000
# 4 0.0000 0.0000 0.0000 -3.6746 0.0000 0.0000
# 5 0.0000 0.0000 0.0000 0.0000 36.0155 0.0000
# 6 0.0000 0.0000 0.0000 0.0000 0.0000 11.3844
#
#
#
# Elastic Compliance Matrix: (Units=1/GPa)
#
#
# Indices 1 2 3 4 5 6 
#
# 1 0.013811 -0.003727 -0.002526 0.000000 0.000000 0.000000
# 2 -0.003727 0.032829 -0.015697 0.000000 0.000000 0.000000
# 3 -0.002526 -0.015697 0.016169 0.000000 0.000000 0.000000
# 4 0.000000 0.000000 0.000000 -0.272138 0.000000 0.000000
# 5 0.000000 0.000000 0.000000 0.000000 0.027766 0.000000
# 6 0.000000 0.000000 0.000000 0.000000 0.000000 0.087839
#
#
# Mechanical properties :
#
#
# Convention : Reuss Voigt Hill
#
# Bulk Modulus (GPa) = 52.88731 65.17163 59.02947
# Shear Modulus (GPa) = -114.88818 18.61040 -48.13889
#
# Velocity S-wave (km/s) = -7.84227 3.15633 -5.07636
# Velocity P-wave (km/s) = 7.32736 6.94049 1.66130
#
# Compressibility (1/GPa) = 0.01890813
#
# Stress axis : x y z
#
# Youngs Moduli (GPa) = 72.40647 30.46119 61.84663
#
# Poissons Ratio (x) = 0.11353 0.15623
# Poissons Ratio (y) = 0.26987 0.97081
# Poissons Ratio (z) = 0.18291 0.47815
#
# Static dielectric constant tensor:
#      x y z
#    x 3.400630 0.000000 0.000000 
#    y 0.000000 3.499270 0.000000 
#    z 0.000000 0.000000 3.553720 
# 
# 
# High freq. dielectric constant tensor:
#      x y z
#    x 1.738620 0.000000 0.000000 
#    y 0.000000 1.724170 0.000000 
#    z 0.000000 0.000000 1.735090 
# 
# From -- ./inp_files/2409.got.cif
#   From: 2010.03.12/outbox.cif.g09.slc.cpg/sg25_2_cif.got.tgz:2409.got - 2010.04.14 03:30:10.
