data_PCOD8166723
_publ_section_title
;
Structure prediction by ZEFSAII (Michael W. Deem and Ramdas Pophale) SiO2 
 PCOD8166723
Probable space group: P M M 2
;
_chemical_formula_sum "Si O2"
_cell_formula_units_Z 32
_cell_length_a 16.219132
_cell_length_b 9.338038
_cell_length_c 11.522976
_cell_angle_alpha 90.000000
_cell_angle_beta 90.000000
_cell_angle_gamma 90.000000
_cell_volume 1745.210843
_symmetry_space_group_name_H-M "P M M 2"
_symmetry_group_IT_number 25
_symmetry_cell_setting 'orthorhombic'
loop_
_space_group_symop_operation_xyz
x,y,z
-x,-y,z
-x,y,z
x,-y,z
loop_
_atom_site_type_symbol
_atom_site_label
_atom_site_fract_x
_atom_site_fract_y
_atom_site_fract_z
Si Si1 0.095504 0.665517 0.075510
Si Si2 0.787824 0.169203 0.665313
Si Si3 0.405319 0.346066 0.283469
Si Si4 0.135141 0.165528 0.307347
Si Si5 0.091274 0.342060 0.524021
Si Si6 0.696671 0.159124 0.434419
Si Si7 0.591775 0.670155 0.030184
Si Si8 0.756763 0.331916 0.898158
O O1 0.106317 0.500000 0.113142
O O2 0.117145 0.767719 0.182335
O O3 0.000000 0.692723 0.034980
O O4 0.161859 0.702562 0.974852
O O5 0.870808 0.247139 0.626380
O O6 0.722791 0.204272 0.563597
O O7 0.757912 0.235952 0.784394
O O8 0.803301 0.000000 0.677933
O O9 0.500000 0.372772 0.303393
O O10 0.359055 0.500000 0.284250
O O11 0.376873 0.257289 0.393723
O O12 0.391000 0.267873 0.159424
O O13 0.087128 0.257530 0.402716
O O14 0.230970 0.175134 0.339749
O O15 0.105283 0.000000 0.309147
O O16 0.134213 0.500000 0.509911
O O17 0.000000 0.368627 0.567615
O O18 0.662188 0.000000 0.437025
O O19 0.500000 0.722669 0.985204
O O20 0.588714 0.500000 0.040000
O O21 0.669759 0.718453 0.954019
O O22 0.754744 0.500000 0.867378
#
# Coordination Sequence:
#
# PCOD8166723 Si02
#       8
#     4   4   4   4   4   4   4   4
#     4  10  21  35  51  75 107 141 177 215 259 315
#     4  10  22  38  53  72 101 136 175 217 259 309
#     4   9  17  30  52  82 109 131 161 204 253 308
#     4  10  20  33  51  77 107 137 172 214 261 313
#     4  10  20  34  54  78 102 131 170 216 264 313
#     4   9  19  34  50  71 101 136 169 205 255 311
#     4   8  15  30  53  80 106 131 165 212 264 314
#     4  10  20  35  55  76 101 138 180 223 267 306
#
# _framework density 18.335894
#
# number of rings (size 3 to 8) (size 9 to 14) (size 15 to 20)
#    0.000    2.500    0.000    3.750    0.000    8.000 
#    0.000    2.500    0.000    3.375    0.000    0.000 
#    0.000    0.000    0.000    0.000    0.000    0.000 
#
# Total GULP energy -396504.505985 kJ/mol
# GULP energy per Si atom -12390.765812 kJ/mol
# Density = 1.829416 g / cm^3
# Si number density = 18.335894 Si / 1000 Ang^3
#
#
#
# Elastic Constant Matrix: (Units=GPa)
#
#
# Indices 1 2 3 4 5 6 
#
# 1 85.4742 45.9856 72.9028 0.0000 0.0000 0.0000
# 2 45.9856 93.2194 66.0768 0.0000 0.0000 0.0000
# 3 72.9028 66.0768 119.1702 0.0000 0.0000 0.0000
# 4 0.0000 0.0000 0.0000 30.7762 0.0000 0.0000
# 5 0.0000 0.0000 0.0000 0.0000 6.0598 0.0000
# 6 0.0000 0.0000 0.0000 0.0000 0.0000 11.7641
#
#
#
# Elastic Compliance Matrix: (Units=1/GPa)
#
#
# Indices 1 2 3 4 5 6 
#
# 1 0.024796 -0.002438 -0.013817 0.000000 0.000000 0.000000
# 2 -0.002438 0.017913 -0.008441 0.000000 0.000000 0.000000
# 3 -0.013817 -0.008441 0.021525 0.000000 0.000000 0.000000
# 4 0.000000 0.000000 0.000000 0.032493 0.000000 0.000000
# 5 0.000000 0.000000 0.000000 0.000000 0.165023 0.000000
# 6 0.000000 0.000000 0.000000 0.000000 0.000000 0.085004
#
#
# Mechanical properties :
#
#
# Convention : Reuss Voigt Hill
#
# Bulk Modulus (GPa) = 67.37950 74.19935 70.78943
# Shear Modulus (GPa) = 12.46591 17.24659 14.85625
#
# Velocity S-wave (km/s) = 2.61025 3.07023 2.84954
# Velocity P-wave (km/s) = 6.77581 7.28855 7.03685
#
# Compressibility (1/GPa) = 0.01484131
#
# Stress axis : x y z
#
# Youngs Moduli (GPa) = 40.32876 55.82449 46.45856
#
# Poissons Ratio (x) = 0.13609 0.64194
# Poissons Ratio (y) = 0.09832 0.39216
# Poissons Ratio (z) = 0.55724 0.47122
#
# Static dielectric constant tensor:
#      x y z
#    x 3.455720 0.000000 0.000000 
#    y 0.000000 3.542520 0.000000 
#    z 0.000000 0.000000 3.273300 
# 
# 
# High freq. dielectric constant tensor:
#      x y z
#    x 1.709160 0.000000 0.000000 
#    y 0.000000 1.705570 0.000000 
#    z 0.000000 0.000000 1.698930 
# 
# From -- ./inp_files/5075.got.cif
#   From: 2010.03.12/outbox.cif.g09.slc.cpg/sg25_3_cif.got.tgz:5075.got - 2010.04.14 03:30:10.
