data_PCOD8166154
_publ_section_title
;
Structure prediction by ZEFSAII (Michael W. Deem and Ramdas Pophale) SiO2 
 PCOD8166154
Probable space group: I 21 21 21
;
_chemical_formula_sum "Si O2"
_cell_formula_units_Z 60
_cell_length_a 11.807246
_cell_length_b 15.882275
_cell_length_c 14.683410
_cell_angle_alpha 90.000000
_cell_angle_beta 90.000000
_cell_angle_gamma 90.000000
_cell_volume 2753.520086
_symmetry_space_group_name_H-M "I 21 21 21"
_symmetry_group_IT_number 24
_symmetry_cell_setting 'orthorhombic'
loop_
_space_group_symop_operation_xyz
x,y,z
-x,1/2-y,z
x,-y,1/2-z
1/2-x,y,-z
1/2+x,1/2+y,1/2+z
1/2-x,-y,1/2+z
1/2+x,1/2-y,-z
-x,1/2+y,1/2-z
loop_
_atom_site_type_symbol
_atom_site_label
_atom_site_fract_x
_atom_site_fract_y
_atom_site_fract_z
Si Si1 0.037602 0.406508 0.089062
Si Si2 0.353868 0.427782 0.565903
Si Si3 0.596635 0.185164 0.738402
Si Si4 0.710367 0.292110 0.174511
Si Si5 0.433152 0.835239 0.975846
Si Si6 0.227434 0.871823 0.858956
Si Si7 0.297850 0.959276 0.595084
Si Si8 0.000000 0.750000 0.547737
O O1 0.146004 0.469819 0.079118
O O2 0.029841 0.372832 0.191334
O O3 0.931282 0.468715 0.084339
O O4 0.027649 0.331888 0.013804
O O5 0.250000 0.402437 0.500000
O O6 0.347622 0.370848 0.658027
O O7 0.473510 0.408076 0.519822
O O8 0.500000 0.250000 0.700473
O O9 0.696743 0.221888 0.802205
O O10 0.671285 0.330687 0.270244
O O11 0.768963 0.363572 0.114887
O O12 0.607114 0.258357 0.114600
O O13 0.500000 0.750000 0.983261
O O14 0.357815 0.849940 0.062662
O O15 0.352351 0.834312 0.885127
O O16 0.246073 0.970992 0.836343
O O17 0.250000 0.990821 0.500000
#
# Coordination Sequence:
#
# PCOD8166154 Si02
#       8
#     8   8   8   8   8   8   8   4
#     4  12  25  48  74 103 144 188 244 302 359 431
#     4  12  28  45  73 105 148 190 235 296 370 438
#     4  12  26  47  74 110 140 191 248 302 352 438
#     4  12  27  42  72 105 148 183 243 297 373 435
#     4  11  24  42  70  99 142 188 240 291 367 426
#     4  11  24  44  70 102 138 188 241 308 348 442
#     4  12  21  45  73 105 135 184 246 308 366 413
#     4  12  28  46  74 108 146 200 234 304 374 436
#
# _framework density 21.790289000000001
#
# number of rings (size 3 to 8) (size 9 to 14) (size 15 to 20)
#    0.000    0.267    6.000    2.800    6.533    1.067 
#    0.000    0.000    0.000    0.000    0.000    0.000 
#    0.000    0.000    0.000    0.000    0.000    0.000 
#
# Total GULP energy -371716.901396 kJ/mol
# GULP energy per Si atom -12390.563380 kJ/mol
# Density = 2.174069 g / cm^3
# Si number density = 21.790289 Si / 1000 Ang^3
#
#
#
# Elastic Constant Matrix: (Units=GPa)
#
#
# Indices 1 2 3 4 5 6 
#
# 1 111.8856 43.2571 54.0922 0.0000 0.0000 0.0000
# 2 43.2571 124.9330 44.8229 0.0000 0.0000 0.0000
# 3 54.0922 44.8229 126.1562 0.0001 0.0000 0.0000
# 4 0.0000 0.0000 0.0001 12.3447 0.0000 0.0000
# 5 0.0000 0.0000 0.0000 0.0000 31.8570 0.0000
# 6 0.0000 0.0000 0.0000 0.0000 0.0000 31.5017
#
#
#
# Elastic Compliance Matrix: (Units=1/GPa)
#
#
# Indices 1 2 3 4 5 6 
#
# 1 0.011992 -0.002644 -0.004202 0.000000 0.000000 0.000000
# 2 -0.002644 0.009757 -0.002333 0.000000 0.000000 0.000000
# 3 -0.004202 -0.002333 0.010557 0.000000 0.000000 0.000000
# 4 0.000000 0.000000 0.000000 0.081006 0.000000 0.000000
# 5 0.000000 0.000000 0.000000 0.000000 0.031390 0.000000
# 6 0.000000 0.000000 0.000000 0.000000 0.000000 0.031744
#
#
# Mechanical properties :
#
#
# Convention : Reuss Voigt Hill
#
# Bulk Modulus (GPa) = 71.69897 71.92437 71.81167
# Shear Modulus (GPa) = 25.06843 29.86086 27.46465
#
# Velocity S-wave (km/s) = 3.39549 3.70587 3.55407
# Velocity P-wave (km/s) = 6.95327 7.16872 7.06182
#
# Compressibility (1/GPa) = 0.01394720
#
# Stress axis : x y z
#
# Youngs Moduli (GPa) = 83.39148 102.49243 94.72174
#
# Poissons Ratio (x) = 0.27103 0.39803
# Poissons Ratio (y) = 0.22052 0.22096
# Poissons Ratio (z) = 0.35042 0.23909
#
# Static dielectric constant tensor:
#      x y z
#    x 4.020930 0.000000 0.000000 
#    y 0.000000 4.214080 0.000000 
#    z 0.000000 0.000000 4.061190 
# 
# 
# High freq. dielectric constant tensor:
#      x y z
#    x 1.851710 0.000000 0.000000 
#    y 0.000000 1.877750 0.000000 
#    z 0.000000 0.000000 1.864610 
# 
# From -- ./inp_files/25978.got.cif
#   From: 2010.03.12/outbox.cif.g09.slc.cpg/sg24_13_cif.got.tgz:25978.got - 2010.04.14 03:06:53.
