data_PCOD8166780
_publ_section_title
;
Structure prediction by ZEFSAII (Michael W. Deem and Ramdas Pophale) SiO2 
 PCOD8166780
Probable space group: P M M 2
;
_chemical_formula_sum "Si O2"
_cell_formula_units_Z 32
_cell_length_a 9.394537
_cell_length_b 9.094582
_cell_length_c 20.367168
_cell_angle_alpha 90.000000
_cell_angle_beta 90.000000
_cell_angle_gamma 90.000000
_cell_volume 1740.158351
_symmetry_space_group_name_H-M "P M M 2"
_symmetry_group_IT_number 25
_symmetry_cell_setting 'orthorhombic'
loop_
_space_group_symop_operation_xyz
x,y,z
-x,-y,z
-x,y,z
x,-y,z
loop_
_atom_site_type_symbol
_atom_site_label
_atom_site_fract_x
_atom_site_fract_y
_atom_site_fract_z
Si Si1 0.333822 0.828710 0.961830
Si Si2 0.834051 0.833592 0.721718
Si Si3 0.337431 0.673474 0.462063
Si Si4 0.839171 0.828375 0.571070
Si Si5 0.165081 0.328251 0.335808
Si Si6 0.830821 0.165800 0.206400
Si Si7 0.334943 0.330727 0.829679
Si Si8 0.167565 0.670778 0.076741
O O1 0.500000 0.799243 0.974168
O O2 0.285855 0.765388 0.891708
O O3 0.296066 0.000000 0.963837
O O4 0.245506 0.745581 0.016545
O O5 0.801830 0.793886 0.646392
O O6 0.749846 0.719062 0.765848
O O7 0.000000 0.817731 0.736889
O O8 0.783659 0.000000 0.736826
O O9 0.500000 0.724982 0.455371
O O10 0.324158 0.500000 0.468293
O O11 0.271950 0.741460 0.527262
O O12 0.252416 0.729641 0.398313
O O13 0.000000 0.776146 0.555267
O O14 0.824353 0.000000 0.556416
O O15 0.189463 0.500000 0.322928
O O16 0.225228 0.242897 0.272486
O O17 0.000000 0.292700 0.348803
O O18 0.774949 0.255238 0.143527
O O19 0.000000 0.167584 0.206877
O O20 0.771301 0.000000 0.202998
O O21 0.500000 0.305892 0.814631
O O22 0.300365 0.500000 0.845024
O O23 0.207005 0.500000 0.079284
O O24 0.000000 0.695920 0.068159
#
# Coordination Sequence:
#
# PCOD8166780 Si02
#       8
#     4   4   4   4   4   4   4   4
#     4  10  21  37  56  77 103 138 178 216 256 305
#     4   9  19  36  56  78 104 134 170 213 259 306
#     4  10  21  35  51  75 107 139 172 212 257 306
#     4   9  19  36  56  77 102 134 173 214 256 306
#     4   9  17  31  51  72  96 131 173 213 256 308
#     4   9  17  30  50  76 103 131 168 215 262 306
#     4  10  21  36  54  77 105 137 173 212 255 306
#     4  10  20  34  54  80 108 138 173 213 257 306
#
# _framework density 18.389132
#
# number of rings (size 3 to 8) (size 9 to 14) (size 15 to 20)
#    0.000    2.500    0.000    2.625    0.000    7.000 
#    0.000    5.625    0.000    2.250    0.000    0.000 
#    0.000    0.000    0.000    0.000    0.000    0.000 
#
# Total GULP energy -396882.406720 kJ/mol
# GULP energy per Si atom -12402.575210 kJ/mol
# Density = 1.834728 g / cm^3
# Si number density = 18.389132 Si / 1000 Ang^3
#
#
#
# Elastic Constant Matrix: (Units=GPa)
#
#
# Indices 1 2 3 4 5 6 
#
# 1 68.0649 46.8336 65.5005 0.0000 0.0000 0.0000
# 2 46.8336 96.3491 67.9187 0.0000 0.0000 0.0000
# 3 65.5005 67.9187 141.9501 0.0000 0.0000 0.0000
# 4 0.0000 0.0000 0.0000 37.9658 0.0000 0.0000
# 5 0.0000 0.0000 0.0000 0.0000 -8.9279 0.0000
# 6 0.0000 0.0000 0.0000 0.0000 0.0000 26.8314
#
#
#
# Elastic Compliance Matrix: (Units=1/GPa)
#
#
# Indices 1 2 3 4 5 6 
#
# 1 0.029342 -0.007120 -0.010133 0.000000 0.000000 0.000000
# 2 -0.007120 0.017389 -0.005035 0.000000 0.000000 0.000000
# 3 -0.010133 -0.005035 0.014129 0.000000 0.000000 0.000000
# 4 0.000000 0.000000 0.000000 0.026339 0.000000 0.000000
# 5 0.000000 0.000000 0.000000 0.000000 -0.112009 0.000000
# 6 0.000000 0.000000 0.000000 0.000000 0.000000 0.037270
#
#
# Mechanical properties :
#
#
# Convention : Reuss Voigt Hill
#
# Bulk Modulus (GPa) = 61.40437 74.09663 67.75050
# Shear Modulus (GPa) = 80.04732 19.58128 49.81430
#
# Velocity S-wave (km/s) = 6.60486 3.26671 5.21035
# Velocity P-wave (km/s) = 9.57234 7.38984 8.55101
#
# Compressibility (1/GPa) = 0.01628549
#
# Stress axis : x y z
#
# Youngs Moduli (GPa) = 34.08124 57.50832 70.77522
#
# Poissons Ratio (x) = 0.40944 0.71714
# Poissons Ratio (y) = 0.24265 0.35633
# Poissons Ratio (z) = 0.34533 0.28954
#
# Static dielectric constant tensor:
#      x y z
#    x 3.225550 0.000000 0.000000 
#    y 0.000000 3.448600 0.000000 
#    z 0.000000 0.000000 3.482130 
# 
# 
# High freq. dielectric constant tensor:
#      x y z
#    x 1.693210 0.000000 0.000000 
#    y 0.000000 1.717660 0.000000 
#    z 0.000000 0.000000 1.725430 
# 
# From -- ./inp_files/6576.got.cif
#   From: 2010.03.12/outbox.cif.g09.slc.cpg/sg25_4_cif.got.tgz:6576.got - 2010.04.14 03:30:10.
