data_PCOD8166219
_publ_section_title
;
Structure prediction by ZEFSAII (Michael W. Deem and Ramdas Pophale) SiO2 
 PCOD8166219
Probable space group: I 21 21 21
;
_chemical_formula_sum "Si O2"
_cell_formula_units_Z 24
_cell_length_a 10.438315
_cell_length_b 15.228437
_cell_length_c 7.098430
_cell_angle_alpha 90.000000
_cell_angle_beta 90.000000
_cell_angle_gamma 90.000000
_cell_volume 1128.360913
_symmetry_space_group_name_H-M "I 21 21 21"
_symmetry_group_IT_number 24
_symmetry_cell_setting 'orthorhombic'
loop_
_space_group_symop_operation_xyz
x,y,z
-x,1/2-y,z
x,-y,1/2-z
1/2-x,y,-z
1/2+x,1/2+y,1/2+z
1/2-x,-y,1/2+z
1/2+x,1/2-y,-z
-x,1/2+y,1/2-z
loop_
_atom_site_type_symbol
_atom_site_label
_atom_site_fract_x
_atom_site_fract_y
_atom_site_fract_z
Si Si1 0.972067 0.566559 0.604058
Si Si2 0.250000 0.193347 0.000000
Si Si3 0.221184 0.655242 0.781005
Si Si4 0.094649 0.500000 0.250000
O O1 0.903326 0.500000 0.750000
O O2 0.876141 0.634236 0.507849
O O3 0.081297 0.620758 0.718241
O O4 0.015196 0.497679 0.442271
O O5 0.244826 0.252260 0.186496
O O6 0.321029 0.584823 0.707812
O O7 0.250000 0.668185 0.000000
#
# Coordination Sequence:
#
# PCOD8166219 Si02
#       4
#     8   4   8   4
#     4  12  26  48  75 108 149 195 245 299 370 441
#     4  12  30  46  70 116 156 182 242 316 366 428
#     4  12  23  47  77 106 142 194 252 296 358 434
#     4  12  22  44  80 108 136 200 244 298 358 440
#
# _framework density 21.26979
#
# number of rings (size 3 to 8) (size 9 to 14) (size 15 to 20)
#    0.000    0.000    8.333    1.000    2.333    2.667 
#    6.000    0.000    0.000    0.000    0.000    0.000 
#    0.000    0.000    0.000    0.000    0.000    0.000 
#
# Total GULP energy -148721.327208 kJ/mol
# GULP energy per Si atom -12393.443934 kJ/mol
# Density = 2.122138 g / cm^3
# Si number density = 21.269790 Si / 1000 Ang^3
#
#
#
# Elastic Constant Matrix: (Units=GPa)
#
#
# Indices 1 2 3 4 5 6 
#
# 1 89.2600 41.6483 39.4332 0.0000 0.0000 0.0000
# 2 41.6483 103.3016 23.9600 -0.0001 -0.0001 0.0000
# 3 39.4332 23.9600 129.6574 -0.0002 -0.0002 0.0000
# 4 0.0000 -0.0001 -0.0002 52.7992 -0.0001 0.0000
# 5 0.0000 -0.0001 -0.0002 -0.0001 26.2491 0.0000
# 6 0.0000 0.0000 0.0000 0.0000 0.0000 -41.6558
#
#
#
# Elastic Compliance Matrix: (Units=1/GPa)
#
#
# Indices 1 2 3 4 5 6 
#
# 1 0.015308 -0.005320 -0.003673 0.000000 0.000000 0.000000
# 2 -0.005320 0.011963 -0.000593 0.000000 0.000000 0.000000
# 3 -0.003673 -0.000593 0.008939 0.000000 0.000000 0.000000
# 4 0.000000 0.000000 0.000000 0.018940 0.000000 0.000000
# 5 0.000000 0.000000 0.000000 0.000000 0.038097 0.000000
# 6 0.000000 0.000000 0.000000 0.000000 0.000000 -0.024006
#
#
# Mechanical properties :
#
#
# Convention : Reuss Voigt Hill
#
# Bulk Modulus (GPa) = 58.68740 59.14466 58.91603
# Shear Modulus (GPa) = 53.14068 21.95700 37.54884
#
# Velocity S-wave (km/s) = 5.00383 3.21644 4.20618
# Velocity P-wave (km/s) = 7.81257 6.45455 7.16581
#
# Compressibility (1/GPa) = 0.01703943
#
# Stress axis : x y z
#
# Youngs Moduli (GPa) = 65.32556 83.59321 111.86795
#
# Poissons Ratio (x) = 0.44471 0.41084
# Poissons Ratio (y) = 0.34753 0.06630
# Poissons Ratio (z) = 0.23991 0.04954
#
# Static dielectric constant tensor:
#      x y z
#    x 3.726240 0.000000 0.000000 
#    y 0.000000 3.956570 0.000000 
#    z 0.000000 0.000000 3.989850 
# 
# 
# High freq. dielectric constant tensor:
#      x y z
#    x 1.816500 0.000000 0.000000 
#    y 0.000000 1.841040 0.000000 
#    z 0.000000 0.000000 1.860380 
# 
# From -- ./inp_files/8541.got.cif
#   From: 2010.03.12/outbox.cif.g09.slc.cpg/sg24_5_cif.got.tgz:8541.got - 2010.04.14 03:06:53.
