data_PCOD8166453
_publ_section_title
;
Structure prediction by ZEFSAII (Michael W. Deem and Ramdas Pophale) SiO2 
 PCOD8166453
Probable space group: P M M 2
;
_chemical_formula_sum "Si O2"
_cell_formula_units_Z 28
_cell_length_a 8.995178
_cell_length_b 17.767642
_cell_length_c 9.479960
_cell_angle_alpha 90.000000
_cell_angle_beta 90.000000
_cell_angle_gamma 90.000000
_cell_volume 1515.116618
_symmetry_space_group_name_H-M "P M M 2"
_symmetry_group_IT_number 25
_symmetry_cell_setting 'orthorhombic'
loop_
_space_group_symop_operation_xyz
x,y,z
-x,-y,z
-x,y,z
x,-y,z
loop_
_atom_site_type_symbol
_atom_site_label
_atom_site_fract_x
_atom_site_fract_y
_atom_site_fract_z
Si Si1 0.832799 0.695061 0.466960
Si Si2 0.832159 0.194884 0.705403
Si Si3 0.337138 0.585383 0.323219
Si Si4 0.175011 0.086413 0.456442
Si Si5 0.325797 0.804906 0.258969
Si Si6 0.324745 0.263503 0.959874
Si Si7 0.823676 0.586026 0.030709
O O1 0.830278 0.725271 0.625003
O O2 0.757227 0.613198 0.459268
O O3 0.725166 0.740458 0.363889
O O4 0.000000 0.695529 0.407123
O O5 0.771749 0.130716 0.597660
O O6 0.725479 0.204998 0.838635
O O7 0.000000 0.175419 0.755202
O O8 0.500000 0.624792 0.304846
O O9 0.366420 0.500000 0.353818
O O10 0.238836 0.599951 0.185936
O O11 0.248526 0.117895 0.312717
O O12 0.000000 0.098882 0.440055
O O13 0.220191 0.000000 0.474969
O O14 0.500000 0.818371 0.267253
O O15 0.276840 0.779462 0.102742
O O16 0.500000 0.276689 0.951664
O O17 0.247164 0.345856 0.938729
O O18 0.781186 0.500000 0.979840
O O19 0.000000 0.595375 0.030366
#
# Coordination Sequence:
#
# PCOD8166453 Si02
#       7
#     4   4   4   4   4   4   4
#     4  10  19  33  53  76 101 136 181 225 268 319
#     4   9  20  36  55  79 108 143 181 221 268 322
#     4  10  19  30  47  74 106 138 176 225 278 327
#     4   9  19  38  62  86 110 139 179 223 269 327
#     4  10  20  33  53  81 110 139 174 218 269 321
#     4  11  22  35  53  80 112 147 185 226 272 326
#     4  10  20  33  52  77 105 142 186 231 279 326
#
# _framework density 18.480425
#
# number of rings (size 3 to 8) (size 9 to 14) (size 15 to 20)
#    0.000    2.143    1.429    3.000    0.000    6.571 
#    0.000    1.429    0.000    3.429    0.000    0.000 
#    0.000    0.000    0.000    0.000    0.000    0.000 
#
# Total GULP energy -346966.230658 kJ/mol
# GULP energy per Si atom -12391.651095 kJ/mol
# Density = 1.843836 g / cm^3
# Si number density = 18.480425 Si / 1000 Ang^3
#
#
#
# Elastic Constant Matrix: (Units=GPa)
#
#
# Indices 1 2 3 4 5 6 
#
# 1 67.9240 46.8682 37.6386 0.0000 0.0000 0.0000
# 2 46.8682 94.1054 45.7965 0.0000 0.0000 0.0000
# 3 37.6386 45.7965 82.7248 0.0000 0.0000 0.0000
# 4 0.0000 0.0000 0.0000 23.6068 0.0000 0.0000
# 5 0.0000 0.0000 0.0000 0.0000 25.6058 0.0000
# 6 0.0000 0.0000 0.0000 0.0000 0.0000 26.5546
#
#
#
# Elastic Compliance Matrix: (Units=1/GPa)
#
#
# Indices 1 2 3 4 5 6 
#
# 1 0.024424 -0.009248 -0.005993 0.000000 0.000000 0.000000
# 2 -0.009248 0.018046 -0.005783 0.000000 0.000000 0.000000
# 3 -0.005993 -0.005783 0.018017 0.000000 0.000000 0.000000
# 4 0.000000 0.000000 0.000000 0.042361 0.000000 0.000000
# 5 0.000000 0.000000 0.000000 0.000000 0.039054 0.000000
# 6 0.000000 0.000000 0.000000 0.000000 0.000000 0.037658
#
#
# Mechanical properties :
#
#
# Convention : Reuss Voigt Hill
#
# Bulk Modulus (GPa) = 54.23106 56.15120 55.19113
# Shear Modulus (GPa) = 21.95352 22.78350 22.36851
#
# Velocity S-wave (km/s) = 3.45038 3.51500 3.48284
# Velocity P-wave (km/s) = 6.72922 6.85009 6.78992
#
# Compressibility (1/GPa) = 0.01843962
#
# Stress axis : x y z
#
# Youngs Moduli (GPa) = 40.94276 55.41289 55.50465
#
# Poissons Ratio (x) = 0.51244 0.33265
# Poissons Ratio (y) = 0.37863 0.32098
# Poissons Ratio (z) = 0.24538 0.32045
#
# Static dielectric constant tensor:
#      x y z
#    x 3.591390 0.000000 0.000000 
#    y 0.000000 3.660780 0.000000 
#    z 0.000000 0.000000 3.252170 
# 
# 
# High freq. dielectric constant tensor:
#      x y z
#    x 1.728430 0.000000 0.000000 
#    y 0.000000 1.712760 0.000000 
#    z 0.000000 0.000000 1.689680 
# 
# From -- ./inp_files/2291.got.cif
#   From: 2010.03.12/outbox.cif.g09.slc.cpg/sg25_2_cif.got.tgz:2291.got - 2010.04.14 03:30:10.
