data_PCOD8166303
_publ_section_title
;
Structure prediction by ZEFSAII (Michael W. Deem and Ramdas Pophale) SiO2 
 PCOD8166303
Probable space group: I 21 21 21
;
_chemical_formula_sum "Si O2"
_cell_formula_units_Z 24
_cell_length_a 9.000000
_cell_length_b 30.000000
_cell_length_c 9.000000
_cell_angle_alpha 90.000000
_cell_angle_beta 90.000000
_cell_angle_gamma 90.000000
_cell_volume 2430.000000
_symmetry_space_group_name_H-M "I 21 21 21"
_symmetry_group_IT_number 24
_symmetry_cell_setting 'orthorhombic'
loop_
_space_group_symop_operation_xyz
x,y,z
-x,1/2-y,z
x,-y,1/2-z
1/2-x,y,-z
1/2+x,1/2+y,1/2+z
1/2-x,-y,1/2+z
1/2+x,1/2-y,-z
-x,1/2+y,1/2-z
loop_
_atom_site_type_symbol
_atom_site_label
_atom_site_fract_x
_atom_site_fract_y
_atom_site_fract_z
Si Si1 0.027745 0.385336 0.697791
Si Si2 0.162157 0.231987 0.145219
Si Si3 0.783625 0.645781 0.166122
Si Si4 0.425545 0.398767 0.636755
Si Si5 0.280498 0.544470 0.328416
Si Si6 0.236524 0.687877 0.834478
O O1 0.089943 0.406237 0.541591
O O2 0.095098 0.416766 0.824934
O O3 0.076696 0.333478 0.701708
O O4 0.854918 0.381483 0.730525
O O5 0.157037 0.188363 0.246176
O O6 0.248281 0.271877 0.222916
O O7 0.000000 0.250000 0.105843
O O8 0.250000 0.217804 0.000000
O O9 0.901899 0.606156 0.170620
O O10 0.750000 0.662777 0.000000
O O11 0.363793 0.439610 0.734228
O O12 0.351865 0.352390 0.687845
O O13 0.341618 0.500000 0.250000
O O14 0.250000 0.534636 0.500000
O O15 0.250000 0.707674 0.000000
#
# Coordination Sequence:
#
# PCOD8166303 Si02
#       6
#     8   8   8   8   8   8
#     4   9  20  36  62  87 112 145 189 240 288 349
#     4  12  26  38  51  79 120 157 199 250 289 336
#     4  10  21  40  62  83 111 154 197 241 291 342
#     4   9  18  38  60  86 113 144 191 238 288 339
#     4  11  22  38  63  90 118 150 186 229 281 345
#     4   9  18  36  59  78 106 150 198 239 282 338
#
# _framework density 9.8765429999999999
#
# number of rings (size 3 to 8) (size 9 to 14) (size 15 to 20)
#    0.000    2.000    1.667    3.000    2.333    4.000 
#    0.000    0.833    0.000    0.000    0.000    0.000 
#    0.000    0.000    0.000    0.000    0.000    0.000 
#
# Total GULP energy -297459.991753 kJ/mol
# GULP energy per Si atom -12394.166323 kJ/mol
# Density = 0.985406 g / cm^3
# Si number density = 9.876543 Si / 1000 Ang^3
#
#
#
# Elastic Constant Matrix: (Units=GPa)
#
#
# Indices 1 2 3 4 5 6 
#
# 1 71.7981 2.5011 12.5137 -0.0439 0.0016 0.0022
# 2 2.5011 56.6334 23.7040 -0.1809 -0.0023 0.0017
# 3 12.5137 23.7040 72.3542 -0.1759 -0.0028 0.0057
# 4 -0.0439 -0.1809 -0.1759 -116.0382 -0.1026 0.0096
# 5 0.0016 -0.0023 -0.0028 -0.1026 21.4969 -0.0040
# 6 0.0022 0.0017 0.0057 0.0096 -0.0040 3.7166
#
#
#
# Elastic Compliance Matrix: (Units=1/GPa)
#
#
# Indices 1 2 3 4 5 6 
#
# 1 0.014372 0.000470 -0.002640 -0.000002 -0.000001 -0.000005
# 2 0.000470 0.020479 -0.006790 -0.000022 0.000001 0.000001
# 3 -0.002640 -0.006790 0.016502 -0.000013 0.000002 -0.000021
# 4 -0.000002 -0.000022 -0.000013 -0.008618 -0.000041 0.000022
# 5 -0.000001 0.000001 0.000002 -0.000041 0.046518 0.000050
# 6 -0.000005 0.000001 -0.000021 0.000022 0.000050 0.269063
#
#
# Mechanical properties :
#
#
# Convention : Reuss Voigt Hill
#
# Bulk Modulus (GPa) = 29.91094 30.91368 30.41231
# Shear Modulus (GPa) = 12.90722 -7.36049 2.77336
#
# Velocity S-wave (km/s) = 2.55900 -1.93244 1.18620
# Velocity P-wave (km/s) = 4.88943 3.27184 4.16002
#
# Compressibility (1/GPa) = 0.03343258
#
# Stress axis : x y z
#
# Youngs Moduli (GPa) = 69.58159 48.83114 60.59880
#
# Poissons Ratio (x) = -0.02296 0.15996
# Poissons Ratio (y) = -0.03271 0.41149
# Poissons Ratio (z) = 0.18367 0.33158
#
# Static dielectric constant tensor:
#      x y z
#    x 3.919800 0.000050 0.000010 
#    y 0.000050 3.366590 -0.000010 
#    z 0.000010 -0.000010 3.509090 
# 
# 
# High freq. dielectric constant tensor:
#      x y z
#    x 1.765870 0.000000 0.000000 
#    y 0.000000 1.751060 0.000000 
#    z 0.000000 0.000000 1.758620 
# 
# From -- ./inp_files/9720.got.cif
#   From: 2010.03.12/outbox.ucp.g09.slc.cvg/sg24_5_cif.got.tgz:9720.got - 2010.05.04 21:04:44.
