data_PCOD8166501
_publ_section_title
;
Structure prediction by ZEFSAII (Michael W. Deem and Ramdas Pophale) SiO2 
 PCOD8166501
Probable space group: P M M 2
;
_chemical_formula_sum "Si O2"
_cell_formula_units_Z 24
_cell_length_a 16.759586
_cell_length_b 8.696456
_cell_length_c 9.291369
_cell_angle_alpha 90.000000
_cell_angle_beta 90.000000
_cell_angle_gamma 90.000000
_cell_volume 1354.207761
_symmetry_space_group_name_H-M "P M M 2"
_symmetry_group_IT_number 25
_symmetry_cell_setting 'orthorhombic'
loop_
_space_group_symop_operation_xyz
x,y,z
-x,-y,z
-x,y,z
x,-y,z
loop_
_atom_site_type_symbol
_atom_site_label
_atom_site_fract_x
_atom_site_fract_y
_atom_site_fract_z
Si Si1 0.768342 0.177614 0.501650
Si Si2 0.911020 0.318111 0.676749
Si Si3 0.681686 0.177821 0.779282
Si Si4 0.268941 0.818782 0.186693
Si Si5 0.179139 0.677618 0.947840
Si Si6 0.410418 0.320756 0.004722
O O1 0.848991 0.251109 0.562770
O O2 0.692017 0.202492 0.607959
O O3 0.744675 0.247487 0.347343
O O4 0.788505 0.000000 0.483529
O O5 0.904023 0.500000 0.667272
O O6 0.892761 0.267480 0.842863
O O7 0.000000 0.260493 0.638188
O O8 0.741665 0.294836 0.855959
O O9 0.699908 0.000000 0.819249
O O10 0.598041 0.231287 0.849651
O O11 0.348600 0.742093 0.123198
O O12 0.281801 0.000000 0.187174
O O13 0.189253 0.775653 0.094539
O O14 0.170401 0.500000 0.990766
O O15 0.500000 0.289927 0.060886
O O16 0.394857 0.500000 0.980362
#
# Coordination Sequence:
#
# PCOD8166501 Si02
#       6
#     4   4   4   4   4   4
#     4   9  19  33  49  72  99 127 159 196 237 282
#     4   9  18  32  50  72  96 124 160 200 240 282
#     4   9  16  29  49  69  90 119 156 192 229 277
#     4  10  19  32  50  71  97 127 160 195 233 283
#     4   9  16  28  47  69  93 121 155 193 231 274
#     4  10  20  33  49  71  97 123 156 198 240 282
#
# _framework density 17.722539000000001
#
# number of rings (size 3 to 8) (size 9 to 14) (size 15 to 20)
#    0.000    2.667    0.000    4.000    0.000    4.333 
#    0.000    1.667    0.000    8.000    0.000    0.000 
#    0.000    0.000    0.000    0.000    0.000    0.000 
#
# Total GULP energy -297317.020469 kJ/mol
# GULP energy per Si atom -12388.209186 kJ/mol
# Density = 1.768220 g / cm^3
# Si number density = 17.722539 Si / 1000 Ang^3
#
#
#
# Elastic Constant Matrix: (Units=GPa)
#
#
# Indices 1 2 3 4 5 6 
#
# 1 99.3784 36.2708 63.6639 0.0000 0.0000 0.0000
# 2 36.2708 51.3182 39.5993 0.0000 0.0000 0.0000
# 3 63.6639 39.5993 158.5668 0.0000 0.0000 0.0000
# 4 0.0000 0.0000 0.0000 20.3805 0.0000 0.0000
# 5 0.0000 0.0000 0.0000 0.0000 20.7879 0.0000
# 6 0.0000 0.0000 0.0000 0.0000 0.0000 18.1899
#
#
#
# Elastic Compliance Matrix: (Units=1/GPa)
#
#
# Indices 1 2 3 4 5 6 
#
# 1 0.015674 -0.007707 -0.004368 0.000000 0.000000 0.000000
# 2 -0.007707 0.027928 -0.003880 0.000000 0.000000 0.000000
# 3 -0.004368 -0.003880 0.009029 0.000000 0.000000 0.000000
# 4 0.000000 0.000000 0.000000 0.049066 0.000000 0.000000
# 5 0.000000 0.000000 0.000000 0.000000 0.048105 0.000000
# 6 0.000000 0.000000 0.000000 0.000000 0.000000 0.054976
#
#
# Mechanical properties :
#
#
# Convention : Reuss Voigt Hill
#
# Bulk Modulus (GPa) = 48.26317 65.37015 56.81666
# Shear Modulus (GPa) = 20.52583 23.18695 21.85639
#
# Velocity S-wave (km/s) = 3.40689 3.62101 3.51558
# Velocity P-wave (km/s) = 6.53970 7.37887 6.97192
#
# Compressibility (1/GPa) = 0.02071973
#
# Stress axis : x y z
#
# Youngs Moduli (GPa) = 63.80020 35.80681 110.75083
#
# Poissons Ratio (x) = 0.27598 0.48379
# Poissons Ratio (y) = 0.49173 0.42971
# Poissons Ratio (z) = 0.27869 0.13893
#
# Static dielectric constant tensor:
#      x y z
#    x 3.387220 0.000000 0.000000 
#    y 0.000000 3.262930 0.000000 
#    z 0.000000 0.000000 3.705170 
# 
# 
# High freq. dielectric constant tensor:
#      x y z
#    x 1.660460 0.000000 0.000000 
#    y 0.000000 1.691110 0.000000 
#    z 0.000000 0.000000 1.681550 
# 
# From -- ./inp_files/2110.got.cif
#   From: 2010.03.12/outbox.cif.g09.slc.cpg/sg25_2_cif.got.tgz:2110.got - 2010.04.14 03:30:10.
