data_PCOD8166113
_publ_section_title
;
Structure prediction by ZEFSAII (Michael W. Deem and Ramdas Pophale) SiO2 
 PCOD8166113
Probable space group: I 21 21 21
;
_chemical_formula_sum "Si O2"
_cell_formula_units_Z 64
_cell_length_a 8.346339
_cell_length_b 19.582142
_cell_length_c 17.193152
_cell_angle_alpha 90.000000
_cell_angle_beta 90.000000
_cell_angle_gamma 90.000000
_cell_volume 2810.034931
_symmetry_space_group_name_H-M "I 21 21 21"
_symmetry_group_IT_number 24
_symmetry_cell_setting 'orthorhombic'
loop_
_space_group_symop_operation_xyz
x,y,z
-x,1/2-y,z
x,-y,1/2-z
1/2-x,y,-z
1/2+x,1/2+y,1/2+z
1/2-x,-y,1/2+z
1/2+x,1/2-y,-z
-x,1/2+y,1/2-z
loop_
_atom_site_type_symbol
_atom_site_label
_atom_site_fract_x
_atom_site_fract_y
_atom_site_fract_z
Si Si1 0.367373 0.193273 0.069896
Si Si2 0.660017 0.490029 0.422605
Si Si3 0.681317 0.399423 0.821096
Si Si4 0.175576 0.132731 0.359249
Si Si5 0.112273 0.423877 0.937866
Si Si6 0.185740 0.733364 0.912114
Si Si7 0.346740 0.461612 0.830851
Si Si8 0.329187 0.599648 0.917033
O O1 0.500000 0.250000 0.093621
O O2 0.252569 0.170926 0.142150
O O3 0.469402 0.128098 0.043331
O O4 0.250000 0.218044 0.000000
O O5 0.750000 0.514207 0.500000
O O6 0.711139 0.536741 0.348434
O O7 0.687078 0.411009 0.402763
O O8 0.470991 0.500945 0.439302
O O9 0.665078 0.393890 0.728709
O O10 0.501530 0.416417 0.849485
O O11 0.221333 0.211544 0.359616
O O12 0.014979 0.120796 0.408959
O O13 0.193253 0.413429 0.851365
O O14 0.250000 0.414699 0.000000
O O15 0.228455 0.659654 0.872076
O O16 0.000000 0.750000 0.908827
O O17 0.250000 0.738575 0.000000
O O18 0.346784 0.500000 0.750000
O O19 0.320283 0.521877 0.892194
O O20 0.250000 0.605068 0.000000
#
# Coordination Sequence:
#
# PCOD8166113 Si02
#       8
#     8   8   8   8   8   8   8   8
#     4  11  25  48  76 104 140 194 252 311 381 455
#     4  11  23  39  68 100 137 188 242 296 368 434
#     4  11  23  46  69 104 147 188 240 312 373 457
#     4  12  24  44  72 100 147 191 242 302 381 442
#     4  11  24  40  67 102 140 179 236 303 365 439
#     4  11  25  46  69  99 140 185 244 301 356 442
#     4  12  23  42  68 105 144 188 238 302 372 448
#     4  11  24  43  73 100 141 190 247 297 365 445
#
# _framework density 22.775518000000002
#
# number of rings (size 3 to 8) (size 9 to 14) (size 15 to 20)
#    0.000    0.750    2.500    6.375    3.500    2.500 
#    2.250    1.250    0.000    0.000    0.000    0.000 
#    0.000    0.000    0.000    0.000    0.000    0.000 
#
# Total GULP energy -396435.412412 kJ/mol
# GULP energy per Si atom -12388.606638 kJ/mol
# Density = 2.272368 g / cm^3
# Si number density = 22.775518 Si / 1000 Ang^3
#
#
#
# Elastic Constant Matrix: (Units=GPa)
#
#
# Indices 1 2 3 4 5 6 
#
# 1 137.0992 33.5566 48.4113 0.0000 0.0000 0.0000
# 2 33.5566 92.3806 32.5229 0.0000 0.0000 0.0000
# 3 48.4113 32.5229 95.7717 0.0000 0.0000 0.0000
# 4 0.0000 0.0000 0.0000 5.2807 0.0000 0.0000
# 5 0.0000 0.0000 0.0000 0.0000 43.4312 0.0000
# 6 0.0000 0.0000 0.0000 0.0000 0.0000 53.1076
#
#
#
# Elastic Compliance Matrix: (Units=1/GPa)
#
#
# Indices 1 2 3 4 5 6 
#
# 1 0.009172 -0.001930 -0.003981 0.000000 0.000000 0.000000
# 2 -0.001930 0.012701 -0.003337 0.000000 0.000000 0.000000
# 3 -0.003981 -0.003337 0.013587 0.000000 0.000000 0.000000
# 4 0.000000 0.000000 0.000000 0.189369 0.000000 0.000000
# 5 0.000000 0.000000 0.000000 0.000000 0.023025 0.000000
# 6 0.000000 0.000000 0.000000 0.000000 0.000000 0.018830
#
#
# Mechanical properties :
#
#
# Convention : Reuss Voigt Hill
#
# Bulk Modulus (GPa) = 58.95137 61.58145 60.26641
# Shear Modulus (GPa) = 17.19185 34.41460 25.80322
#
# Velocity S-wave (km/s) = 2.75041 3.89142 3.36956
# Velocity P-wave (km/s) = 6.00218 6.87663 6.45423
#
# Compressibility (1/GPa) = 0.01696313
#
# Stress axis : x y z
#
# Youngs Moduli (GPa) = 109.02588 78.73486 73.59912
#
# Poissons Ratio (x) = 0.15198 0.29299
# Poissons Ratio (y) = 0.21044 0.24563
# Poissons Ratio (z) = 0.43402 0.26277
#
# Static dielectric constant tensor:
#      x y z
#    x 4.733500 0.000000 0.000000 
#    y 0.000000 3.744060 0.000000 
#    z 0.000000 0.000000 3.548360 
# 
# 
# High freq. dielectric constant tensor:
#      x y z
#    x 1.921360 0.000000 0.000000 
#    y 0.000000 1.900230 0.000000 
#    z 0.000000 0.000000 1.881070 
# 
# From -- ./inp_files/29841.got.cif
#   From: 2010.03.12/outbox.cif.g09.slc.cpg/sg24_15_cif.got.tgz:29841.got - 2010.04.14 03:06:53.
