data_PCOD8166159
_publ_section_title
;
Structure prediction by ZEFSAII (Michael W. Deem and Ramdas Pophale) SiO2 
 PCOD8166159
Probable space group: I 21 21 21
;
_chemical_formula_sum "Si O2"
_cell_formula_units_Z 24
_cell_length_a 27.216665
_cell_length_b 8.163501
_cell_length_c 4.882463
_cell_angle_alpha 90.000000
_cell_angle_beta 90.000000
_cell_angle_gamma 90.000000
_cell_volume 1084.801604
_symmetry_space_group_name_H-M "I 21 21 21"
_symmetry_group_IT_number 24
_symmetry_cell_setting 'orthorhombic'
loop_
_space_group_symop_operation_xyz
x,y,z
-x,1/2-y,z
x,-y,1/2-z
1/2-x,y,-z
1/2+x,1/2+y,1/2+z
1/2-x,-y,1/2+z
1/2+x,1/2-y,-z
-x,1/2+y,1/2-z
loop_
_atom_site_type_symbol
_atom_site_label
_atom_site_fract_x
_atom_site_fract_y
_atom_site_fract_z
Si Si1 0.147928 0.319672 0.640487
Si Si2 0.198436 0.180277 0.127823
Si Si3 0.459884 0.614703 0.005062
O O1 0.159035 0.500000 0.750000
O O2 0.181667 0.298112 0.373163
O O3 0.090719 0.293439 0.574905
O O4 0.159761 0.187699 0.878136
O O5 0.202533 0.000000 0.250000
O O6 0.250000 0.239259 0.000000
O O7 0.500000 0.750000 0.931755
O O8 0.449392 0.500000 0.750000
O O9 0.478976 0.500000 0.250000
#
# Coordination Sequence:
#
# PCOD8166159 Si02
#       3
#     8   8   8
#     4  11  24  44  67  95 131 169 213 266 319 379
#     4  12  25  44  66  94 131 170 215 267 319 378
#     4  11  24  44  67  97 132 167 213 265 318 381
#
# _framework density 22.123864000000001
#
# number of rings (size 3 to 8) (size 9 to 14) (size 15 to 20)
#    0.000    0.667    0.000   10.000    0.000    6.667 
#    0.000    3.333    0.000    0.000    0.000    0.000 
#    0.000    0.000    0.000    0.000    0.000    0.000 
#
# Total GULP energy -148857.707004 kJ/mol
# GULP energy per Si atom -12404.808917 kJ/mol
# Density = 2.207351 g / cm^3
# Si number density = 22.123864 Si / 1000 Ang^3
#
#
#
# Elastic Constant Matrix: (Units=GPa)
#
#
# Indices 1 2 3 4 5 6 
#
# 1 159.9343 69.5485 73.6785 0.0018 -0.0009 0.0032
# 2 69.5485 57.2077 32.4784 0.0035 0.0024 0.0030
# 3 73.6785 32.4784 164.0474 0.0114 0.0018 0.0093
# 4 0.0018 0.0035 0.0114 60.6395 0.0003 0.0066
# 5 -0.0009 0.0024 0.0018 0.0003 39.5551 -0.0046
# 6 0.0032 0.0030 0.0093 0.0066 -0.0046 44.9152
#
#
#
# Elastic Compliance Matrix: (Units=1/GPa)
#
#
# Indices 1 2 3 4 5 6 
#
# 1 0.014847 -0.016070 -0.003487 0.000001 0.000001 0.000001
# 2 -0.016070 0.037088 -0.000125 -0.000002 -0.000003 -0.000001
# 3 -0.003487 -0.000125 0.007687 -0.000001 0.000000 -0.000001
# 4 0.000001 -0.000002 -0.000001 0.016491 0.000000 -0.000002
# 5 0.000001 -0.000003 0.000000 0.000000 0.025281 0.000003
# 6 0.000001 -0.000001 -0.000001 -0.000002 0.000003 0.022264
#
#
# Mechanical properties :
#
#
# Convention : Reuss Voigt Hill
#
# Bulk Modulus (GPa) = 49.36421 81.40003 65.38212
# Shear Modulus (GPa) = 29.45072 42.72089 36.08580
#
# Velocity S-wave (km/s) = 3.65248 4.39907 4.04305
# Velocity P-wave (km/s) = 6.33629 7.91676 7.17021
#
# Compressibility (1/GPa) = 0.02025759
#
# Stress axis : x y z
#
# Youngs Moduli (GPa) = 67.35311 26.96266 130.09808
#
# Poissons Ratio (x) = 0.43330 0.45360
# Poissons Ratio (y) = 1.08240 0.01628
# Poissons Ratio (z) = 0.23483 0.00337
#
# Static dielectric constant tensor:
#      x y z
#    x 4.005400 0.000000 0.000000 
#    y 0.000000 3.840930 -0.000020 
#    z 0.000000 -0.000020 4.199540 
# 
# 
# High freq. dielectric constant tensor:
#      x y z
#    x 1.873510 0.000000 0.000000 
#    y 0.000000 1.862910 0.000000 
#    z 0.000000 0.000000 1.902230 
# 
# From -- ./inp_files/806.got.cif
#   From: 2010.03.12/outbox.cif.g09.slc.cpg/sg24_1_cif.got.tgz:806.got - 2010.04.14 03:06:53.
