data_PCOD8166585
_publ_section_title
;
Structure prediction by ZEFSAII (Michael W. Deem and Ramdas Pophale) SiO2 
 PCOD8166585
Probable space group: P M M 2
;
_chemical_formula_sum "Si O2"
_cell_formula_units_Z 32
_cell_length_a 20.967727
_cell_length_b 9.257743
_cell_length_c 9.138072
_cell_angle_alpha 90.000000
_cell_angle_beta 90.000000
_cell_angle_gamma 90.000000
_cell_volume 1773.826135
_symmetry_space_group_name_H-M "P M M 2"
_symmetry_group_IT_number 25
_symmetry_cell_setting 'orthorhombic'
loop_
_space_group_symop_operation_xyz
x,y,z
-x,-y,z
-x,y,z
x,-y,z
loop_
_atom_site_type_symbol
_atom_site_label
_atom_site_fract_x
_atom_site_fract_y
_atom_site_fract_z
Si Si1 0.067884 0.336896 0.729060
Si Si2 0.569691 0.662016 0.536640
Si Si3 0.192947 0.667041 0.040840
Si Si4 0.692259 0.167446 0.190712
Si Si5 0.203640 0.338339 0.694024
Si Si6 0.070396 0.168464 0.021389
Si Si7 0.570516 0.662509 0.188886
Si Si8 0.310193 0.834548 0.535404
O O1 0.073832 0.500000 0.797830
O O2 0.131314 0.313023 0.630755
O O3 0.066464 0.217339 0.853961
O O4 0.000000 0.325085 0.641016
O O5 0.500000 0.717337 0.591035
O O6 0.581328 0.500000 0.594103
O O7 0.570766 0.664914 0.362792
O O8 0.625857 0.761314 0.599600
O O9 0.192834 0.500000 0.087272
O O10 0.201004 0.687553 0.867569
O O11 0.126859 0.739804 0.098271
O O12 0.251097 0.745755 0.117895
O O13 0.624864 0.229337 0.129931
O O14 0.697585 0.191757 0.363723
O O15 0.696320 0.000000 0.147713
O O16 0.227698 0.500000 0.657759
O O17 0.248827 0.225428 0.617012
O O18 0.000000 0.195161 0.093914
O O19 0.088452 0.000000 0.028170
O O20 0.500000 0.711121 0.132854
O O21 0.585337 0.500000 0.133448
O O22 0.316074 0.000000 0.576145
#
# Coordination Sequence:
#
# PCOD8166585 Si02
#       8
#     4   4   4   4   4   4   4   4
#     4   8  14  26  44  66  91 118 152 194 233 270
#     4   8  14  26  45  67  90 118 153 192 231 270
#     4  10  20  33  50  71  94 124 161 197 234 276
#     4  10  20  32  47  70  98 126 157 193 235 281
#     4   9  18  31  48  70  94 122 156 193 233 276
#     4   9  16  26  43  68  95 121 150 188 234 279
#     4   8  14  26  45  68  92 119 153 191 230 274
#     4  10  20  31  46  70  98 127 156 188 230 280
#
# _framework density 18.040098
#
# number of rings (size 3 to 8) (size 9 to 14) (size 15 to 20)
#    0.000    3.000    0.000    3.000    0.000    5.250 
#    0.000    2.500    0.000    1.500    0.000    8.750 
#    0.000    0.000    0.000    0.000    0.000    0.000 
#
# Total GULP energy -396459.354968 kJ/mol
# GULP energy per Si atom -12389.354843 kJ/mol
# Density = 1.799904 g / cm^3
# Si number density = 18.040098 Si / 1000 Ang^3
#
#
#
# Elastic Constant Matrix: (Units=GPa)
#
#
# Indices 1 2 3 4 5 6 
#
# 1 201.6445 101.8046 28.8226 0.0000 0.0000 0.0000
# 2 101.8046 128.8224 26.9635 0.0000 0.0000 0.0000
# 3 28.8226 26.9635 14.0467 0.0000 0.0000 0.0000
# 4 0.0000 0.0000 0.0000 19.7295 0.0000 0.0000
# 5 0.0000 0.0000 0.0000 0.0000 22.5766 0.0000
# 6 0.0000 0.0000 0.0000 0.0000 0.0000 33.4889
#
#
#
# Elastic Compliance Matrix: (Units=1/GPa)
#
#
# Indices 1 2 3 4 5 6 
#
# 1 0.008736 -0.005269 -0.007812 0.000000 0.000000 0.000000
# 2 -0.005269 0.016154 -0.020197 0.000000 0.000000 0.000000
# 3 -0.007812 -0.020197 0.125990 0.000000 0.000000 0.000000
# 4 0.000000 0.000000 0.000000 0.050686 0.000000 0.000000
# 5 0.000000 0.000000 0.000000 0.000000 0.044294 0.000000
# 6 0.000000 0.000000 0.000000 0.000000 0.000000 0.029861
#
#
# Mechanical properties :
#
#
# Convention : Reuss Voigt Hill
#
# Bulk Modulus (GPa) = 11.85900 73.29944 42.57922
# Shear Modulus (GPa) = 13.49958 27.62053 20.56005
#
# Velocity S-wave (km/s) = 2.73849 3.91712 3.37959
# Velocity P-wave (km/s) = 4.07272 7.82164 6.23559
#
# Compressibility (1/GPa) = 0.08432413
#
# Stress axis : x y z
#
# Youngs Moduli (GPa) = 114.47205 61.90541 7.93716
#
# Poissons Ratio (x) = 0.32615 0.06200
# Poissons Ratio (y) = 0.60311 0.16031
# Poissons Ratio (z) = 0.89421 1.25032
#
# Static dielectric constant tensor:
#      x y z
#    x 3.970180 0.000000 0.000000 
#    y 0.000000 3.446640 0.000000 
#    z 0.000000 0.000000 2.689440 
# 
# 
# High freq. dielectric constant tensor:
#      x y z
#    x 1.729290 0.000000 0.000000 
#    y 0.000000 1.705440 0.000000 
#    z 0.000000 0.000000 1.621070 
# 
# From -- ./inp_files/5064.got.cif
#   From: 2010.03.12/outbox.cif.g09.slc.cpg/sg25_3_cif.got.tgz:5064.got - 2010.04.14 03:30:10.
