data_PCOD8166565
_publ_section_title
;
Structure prediction by ZEFSAII (Michael W. Deem and Ramdas Pophale) SiO2 
 PCOD8166565
Probable space group: P M M 2
;
_chemical_formula_sum "Si O2"
_cell_formula_units_Z 20
_cell_length_a 13.047628
_cell_length_b 15.357179
_cell_length_c 5.206023
_cell_angle_alpha 90.000000
_cell_angle_beta 90.000000
_cell_angle_gamma 90.000000
_cell_volume 1043.155603
_symmetry_space_group_name_H-M "P M M 2"
_symmetry_group_IT_number 25
_symmetry_cell_setting 'orthorhombic'
loop_
_space_group_symop_operation_xyz
x,y,z
-x,-y,z
-x,y,z
x,-y,z
loop_
_atom_site_type_symbol
_atom_site_label
_atom_site_fract_x
_atom_site_fract_y
_atom_site_fract_z
Si Si1 0.787142 0.176108 0.816560
Si Si2 0.617357 0.746664 0.522540
Si Si3 0.761848 0.597994 0.361046
Si Si4 0.277202 0.098415 0.323442
Si Si5 0.116946 0.350270 0.857888
O O1 0.681557 0.233426 0.783812
O O2 0.802232 0.118592 0.557557
O O3 0.878673 0.244668 0.854838
O O4 0.782047 0.111473 0.056853
O O5 0.500000 0.727884 0.590468
O O6 0.665651 0.663303 0.379585
O O7 0.628149 0.833182 0.341844
O O8 0.718541 0.500000 0.371520
O O9 0.841692 0.612408 0.590585
O O10 0.818918 0.611873 0.093096
O O11 0.318948 0.000000 0.341190
O O12 0.000000 0.379612 0.889917
#
# Coordination Sequence:
#
# PCOD8166565 Si02
#       5
#     4   4   4   4   4
#     4   9  19  37  54  84 114 148 183 233 277 339
#     4   9  21  38  57  82 116 154 188 229 281 333
#     4  11  23  39  57  87 117 147 193 236 282 345
#     4  10  19  35  59  82 114 149 185 234 282 327
#     4  11  21  39  63  84 113 150 188 239 296 338
#
# _framework density 19.172595000000001
#
# number of rings (size 3 to 8) (size 9 to 14) (size 15 to 20)
#    1.200    0.800    2.000    1.800    0.000    4.000 
#    0.000    0.000    0.000    6.000    0.000    0.000 
#    0.000    0.000    0.000    0.000    0.000    0.000 
#
# Total GULP energy -247821.755670 kJ/mol
# GULP energy per Si atom -12391.087783 kJ/mol
# Density = 1.912896 g / cm^3
# Si number density = 19.172595 Si / 1000 Ang^3
#
#
#
# Elastic Constant Matrix: (Units=GPa)
#
#
# Indices 1 2 3 4 5 6 
#
# 1 50.7286 35.1669 6.8507 0.0000 0.0000 0.0000
# 2 35.1669 153.2943 21.1848 0.0000 0.0000 0.0000
# 3 6.8507 21.1848 104.8267 0.0000 0.0000 0.0000
# 4 0.0000 0.0000 0.0000 13.3943 0.0000 0.0000
# 5 0.0000 0.0000 0.0000 0.0000 16.2756 0.0000
# 6 0.0000 0.0000 0.0000 0.0000 0.0000 4.2781
#
#
#
# Elastic Compliance Matrix: (Units=1/GPa)
#
#
# Indices 1 2 3 4 5 6 
#
# 1 0.023462 -0.005319 -0.000458 0.000000 0.000000 0.000000
# 2 -0.005319 0.007917 -0.001252 0.000000 0.000000 0.000000
# 3 -0.000458 -0.001252 0.009823 0.000000 0.000000 0.000000
# 4 0.000000 0.000000 0.000000 0.074659 0.000000 0.000000
# 5 0.000000 0.000000 0.000000 0.000000 0.061442 0.000000
# 6 0.000000 0.000000 0.000000 0.000000 0.000000 0.233750
#
#
# Mechanical properties :
#
#
# Convention : Reuss Voigt Hill
#
# Bulk Modulus (GPa) = 36.84339 48.36160 42.60249
# Shear Modulus (GPa) = 11.51653 23.16608 17.34131
#
# Velocity S-wave (km/s) = 2.45353 3.47982 3.01073
# Velocity P-wave (km/s) = 5.22349 6.43620 5.86129
#
# Compressibility (1/GPa) = 0.02714191
#
# Stress axis : x y z
#
# Youngs Moduli (GPa) = 42.62219 126.31553 101.80616
#
# Poissons Ratio (x) = 0.67187 0.04666
# Poissons Ratio (y) = 0.22671 0.12749
# Poissons Ratio (z) = 0.01954 0.15819
#
# Static dielectric constant tensor:
#      x y z
#    x 3.026280 0.000000 0.000000 
#    y 0.000000 3.558660 0.000000 
#    z 0.000000 0.000000 3.514120 
# 
# 
# High freq. dielectric constant tensor:
#      x y z
#    x 1.696370 0.000000 0.000000 
#    y 0.000000 1.751770 0.000000 
#    z 0.000000 0.000000 1.757150 
# 
# From -- ./inp_files/558.got.cif
#   From: 2010.03.12/outbox.cif.g09.slc.cpg/sg25_1_cif.got.tgz:558.got - 2010.04.14 03:30:10.
