data_PCOD8166524
_publ_section_title
;
Structure prediction by ZEFSAII (Michael W. Deem and Ramdas Pophale) SiO2 
 PCOD8166524
Probable space group: P M M 2
;
_chemical_formula_sum "Si O2"
_cell_formula_units_Z 24
_cell_length_a 8.459855
_cell_length_b 26.853195
_cell_length_c 5.168625
_cell_angle_alpha 90.000000
_cell_angle_beta 90.000000
_cell_angle_gamma 90.000000
_cell_volume 1174.177919
_symmetry_space_group_name_H-M "P M M 2"
_symmetry_group_IT_number 25
_symmetry_cell_setting 'orthorhombic'
loop_
_space_group_symop_operation_xyz
x,y,z
-x,-y,z
-x,y,z
x,-y,z
loop_
_atom_site_type_symbol
_atom_site_label
_atom_site_fract_x
_atom_site_fract_y
_atom_site_fract_z
Si Si1 0.312397 0.285170 0.145570
Si Si2 0.682234 0.442851 0.608267
Si Si3 0.688723 0.113926 0.666780
Si Si4 0.687231 0.774336 0.648076
Si Si5 0.311505 0.943845 0.166835
Si Si6 0.817361 0.606465 0.110478
O O1 0.500000 0.293581 0.144296
O O2 0.257530 0.250740 0.382622
O O3 0.226993 0.337417 0.179321
O O4 0.250433 0.258645 0.886115
O O5 0.500000 0.434637 0.535716
O O6 0.720482 0.500000 0.673462
O O7 0.783343 0.427021 0.360637
O O8 0.719508 0.410756 0.861363
O O9 0.500000 0.115048 0.665369
O O10 0.757448 0.169968 0.664277
O O11 0.753356 0.084445 0.418507
O O12 0.753280 0.085547 0.918378
O O13 0.500000 0.777527 0.662843
O O14 0.500000 0.944682 0.166271
O O15 0.244991 0.000000 0.163857
O O16 0.000000 0.601919 0.039023
#
# Coordination Sequence:
#
# PCOD8166524 Si02
#       6
#     4   4   4   4   4   4
#     4  10  19  33  52  73 100 135 178 221 266 323
#     4  11  24  43  66  90 118 155 196 234 276 331
#     4   9  15  23  34  51  77 108 154 210 253 298
#     4   9  17  28  45  67  89 122 170 223 267 307
#     4   9  15  21  30  46  73 112 154 197 249 310
#     4  12  25  40  61  90 122 153 188 234 289 340
#
# _framework density 20.439829
#
# number of rings (size 3 to 8) (size 9 to 14) (size 15 to 20)
#    0.000    2.000    0.000    5.000    0.000   10.667 
#    0.000    0.000    0.000    0.000    0.000    0.000 
#    0.000    0.000    0.000    0.000    0.000   58.333 
#
# Total GULP energy -297675.767228 kJ/mol
# GULP energy per Si atom -12403.156968 kJ/mol
# Density = 2.039331 g / cm^3
# Si number density = 20.439829 Si / 1000 Ang^3
#
#
#
# Elastic Constant Matrix: (Units=GPa)
#
#
# Indices 1 2 3 4 5 6 
#
# 1 28.8567 31.4329 14.2204 0.0000 0.0000 0.0000
# 2 31.4329 123.9454 37.8889 0.0000 0.0000 0.0000
# 3 14.2204 37.8889 143.3393 0.0000 0.0000 0.0000
# 4 0.0000 0.0000 0.0000 45.2041 0.0000 0.0000
# 5 0.0000 0.0000 0.0000 0.0000 12.0564 0.0000
# 6 0.0000 0.0000 0.0000 0.0000 0.0000 -1.1304
#
#
#
# Elastic Compliance Matrix: (Units=1/GPa)
#
#
# Indices 1 2 3 4 5 6 
#
# 1 0.048254 -0.011721 -0.001689 0.000000 0.000000 0.000000
# 2 -0.011721 0.011624 -0.001910 0.000000 0.000000 0.000000
# 3 -0.001689 -0.001910 0.007649 0.000000 0.000000 0.000000
# 4 0.000000 0.000000 0.000000 0.022122 0.000000 0.000000
# 5 0.000000 0.000000 0.000000 0.000000 0.082943 0.000000
# 6 0.000000 0.000000 0.000000 0.000000 0.000000 -0.884649
#
#
# Mechanical properties :
#
#
# Convention : Reuss Voigt Hill
#
# Bulk Modulus (GPa) = 27.10955 51.46954 39.28954
# Shear Modulus (GPa) = -7.47249 25.39929 8.96340
#
# Velocity S-wave (km/s) = -1.91410 3.52893 2.09637
# Velocity P-wave (km/s) = 2.89946 6.46839 5.01233
#
# Compressibility (1/GPa) = 0.03688737
#
# Stress axis : x y z
#
# Youngs Moduli (GPa) = 20.72376 86.02613 130.73872
#
# Poissons Ratio (x) = 1.00831 0.22081
# Poissons Ratio (y) = 0.24290 0.24969
# Poissons Ratio (z) = 0.03500 0.16430
#
# Static dielectric constant tensor:
#      x y z
#    x 3.206660 0.000000 0.000000 
#    y 0.000000 3.925640 0.000000 
#    z 0.000000 0.000000 3.894270 
# 
# 
# High freq. dielectric constant tensor:
#      x y z
#    x 1.738130 0.000000 0.000000 
#    y 0.000000 1.818930 0.000000 
#    z 0.000000 0.000000 1.817360 
# 
# From -- ./inp_files/312.got.cif
#   From: 2010.03.12/outbox.cif.g09.slc.cpg/sg25_1_cif.got.tgz:312.got - 2010.04.14 03:30:10.
