data_PCOD8166801
_publ_section_title
;
Structure prediction by ZEFSAII (Michael W. Deem and Ramdas Pophale) SiO2 
 PCOD8166801
Probable space group: P M M 2
;
_chemical_formula_sum "Si O2"
_cell_formula_units_Z 32
_cell_length_a 9.022658
_cell_length_b 13.946736
_cell_length_c 13.092047
_cell_angle_alpha 90.000000
_cell_angle_beta 90.000000
_cell_angle_gamma 90.000000
_cell_volume 1647.459063
_symmetry_space_group_name_H-M "P M M 2"
_symmetry_group_IT_number 25
_symmetry_cell_setting 'orthorhombic'
loop_
_space_group_symop_operation_xyz
x,y,z
-x,-y,z
-x,y,z
x,-y,z
loop_
_atom_site_type_symbol
_atom_site_label
_atom_site_fract_x
_atom_site_fract_y
_atom_site_fract_z
Si Si1 0.675316 0.715927 0.356310
Si Si2 0.175890 0.110319 0.834481
Si Si3 0.675771 0.713555 0.758729
Si Si4 0.671335 0.612497 0.150493
Si Si5 0.676195 0.392573 0.555544
Si Si6 0.830222 0.613914 0.947141
Si Si7 0.172647 0.889877 0.055606
Si Si8 0.175578 0.889470 0.276275
O O1 0.500000 0.724629 0.361364
O O2 0.728175 0.660816 0.254672
O O3 0.737453 0.659774 0.454542
O O4 0.744956 0.822469 0.359036
O O5 0.260460 0.177945 0.754625
O O6 0.000000 0.117697 0.820204
O O7 0.226544 0.000000 0.819313
O O8 0.223528 0.154800 0.946884
O O9 0.500000 0.716638 0.766194
O O10 0.731547 0.663359 0.655399
O O11 0.738205 0.654074 0.853122
O O12 0.500000 0.636123 0.129326
O O13 0.697313 0.500000 0.163891
O O14 0.765389 0.653383 0.054743
O O15 0.500000 0.396091 0.552506
O O16 0.741393 0.500000 0.558519
O O17 0.815374 0.500000 0.944697
O O18 0.000000 0.648143 0.938752
O O19 0.240065 0.854812 0.163984
O O20 0.000000 0.876179 0.067911
O O21 0.213009 0.000000 0.042591
O O22 0.000000 0.876654 0.283760
O O23 0.218741 0.000000 0.296635
#
# Coordination Sequence:
#
# PCOD8166801 Si02
#       8
#     4   4   4   4   4   4   4   4
#     4  10  20  34  56  83 107 136 182 231 274 319
#     4   9  18  34  55  79 110 149 189 226 269 324
#     4  11  22  35  56  83 110 142 185 232 279 327
#     4   9  18  33  53  79 111 141 171 217 277 336
#     4   9  19  38  61  81 104 141 186 228 274 330
#     4  10  21  36  54  78 110 146 181 220 272 336
#     4   7  12  26  48  71  97 136 180 213 249 305
#     4   9  18  33  52  76 109 148 185 219 263 322
#
# _framework density 19.423852
#
# number of rings (size 3 to 8) (size 9 to 14) (size 15 to 20)
#    0.000    2.750    0.000    3.000    1.750    3.750 
#    0.000    1.875    0.000    8.625    0.000    0.000 
#    0.000    0.000    0.000    0.000    0.000    0.000 
#
# Total GULP energy -396584.546425 kJ/mol
# GULP energy per Si atom -12393.267076 kJ/mol
# Density = 1.937964 g / cm^3
# Si number density = 19.423852 Si / 1000 Ang^3
#
#
#
# Elastic Constant Matrix: (Units=GPa)
#
#
# Indices 1 2 3 4 5 6 
#
# 1 47.7090 36.3108 42.4983 0.0000 0.0000 0.0000
# 2 36.3108 103.6542 82.6921 0.0000 0.0000 0.0000
# 3 42.4983 82.6921 152.5475 0.0000 0.0000 0.0000
# 4 0.0000 0.0000 0.0000 36.4836 0.0000 0.0000
# 5 0.0000 0.0000 0.0000 0.0000 15.7122 0.0000
# 6 0.0000 0.0000 0.0000 0.0000 0.0000 30.8140
#
#
#
# Elastic Compliance Matrix: (Units=1/GPa)
#
#
# Indices 1 2 3 4 5 6 
#
# 1 0.030419 -0.006863 -0.004754 0.000000 0.000000 0.000000
# 2 -0.006863 0.018547 -0.008142 0.000000 0.000000 0.000000
# 3 -0.004754 -0.008142 0.012293 0.000000 0.000000 0.000000
# 4 0.000000 0.000000 0.000000 0.027410 0.000000 0.000000
# 5 0.000000 0.000000 0.000000 0.000000 0.063645 0.000000
# 6 0.000000 0.000000 0.000000 0.000000 0.000000 0.032453
#
#
# Mechanical properties :
#
#
# Convention : Reuss Voigt Hill
#
# Bulk Modulus (GPa) = 45.99653 69.65702 57.82677
# Shear Modulus (GPa) = 21.59535 26.09592 23.84563
#
# Velocity S-wave (km/s) = 3.33798 3.66935 3.50758
# Velocity P-wave (km/s) = 6.21192 7.34109 6.79999
#
# Compressibility (1/GPa) = 0.02174077
#
# Stress axis : x y z
#
# Youngs Moduli (GPa) = 32.87447 53.91693 81.34579
#
# Poissons Ratio (x) = 0.37005 0.38671
# Poissons Ratio (y) = 0.22563 0.66230
# Poissons Ratio (z) = 0.15628 0.43898
#
# Static dielectric constant tensor:
#      x y z
#    x 3.183170 0.000000 0.000000 
#    y 0.000000 3.628770 0.000000 
#    z 0.000000 0.000000 3.702410 
# 
# 
# High freq. dielectric constant tensor:
#      x y z
#    x 1.722160 0.000000 0.000000 
#    y 0.000000 1.768430 0.000000 
#    z 0.000000 0.000000 1.750650 
# 
# From -- ./inp_files/4274.got.cif
#   From: 2010.03.12/outbox.cif.g09.slc.cpg/sg25_3_cif.got.tgz:4274.got - 2010.04.14 03:30:10.
