data_PCOD8166056
_publ_section_title
;
Structure prediction by ZEFSAII (Michael W. Deem and Ramdas Pophale) SiO2 
 PCOD8166056
Probable space group: I 21 21 21
;
_chemical_formula_sum "Si O2"
_cell_formula_units_Z 48
_cell_length_a 28.082955
_cell_length_b 9.368242
_cell_length_c 8.280625
_cell_angle_alpha 90.000000
_cell_angle_beta 90.000000
_cell_angle_gamma 90.000000
_cell_volume 2178.532395
_symmetry_space_group_name_H-M "I 21 21 21"
_symmetry_group_IT_number 24
_symmetry_cell_setting 'orthorhombic'
loop_
_space_group_symop_operation_xyz
x,y,z
-x,1/2-y,z
x,-y,1/2-z
1/2-x,y,-z
1/2+x,1/2+y,1/2+z
1/2-x,-y,1/2+z
1/2+x,1/2-y,-z
-x,1/2+y,1/2-z
loop_
_atom_site_type_symbol
_atom_site_label
_atom_site_fract_x
_atom_site_fract_y
_atom_site_fract_z
Si Si1 0.625216 0.350629 0.685495
Si Si2 0.537693 0.865059 0.352562
Si Si3 0.616680 0.893581 0.603968
Si Si4 0.687034 0.844339 0.326370
Si Si5 0.107558 0.158705 0.680610
Si Si6 0.736810 0.657007 0.812779
O O1 0.609909 0.500000 0.750000
O O2 0.598234 0.247416 0.808277
O O3 0.604107 0.339111 0.509671
O O4 0.680954 0.319072 0.698136
O O5 0.500000 0.750000 0.426412
O O6 0.572988 0.936042 0.486035
O O7 0.566967 0.765627 0.233412
O O8 0.515883 0.000000 0.250000
O O9 0.665899 0.862927 0.506354
O O10 0.628172 0.000000 0.750000
O O11 0.657891 0.723519 0.231232
O O12 0.739950 0.777486 0.306724
O O13 0.684304 0.000000 0.250000
O O14 0.101437 0.000000 0.750000
O O15 0.751759 0.500000 0.750000
O O16 0.750000 0.678204 0.000000
#
# Coordination Sequence:
#
# PCOD8166056 Si02
#       6
#     8   8   8   8   8   8
#     4  11  23  38  62  94 130 173 227 280 335 394
#     4  11  24  45  72 101 132 170 219 270 337 413
#     4  11  24  43  67  95 134 175 220 276 341 403
#     4  11  23  41  63  89 130 180 230 279 333 400
#     4  11  21  41  70  95 128 176 224 272 333 408
#     4  11  25  40  63  92 134 180 232 289 338 392
#
# _framework density 22.033180000000002
#
# number of rings (size 3 to 8) (size 9 to 14) (size 15 to 20)
#    0.000    1.000    1.667    7.000    4.667    0.667 
#    0.000    5.833    0.000    0.000    0.000    0.000 
#    0.000    0.000    0.000    0.000    0.000    0.000 
#
# Total GULP energy -297383.565984 kJ/mol
# GULP energy per Si atom -12390.981916 kJ/mol
# Density = 2.198303 g / cm^3
# Si number density = 22.033180 Si / 1000 Ang^3
#
#
#
# Elastic Constant Matrix: (Units=GPa)
#
#
# Indices 1 2 3 4 5 6 
#
# 1 37.3224 12.4920 19.4224 0.0000 0.0000 0.0000
# 2 12.4920 126.6869 47.8786 0.0000 0.0000 0.0000
# 3 19.4224 47.8786 145.3370 0.0000 0.0000 0.0000
# 4 0.0000 0.0000 0.0000 221.7168 0.0000 0.0000
# 5 0.0000 0.0000 0.0000 0.0000 13.1580 0.0000
# 6 0.0000 0.0000 0.0000 0.0000 0.0000 32.7528
#
#
#
# Elastic Compliance Matrix: (Units=1/GPa)
#
#
# Indices 1 2 3 4 5 6 
#
# 1 0.029077 -0.001597 -0.003359 0.000000 0.000000 0.000000
# 2 -0.001597 0.009104 -0.002786 0.000000 0.000000 0.000000
# 3 -0.003359 -0.002786 0.008247 0.000000 0.000000 0.000000
# 4 0.000000 0.000000 0.000000 0.004510 0.000000 0.000000
# 5 0.000000 0.000000 0.000000 0.000000 0.075999 0.000000
# 6 0.000000 0.000000 0.000000 0.000000 0.000000 0.030532
#
#
# Mechanical properties :
#
#
# Convention : Reuss Voigt Hill
#
# Bulk Modulus (GPa) = 32.31808 52.10360 42.21084
# Shear Modulus (GPa) = 27.28246 68.82906 48.05576
#
# Velocity S-wave (km/s) = 3.52269 5.59523 4.67525
# Velocity P-wave (km/s) = 5.58977 8.08958 6.95294
#
# Compressibility (1/GPa) = 0.03094243
#
# Stress axis : x y z
#
# Youngs Moduli (GPa) = 34.39201 109.84495 121.25382
#
# Poissons Ratio (x) = 0.17548 0.40735
# Poissons Ratio (y) = 0.05494 0.33776
# Poissons Ratio (z) = 0.11554 0.30598
#
# Static dielectric constant tensor:
#      x y z
#    x 3.493470 0.000000 0.000000 
#    y 0.000000 4.221440 0.000000 
#    z 0.000000 0.000000 4.618930 
# 
# 
# High freq. dielectric constant tensor:
#      x y z
#    x 1.847540 0.000000 0.000000 
#    y 0.000000 1.886950 0.000000 
#    z 0.000000 0.000000 1.875550 
# 
# From -- ./inp_files/16798.got.cif
#   From: 2010.03.12/outbox.cif.g09.slc.cpg/sg24_9_cif.got.tgz:16798.got - 2010.04.14 03:06:53.
