data_PCOD8166677
_publ_section_title
;
Structure prediction by ZEFSAII (Michael W. Deem and Ramdas Pophale) SiO2 
 PCOD8166677
Probable space group: P M M 2
;
_chemical_formula_sum "Si O2"
_cell_formula_units_Z 28
_cell_length_a 9.680594
_cell_length_b 9.145550
_cell_length_c 18.182610
_cell_angle_alpha 90.000000
_cell_angle_beta 90.000000
_cell_angle_gamma 90.000000
_cell_volume 1609.785675
_symmetry_space_group_name_H-M "P M M 2"
_symmetry_group_IT_number 25
_symmetry_cell_setting 'orthorhombic'
loop_
_space_group_symop_operation_xyz
x,y,z
-x,-y,z
-x,y,z
x,-y,z
loop_
_atom_site_type_symbol
_atom_site_label
_atom_site_fract_x
_atom_site_fract_y
_atom_site_fract_z
Si Si1 0.846279 0.325862 0.743620
Si Si2 0.653843 0.674511 0.615690
Si Si3 0.664734 0.663023 0.454314
Si Si4 0.163841 0.337709 0.904469
Si Si5 0.837692 0.830171 0.047303
Si Si6 0.660453 0.328085 0.169722
Si Si7 0.335928 0.163482 0.315517
O O1 0.851038 0.500000 0.738457
O O2 0.750787 0.259196 0.679374
O O3 0.784761 0.282562 0.824070
O O4 0.000000 0.261282 0.732762
O O5 0.500000 0.736513 0.628808
O O6 0.650885 0.500000 0.618498
O O7 0.709981 0.722390 0.534943
O O8 0.500000 0.657675 0.451577
O O9 0.723428 0.500000 0.440799
O O10 0.724873 0.767370 0.390579
O O11 0.223279 0.500000 0.922509
O O12 0.000000 0.347916 0.900198
O O13 0.211086 0.224473 0.966942
O O14 0.752470 0.740006 0.106244
O O15 0.000000 0.800656 0.059386
O O16 0.801206 0.000000 0.054390
O O17 0.500000 0.291012 0.154785
O O18 0.686025 0.500000 0.173169
O O19 0.711722 0.259953 0.246475
O O20 0.500000 0.160604 0.320021
O O21 0.276284 0.000000 0.306637
#
# Coordination Sequence:
#
# PCOD8166677 Si02
#       7
#     4   4   4   4   4   4   4
#     4   8  13  22  38  59  81 107 141 180 220 260
#     4   8  13  21  35  57  83 108 136 175 220 260
#     4   8  13  22  37  57  81 110 145 182 218 259
#     4   8  14  26  44  64  86 114 149 187 223 262
#     4  10  20  33  50  71  94 122 155 189 228 275
#     4  10  20  33  50  72  96 121 151 189 232 275
#     4   9  16  26  42  64  89 117 149 184 221 263
#
# _framework density 17.393621
#
# number of rings (size 3 to 8) (size 9 to 14) (size 15 to 20)
#    0.000    3.286    0.000    3.000    0.000    3.429 
#    0.000    0.714    0.000    4.286    0.000    2.000 
#    0.000    0.000    0.000    0.000    0.000    0.000 
#
# Total GULP energy -347011.248719 kJ/mol
# GULP energy per Si atom -12393.258883 kJ/mol
# Density = 1.735403 g / cm^3
# Si number density = 17.393621 Si / 1000 Ang^3
#
#
#
# Elastic Constant Matrix: (Units=GPa)
#
#
# Indices 1 2 3 4 5 6 
#
# 1 39.6138 26.9970 50.8680 0.0000 0.0000 0.0000
# 2 26.9970 83.6752 65.3394 0.0000 0.0000 0.0000
# 3 50.8680 65.3394 180.5390 0.0000 0.0000 0.0000
# 4 0.0000 0.0000 0.0000 5.3151 0.0000 0.0000
# 5 0.0000 0.0000 0.0000 0.0000 2.3648 0.0000
# 6 0.0000 0.0000 0.0000 0.0000 0.0000 13.5726
#
#
#
# Elastic Compliance Matrix: (Units=1/GPa)
#
#
# Indices 1 2 3 4 5 6 
#
# 1 0.041575 -0.005947 -0.009562 0.000000 0.000000 0.000000
# 2 -0.005947 0.017510 -0.004661 0.000000 0.000000 0.000000
# 3 -0.009562 -0.004661 0.009920 0.000000 0.000000 0.000000
# 4 0.000000 0.000000 0.000000 0.188142 0.000000 0.000000
# 5 0.000000 0.000000 0.000000 0.000000 0.422864 0.000000
# 6 0.000000 0.000000 0.000000 0.000000 0.000000 0.073678
#
#
# Mechanical properties :
#
#
# Convention : Reuss Voigt Hill
#
# Bulk Modulus (GPa) = 34.88688 65.58188 50.23438
# Shear Modulus (GPa) = 6.22212 14.95875 10.59044
#
# Velocity S-wave (km/s) = 1.89341 2.93578 2.47020
# Velocity P-wave (km/s) = 4.98807 7.01984 6.08929
#
# Compressibility (1/GPa) = 0.02866407
#
# Stress axis : x y z
#
# Youngs Moduli (GPa) = 24.05299 57.11121 100.80686
#
# Poissons Ratio (x) = 0.33967 0.96387
# Poissons Ratio (y) = 0.14305 0.46989
# Poissons Ratio (z) = 0.22998 0.26621
#
# Static dielectric constant tensor:
#      x y z
#    x 2.927300 0.000000 0.000000 
#    y 0.000000 3.116810 0.000000 
#    z 0.000000 0.000000 3.693410 
# 
# 
# High freq. dielectric constant tensor:
#      x y z
#    x 1.618500 0.000000 0.000000 
#    y 0.000000 1.645300 0.000000 
#    z 0.000000 0.000000 1.692530 
# 
# From -- ./inp_files/6417.got.cif
#   From: 2010.03.12/outbox.cif.g09.slc.cpg/sg25_4_cif.got.tgz:6417.got - 2010.04.14 03:30:10.
