data_PCOD8166319
_publ_section_title
;
Structure prediction by ZEFSAII (Michael W. Deem and Ramdas Pophale) SiO2 
 PCOD8166319
Probable space group: P M M 2
;
_chemical_formula_sum "Si O2"
_cell_formula_units_Z 32
_cell_length_a 9.252377
_cell_length_b 18.385963
_cell_length_c 12.943096
_cell_angle_alpha 90.000000
_cell_angle_beta 90.000000
_cell_angle_gamma 90.000000
_cell_volume 2201.800036
_symmetry_space_group_name_H-M "P M M 2"
_symmetry_group_IT_number 25
_symmetry_cell_setting 'orthorhombic'
loop_
_space_group_symop_operation_xyz
x,y,z
-x,-y,z
-x,y,z
x,-y,z
loop_
_atom_site_type_symbol
_atom_site_label
_atom_site_fract_x
_atom_site_fract_y
_atom_site_fract_z
Si Si1 0.167079 0.083717 0.356290
Si Si2 0.334133 0.716279 0.049935
Si Si3 0.330663 0.916088 0.561425
Si Si4 0.334864 0.581400 0.931579
Si Si5 0.829646 0.171587 0.154566
Si Si6 0.833737 0.295583 0.856898
Si Si7 0.171599 0.918086 0.956997
Si Si8 0.833979 0.155725 0.745223
O O1 0.261213 0.108663 0.453610
O O2 0.215765 0.132077 0.259653
O O3 0.000000 0.096219 0.384062
O O4 0.196348 0.000000 0.327093
O O5 0.500000 0.741803 0.047958
O O6 0.253686 0.750241 0.149852
O O7 0.323468 0.627405 0.039963
O O8 0.247030 0.747454 0.950125
O O9 0.500000 0.902235 0.554809
O O10 0.265929 0.867081 0.651320
O O11 0.293129 0.000000 0.584458
O O12 0.500000 0.578958 0.893338
O O13 0.273892 0.500000 0.948101
O O14 0.242265 0.624801 0.843511
O O15 0.000000 0.185153 0.149982
O O16 0.771075 0.123858 0.058377
O O17 0.820708 0.243686 0.756947
O O18 0.000000 0.307393 0.887801
O O19 0.223012 0.882457 0.849555
O O20 0.000000 0.917431 0.961426
O O21 0.232635 0.000000 0.961151
O O22 0.000000 0.133548 0.722644
#
# Coordination Sequence:
#
# PCOD8166319 Si02
#       8
#     4   4   4   4   4   4   4   4
#     4   9  18  32  49  65  81 108 148 190 230 270
#     4   9  17  27  40  59  86 119 144 169 208 255
#     4  10  21  34  46  61  83 111 147 192 233 269
#     4   8  15  27  41  60  90 125 152 172 202 250
#     4  10  17  28  44  63  86 110 142 182 218 257
#     4   9  16  27  42  63  86 112 145 179 212 249
#     4   9  15  23  38  60  82 105 135 171 212 255
#     4  10  18  29  45  62  85 114 144 180 220 263
#
# _framework density 14.533564
#
# number of rings (size 3 to 8) (size 9 to 14) (size 15 to 20)
#    0.750    2.000    1.250    1.500    0.000    4.500 
#    0.000    0.000    0.000    1.125    0.000    0.000 
#    0.000    1.000    0.000    7.500    0.000    3.875 
#
# Total GULP energy -396446.799702 kJ/mol
# GULP energy per Si atom -12388.962491 kJ/mol
# Density = 1.450048 g / cm^3
# Si number density = 14.533564 Si / 1000 Ang^3
#
#
#
# Elastic Constant Matrix: (Units=GPa)
#
#
# Indices 1 2 3 4 5 6 
#
# 1 69.0126 42.3074 44.9561 0.0000 0.0000 0.0000
# 2 42.3074 95.5398 48.4935 0.0000 0.0000 0.0000
# 3 44.9561 48.4935 89.7859 0.0000 0.0000 0.0000
# 4 0.0000 0.0000 0.0000 14.6883 0.0000 0.0000
# 5 0.0000 0.0000 0.0000 0.0000 14.6043 0.0000
# 6 0.0000 0.0000 0.0000 0.0000 0.0000 21.1773
#
#
#
# Elastic Compliance Matrix: (Units=1/GPa)
#
#
# Indices 1 2 3 4 5 6 
#
# 1 0.023914 -0.006216 -0.008616 0.000000 0.000000 0.000000
# 2 -0.006216 0.016036 -0.005548 0.000000 0.000000 0.000000
# 3 -0.008616 -0.005548 0.018449 0.000000 0.000000 0.000000
# 4 0.000000 0.000000 0.000000 0.068081 0.000000 0.000000
# 5 0.000000 0.000000 0.000000 0.000000 0.068473 0.000000
# 6 0.000000 0.000000 0.000000 0.000000 0.000000 0.047220
#
#
# Mechanical properties :
#
#
# Convention : Reuss Voigt Hill
#
# Bulk Modulus (GPa) = 56.70187 58.42804 57.56496
# Shear Modulus (GPa) = 17.31222 17.99940 17.65581
#
# Velocity S-wave (km/s) = 3.45510 3.52301 3.48922
# Velocity P-wave (km/s) = 7.41729 7.53911 7.47845
#
# Compressibility (1/GPa) = 0.01763610
#
# Stress axis : x y z
#
# Youngs Moduli (GPa) = 41.81704 62.36052 54.20479
#
# Poissons Ratio (x) = 0.38764 0.46705
# Poissons Ratio (y) = 0.25994 0.30075
# Poissons Ratio (z) = 0.36031 0.34601
#
# Static dielectric constant tensor:
#      x y z
#    x 2.758160 0.000000 0.000000 
#    y 0.000000 2.821410 0.000000 
#    z 0.000000 0.000000 2.625230 
# 
# 
# High freq. dielectric constant tensor:
#      x y z
#    x 1.554270 0.000000 0.000000 
#    y 0.000000 1.541620 0.000000 
#    z 0.000000 0.000000 1.522580 
# 
# From -- ./inp_files/4489.got.cif
#   From: 2010.03.12/outbox.cif.g09.slc.cpg/sg25_3_cif.got.tgz:4489.got - 2010.04.14 03:30:10.
