data_PCOD8166661
_publ_section_title
;
Structure prediction by ZEFSAII (Michael W. Deem and Ramdas Pophale) SiO2 
 PCOD8166661
Probable space group: P M M 2
;
_chemical_formula_sum "Si O2"
_cell_formula_units_Z 32
_cell_length_a 14.362175
_cell_length_b 9.239852
_cell_length_c 12.455550
_cell_angle_alpha 90.000000
_cell_angle_beta 90.000000
_cell_angle_gamma 90.000000
_cell_volume 1652.905933
_symmetry_space_group_name_H-M "P M M 2"
_symmetry_group_IT_number 25
_symmetry_cell_setting 'orthorhombic'
loop_
_space_group_symop_operation_xyz
x,y,z
-x,-y,z
-x,y,z
x,-y,z
loop_
_atom_site_type_symbol
_atom_site_label
_atom_site_fract_x
_atom_site_fract_y
_atom_site_fract_z
Si Si1 0.609105 0.331195 0.188420
Si Si2 0.896108 0.167273 0.476149
Si Si3 0.276857 0.173012 0.006109
Si Si4 0.345160 0.341031 0.625516
Si Si5 0.104581 0.667839 0.927969
Si Si6 0.137551 0.661244 0.687924
Si Si7 0.276588 0.330126 0.400811
Si Si8 0.398227 0.160651 0.811893
O O1 0.500000 0.289087 0.194638
O O2 0.620618 0.500000 0.159773
O O3 0.662443 0.234538 0.102870
O O4 0.658356 0.294324 0.300845
O O5 0.898917 0.232941 0.595711
O O6 0.822706 0.247666 0.397561
O O7 0.000000 0.183509 0.426595
O O8 0.866931 0.000000 0.484708
O O9 0.273268 0.000000 0.016169
O O10 0.172862 0.238405 0.003852
O O11 0.326403 0.227725 0.896922
O O12 0.390432 0.500000 0.617896
O O13 0.247910 0.346259 0.686947
O O14 0.333079 0.276692 0.505978
O O15 0.409682 0.243168 0.699391
O O16 0.134808 0.500000 0.934658
O O17 0.107015 0.721163 0.804228
O O18 0.000000 0.690193 0.972443
O O19 0.095836 0.500000 0.669283
O O20 0.253559 0.500000 0.411542
O O21 0.500000 0.160753 0.866935
O O22 0.364468 0.000000 0.783484
#
# Coordination Sequence:
#
# PCOD8166661 Si02
#       8
#     4   4   4   4   4   4   4   4
#     4  10  22  42  67  89 109 141 191 247 296 345
#     4  10  20  32  50  81 119 156 193 231 274 331
#     4  11  23  39  59  83 117 153 189 238 289 344
#     4   9  17  31  53  81 112 144 180 225 276 330
#     4  10  20  35  57  84 115 152 195 240 285 338
#     4   9  17  31  52  78 112 153 193 233 276 327
#     4   9  20  38  59  84 112 144 186 237 290 340
#     4  10  21  35  51  76 112 151 185 221 274 337
#
# _framework density 19.359843999999999
#
# number of rings (size 3 to 8) (size 9 to 14) (size 15 to 20)
#    0.000    2.250    1.250    2.250    0.000    6.750 
#    0.000    1.875    0.000    0.750    0.000    0.000 
#    0.000    0.000    0.000    0.000    0.000    0.000 
#
# Total GULP energy -396677.866258 kJ/mol
# GULP energy per Si atom -12396.183321 kJ/mol
# Density = 1.931578 g / cm^3
# Si number density = 19.359844 Si / 1000 Ang^3
#
#
#
# Elastic Constant Matrix: (Units=GPa)
#
#
# Indices 1 2 3 4 5 6 
#
# 1 124.0363 53.9565 59.2223 0.0000 0.0000 0.0000
# 2 53.9565 83.9995 53.6104 0.0000 0.0000 0.0000
# 3 59.2223 53.6104 105.0628 0.0000 0.0000 0.0000
# 4 0.0000 0.0000 0.0000 21.2749 0.0000 0.0000
# 5 0.0000 0.0000 0.0000 0.0000 20.6327 0.0000
# 6 0.0000 0.0000 0.0000 0.0000 0.0000 29.5534
#
#
#
# Elastic Compliance Matrix: (Units=1/GPa)
#
#
# Indices 1 2 3 4 5 6 
#
# 1 0.012391 -0.005192 -0.004335 0.000000 0.000000 0.000000
# 2 -0.005192 0.019830 -0.007192 0.000000 0.000000 0.000000
# 3 -0.004335 -0.007192 0.015631 0.000000 0.000000 0.000000
# 4 0.000000 0.000000 0.000000 0.047004 0.000000 0.000000
# 5 0.000000 0.000000 0.000000 0.000000 0.048467 0.000000
# 6 0.000000 0.000000 0.000000 0.000000 0.000000 0.033837
#
#
# Mechanical properties :
#
#
# Convention : Reuss Voigt Hill
#
# Bulk Modulus (GPa) = 69.37747 71.85302 70.61524
# Shear Modulus (GPa) = 23.21234 24.04616 23.62925
#
# Velocity S-wave (km/s) = 3.46641 3.52812 3.49740
# Velocity P-wave (km/s) = 7.20658 7.33429 7.27072
#
# Compressibility (1/GPa) = 0.01441390
#
# Stress axis : x y z
#
# Youngs Moduli (GPa) = 80.70634 50.42823 63.97382
#
# Poissons Ratio (x) = 0.26184 0.27732
# Poissons Ratio (y) = 0.41906 0.46009
# Poissons Ratio (z) = 0.34985 0.36267
#
# Static dielectric constant tensor:
#      x y z
#    x 3.580840 0.000000 0.000000 
#    y 0.000000 3.494420 0.000000 
#    z 0.000000 0.000000 3.361250 
# 
# 
# High freq. dielectric constant tensor:
#      x y z
#    x 1.762350 0.000000 0.000000 
#    y 0.000000 1.745100 0.000000 
#    z 0.000000 0.000000 1.731950 
# 
# From -- ./inp_files/4244.got.cif
#   From: 2010.03.12/outbox.cif.g09.slc.cpg/sg25_3_cif.got.tgz:4244.got - 2010.04.14 03:30:10.
