data_PCOD8166308
_publ_section_title
;
Structure prediction by ZEFSAII (Michael W. Deem and Ramdas Pophale) SiO2 
 PCOD8166308
Probable space group: P M M 2
;
_chemical_formula_sum "Si O2"
_cell_formula_units_Z 32
_cell_length_a 12.985833
_cell_length_b 30.677624
_cell_length_c 5.164996
_cell_angle_alpha 90.000000
_cell_angle_beta 90.000000
_cell_angle_gamma 90.000000
_cell_volume 2057.602710
_symmetry_space_group_name_H-M "P M M 2"
_symmetry_group_IT_number 25
_symmetry_cell_setting 'orthorhombic'
loop_
_space_group_symop_operation_xyz
x,y,z
-x,-y,z
-x,y,z
x,-y,z
loop_
_atom_site_type_symbol
_atom_site_label
_atom_site_fract_x
_atom_site_fract_y
_atom_site_fract_z
Si Si1 0.884011 0.106772 0.077450
Si Si2 0.122226 0.750352 0.559866
Si Si3 0.690688 0.949043 0.044411
Si Si4 0.810212 0.153445 0.581029
Si Si5 0.877067 0.400134 0.045780
Si Si6 0.878299 0.697614 0.056965
Si Si7 0.122758 0.549162 0.545636
Si Si8 0.616375 0.097598 0.547847
O O1 0.810147 0.065161 0.046838
O O2 0.872045 0.128732 0.356856
O O3 0.000000 0.089523 0.048656
O O4 0.860308 0.142472 0.857604
O O5 0.183695 0.795238 0.537099
O O6 0.156368 0.720781 0.319658
O O7 0.000000 0.759532 0.562784
O O8 0.161356 0.725617 0.815010
O O9 0.628858 0.924568 0.268990
O O10 0.683710 0.000000 0.093933
O O11 0.640894 0.937863 0.768442
O O12 0.690575 0.139340 0.576588
O O13 0.835180 0.425206 0.794665
O O14 0.000000 0.399091 0.047346
O O15 0.831884 0.351110 0.047453
O O16 0.835006 0.425865 0.294518
O O17 0.000000 0.694042 0.042063
O O18 0.166115 0.500000 0.547724
O O19 0.000000 0.548356 0.545910
O O20 0.500000 0.114569 0.576098
#
# Coordination Sequence:
#
# PCOD8166308 Si02
#       8
#     4   4   4   4   4   4   4   4
#     4  10  19  32  48  66  91 118 140 166 204 244
#     4  10  17  26  40  57  77  99 127 159 196 243
#     4  10  21  34  50  73  93 113 144 172 200 247
#     4  10  20  32  47  67  87 110 142 174 205 247
#     4   9  15  23  31  41  62  86 114 154 197 240
#     4   9  17  25  35  52  72  98 125 154 199 246
#     4   9  15  21  30  42  56  81 118 159 201 237
#     4  10  21  36  52  69  90 114 140 174 214 246
#
# _framework density 15.552079000000001
#
# number of rings (size 3 to 8) (size 9 to 14) (size 15 to 20)
#    0.000    2.375    0.000    3.750    0.000    7.250 
#    0.000    0.000    0.000    4.500    0.000    0.000 
#    0.000    0.000    0.000    0.000    0.000    0.000 
#
# Total GULP energy -396834.505689 kJ/mol
# GULP energy per Si atom -12401.078303 kJ/mol
# Density = 1.551668 g / cm^3
# Si number density = 15.552079 Si / 1000 Ang^3
#
#
#
# Elastic Constant Matrix: (Units=GPa)
#
#
# Indices 1 2 3 4 5 6 
#
# 1 70.3510 26.6453 17.4782 0.0000 0.0000 0.0000
# 2 26.6453 104.9763 23.9829 0.0000 0.0000 0.0000
# 3 17.4782 23.9829 91.4534 0.0000 0.0000 0.0000
# 4 0.0000 0.0000 0.0000 23.2332 0.0000 0.0000
# 5 0.0000 0.0000 0.0000 0.0000 7.7400 0.0000
# 6 0.0000 0.0000 0.0000 0.0000 0.0000 6.1770
#
#
#
# Elastic Compliance Matrix: (Units=1/GPa)
#
#
# Indices 1 2 3 4 5 6 
#
# 1 0.016109 -0.003601 -0.002134 0.000000 0.000000 0.000000
# 2 -0.003601 0.010938 -0.002180 0.000000 0.000000 0.000000
# 3 -0.002134 -0.002180 0.011914 0.000000 0.000000 0.000000
# 4 0.000000 0.000000 0.000000 0.043042 0.000000 0.000000
# 5 0.000000 0.000000 0.000000 0.000000 0.129200 0.000000
# 6 0.000000 0.000000 0.000000 0.000000 0.000000 0.161890
#
#
# Mechanical properties :
#
#
# Convention : Reuss Voigt Hill
#
# Bulk Modulus (GPa) = 43.23443 44.77706 44.00574
# Shear Modulus (GPa) = 12.60609 20.67499 16.64054
#
# Velocity S-wave (km/s) = 2.85014 3.65005 3.27462
# Velocity P-wave (km/s) = 6.22023 6.82774 6.53105
#
# Compressibility (1/GPa) = 0.02312972
#
# Stress axis : x y z
#
# Youngs Moduli (GPa) = 62.07870 91.42361 83.93376
#
# Poissons Ratio (x) = 0.32923 0.17913
# Poissons Ratio (y) = 0.22355 0.18299
# Poissons Ratio (z) = 0.13249 0.19932
#
# Static dielectric constant tensor:
#      x y z
#    x 2.551380 0.000000 0.000000 
#    y 0.000000 3.008590 0.000000 
#    z 0.000000 0.000000 3.274740 
# 
# 
# High freq. dielectric constant tensor:
#      x y z
#    x 1.527860 0.000000 0.000000 
#    y 0.000000 1.598010 0.000000 
#    z 0.000000 0.000000 1.624060 
# 
# From -- ./inp_files/769.got.cif
#   From: 2010.03.12/outbox.cif.g09.slc.cpg/sg25_1_cif.got.tgz:769.got - 2010.04.14 03:30:10.
