data_PCOD8166177
_publ_section_title
;
Structure prediction by ZEFSAII (Michael W. Deem and Ramdas Pophale) SiO2 
 PCOD8166177
Probable space group: I 21 21 21
;
_chemical_formula_sum "Si O2"
_cell_formula_units_Z 36
_cell_length_a 18.349011
_cell_length_b 7.009782
_cell_length_c 12.077921
_cell_angle_alpha 90.000000
_cell_angle_beta 90.000000
_cell_angle_gamma 90.000000
_cell_volume 1553.493203
_symmetry_space_group_name_H-M "I 21 21 21"
_symmetry_group_IT_number 24
_symmetry_cell_setting 'orthorhombic'
loop_
_space_group_symop_operation_xyz
x,y,z
-x,1/2-y,z
x,-y,1/2-z
1/2-x,y,-z
1/2+x,1/2+y,1/2+z
1/2-x,-y,1/2+z
1/2+x,1/2-y,-z
-x,1/2+y,1/2-z
loop_
_atom_site_type_symbol
_atom_site_label
_atom_site_fract_x
_atom_site_fract_y
_atom_site_fract_z
Si Si1 0.000000 0.250000 0.396436
Si Si2 0.701784 0.756428 0.597069
Si Si3 0.939747 0.109901 0.993560
Si Si4 0.107844 0.000000 0.250000
Si Si5 0.578062 0.722260 0.247747
Si Si6 0.804409 0.000000 0.750000
O O1 0.940673 0.345706 0.315188
O O2 0.033643 0.396891 0.484063
O O3 0.750000 0.659653 0.500000
O O4 0.637903 0.886106 0.550378
O O5 0.664718 0.592066 0.666261
O O6 0.754498 0.898421 0.661387
O O7 0.930806 0.175485 0.866946
O O8 0.000000 0.250000 0.050486
O O9 0.500000 0.750000 0.186175
O O10 0.599891 0.500000 0.250000
O O11 0.643570 0.839710 0.189413
#
# Coordination Sequence:
#
# PCOD8166177 Si02
#       6
#     4   8   8   4   8   4
#     4  12  24  48  86 112 152 200 270 338 384 466
#     4  12  26  50  70 113 163 199 262 320 401 471
#     4  11  24  49  76 113 154 199 266 325 395 468
#     4  12  26  49  81 116 150 212 262 328 400 467
#     4  11  25  47  76 110 152 204 261 316 386 469
#     4  12  26  47  77 108 162 208 256 326 392 471
#
# _framework density 23.173580000000001
#
# number of rings (size 3 to 8) (size 9 to 14) (size 15 to 20)
#    0.000    0.444    5.556    2.667    1.556    3.556 
#    4.000    0.000    0.000    0.000    0.000    0.000 
#    0.000    0.000    0.000    0.000    0.000    0.000 
#
# Total GULP energy -223062.161139 kJ/mol
# GULP energy per Si atom -12392.342285 kJ/mol
# Density = 2.312084 g / cm^3
# Si number density = 23.173580 Si / 1000 Ang^3
#
#
#
# Elastic Constant Matrix: (Units=GPa)
#
#
# Indices 1 2 3 4 5 6 
#
# 1 195.8307 80.2807 60.1377 0.0000 0.0000 0.0000
# 2 80.2807 179.9432 61.2335 0.0000 0.0000 0.0000
# 3 60.1377 61.2335 113.2526 0.0000 0.0000 0.0000
# 4 0.0000 0.0000 0.0000 26.1880 0.0000 0.0000
# 5 0.0000 0.0000 0.0000 0.0000 27.5019 0.0000
# 6 0.0000 0.0000 0.0000 0.0000 0.0000 106.4282
#
#
#
# Elastic Compliance Matrix: (Units=1/GPa)
#
#
# Indices 1 2 3 4 5 6 
#
# 1 0.006740 -0.002193 -0.002394 0.000000 0.000000 0.000000
# 2 -0.002193 0.007524 -0.002904 0.000000 0.000000 0.000000
# 3 -0.002394 -0.002904 0.011671 0.000000 0.000000 0.000000
# 4 0.000000 0.000000 0.000000 0.038185 0.000000 0.000000
# 5 0.000000 0.000000 0.000000 0.000000 0.036361 0.000000
# 6 0.000000 0.000000 0.000000 0.000000 0.000000 0.009396
#
#
# Mechanical properties :
#
#
# Convention : Reuss Voigt Hill
#
# Bulk Modulus (GPa) = 91.28227 99.14780 95.21504
# Shear Modulus (GPa) = 38.90783 51.18191 45.04487
#
# Velocity S-wave (km/s) = 4.10197 4.70471 4.41364
# Velocity P-wave (km/s) = 7.86836 8.50824 8.19455
#
# Compressibility (1/GPa) = 0.01095503
#
# Stress axis : x y z
#
# Youngs Moduli (GPa) = 148.35930 132.91490 85.68414
#
# Poissons Ratio (x) = 0.29143 0.20510
# Poissons Ratio (y) = 0.32530 0.24879
# Poissons Ratio (z) = 0.35512 0.38593
#
# Static dielectric constant tensor:
#      x y z
#    x 5.173780 0.000000 0.000000 
#    y 0.000000 4.305170 0.000000 
#    z 0.000000 0.000000 4.296050 
# 
# 
# High freq. dielectric constant tensor:
#      x y z
#    x 1.945860 0.000000 0.000000 
#    y 0.000000 1.921660 0.000000 
#    z 0.000000 0.000000 1.909120 
# 
# From -- ./inp_files/23657.got.cif
#   From: 2010.03.12/outbox.cif.g09.slc.cpg/sg24_12_cif.got.tgz:23657.got - 2010.04.14 03:06:53.
