data_PCOD8166966
_publ_section_title
;
Structure prediction by ZEFSAII (Michael W. Deem and Ramdas Pophale) SiO2 
 PCOD8166966
Probable space group: P M M 2
;
_chemical_formula_sum "Si O2"
_cell_formula_units_Z 24
_cell_length_a 18.946556
_cell_length_b 7.823727
_cell_length_c 7.746018
_cell_angle_alpha 90.000000
_cell_angle_beta 90.000000
_cell_angle_gamma 90.000000
_cell_volume 1148.213021
_symmetry_space_group_name_H-M "P M M 2"
_symmetry_group_IT_number 25
_symmetry_cell_setting 'orthorhombic'
loop_
_space_group_symop_operation_xyz
x,y,z
-x,-y,z
-x,y,z
x,-y,z
loop_
_atom_site_type_symbol
_atom_site_label
_atom_site_fract_x
_atom_site_fract_y
_atom_site_fract_z
Si Si1 0.421133 0.805713 0.775040
Si Si2 0.174848 0.309091 0.552719
Si Si3 0.920560 0.000000 0.551440
Si Si4 0.079118 0.000000 0.962738
Si Si5 0.674044 0.304767 0.079975
Si Si6 0.333030 0.699370 0.456004
Si Si7 0.176039 0.305317 0.961852
O O1 0.500000 0.730507 0.751909
O O2 0.380254 0.796871 0.594677
O O3 0.424149 0.000000 0.835268
O O4 0.383080 0.706674 0.929253
O O5 0.153027 0.500000 0.489404
O O6 0.118637 0.170738 0.482820
O O7 0.250948 0.257732 0.480078
O O8 0.178911 0.305907 0.757199
O O9 0.921038 0.000000 0.756994
O O10 0.000000 0.000000 0.477617
O O11 0.116792 0.173507 0.030243
O O12 0.000000 0.000000 0.037158
O O13 0.691195 0.500000 0.116633
O O14 0.646236 0.231525 0.263910
O O15 0.749261 0.226276 0.024814
O O16 0.348402 0.500000 0.483837
O O17 0.160714 0.500000 0.028107
#
# Coordination Sequence:
#
# PCOD8166966 Si02
#       7
#     4   4   2   2   4   4   4
#     4  11  25  41  59  87 123 158 191 238 300 358
#     4   9  17  31  53  80 112 151 196 245 294 347
#     4   9  18  30  49  81 115 151 195 240 295 356
#     4   9  18  30  49  81 115 151 195 240 295 356
#     4  10  21  38  62  89 115 152 202 248 294 349
#     4  10  21  38  62  89 115 152 202 248 294 349
#     4   9  17  31  53  80 112 151 196 245 294 347
#
# _framework density 20.902042999999999
#
# number of rings (size 3 to 8) (size 9 to 14) (size 15 to 20)
#    0.000    2.333    1.667    0.500    2.333    3.333 
#    0.000    6.667    0.000    2.000    0.000    4.667 
#    0.000    0.000    0.000    0.000    0.000    0.000 
#
# Total GULP energy -297490.939880 kJ/mol
# GULP energy per Si atom -12395.455828 kJ/mol
# Density = 2.085447 g / cm^3
# Si number density = 20.902043 Si / 1000 Ang^3
#
#
#
# Elastic Constant Matrix: (Units=GPa)
#
#
# Indices 1 2 3 4 5 6 
#
# 1 144.4379 53.8069 56.1189 0.0000 0.0000 0.0000
# 2 53.8069 91.7263 22.5376 0.0000 0.0000 0.0000
# 3 56.1189 22.5376 86.9767 0.0000 0.0000 0.0000
# 4 0.0000 0.0000 0.0000 6.9612 0.0000 0.0000
# 5 0.0000 0.0000 0.0000 0.0000 -0.9686 0.0000
# 6 0.0000 0.0000 0.0000 0.0000 0.0000 28.7621
#
#
#
# Elastic Compliance Matrix: (Units=1/GPa)
#
#
# Indices 1 2 3 4 5 6 
#
# 1 0.011077 -0.005064 -0.005835 0.000000 0.000000 0.000000
# 2 -0.005064 0.013958 -0.000349 0.000000 0.000000 0.000000
# 3 -0.005835 -0.000349 0.015353 0.000000 0.000000 0.000000
# 4 0.000000 0.000000 0.000000 0.143654 0.000000 0.000000
# 5 0.000000 0.000000 0.000000 0.000000 -1.032390 0.000000
# 6 0.000000 0.000000 0.000000 0.000000 0.000000 0.034768
#
#
# Mechanical properties :
#
#
# Convention : Reuss Voigt Hill
#
# Bulk Modulus (GPa) = 55.89339 65.34085 60.61712
# Shear Modulus (GPa) = -6.36846 19.66276 6.64715
#
# Velocity S-wave (km/s) = -1.74741 3.07043 1.78523
# Velocity P-wave (km/s) = 4.76733 6.62559 5.77174
#
# Compressibility (1/GPa) = 0.01789120
#
# Stress axis : x y z
#
# Youngs Moduli (GPa) = 90.27782 71.64097 65.13550
#
# Poissons Ratio (x) = 0.36280 0.38005
# Poissons Ratio (y) = 0.45718 0.02276
# Poissons Ratio (z) = 0.52675 0.02504
#
# Static dielectric constant tensor:
#      x y z
#    x 3.820260 0.000000 0.000000 
#    y 0.000000 3.935430 0.000000 
#    z 0.000000 0.000000 3.691870 
# 
# 
# High freq. dielectric constant tensor:
#      x y z
#    x 1.807410 0.000000 0.000000 
#    y 0.000000 1.815960 0.000000 
#    z 0.000000 0.000000 1.808560 
# 
# From -- ./inp_files/3379.got.cif
#   From: 2010.03.12/outbox.cif.g09.slc.cpg/sg25_2_cif.got.tgz:3379.got - 2010.04.14 03:30:10.
