data_PCOD8166205
_publ_section_title
;
Structure prediction by ZEFSAII (Michael W. Deem and Ramdas Pophale) SiO2 
 PCOD8166205
Probable space group: I 21 21 21
;
_chemical_formula_sum "Si O2"
_cell_formula_units_Z 44
_cell_length_a 9.753039
_cell_length_b 17.334386
_cell_length_c 12.184733
_cell_angle_alpha 90.000000
_cell_angle_beta 90.000000
_cell_angle_gamma 90.000000
_cell_volume 2059.986817
_symmetry_space_group_name_H-M "I 21 21 21"
_symmetry_group_IT_number 24
_symmetry_cell_setting 'orthorhombic'
loop_
_space_group_symop_operation_xyz
x,y,z
-x,1/2-y,z
x,-y,1/2-z
1/2-x,y,-z
1/2+x,1/2+y,1/2+z
1/2-x,-y,1/2+z
1/2+x,1/2-y,-z
-x,1/2+y,1/2-z
loop_
_atom_site_type_symbol
_atom_site_label
_atom_site_fract_x
_atom_site_fract_y
_atom_site_fract_z
Si Si1 0.200589 0.000000 0.750000
Si Si2 0.595802 0.608029 0.646656
Si Si3 0.583768 0.819261 0.328081
Si Si4 0.672526 0.090475 0.722729
Si Si5 0.987947 0.466125 0.932301
Si Si6 0.750000 0.048583 0.500000
Si Si7 0.750000 0.728933 0.500000
O O1 0.294475 0.074766 0.768320
O O2 0.108315 0.979460 0.857530
O O3 0.457832 0.627810 0.715121
O O4 0.565877 0.541140 0.556574
O O5 0.659177 0.681531 0.586944
O O6 0.500000 0.750000 0.266517
O O7 0.694464 0.859396 0.251105
O O8 0.477127 0.883117 0.372023
O O9 0.648238 0.784738 0.437443
O O10 0.664689 0.098394 0.589529
O O11 0.684970 0.000000 0.750000
O O12 0.144194 0.495441 0.931711
#
# Coordination Sequence:
#
# PCOD8166205 Si02
#       7
#     4   8   8   8   8   4   4
#     4  12  22  36  62  98 148 176 232 304 364 428
#     4  12  22  42  63 105 142 189 236 295 373 430
#     4  12  24  41  66 103 140 184 230 296 364 425
#     4  12  24  41  71 102 142 185 238 299 364 433
#     4  12  21  38  64  98 145 181 229 295 365 430
#     4  12  23  42  68 102 133 188 238 296 357 436
#     4  12  25  40  68 102 145 184 234 306 353 432
#
# _framework density 21.359359999999999
#
# number of rings (size 3 to 8) (size 9 to 14) (size 15 to 20)
#    0.000    0.000    8.182    2.727    0.000    0.000 
#    0.000    0.000    4.000    0.000    4.727    0.000 
#    0.000    0.000    0.000    0.000    0.000    0.000 
#
# Total GULP energy -272759.573070 kJ/mol
# GULP energy per Si atom -12398.162412 kJ/mol
# Density = 2.131075 g / cm^3
# Si number density = 21.359360 Si / 1000 Ang^3
#
#
#
# Elastic Constant Matrix: (Units=GPa)
#
#
# Indices 1 2 3 4 5 6 
#
# 1 114.1535 34.1377 40.8874 -0.0002 0.0000 0.0001
# 2 34.1377 71.1628 27.7294 -0.0004 0.0000 0.0001
# 3 40.8874 27.7294 124.1351 -0.0016 0.0002 0.0003
# 4 -0.0002 -0.0004 -0.0016 28.8589 0.0001 0.0002
# 5 0.0000 0.0000 0.0002 0.0001 51.9812 0.0000
# 6 0.0001 0.0001 0.0003 0.0002 0.0000 26.8315
#
#
#
# Elastic Compliance Matrix: (Units=1/GPa)
#
#
# Indices 1 2 3 4 5 6 
#
# 1 0.010981 -0.004226 -0.002673 0.000000 0.000000 0.000000
# 2 -0.004226 0.017019 -0.002410 0.000000 0.000000 0.000000
# 3 -0.002673 -0.002410 0.009474 0.000000 0.000000 0.000000
# 4 0.000000 0.000000 0.000000 0.034651 0.000000 0.000000
# 5 0.000000 0.000000 0.000000 0.000000 0.019238 0.000000
# 6 0.000000 0.000000 0.000000 0.000000 0.000000 0.037270
#
#
# Mechanical properties :
#
#
# Convention : Reuss Voigt Hill
#
# Bulk Modulus (GPa) = 53.03156 57.21781 55.12469
# Shear Modulus (GPa) = 32.56551 35.31410 33.93980
#
# Velocity S-wave (km/s) = 3.90891 4.07053 3.99054
# Velocity P-wave (km/s) = 6.72718 6.99561 6.86271
#
# Compressibility (1/GPa) = 0.01885669
#
# Stress axis : x y z
#
# Youngs Moduli (GPa) = 91.06277 58.75902 105.54762
#
# Poissons Ratio (x) = 0.24834 0.28212
# Poissons Ratio (y) = 0.38487 0.25432
# Poissons Ratio (z) = 0.24341 0.14158
#
# Static dielectric constant tensor:
#      x y z
#    x 4.217660 0.000000 0.000000 
#    y 0.000000 3.835500 0.000000 
#    z 0.000000 0.000000 4.095120 
# 
# 
# High freq. dielectric constant tensor:
#      x y z
#    x 1.863090 0.000000 0.000000 
#    y 0.000000 1.803710 0.000000 
#    z 0.000000 0.000000 1.831060 
# 
# From -- ./inp_files/24761.got.cif
#   From: 2010.03.12/outbox.cif.g09.slc.cpg/sg24_13_cif.got.tgz:24761.got - 2010.04.14 03:06:53.
