data_PCOD8166161
_publ_section_title
;
Structure prediction by ZEFSAII (Michael W. Deem and Ramdas Pophale) SiO2 
 PCOD8166161
Probable space group: I 21 21 21
;
_chemical_formula_sum "Si O2"
_cell_formula_units_Z 48
_cell_length_a 10.920964
_cell_length_b 8.630399
_cell_length_c 23.677212
_cell_angle_alpha 90.000000
_cell_angle_beta 90.000000
_cell_angle_gamma 90.000000
_cell_volume 2231.631139
_symmetry_space_group_name_H-M "I 21 21 21"
_symmetry_group_IT_number 24
_symmetry_cell_setting 'orthorhombic'
loop_
_space_group_symop_operation_xyz
x,y,z
-x,1/2-y,z
x,-y,1/2-z
1/2-x,y,-z
1/2+x,1/2+y,1/2+z
1/2-x,-y,1/2+z
1/2+x,1/2-y,-z
-x,1/2+y,1/2-z
loop_
_atom_site_type_symbol
_atom_site_label
_atom_site_fract_x
_atom_site_fract_y
_atom_site_fract_z
Si Si1 0.085034 0.441466 0.613482
Si Si2 0.000000 0.250000 0.186194
Si Si3 0.324587 0.110025 0.351488
Si Si4 0.446638 0.416284 0.520310
Si Si5 0.683114 0.555019 0.554231
Si Si6 0.690851 0.884241 0.600302
Si Si7 0.832711 0.500000 0.250000
O O1 0.141130 0.287789 0.640715
O O2 0.074679 0.421503 0.546073
O O3 0.178994 0.578085 0.629937
O O4 0.952127 0.484489 0.639569
O O5 0.912774 0.143687 0.147351
O O6 0.918575 0.367008 0.223197
O O7 0.221064 0.054085 0.394612
O O8 0.261421 0.084152 0.291698
O O9 0.500000 0.250000 0.538474
O O10 0.539835 0.548346 0.541480
O O11 0.330559 0.466935 0.558489
O O12 0.750000 0.485243 0.500000
O O13 0.716421 0.732609 0.563690
#
# Coordination Sequence:
#
# PCOD8166161 Si02
#       7
#     8   4   8   8   8   8   4
#     4  11  24  44  70 105 147 192 235 278 359 446
#     4  12  28  52  74 104 134 184 252 302 366 420
#     4  11  24  49  69 103 142 191 246 293 355 428
#     4  12  21  39  67 104 150 193 231 281 347 440
#     4  12  21  40  67  99 151 188 229 296 359 425
#     4  12  25  43  68 111 143 183 239 290 368 428
#     4  12  28  54  76 100 136 188 250 314 354 414
#
# _framework density 21.508931
#
# number of rings (size 3 to 8) (size 9 to 14) (size 15 to 20)
#    0.000    0.333    6.667    2.500    2.333    0.667 
#    7.500    0.000    0.000    0.000    0.000    0.000 
#    0.000    0.000    0.000    0.000    0.000    0.000 
#
# Total GULP energy -297518.827612 kJ/mol
# GULP energy per Si atom -12396.617817 kJ/mol
# Density = 2.145998 g / cm^3
# Si number density = 21.508931 Si / 1000 Ang^3
#
#
#
# Elastic Constant Matrix: (Units=GPa)
#
#
# Indices 1 2 3 4 5 6 
#
# 1 131.0515 38.1233 55.3980 0.0000 0.0000 0.0000
# 2 38.1233 84.0461 37.6969 0.0000 0.0000 0.0000
# 3 55.3980 37.6969 134.6487 0.0000 0.0000 0.0000
# 4 0.0000 0.0000 0.0000 24.1459 0.0000 0.0000
# 5 0.0000 0.0000 0.0000 0.0000 26.4221 0.0000
# 6 0.0000 0.0000 0.0000 0.0000 0.0000 47.1241
#
#
#
# Elastic Compliance Matrix: (Units=1/GPa)
#
#
# Indices 1 2 3 4 5 6 
#
# 1 0.009872 -0.003038 -0.003211 0.000000 0.000000 0.000000
# 2 -0.003038 0.014542 -0.002821 0.000000 0.000000 0.000000
# 3 -0.003211 -0.002821 0.009538 0.000000 0.000000 0.000000
# 4 0.000000 0.000000 0.000000 0.041415 0.000000 0.000000
# 5 0.000000 0.000000 0.000000 0.000000 0.037847 0.000000
# 6 0.000000 0.000000 0.000000 0.000000 0.000000 0.021221
#
#
# Mechanical properties :
#
#
# Convention : Reuss Voigt Hill
#
# Bulk Modulus (GPa) = 63.24735 68.02031 65.63383
# Shear Modulus (GPa) = 31.67691 34.10695 32.89193
#
# Velocity S-wave (km/s) = 3.84178 3.98642 3.91477
# Velocity P-wave (km/s) = 7.01057 7.27197 7.14247
#
# Compressibility (1/GPa) = 0.01581094
#
# Stress axis : x y z
#
# Youngs Moduli (GPa) = 101.30100 68.76855 104.84681
#
# Poissons Ratio (x) = 0.20889 0.33667
# Poissons Ratio (y) = 0.30770 0.29582
# Poissons Ratio (z) = 0.32528 0.19402
#
# Static dielectric constant tensor:
#      x y z
#    x 4.597180 0.000000 0.000000 
#    y 0.000000 3.802710 0.000000 
#    z 0.000000 0.000000 3.847130 
# 
# 
# High freq. dielectric constant tensor:
#      x y z
#    x 1.871200 0.000000 0.000000 
#    y 0.000000 1.842740 0.000000 
#    z 0.000000 0.000000 1.831300 
# 
# From -- ./inp_files/35566.got.cif
#   From: 2010.03.12/outbox.cif.g09.slc.cpg/sg24_18_cif.got.tgz:35566.got - 2010.04.14 03:06:53.
