data_PCOD8166315
_publ_section_title
;
Structure prediction by ZEFSAII (Michael W. Deem and Ramdas Pophale) SiO2 
 PCOD8166315
Probable space group: P M M 2
;
_chemical_formula_sum "Si O2"
_cell_formula_units_Z 32
_cell_length_a 14.218609
_cell_length_b 9.499933
_cell_length_c 15.554220
_cell_angle_alpha 90.000000
_cell_angle_beta 90.000000
_cell_angle_gamma 90.000000
_cell_volume 2100.999221
_symmetry_space_group_name_H-M "P M M 2"
_symmetry_group_IT_number 25
_symmetry_cell_setting 'orthorhombic'
loop_
_space_group_symop_operation_xyz
x,y,z
-x,-y,z
-x,y,z
x,-y,z
loop_
_atom_site_type_symbol
_atom_site_label
_atom_site_fract_x
_atom_site_fract_y
_atom_site_fract_z
Si Si1 0.106713 0.836886 0.290500
Si Si2 0.612088 0.843018 0.667943
Si Si3 0.390678 0.662127 0.174467
Si Si4 0.395463 0.167260 0.855291
Si Si5 0.704000 0.167653 0.025536
Si Si6 0.724053 0.665230 0.343235
Si Si7 0.391388 0.336230 0.509348
Si Si8 0.898418 0.833231 0.095580
O O1 0.176801 0.745723 0.348579
O O2 0.117411 0.781504 0.192877
O O3 0.000000 0.813462 0.322829
O O4 0.134989 0.000000 0.297565
O O5 0.500000 0.845703 0.668616
O O6 0.644496 0.784420 0.761918
O O7 0.650528 0.743450 0.592481
O O8 0.651764 0.000000 0.651944
O O9 0.500000 0.684015 0.195220
O O10 0.369184 0.500000 0.151058
O O11 0.362501 0.760223 0.095307
O O12 0.333223 0.709651 0.258435
O O13 0.500000 0.229489 0.871982
O O14 0.401856 0.000000 0.854575
O O15 0.326858 0.219309 0.931027
O O16 0.812035 0.219245 0.036988
O O17 0.694045 0.000000 0.036840
O O18 0.743822 0.500000 0.344843
O O19 0.664335 0.713384 0.425485
O O20 0.500000 0.297359 0.494014
O O21 0.378206 0.500000 0.527277
O O22 0.000000 0.775612 0.061378
O O23 0.902393 0.000000 0.096438
#
# Coordination Sequence:
#
# PCOD8166315 Si02
#       8
#     4   4   4   4   4   4   4   4
#     4   9  17  30  46  63  85 111 140 179 222 253
#     4   8  14  26  42  59  81 108 138 176 219 256
#     4  10  20  31  40  55  86 121 144 167 206 250
#     4   8  14  24  39  61  86 108 135 175 217 251
#     4  10  17  27  45  64  82 111 149 179 204 246
#     4  10  19  30  44  62  85 114 146 176 209 252
#     4   9  17  29  44  62  85 113 145 179 213 250
#     4   8  14  25  41  61  84 108 136 175 217 247
#
# _framework density 15.230848
#
# number of rings (size 3 to 8) (size 9 to 14) (size 15 to 20)
#    0.000    3.000    1.250    2.250    0.000    3.000 
#    0.000    0.625    0.000    4.875    0.000    0.875 
#    0.000    3.000    0.000    0.000    0.000    0.000 
#
# Total GULP energy -396629.849883 kJ/mol
# GULP energy per Si atom -12394.682809 kJ/mol
# Density = 1.519618 g / cm^3
# Si number density = 15.230848 Si / 1000 Ang^3
#
#
#
# Elastic Constant Matrix: (Units=GPa)
#
#
# Indices 1 2 3 4 5 6 
#
# 1 87.8719 29.8813 50.8793 0.0000 0.0000 0.0000
# 2 29.8813 34.0485 39.5153 0.0000 0.0000 0.0000
# 3 50.8793 39.5153 122.6438 0.0000 0.0000 0.0000
# 4 0.0000 0.0000 0.0000 20.3552 0.0000 0.0000
# 5 0.0000 0.0000 0.0000 0.0000 11.5201 0.0000
# 6 0.0000 0.0000 0.0000 0.0000 0.0000 19.9168
#
#
#
# Elastic Compliance Matrix: (Units=1/GPa)
#
#
# Indices 1 2 3 4 5 6 
#
# 1 0.017173 -0.010866 -0.003623 0.000000 0.000000 0.000000
# 2 -0.010866 0.053787 -0.012822 0.000000 0.000000 0.000000
# 3 -0.003623 -0.012822 0.013788 0.000000 0.000000 0.000000
# 4 0.000000 0.000000 0.000000 0.049127 0.000000 0.000000
# 5 0.000000 0.000000 0.000000 0.000000 0.086805 0.000000
# 6 0.000000 0.000000 0.000000 0.000000 0.000000 0.050209
#
#
# Mechanical properties :
#
#
# Convention : Reuss Voigt Hill
#
# Bulk Modulus (GPa) = 33.19506 53.90176 43.54841
# Shear Modulus (GPa) = 14.90071 18.64431 16.77251
#
# Velocity S-wave (km/s) = 3.13121 3.50253 3.32206
# Velocity P-wave (km/s) = 5.90886 7.19886 6.58552
#
# Compressibility (1/GPa) = 0.03012497
#
# Stress axis : x y z
#
# Youngs Moduli (GPa) = 58.22980 18.59187 72.52670
#
# Poissons Ratio (x) = 0.20203 0.26279
# Poissons Ratio (y) = 0.63275 0.92993
# Poissons Ratio (z) = 0.21099 0.23838
#
# Static dielectric constant tensor:
#      x y z
#    x 3.026090 0.000000 0.000000 
#    y 0.000000 2.723290 0.000000 
#    z 0.000000 0.000000 3.086080 
# 
# 
# High freq. dielectric constant tensor:
#      x y z
#    x 1.567910 0.000000 0.000000 
#    y 0.000000 1.560500 0.000000 
#    z 0.000000 0.000000 1.574560 
# 
# From -- ./inp_files/5702.got.cif
#   From: 2010.03.12/outbox.cif.g09.slc.cpg/sg25_3_cif.got.tgz:5702.got - 2010.04.14 03:30:10.
