data_PCOD8166445
_publ_section_title
;
Structure prediction by ZEFSAII (Michael W. Deem and Ramdas Pophale) SiO2 
 PCOD8166445
Probable space group: P M M 2
;
_chemical_formula_sum "Si O2"
_cell_formula_units_Z 28
_cell_length_a 15.306941
_cell_length_b 8.759590
_cell_length_c 12.564063
_cell_angle_alpha 90.000000
_cell_angle_beta 90.000000
_cell_angle_gamma 90.000000
_cell_volume 1684.621320
_symmetry_space_group_name_H-M "P M M 2"
_symmetry_group_IT_number 25
_symmetry_cell_setting 'orthorhombic'
loop_
_space_group_symop_operation_xyz
x,y,z
-x,-y,z
-x,y,z
x,-y,z
loop_
_atom_site_type_symbol
_atom_site_label
_atom_site_fract_x
_atom_site_fract_y
_atom_site_fract_z
Si Si1 0.900316 0.320892 0.954660
Si Si2 0.897484 0.323333 0.385066
Si Si3 0.103756 0.828436 0.169697
Si Si4 0.233874 0.179821 0.542823
Si Si5 0.594970 0.178463 0.779677
Si Si6 0.405617 0.322558 0.550577
Si Si7 0.767452 0.679327 0.774952
O O1 0.893151 0.500000 0.974332
O O2 0.844926 0.268678 0.852780
O O3 0.000000 0.270656 0.933228
O O4 0.860577 0.241006 0.059528
O O5 0.875037 0.500000 0.399761
O O6 0.862914 0.270469 0.269490
O O7 0.850330 0.226972 0.475938
O O8 0.000000 0.290698 0.397114
O O9 0.000000 0.823546 0.166140
O O10 0.139208 0.000000 0.182583
O O11 0.320891 0.257034 0.488582
O O12 0.219931 0.235133 0.663516
O O13 0.245089 0.000000 0.540684
O O14 0.500000 0.216610 0.832784
O O15 0.590478 0.224433 0.657054
O O16 0.675273 0.272722 0.831120
O O17 0.615392 0.000000 0.789096
O O18 0.500000 0.301994 0.490495
O O19 0.390204 0.500000 0.577797
O O20 0.769380 0.500000 0.753994
#
# Coordination Sequence:
#
# PCOD8166445 Si02
#       7
#     4   4   4   4   4   4   4
#     4   9  18  32  48  66  90 121 155 188 223 266
#     4  10  20  34  51  68  90 122 157 192 229 271
#     4   9  17  30  49  71  91 112 146 192 234 269
#     4  11  21  31  45  67  97 127 155 190 231 277
#     4   9  16  26  41  61  86 116 149 187 231 273
#     4   9  16  27  44  64  87 117 153 190 226 268
#     4  10  19  30  45  66  93 125 159 190 223 269
#
# _framework density 16.620944999999999
#
# number of rings (size 3 to 8) (size 9 to 14) (size 15 to 20)
#    0.000    2.429    0.000    5.143    0.000    6.000 
#    0.000    1.429    0.000    0.000    0.000    1.000 
#    0.000    3.429    0.000    0.000    0.000    0.000 
#
# Total GULP energy -346997.452056 kJ/mol
# GULP energy per Si atom -12392.766145 kJ/mol
# Density = 1.658312 g / cm^3
# Si number density = 16.620945 Si / 1000 Ang^3
#
#
#
# Elastic Constant Matrix: (Units=GPa)
#
#
# Indices 1 2 3 4 5 6 
#
# 1 92.0697 39.5269 48.2285 0.0000 0.0000 0.0000
# 2 39.5269 74.4166 36.2931 0.0000 0.0000 0.0000
# 3 48.2285 36.2931 75.3554 0.0000 0.0000 0.0000
# 4 0.0000 0.0000 0.0000 15.5497 0.0000 0.0000
# 5 0.0000 0.0000 0.0000 0.0000 2.0196 0.0000
# 6 0.0000 0.0000 0.0000 0.0000 0.0000 25.5630
#
#
#
# Elastic Compliance Matrix: (Units=1/GPa)
#
#
# Indices 1 2 3 4 5 6 
#
# 1 0.017688 -0.005063 -0.008882 0.000000 0.000000 0.000000
# 2 -0.005063 0.019013 -0.005916 0.000000 0.000000 0.000000
# 3 -0.008882 -0.005916 0.021804 0.000000 0.000000 0.000000
# 4 0.000000 0.000000 0.000000 0.064310 0.000000 0.000000
# 5 0.000000 0.000000 0.000000 0.000000 0.495139 0.000000
# 6 0.000000 0.000000 0.000000 0.000000 0.000000 0.039119
#
#
# Mechanical properties :
#
#
# Convention : Reuss Voigt Hill
#
# Bulk Modulus (GPa) = 53.24294 54.43764 53.84029
# Shear Modulus (GPa) = 7.11181 16.47935 11.79558
#
# Velocity S-wave (km/s) = 2.07078 3.15219 2.66688
# Velocity P-wave (km/s) = 6.14985 6.78763 6.47660
#
# Compressibility (1/GPa) = 0.01878183
#
# Stress axis : x y z
#
# Youngs Moduli (GPa) = 56.53710 52.59639 45.86241
#
# Poissons Ratio (x) = 0.26631 0.40733
# Poissons Ratio (y) = 0.28626 0.27134
# Poissons Ratio (z) = 0.50214 0.31118
#
# Static dielectric constant tensor:
#      x y z
#    x 3.687960 0.000000 0.000000 
#    y 0.000000 3.233990 0.000000 
#    z 0.000000 0.000000 2.864130 
# 
# 
# High freq. dielectric constant tensor:
#      x y z
#    x 1.638320 0.000000 0.000000 
#    y 0.000000 1.657000 0.000000 
#    z 0.000000 0.000000 1.595110 
# 
# From -- ./inp_files/5891.got.cif
#   From: 2010.03.12/outbox.cif.g09.slc.cpg/sg25_3_cif.got.tgz:5891.got - 2010.04.14 03:30:10.
