data_PCOD8166832
_publ_section_title
;
Structure prediction by ZEFSAII (Michael W. Deem and Ramdas Pophale) SiO2 
 PCOD8166832
Probable space group: P M M 2
;
_chemical_formula_sum "Si O2"
_cell_formula_units_Z 32
_cell_length_a 14.645889
_cell_length_b 8.686636
_cell_length_c 12.448953
_cell_angle_alpha 90.000000
_cell_angle_beta 90.000000
_cell_angle_gamma 90.000000
_cell_volume 1583.799455
_symmetry_space_group_name_H-M "P M M 2"
_symmetry_group_IT_number 25
_symmetry_cell_setting 'orthorhombic'
loop_
_space_group_symop_operation_xyz
x,y,z
-x,-y,z
-x,y,z
x,-y,z
loop_
_atom_site_type_symbol
_atom_site_label
_atom_site_fract_x
_atom_site_fract_y
_atom_site_fract_z
Si Si1 0.600344 0.675051 0.967160
Si Si2 0.101926 0.321104 0.867053
Si Si3 0.158860 0.324337 0.103675
Si Si4 0.718414 0.178887 0.791924
Si Si5 0.096990 0.322537 0.334889
Si Si6 0.603516 0.317746 0.600714
Si Si7 0.340409 0.821083 0.168881
Si Si8 0.705317 0.683658 0.388370
O O1 0.500000 0.684807 0.913243
O O2 0.636514 0.500000 0.964358
O O3 0.672199 0.781293 0.905255
O O4 0.589816 0.735474 0.089008
O O5 0.120745 0.500000 0.846038
O O6 0.175345 0.227077 0.796840
O O7 0.000000 0.275180 0.828333
O O8 0.106900 0.283584 0.993961
O O9 0.196626 0.500000 0.100752
O O10 0.093489 0.303624 0.205902
O O11 0.241236 0.206001 0.117675
O O12 0.663571 0.268935 0.701269
O O13 0.711275 0.000000 0.767305
O O14 0.097220 0.500000 0.367563
O O15 0.189679 0.250307 0.385988
O O16 0.000000 0.249136 0.377040
O O17 0.500000 0.250817 0.606758
O O18 0.599105 0.500000 0.598119
O O19 0.654104 0.255780 0.494079
O O20 0.349826 0.748949 0.287068
O O21 0.363866 0.000000 0.175111
O O22 0.706281 0.500000 0.380100
#
# Coordination Sequence:
#
# PCOD8166832 Si02
#       8
#     4   4   4   4   4   4   4   4
#     4  11  23  39  60  84 113 153 198 243 294 356
#     4  10  20  35  59  88 118 158 205 245 284 341
#     4   9  16  29  51  78 113 156 200 241 279 331
#     4  12  25  40  60  87 121 154 189 244 308 363
#     4   8  13  24  47  80 113 144 184 234 284 332
#     4  10  22  42  66  87 109 147 202 257 305 358
#     4  11  21  33  53  84 123 159 189 232 295 358
#     4   9  19  36  58  83 112 149 197 249 295 346
#
# _framework density 20.204575999999999
#
# number of rings (size 3 to 8) (size 9 to 14) (size 15 to 20)
#    0.000    2.000    1.250    4.125    0.000    5.500 
#    0.000    1.875    0.000   11.250    0.000    0.000 
#    0.000    0.000    0.000    0.000    0.000    0.000 
#
# Total GULP energy -396630.486639 kJ/mol
# GULP energy per Si atom -12394.702707 kJ/mol
# Density = 2.015859 g / cm^3
# Si number density = 20.204576 Si / 1000 Ang^3
#
#
#
# Elastic Constant Matrix: (Units=GPa)
#
#
# Indices 1 2 3 4 5 6 
#
# 1 131.5775 14.0742 49.7611 0.0000 0.0000 0.0000
# 2 14.0742 33.6361 7.8830 0.0000 0.0000 0.0000
# 3 49.7611 7.8830 99.3623 0.0000 0.0000 0.0000
# 4 0.0000 0.0000 0.0000 16.6165 0.0000 0.0000
# 5 0.0000 0.0000 0.0000 0.0000 23.5309 0.0000
# 6 0.0000 0.0000 0.0000 0.0000 0.0000 0.8208
#
#
#
# Elastic Compliance Matrix: (Units=1/GPa)
#
#
# Indices 1 2 3 4 5 6 
#
# 1 0.009657 -0.002962 -0.004601 0.000000 0.000000 0.000000
# 2 -0.002962 0.031202 -0.000992 0.000000 0.000000 0.000000
# 3 -0.004601 -0.000992 0.012447 0.000000 0.000000 0.000000
# 4 0.000000 0.000000 0.000000 0.060181 0.000000 0.000000
# 5 0.000000 0.000000 0.000000 0.000000 0.042497 0.000000
# 6 0.000000 0.000000 0.000000 0.000000 0.000000 1.218375
#
#
# Mechanical properties :
#
#
# Convention : Reuss Voigt Hill
#
# Bulk Modulus (GPa) = 27.62802 45.33474 36.48138
# Shear Modulus (GPa) = 3.56243 21.05080 12.30662
#
# Velocity S-wave (km/s) = 1.32929 3.23132 2.47067
# Velocity P-wave (km/s) = 4.00747 6.03395 5.12193
#
# Compressibility (1/GPa) = 0.03619513
#
# Stress axis : x y z
#
# Youngs Moduli (GPa) = 103.55050 32.04931 80.33919
#
# Poissons Ratio (x) = 0.09494 0.36967
# Poissons Ratio (y) = 0.30676 0.07968
# Poissons Ratio (z) = 0.47647 0.03179
#
# Static dielectric constant tensor:
#      x y z
#    x 3.926460 0.000000 0.000000 
#    y 0.000000 3.309860 0.000000 
#    z 0.000000 0.000000 3.599450 
# 
# 
# High freq. dielectric constant tensor:
#      x y z
#    x 1.800810 0.000000 0.000000 
#    y 0.000000 1.755800 0.000000 
#    z 0.000000 0.000000 1.772130 
# 
# From -- ./inp_files/4910.got.cif
#   From: 2010.03.12/outbox.cif.g09.slc.cpg/sg25_3_cif.got.tgz:4910.got - 2010.04.14 03:30:10.
