data_PCOD8166199
_publ_section_title
;
Structure prediction by ZEFSAII (Michael W. Deem and Ramdas Pophale) SiO2 
 PCOD8166199
Probable space group: I 21 21 21
;
_chemical_formula_sum "Si O2"
_cell_formula_units_Z 20
_cell_length_a 23.141692
_cell_length_b 5.124708
_cell_length_c 7.078009
_cell_angle_alpha 90.000000
_cell_angle_beta 90.000000
_cell_angle_gamma 90.000000
_cell_volume 839.412331
_symmetry_space_group_name_H-M "I 21 21 21"
_symmetry_group_IT_number 24
_symmetry_cell_setting 'orthorhombic'
loop_
_space_group_symop_operation_xyz
x,y,z
-x,1/2-y,z
x,-y,1/2-z
1/2-x,y,-z
1/2+x,1/2+y,1/2+z
1/2-x,-y,1/2+z
1/2+x,1/2-y,-z
-x,1/2+y,1/2-z
loop_
_atom_site_type_symbol
_atom_site_label
_atom_site_fract_x
_atom_site_fract_y
_atom_site_fract_z
Si Si1 0.804535 0.000000 0.250000
Si Si2 0.132235 0.125637 0.455991
Si Si3 0.274803 0.000000 0.250000
Si Si4 0.036631 0.000000 0.750000
O O1 0.848188 0.929666 0.074609
O O2 0.764781 0.751002 0.278258
O O3 0.073909 0.104125 0.574269
O O4 0.123294 0.000000 0.250000
O O5 0.185801 0.992675 0.563674
O O6 0.000000 0.250000 0.818627
#
# Coordination Sequence:
#
# PCOD8166199 Si02
#       4
#     4   8   4   4
#     4  12  26  43  74 114 158 199 238 288 360 458
#     4  11  28  46  76 112 149 196 254 298 365 455
#     4  11  28  44  68 114 166 202 230 289 368 446
#     4  11  30  55  78 102 144 193 256 333 382 412
#
# _framework density 23.82619
#
# number of rings (size 3 to 8) (size 9 to 14) (size 15 to 20)
#    0.000    0.800    2.000    1.200   16.800    4.800 
#    0.000    0.000    0.000    0.000    0.000    0.000 
#    0.000    0.000    0.000    0.000    0.000    0.000 
#
# Total GULP energy -123889.361849 kJ/mol
# GULP energy per Si atom -12388.936185 kJ/mol
# Density = 2.377196 g / cm^3
# Si number density = 23.826190 Si / 1000 Ang^3
#
#
#
# Elastic Constant Matrix: (Units=GPa)
#
#
# Indices 1 2 3 4 5 6 
#
# 1 166.7615 85.1454 72.4578 0.0000 0.0000 0.0000
# 2 85.1454 170.7854 51.6896 0.0000 0.0000 0.0000
# 3 72.4578 51.6896 168.3706 0.0000 0.0000 0.0000
# 4 0.0000 0.0000 0.0000 34.9169 0.0000 0.0000
# 5 0.0000 0.0000 0.0000 0.0000 40.9743 0.0000
# 6 0.0000 0.0000 0.0000 0.0000 0.0000 48.4165
#
#
#
# Elastic Compliance Matrix: (Units=1/GPa)
#
#
# Indices 1 2 3 4 5 6 
#
# 1 0.009088 -0.003690 -0.002778 0.000000 0.000000 0.000000
# 2 -0.003690 0.007953 -0.000854 0.000000 0.000000 0.000000
# 3 -0.002778 -0.000854 0.007397 0.000000 0.000000 0.000000
# 4 0.000000 0.000000 0.000000 0.028639 0.000000 0.000000
# 5 0.000000 0.000000 0.000000 0.000000 0.024406 0.000000
# 6 0.000000 0.000000 0.000000 0.000000 0.000000 0.020654
#
#
# Mechanical properties :
#
#
# Convention : Reuss Voigt Hill
#
# Bulk Modulus (GPa) = 102.09783 102.72258 102.41020
# Shear Modulus (GPa) = 43.08672 44.63651 43.86162
#
# Velocity S-wave (km/s) = 4.25711 4.33300 4.29522
# Velocity P-wave (km/s) = 8.19196 8.26076 8.22643
#
# Compressibility (1/GPa) = 0.00979453
#
# Stress axis : x y z
#
# Youngs Moduli (GPa) = 110.03980 125.73444 135.19174
#
# Poissons Ratio (x) = 0.46394 0.37557
# Poissons Ratio (y) = 0.40603 0.11542
# Poissons Ratio (z) = 0.30570 0.10734
#
# Static dielectric constant tensor:
#      x y z
#    x 4.568260 0.000000 0.000000 
#    y 0.000000 3.983490 0.000000 
#    z 0.000000 0.000000 4.484240 
# 
# 
# High freq. dielectric constant tensor:
#      x y z
#    x 1.945650 0.000000 0.000000 
#    y 0.000000 1.956100 0.000000 
#    z 0.000000 0.000000 1.961240 
# 
# From -- ./inp_files/15527.got.cif
#   From: 2010.03.12/outbox.cif.g09.slc.cpg/sg24_8_cif.got.tgz:15527.got - 2010.04.14 03:06:53.
