data_PCOD8166102
_publ_section_title
;
Structure prediction by ZEFSAII (Michael W. Deem and Ramdas Pophale) SiO2 
 PCOD8166102
Probable space group: I 21 21 21
;
_chemical_formula_sum "Si O2"
_cell_formula_units_Z 44
_cell_length_a 14.989565
_cell_length_b 17.628447
_cell_length_c 7.991464
_cell_angle_alpha 90.000000
_cell_angle_beta 90.000000
_cell_angle_gamma 90.000000
_cell_volume 2111.686441
_symmetry_space_group_name_H-M "I 21 21 21"
_symmetry_group_IT_number 24
_symmetry_cell_setting 'orthorhombic'
loop_
_space_group_symop_operation_xyz
x,y,z
-x,1/2-y,z
x,-y,1/2-z
1/2-x,y,-z
1/2+x,1/2+y,1/2+z
1/2-x,-y,1/2+z
1/2+x,1/2-y,-z
-x,1/2+y,1/2-z
loop_
_atom_site_type_symbol
_atom_site_label
_atom_site_fract_x
_atom_site_fract_y
_atom_site_fract_z
Si Si1 0.665720 0.279079 0.620091
Si Si2 0.838856 0.446204 0.398647
Si Si3 0.482878 0.469847 0.436072
Si Si4 0.933144 0.807204 0.854214
Si Si5 0.252773 0.649286 0.691737
Si Si6 0.141832 0.500000 0.250000
O O1 0.750000 0.281838 0.500000
O O2 0.635379 0.363165 0.676551
O O3 0.586709 0.241768 0.517719
O O4 0.688089 0.224499 0.777265
O O5 0.813266 0.500000 0.250000
O O6 0.750000 0.434815 0.500000
O O7 0.915928 0.487040 0.507761
O O8 0.459793 0.500000 0.250000
O O9 0.483093 0.379848 0.424481
O O10 0.417642 0.504830 0.579644
O O11 0.847461 0.835719 0.752967
O O12 0.000000 0.750000 0.748916
O O13 0.250000 0.630067 0.500000
O O14 0.296477 0.574577 0.776767
#
# Coordination Sequence:
#
# PCOD8166102 Si02
#       6
#     8   8   8   8   8   4
#     4   9  20  40  65  87 127 180 226 277 358 425
#     4  11  23  43  67  97 136 186 241 305 366 425
#     4  12  25  43  69 104 139 184 241 294 354 441
#     4  11  22  44  69  93 132 188 232 278 354 440
#     4  11  25  42  67 106 139 182 235 300 366 439
#     4  12  26  44  70 104 148 184 234 296 378 432
#
# _framework density 20.836427
#
# number of rings (size 3 to 8) (size 9 to 14) (size 15 to 20)
#    0.000    1.091    4.545    1.636    3.818    0.727 
#    3.273    0.909    0.000    0.000    0.000    0.000 
#    0.000    0.000    0.000    0.000    0.000    0.000 
#
# Total GULP energy -272619.123131 kJ/mol
# GULP energy per Si atom -12391.778324 kJ/mol
# Density = 2.078900 g / cm^3
# Si number density = 20.836427 Si / 1000 Ang^3
#
#
#
# Elastic Constant Matrix: (Units=GPa)
#
#
# Indices 1 2 3 4 5 6 
#
# 1 115.4501 34.8602 26.4711 0.0000 0.0000 0.0000
# 2 34.8602 137.0782 35.9343 0.0000 0.0000 0.0000
# 3 26.4711 35.9343 82.0076 0.0000 0.0000 0.0000
# 4 0.0000 0.0000 0.0000 49.2526 0.0000 0.0000
# 5 0.0000 0.0000 0.0000 0.0000 25.4100 0.0000
# 6 0.0000 0.0000 0.0000 0.0000 0.0000 44.9962
#
#
#
# Elastic Compliance Matrix: (Units=1/GPa)
#
#
# Indices 1 2 3 4 5 6 
#
# 1 0.009761 -0.001871 -0.002331 0.000000 0.000000 0.000000
# 2 -0.001871 0.008601 -0.003165 0.000000 0.000000 0.000000
# 3 -0.002331 -0.003165 0.014333 0.000000 0.000000 0.000000
# 4 0.000000 0.000000 0.000000 0.020303 0.000000 0.000000
# 5 0.000000 0.000000 0.000000 0.000000 0.039355 0.000000
# 6 0.000000 0.000000 0.000000 0.000000 0.000000 0.022224
#
#
# Mechanical properties :
#
#
# Convention : Reuss Voigt Hill
#
# Bulk Modulus (GPa) = 55.67515 58.78524 57.23020
# Shear Modulus (GPa) = 36.95555 39.74977 38.35266
#
# Velocity S-wave (km/s) = 4.21599 4.37247 4.29494
# Velocity P-wave (km/s) = 7.10475 7.33248 7.21951
#
# Compressibility (1/GPa) = 0.01796133
#
# Stress axis : x y z
#
# Youngs Moduli (GPa) = 102.44604 116.27118 69.76902
#
# Poissons Ratio (x) = 0.21759 0.16262
# Poissons Ratio (y) = 0.19171 0.22079
# Poissons Ratio (z) = 0.23878 0.36795
#
# Static dielectric constant tensor:
#      x y z
#    x 3.927210 0.000000 0.000000 
#    y 0.000000 4.313110 0.000000 
#    z 0.000000 0.000000 3.526560 
# 
# 
# High freq. dielectric constant tensor:
#      x y z
#    x 1.831200 0.000000 0.000000 
#    y 0.000000 1.833480 0.000000 
#    z 0.000000 0.000000 1.788720 
# 
# From -- ./inp_files/12684.got.cif
#   From: 2010.03.12/outbox.cif.g09.slc.cpg/sg24_7_cif.got.tgz:12684.got - 2010.04.14 03:06:53.
