data_PCOD8166462
_publ_section_title
;
Structure prediction by ZEFSAII (Michael W. Deem and Ramdas Pophale) SiO2 
 PCOD8166462
Probable space group: P M M 2
;
_chemical_formula_sum "Si O2"
_cell_formula_units_Z 32
_cell_length_a 9.397084
_cell_length_b 14.121279
_cell_length_c 15.341053
_cell_angle_alpha 90.000000
_cell_angle_beta 90.000000
_cell_angle_gamma 90.000000
_cell_volume 2035.740013
_symmetry_space_group_name_H-M "P M M 2"
_symmetry_group_IT_number 25
_symmetry_cell_setting 'orthorhombic'
loop_
_space_group_symop_operation_xyz
x,y,z
-x,-y,z
-x,y,z
x,-y,z
loop_
_atom_site_type_symbol
_atom_site_label
_atom_site_fract_x
_atom_site_fract_y
_atom_site_fract_z
Si Si1 0.337289 0.388984 0.748620
Si Si2 0.164879 0.611250 0.412479
Si Si3 0.666584 0.390449 0.055129
Si Si4 0.342942 0.612291 0.250138
Si Si5 0.166566 0.703829 0.903372
Si Si6 0.336366 0.704918 0.565838
Si Si7 0.836494 0.105257 0.818338
Si Si8 0.663444 0.894990 0.647548
O O1 0.500000 0.363881 0.773899
O O2 0.316265 0.500000 0.737335
O O3 0.233112 0.353184 0.823345
O O4 0.294631 0.341224 0.657721
O O5 0.192175 0.500000 0.424165
O O6 0.232424 0.649423 0.322228
O O7 0.235183 0.664681 0.492404
O O8 0.000000 0.636623 0.410042
O O9 0.500000 0.375885 0.035611
O O10 0.707890 0.500000 0.040301
O O11 0.704240 0.356551 0.153239
O O12 0.759773 0.325412 0.992834
O O13 0.500000 0.653112 0.271859
O O14 0.350340 0.500000 0.251108
O O15 0.193584 0.816579 0.892378
O O16 0.000000 0.679570 0.907661
O O17 0.500000 0.681784 0.542020
O O18 0.308723 0.818076 0.571901
O O19 0.749780 0.133338 0.732945
O O20 0.000000 0.107654 0.789927
O O21 0.793910 0.000000 0.852754
O O22 0.500000 0.891316 0.676501
O O23 0.705670 0.000000 0.613132
#
# Coordination Sequence:
#
# PCOD8166462 Si02
#       8
#     4   4   4   4   4   4   4   4
#     4  10  20  32  44  60  88 126 161 187 216 261
#     4  10  20  31  45  68  96 123 152 189 228 265
#     4   9  18  32  49  68  92 123 155 185 221 270
#     4   8  15  30  50  68  87 116 153 189 226 269
#     4  11  21  30  44  67  92 120 154 190 228 269
#     4  10  19  31  47  66  90 122 156 187 224 273
#     4   9  18  32  47  63  87 119 152 188 232 277
#     4   9  17  30  49  70  88 110 148 197 238 267
#
# _framework density 15.719099
#
# number of rings (size 3 to 8) (size 9 to 14) (size 15 to 20)
#    0.000    2.500    1.250    2.250    0.000    5.250 
#    0.000    1.250    0.000    0.000    0.000    0.875 
#    0.000    1.000    0.000    0.000    0.000    0.000 
#
# Total GULP energy -396728.544102 kJ/mol
# GULP energy per Si atom -12397.767003 kJ/mol
# Density = 1.568332 g / cm^3
# Si number density = 15.719099 Si / 1000 Ang^3
#
#
#
# Elastic Constant Matrix: (Units=GPa)
#
#
# Indices 1 2 3 4 5 6 
#
# 1 90.4268 46.7923 72.7312 0.0000 0.0000 0.0000
# 2 46.7923 72.7920 49.1335 0.0000 0.0000 0.0000
# 3 72.7312 49.1335 118.2790 0.0000 0.0000 0.0000
# 4 0.0000 0.0000 0.0000 7.7901 0.0000 0.0000
# 5 0.0000 0.0000 0.0000 0.0000 -4.3785 0.0000
# 6 0.0000 0.0000 0.0000 0.0000 0.0000 20.0886
#
#
#
# Elastic Compliance Matrix: (Units=1/GPa)
#
#
# Indices 1 2 3 4 5 6 
#
# 1 0.024718 -0.007824 -0.011950 0.000000 0.000000 0.000000
# 2 -0.007824 0.021567 -0.004148 0.000000 0.000000 0.000000
# 3 -0.011950 -0.004148 0.017526 0.000000 0.000000 0.000000
# 4 0.000000 0.000000 0.000000 0.128367 0.000000 0.000000
# 5 0.000000 0.000000 0.000000 0.000000 -0.228390 0.000000
# 6 0.000000 0.000000 0.000000 0.000000 0.000000 0.049779
#
#
# Mechanical properties :
#
#
# Convention : Reuss Voigt Hill
#
# Bulk Modulus (GPa) = 62.62471 68.75688 65.69080
# Shear Modulus (GPa) = 74.92567 12.22277 43.57422
#
# Velocity S-wave (km/s) = 6.91150 2.79153 5.27074
# Velocity P-wave (km/s) = 10.17930 7.36384 8.88381
#
# Compressibility (1/GPa) = 0.01596814
#
# Stress axis : x y z
#
# Youngs Moduli (GPa) = 40.45586 46.36738 57.05906
#
# Poissons Ratio (x) = 0.36276 0.68183
# Poissons Ratio (y) = 0.31651 0.23669
# Poissons Ratio (z) = 0.48343 0.19234
#
# Static dielectric constant tensor:
#      x y z
#    x 3.123140 0.000000 0.000000 
#    y 0.000000 3.092550 0.000000 
#    z 0.000000 0.000000 2.998520 
# 
# 
# High freq. dielectric constant tensor:
#      x y z
#    x 1.609250 0.000000 0.000000 
#    y 0.000000 1.588540 0.000000 
#    z 0.000000 0.000000 1.588520 
# 
# From -- ./inp_files/5701.got.cif
#   From: 2010.03.12/outbox.cif.g09.slc.cpg/sg25_3_cif.got.tgz:5701.got - 2010.04.14 03:30:10.
