data_PCOD8166339
_publ_section_title
;
Structure prediction by ZEFSAII (Michael W. Deem and Ramdas Pophale) SiO2 
 PCOD8166339
Probable space group: P M M 2
;
_chemical_formula_sum "Si O2"
_cell_formula_units_Z 32
_cell_length_a 9.384489
_cell_length_b 14.126912
_cell_length_c 15.512603
_cell_angle_alpha 90.000000
_cell_angle_beta 90.000000
_cell_angle_gamma 90.000000
_cell_volume 2056.565507
_symmetry_space_group_name_H-M "P M M 2"
_symmetry_group_IT_number 25
_symmetry_cell_setting 'orthorhombic'
loop_
_space_group_symop_operation_xyz
x,y,z
-x,-y,z
-x,y,z
x,-y,z
loop_
_atom_site_type_symbol
_atom_site_label
_atom_site_fract_x
_atom_site_fract_y
_atom_site_fract_z
Si Si1 0.666520 0.891506 0.432080
Si Si2 0.831385 0.892108 0.079915
Si Si3 0.664962 0.208628 0.933022
Si Si4 0.834144 0.391421 0.668306
Si Si5 0.337991 0.393970 0.839944
Si Si6 0.842598 0.112346 0.271240
Si Si7 0.330941 0.894411 0.760538
Si Si8 0.668714 0.773085 0.598146
O O1 0.500000 0.884284 0.416274
O O2 0.739720 0.849531 0.346186
O O3 0.714933 0.829079 0.512838
O O4 0.712058 0.000000 0.450159
O O5 0.787215 0.858425 0.176219
O O6 0.000000 0.884629 0.068196
O O7 0.780979 0.000000 0.062642
O O8 0.755155 0.821332 0.015059
O O9 0.500000 0.185560 0.950815
O O10 0.690406 0.320553 0.917302
O O11 0.721167 0.152511 0.849236
O O12 0.811293 0.500000 0.640271
O O13 0.768162 0.372529 0.762133
O O14 0.752082 0.326583 0.598823
O O15 0.000000 0.364672 0.671477
O O16 0.500000 0.379967 0.805187
O O17 0.315158 0.500000 0.876305
O O18 0.000000 0.154546 0.287560
O O19 0.849683 0.000000 0.273612
O O20 0.500000 0.898249 0.757607
O O21 0.276605 0.833642 0.679747
O O22 0.266627 0.000000 0.754289
O O23 0.500000 0.754819 0.600921
#
# Coordination Sequence:
#
# PCOD8166339 Si02
#       8
#     4   4   4   4   4   4   4   4
#     4   9  17  28  45  70  95 118 148 186 223 259
#     4   9  18  31  45  63  90 123 154 184 221 264
#     4  10  18  28  44  67  89 116 152 186 222 263
#     4  10  20  32  46  65  88 114 148 192 233 262
#     4   9  17  31  49  66  86 114 149 187 227 271
#     4   8  15  29  46  62  85 119 153 184 223 267
#     4   9  16  26  40  60  89 121 150 177 208 253
#     4  10  18  30  46  65  90 122 153 180 218 266
#
# _framework density 15.559922
#
# number of rings (size 3 to 8) (size 9 to 14) (size 15 to 20)
#    0.000    2.750    1.250    1.875    0.000    4.500 
#    0.000    1.250    0.000    1.125    0.000    0.875 
#    0.000    3.000    0.000    0.000    0.000    0.000 
#
# Total GULP energy -396722.675667 kJ/mol
# GULP energy per Si atom -12397.583615 kJ/mol
# Density = 1.552451 g / cm^3
# Si number density = 15.559922 Si / 1000 Ang^3
#
#
#
# Elastic Constant Matrix: (Units=GPa)
#
#
# Indices 1 2 3 4 5 6 
#
# 1 53.1387 40.6352 50.5937 0.0000 0.0000 0.0000
# 2 40.6352 92.6943 56.3662 0.0000 0.0000 0.0000
# 3 50.5937 56.3662 128.4161 0.0000 0.0000 0.0000
# 4 0.0000 0.0000 0.0000 13.6746 0.0000 0.0000
# 5 0.0000 0.0000 0.0000 0.0000 22.8844 0.0000
# 6 0.0000 0.0000 0.0000 0.0000 0.0000 19.6407
#
#
#
# Elastic Compliance Matrix: (Units=1/GPa)
#
#
# Indices 1 2 3 4 5 6 
#
# 1 0.035451 -0.009614 -0.009747 0.000000 0.000000 0.000000
# 2 -0.009614 0.017323 -0.003816 0.000000 0.000000 0.000000
# 3 -0.009747 -0.003816 0.013302 0.000000 0.000000 0.000000
# 4 0.000000 0.000000 0.000000 0.073128 0.000000 0.000000
# 5 0.000000 0.000000 0.000000 0.000000 0.043698 0.000000
# 6 0.000000 0.000000 0.000000 0.000000 0.000000 0.050915
#
#
# Mechanical properties :
#
#
# Convention : Reuss Voigt Hill
#
# Bulk Modulus (GPa) = 50.70405 63.27103 56.98754
# Shear Modulus (GPa) = 17.43710 19.68354 18.56032
#
# Velocity S-wave (km/s) = 3.35123 3.56056 3.45748
# Velocity P-wave (km/s) = 6.90155 7.59306 7.25555
#
# Compressibility (1/GPa) = 0.01972229
#
# Stress axis : x y z
#
# Youngs Moduli (GPa) = 28.20822 57.72644 75.17442
#
# Poissons Ratio (x) = 0.55496 0.73274
# Poissons Ratio (y) = 0.27119 0.28687
# Poissons Ratio (z) = 0.27495 0.22029
#
# Static dielectric constant tensor:
#      x y z
#    x 2.896100 0.000000 0.000000 
#    y 0.000000 3.008600 0.000000 
#    z 0.000000 0.000000 2.977020 
# 
# 
# High freq. dielectric constant tensor:
#      x y z
#    x 1.585460 0.000000 0.000000 
#    y 0.000000 1.581940 0.000000 
#    z 0.000000 0.000000 1.583960 
# 
# From -- ./inp_files/5671.got.cif
#   From: 2010.03.12/outbox.cif.g09.slc.cpg/sg25_3_cif.got.tgz:5671.got - 2010.04.14 03:30:10.
