data_PCOD8166198
_publ_section_title
;
Structure prediction by ZEFSAII (Michael W. Deem and Ramdas Pophale) SiO2 
 PCOD8166198
Probable space group: I 21 21 21
;
_chemical_formula_sum "Si O2"
_cell_formula_units_Z 24
_cell_length_a 8.029539
_cell_length_b 8.927736
_cell_length_c 12.883355
_cell_angle_alpha 90.000000
_cell_angle_beta 90.000000
_cell_angle_gamma 90.000000
_cell_volume 923.551090
_symmetry_space_group_name_H-M "I 21 21 21"
_symmetry_group_IT_number 24
_symmetry_cell_setting 'orthorhombic'
loop_
_space_group_symop_operation_xyz
x,y,z
-x,1/2-y,z
x,-y,1/2-z
1/2-x,y,-z
1/2+x,1/2+y,1/2+z
1/2-x,-y,1/2+z
1/2+x,1/2-y,-z
-x,1/2+y,1/2-z
loop_
_atom_site_type_symbol
_atom_site_label
_atom_site_fract_x
_atom_site_fract_y
_atom_site_fract_z
Si Si1 0.000000 0.250000 0.995408
Si Si2 0.825610 0.999722 0.634512
Si Si3 0.070466 0.995745 0.133698
Si Si4 0.750000 0.252616 0.500000
O O1 0.117070 0.350695 0.923282
O O2 0.882431 0.354534 0.069030
O O3 0.627578 0.010061 0.639024
O O4 0.878330 0.145313 0.566416
O O5 0.903633 0.000000 0.750000
O O6 0.145795 0.000000 0.250000
O O7 0.144911 0.849925 0.080172
#
# Coordination Sequence:
#
# PCOD8166198 Si02
#       4
#     4   8   8   4
#     4  12  26  46  76 112 150 194 254 318 368 448
#     4  11  27  49  77 109 154 201 255 312 382 454
#     4  11  28  47  79 109 150 205 256 307 386 457
#     4  12  26  46  78 112 146 196 260 316 366 456
#
# _framework density 25.986650000000001
#
# number of rings (size 3 to 8) (size 9 to 14) (size 15 to 20)
#    0.000    0.667    3.333    1.000   14.000    2.667 
#    0.000    0.000    0.000    0.000    0.000    0.000 
#    0.000    0.000    0.000    0.000    0.000    0.000 
#
# Total GULP energy -148760.190815 kJ/mol
# GULP energy per Si atom -12396.682568 kJ/mol
# Density = 2.592750 g / cm^3
# Si number density = 25.986650 Si / 1000 Ang^3
#
#
#
# Elastic Constant Matrix: (Units=GPa)
#
#
# Indices 1 2 3 4 5 6 
#
# 1 49.1996 33.7580 28.1119 0.0000 0.0000 0.0000
# 2 33.7580 217.2056 119.1656 0.0000 0.0000 0.0000
# 3 28.1119 119.1656 280.3063 0.0000 0.0000 0.0000
# 4 0.0000 0.0000 0.0000 27.6148 0.0000 0.0000
# 5 0.0000 0.0000 0.0000 0.0000 27.9196 0.0000
# 6 0.0000 0.0000 0.0000 0.0000 0.0000 56.4030
#
#
#
# Elastic Compliance Matrix: (Units=1/GPa)
#
#
# Indices 1 2 3 4 5 6 
#
# 1 0.022975 -0.003008 -0.001025 0.000000 0.000000 0.000000
# 2 -0.003008 0.006398 -0.002418 0.000000 0.000000 0.000000
# 3 -0.001025 -0.002418 0.004698 0.000000 0.000000 0.000000
# 4 0.000000 0.000000 0.000000 0.036213 0.000000 0.000000
# 5 0.000000 0.000000 0.000000 0.000000 0.035817 0.000000
# 6 0.000000 0.000000 0.000000 0.000000 0.000000 0.017730
#
#
# Mechanical properties :
#
#
# Convention : Reuss Voigt Hill
#
# Bulk Modulus (GPa) = 47.24078 100.97583 74.10831
# Shear Modulus (GPa) = 34.77263 46.76587 40.76925
#
# Velocity S-wave (km/s) = 3.66197 4.24679 3.96517
# Velocity P-wave (km/s) = 6.00819 7.93650 7.03869
#
# Compressibility (1/GPa) = 0.02116815
#
# Stress axis : x y z
#
# Youngs Moduli (GPa) = 43.52491 156.29218 212.83546
#
# Poissons Ratio (x) = 0.47018 0.21822
# Poissons Ratio (y) = 0.13094 0.51471
# Poissons Ratio (z) = 0.04463 0.37797
#
# Static dielectric constant tensor:
#      x y z
#    x 4.439660 0.000000 0.000000 
#    y 0.000000 5.183420 0.000000 
#    z 0.000000 0.000000 5.892910 
# 
# 
# High freq. dielectric constant tensor:
#      x y z
#    x 2.013550 0.000000 0.000000 
#    y 0.000000 2.061310 0.000000 
#    z 0.000000 0.000000 2.067770 
# 
# From -- ./inp_files/11752.got.cif
#   From: 2010.03.12/outbox.cif.g09.slc.cpg/sg24_6_cif.got.tgz:11752.got - 2010.04.14 03:06:53.
