data_PCOD8166430
_publ_section_title
;
Structure prediction by ZEFSAII (Michael W. Deem and Ramdas Pophale) SiO2 
 PCOD8166430
Probable space group: P M M 2
;
_chemical_formula_sum "Si O2"
_cell_formula_units_Z 32
_cell_length_a 9.263753
_cell_length_b 14.317099
_cell_length_c 15.607298
_cell_angle_alpha 90.000000
_cell_angle_beta 90.000000
_cell_angle_gamma 90.000000
_cell_volume 2069.997008
_symmetry_space_group_name_H-M "P M M 2"
_symmetry_group_IT_number 25
_symmetry_cell_setting 'orthorhombic'
loop_
_space_group_symop_operation_xyz
x,y,z
-x,-y,z
-x,y,z
x,-y,z
loop_
_atom_site_type_symbol
_atom_site_label
_atom_site_fract_x
_atom_site_fract_y
_atom_site_fract_z
Si Si1 0.172399 0.104530 0.255400
Si Si2 0.828916 0.209781 0.419219
Si Si3 0.330996 0.106604 0.905743
Si Si4 0.828602 0.601302 0.493146
Si Si5 0.167685 0.605971 0.689440
Si Si6 0.328596 0.219390 0.738987
Si Si7 0.839352 0.888712 0.068498
Si Si8 0.831817 0.108889 0.591621
O O1 0.236402 0.170467 0.330381
O O2 0.220202 0.144137 0.161913
O O3 0.000000 0.101504 0.258784
O O4 0.232941 0.000000 0.270236
O O5 0.765847 0.314235 0.435600
O O6 0.785722 0.141493 0.496823
O O7 0.000000 0.214774 0.411928
O O8 0.500000 0.112491 0.919667
O O9 0.280177 0.166911 0.825150
O O10 0.280901 0.000000 0.889700
O O11 0.260020 0.148864 0.991762
O O12 0.768932 0.500000 0.461461
O O13 0.783296 0.618171 0.591161
O O14 0.000000 0.600098 0.488644
O O15 0.196312 0.500000 0.720430
O O16 0.264991 0.676055 0.745178
O O17 0.000000 0.632060 0.700619
O O18 0.500000 0.222712 0.729166
O O19 0.262852 0.164687 0.659155
O O20 0.000000 0.849283 0.052955
O O21 0.841820 0.000000 0.069989
O O22 0.000000 0.130962 0.608424
O O23 0.797655 0.000000 0.600468
#
# Coordination Sequence:
#
# PCOD8166430 Si02
#       8
#     4   4   4   4   4   4   4   4
#     4   8  13  21  35  58  85 107 131 172 222 260
#     4   9  14  22  38  60  85 112 143 176 212 256
#     4   9  18  31  44  59  83 116 149 178 214 259
#     4   8  13  22  38  59  82 108 139 176 212 246
#     4   9  17  31  49  66  86 112 145 186 224 256
#     4  11  21  31  44  63  89 118 147 181 221 264
#     4   8  14  25  41  61  82 104 136 180 223 256
#     4  10  19  29  42  61  86 119 157 185 207 250
#
# _framework density 15.458959
#
# number of rings (size 3 to 8) (size 9 to 14) (size 15 to 20)
#    0.000    3.000    1.250    2.625    0.000    3.500 
#    0.000    1.250    0.000    0.750    0.000    2.625 
#    0.000    3.000    0.000    0.000    0.000    0.000 
#
# Total GULP energy -396591.048354 kJ/mol
# GULP energy per Si atom -12393.470261 kJ/mol
# Density = 1.542377 g / cm^3
# Si number density = 15.458959 Si / 1000 Ang^3
#
#
#
# Elastic Constant Matrix: (Units=GPa)
#
#
# Indices 1 2 3 4 5 6 
#
# 1 30.3568 28.0023 34.5513 0.0000 0.0000 0.0000
# 2 28.0023 99.4652 55.5210 0.0000 0.0000 0.0000
# 3 34.5513 55.5210 121.3331 0.0000 0.0000 0.0000
# 4 0.0000 0.0000 0.0000 11.9164 0.0000 0.0000
# 5 0.0000 0.0000 0.0000 0.0000 4.7856 0.0000
# 6 0.0000 0.0000 0.0000 0.0000 0.0000 15.5826
#
#
#
# Elastic Compliance Matrix: (Units=1/GPa)
#
#
# Indices 1 2 3 4 5 6 
#
# 1 0.054023 -0.008893 -0.011314 0.000000 0.000000 0.000000
# 2 -0.008893 0.014967 -0.004316 0.000000 0.000000 0.000000
# 3 -0.011314 -0.004316 0.013439 0.000000 0.000000 0.000000
# 4 0.000000 0.000000 0.000000 0.083918 0.000000 0.000000
# 5 0.000000 0.000000 0.000000 0.000000 0.208962 0.000000
# 6 0.000000 0.000000 0.000000 0.000000 0.000000 0.064174
#
#
# Mechanical properties :
#
#
# Convention : Reuss Voigt Hill
#
# Bulk Modulus (GPa) = 29.95741 54.14490 42.05116
# Shear Modulus (GPa) = 10.00688 15.32895 12.66791
#
# Velocity S-wave (km/s) = 2.54701 3.15237 2.86572
# Velocity P-wave (km/s) = 5.29815 6.95348 6.18148
#
# Compressibility (1/GPa) = 0.03338072
#
# Stress axis : x y z
#
# Youngs Moduli (GPa) = 18.51073 66.81468 74.41210
#
# Poissons Ratio (x) = 0.59421 0.84191
# Poissons Ratio (y) = 0.16462 0.32117
# Poissons Ratio (z) = 0.20943 0.28838
#
# Static dielectric constant tensor:
#      x y z
#    x 2.648350 0.000000 0.000000 
#    y 0.000000 3.157560 0.000000 
#    z 0.000000 0.000000 3.142020 
# 
# 
# High freq. dielectric constant tensor:
#      x y z
#    x 1.555580 0.000000 0.000000 
#    y 0.000000 1.580800 0.000000 
#    z 0.000000 0.000000 1.584950 
# 
# From -- ./inp_files/5729.got.cif
#   From: 2010.03.12/outbox.cif.g09.slc.cpg/sg25_3_cif.got.tgz:5729.got - 2010.04.14 03:30:10.
