data_PCOD8166215
_publ_section_title
;
Structure prediction by ZEFSAII (Michael W. Deem and Ramdas Pophale) SiO2 
 PCOD8166215
Probable space group: I 21 21 21
;
_chemical_formula_sum "Si O2"
_cell_formula_units_Z 32
_cell_length_a 13.731000
_cell_length_b 4.925201
_cell_length_c 20.377174
_cell_angle_alpha 90.000000
_cell_angle_beta 90.000000
_cell_angle_gamma 90.000000
_cell_volume 1378.066197
_symmetry_space_group_name_H-M "I 21 21 21"
_symmetry_group_IT_number 24
_symmetry_cell_setting 'orthorhombic'
loop_
_space_group_symop_operation_xyz
x,y,z
-x,1/2-y,z
x,-y,1/2-z
1/2-x,y,-z
1/2+x,1/2+y,1/2+z
1/2-x,-y,1/2+z
1/2+x,1/2-y,-z
-x,1/2+y,1/2-z
loop_
_atom_site_type_symbol
_atom_site_label
_atom_site_fract_x
_atom_site_fract_y
_atom_site_fract_z
Si Si1 0.600461 0.867310 0.123316
Si Si2 0.893722 0.674946 0.394415
Si Si3 0.794466 0.608182 0.677679
Si Si4 0.643763 0.826019 0.980663
O O1 0.500000 0.750000 0.154367
O O2 0.637800 0.869370 0.337040
O O3 0.680380 0.630646 0.127261
O O4 0.584456 0.919711 0.045791
O O5 0.821169 0.650598 0.332299
O O6 0.909989 0.408261 0.439196
O O7 0.000000 0.750000 0.366569
O O8 0.844248 0.906995 0.437481
O O9 0.816407 0.500000 0.750000
O O10 0.750000 0.718312 0.000000
#
# Coordination Sequence:
#
# PCOD8166215 Si02
#       4
#     8   8   8   8
#     4  12  25  43  70 102 136 180 227 282 348 410
#     4  12  24  43  70 103 139 181 227 283 349 412
#     4  12  26  46  67  96 137 184 235 284 332 402
#     4  12  22  43  70 103 142 178 219 287 355 411
#
# _framework density 23.220946999999999
#
# number of rings (size 3 to 8) (size 9 to 14) (size 15 to 20)
#    0.000    0.000    5.000    6.000    0.000    2.000 
#    0.000    5.000    0.000    0.000    0.000    0.000 
#    0.000    0.000    0.000    0.000    0.000    0.000 
#
# Total GULP energy -198427.185739 kJ/mol
# GULP energy per Si atom -12401.699109 kJ/mol
# Density = 2.316810 g / cm^3
# Si number density = 23.220947 Si / 1000 Ang^3
#
#
#
# Elastic Constant Matrix: (Units=GPa)
#
#
# Indices 1 2 3 4 5 6 
#
# 1 78.7897 34.4467 58.9606 0.0000 0.0000 0.0000
# 2 34.4467 159.0245 47.7400 0.0000 0.0000 0.0000
# 3 58.9606 47.7400 86.1769 0.0000 0.0000 0.0000
# 4 0.0000 0.0000 0.0000 30.4989 0.0000 0.0000
# 5 0.0000 0.0000 0.0000 0.0000 11.9637 0.0000
# 6 0.0000 0.0000 0.0000 0.0000 0.0000 37.8920
#
#
#
# Elastic Compliance Matrix: (Units=1/GPa)
#
#
# Indices 1 2 3 4 5 6 
#
# 1 0.026024 -0.000350 -0.017611 0.000000 0.000000 0.000000
# 2 -0.000350 0.007547 -0.003942 0.000000 0.000000 0.000000
# 3 -0.017611 -0.003942 0.025837 0.000000 0.000000 0.000000
# 4 0.000000 0.000000 0.000000 0.032788 0.000000 0.000000
# 5 0.000000 0.000000 0.000000 0.000000 0.083587 0.000000
# 6 0.000000 0.000000 0.000000 0.000000 0.000000 0.026391
#
#
# Mechanical properties :
#
#
# Convention : Reuss Voigt Hill
#
# Bulk Modulus (GPa) = 64.09215 67.36509 65.72862
# Shear Modulus (GPa) = 19.90604 28.26050 24.08327
#
# Velocity S-wave (km/s) = 2.93105 3.49237 3.22395
# Velocity P-wave (km/s) = 6.25425 6.73318 6.49813
#
# Compressibility (1/GPa) = 0.01560253
#
# Stress axis : x y z
#
# Youngs Moduli (GPa) = 38.42609 132.49489 38.70460
#
# Poissons Ratio (x) = 0.04640 0.68163
# Poissons Ratio (y) = 0.01346 0.15256
# Poissons Ratio (z) = 0.67673 0.52223
#
# Static dielectric constant tensor:
#      x y z
#    x 4.226730 0.000000 0.000000 
#    y 0.000000 4.366190 0.000000 
#    z 0.000000 0.000000 3.852310 
# 
# 
# High freq. dielectric constant tensor:
#      x y z
#    x 1.931650 0.000000 0.000000 
#    y 0.000000 1.931820 0.000000 
#    z 0.000000 0.000000 1.896710 
# 
# From -- ./inp_files/30529.got.cif
#   From: 2010.03.12/outbox.cif.g09.slc.cpg/sg24_16_cif.got.tgz:30529.got - 2010.04.14 03:06:53.
