data_PCOD8166779
_publ_section_title
;
Structure prediction by ZEFSAII (Michael W. Deem and Ramdas Pophale) SiO2 
 PCOD8166779
Probable space group: P M M 2
;
_chemical_formula_sum "Si O2"
_cell_formula_units_Z 28
_cell_length_a 8.077521
_cell_length_b 9.223503
_cell_length_c 19.423951
_cell_angle_alpha 90.000000
_cell_angle_beta 90.000000
_cell_angle_gamma 90.000000
_cell_volume 1447.143382
_symmetry_space_group_name_H-M "P M M 2"
_symmetry_group_IT_number 25
_symmetry_cell_setting 'orthorhombic'
loop_
_space_group_symop_operation_xyz
x,y,z
-x,-y,z
-x,y,z
x,-y,z
loop_
_atom_site_type_symbol
_atom_site_label
_atom_site_fract_x
_atom_site_fract_y
_atom_site_fract_z
Si Si1 0.311973 0.833916 0.156380
Si Si2 0.000000 0.328391 0.910892
Si Si3 0.808747 0.659582 0.280787
Si Si4 0.808121 0.159995 0.406244
Si Si5 0.817460 0.840825 0.015195
Si Si6 0.000000 0.167620 0.769054
Si Si7 0.311025 0.166902 0.672756
Si Si8 0.692195 0.665340 0.534073
O O1 0.500000 0.819647 0.179967
O O2 0.205871 0.735824 0.207077
O O3 0.295595 0.778889 0.077037
O O4 0.250012 0.000000 0.160500
O O5 0.000000 0.272432 0.833780
O O6 0.000000 0.500000 0.912087
O O7 0.833375 0.268330 0.949750
O O8 0.724728 0.500000 0.278666
O O9 0.724920 0.753899 0.342063
O O10 0.000000 0.640429 0.298060
O O11 0.789797 0.246948 0.476677
O O12 0.000000 0.140001 0.390619
O O13 0.725299 0.000000 0.412062
O O14 0.000000 0.858497 0.048003
O O15 0.752467 0.000000 0.990127
O O16 0.830117 0.203170 0.728527
O O17 0.000000 0.000000 0.792457
O O18 0.500000 0.198135 0.700040
O O19 0.269537 0.266118 0.607853
O O20 0.296458 0.000000 0.649694
O O21 0.500000 0.674913 0.516157
O O22 0.755032 0.500000 0.534841
#
# Coordination Sequence:
#
# PCOD8166779 Si02
#       8
#     4   2   4   4   4   2   4   4
#     4  10  20  34  54  80 107 138 179 223 269 323
#     4  10  20  34  56  84 109 138 179 218 260 322
#     4  10  21  36  53  75 104 140 180 224 277 330
#     4  10  21  36  55  77 102 136 183 233 276 322
#     4   8  16  33  55  76 102 138 172 212 259 309
#     4  10  20  36  60  86 113 148 187 226 276 332
#     4   9  19  36  57  83 114 148 189 234 276 328
#     4  10  21  36  54  78 110 146 180 221 277 333
#
# _framework density 19.348462000000001
#
# number of rings (size 3 to 8) (size 9 to 14) (size 15 to 20)
#    0.429    2.000    0.000    2.143    1.000    5.143 
#    0.000    0.714    0.000    4.286    0.000    0.000 
#    0.000    0.000    0.000    0.000    0.000    0.000 
#
# Total GULP energy -347012.110945 kJ/mol
# GULP energy per Si atom -12393.289677 kJ/mol
# Density = 1.930442 g / cm^3
# Si number density = 19.348462 Si / 1000 Ang^3
#
#
#
# Elastic Constant Matrix: (Units=GPa)
#
#
# Indices 1 2 3 4 5 6 
#
# 1 47.2863 27.4056 31.6947 0.0000 0.0000 0.0000
# 2 27.4056 154.8560 89.8511 0.0000 0.0000 0.0000
# 3 31.6947 89.8511 133.2221 0.0000 0.0000 0.0000
# 4 0.0000 0.0000 0.0000 21.3116 0.0000 0.0000
# 5 0.0000 0.0000 0.0000 0.0000 7.7169 0.0000
# 6 0.0000 0.0000 0.0000 0.0000 0.0000 13.1790
#
#
#
# Elastic Compliance Matrix: (Units=1/GPa)
#
#
# Indices 1 2 3 4 5 6 
#
# 1 0.025406 -0.001625 -0.004948 0.000000 0.000000 0.000000
# 2 -0.001625 0.010713 -0.006839 0.000000 0.000000 0.000000
# 3 -0.004948 -0.006839 0.013296 0.000000 0.000000 0.000000
# 4 0.000000 0.000000 0.000000 0.046923 0.000000 0.000000
# 5 0.000000 0.000000 0.000000 0.000000 0.129586 0.000000
# 6 0.000000 0.000000 0.000000 0.000000 0.000000 0.075878
#
#
# Mechanical properties :
#
#
# Convention : Reuss Voigt Hill
#
# Bulk Modulus (GPa) = 44.26561 70.36302 57.31431
# Shear Modulus (GPa) = 14.87399 20.86905 17.87152
#
# Velocity S-wave (km/s) = 2.77563 3.28775 3.04248
# Velocity P-wave (km/s) = 5.76194 7.13145 6.48296
#
# Compressibility (1/GPa) = 0.02259090
#
# Stress axis : x y z
#
# Youngs Moduli (GPa) = 39.36022 93.34171 75.21066
#
# Poissons Ratio (x) = 0.15169 0.37217
# Poissons Ratio (y) = 0.06397 0.51436
# Poissons Ratio (z) = 0.19477 0.63836
#
# Static dielectric constant tensor:
#      x y z
#    x 3.371040 0.000000 0.000000 
#    y 0.000000 3.730470 0.000000 
#    z 0.000000 0.000000 3.335970 
# 
# 
# High freq. dielectric constant tensor:
#      x y z
#    x 1.730630 0.000000 0.000000 
#    y 0.000000 1.755940 0.000000 
#    z 0.000000 0.000000 1.745720 
# 
# From -- ./inp_files/6423.got.cif
#   From: 2010.03.12/outbox.cif.g09.slc.cpg/sg25_4_cif.got.tgz:6423.got - 2010.04.14 03:30:10.
