data_PCOD8166808
_publ_section_title
;
Structure prediction by ZEFSAII (Michael W. Deem and Ramdas Pophale) SiO2 
 PCOD8166808
Probable space group: P M M 2
;
_chemical_formula_sum "Si O2"
_cell_formula_units_Z 32
_cell_length_a 14.017031
_cell_length_b 8.871958
_cell_length_c 12.992159
_cell_angle_alpha 90.000000
_cell_angle_beta 90.000000
_cell_angle_gamma 90.000000
_cell_volume 1615.685539
_symmetry_space_group_name_H-M "P M M 2"
_symmetry_group_IT_number 25
_symmetry_cell_setting 'orthorhombic'
loop_
_space_group_symop_operation_xyz
x,y,z
-x,-y,z
-x,y,z
x,-y,z
loop_
_atom_site_type_symbol
_atom_site_label
_atom_site_fract_x
_atom_site_fract_y
_atom_site_fract_z
Si Si1 0.387532 0.163377 0.474540
Si Si2 0.210532 0.322465 0.184686
Si Si3 0.887507 0.174351 0.378544
Si Si4 0.886946 0.328994 0.585074
Si Si5 0.888237 0.174186 0.994781
Si Si6 0.604672 0.821114 0.694625
Si Si7 0.392161 0.180152 0.251753
Si Si8 0.201724 0.822921 0.781987
O O1 0.500000 0.139141 0.472576
O O2 0.362917 0.248781 0.582473
O O3 0.361068 0.243354 0.366090
O O4 0.336435 0.000000 0.474675
O O5 0.218511 0.500000 0.187767
O O6 0.160006 0.265294 0.287045
O O7 0.317046 0.252779 0.172763
O O8 0.147991 0.274548 0.087789
O O9 0.846209 0.235124 0.487498
O O10 0.000000 0.201215 0.372209
O O11 0.860796 0.000000 0.367153
O O12 0.850552 0.500000 0.575852
O O13 0.853315 0.259652 0.691718
O O14 0.000000 0.320510 0.583802
O O15 0.837035 0.232367 0.891337
O O16 0.000000 0.198741 0.980397
O O17 0.863732 0.000000 0.017239
O O18 0.500000 0.758861 0.729048
O O19 0.685335 0.780265 0.777895
O O20 0.597436 0.000000 0.679516
O O21 0.500000 0.231114 0.223021
O O22 0.385407 0.000000 0.249006
O O23 0.184267 0.000000 0.767919
#
# Coordination Sequence:
#
# PCOD8166808 Si02
#       8
#     4   4   4   4   4   4   4   4
#     4   7  11  22  43  73 108 144 181 220 261 312
#     4  12  25  38  57  85 116 149 190 242 303 363
#     4  10  21  38  60  84 112 148 190 237 291 353
#     4  10  21  36  54  81 119 154 183 226 290 360
#     4  10  22  41  61  81 110 149 198 253 298 347
#     4   8  14  26  47  80 118 149 182 227 277 327
#     4   9  18  34  57  84 115 154 198 237 276 335
#     4  10  20  34  58  88 114 147 195 245 289 334
#
# _framework density 19.805834999999998
#
# number of rings (size 3 to 8) (size 9 to 14) (size 15 to 20)
#    0.000    2.500    0.000    4.125    1.750    4.500 
#    0.000    0.625    0.000    2.625    0.000    0.000 
#    0.000    0.000    0.000    0.000    0.000    0.000 
#
# Total GULP energy -396587.350207 kJ/mol
# GULP energy per Si atom -12393.354694 kJ/mol
# Density = 1.976076 g / cm^3
# Si number density = 19.805835 Si / 1000 Ang^3
#
#
#
# Elastic Constant Matrix: (Units=GPa)
#
#
# Indices 1 2 3 4 5 6 
#
# 1 64.1394 32.1210 51.0872 0.0000 0.0000 0.0000
# 2 32.1210 67.8198 32.3580 0.0000 0.0000 0.0000
# 3 51.0872 32.3580 101.1802 0.0000 0.0000 0.0000
# 4 0.0000 0.0000 0.0000 3.4968 0.0000 0.0000
# 5 0.0000 0.0000 0.0000 0.0000 35.4381 0.0000
# 6 0.0000 0.0000 0.0000 0.0000 0.0000 15.0227
#
#
#
# Elastic Compliance Matrix: (Units=1/GPa)
#
#
# Indices 1 2 3 4 5 6 
#
# 1 0.029403 -0.008075 -0.012264 0.000000 0.000000 0.000000
# 2 -0.008075 0.019617 -0.002197 0.000000 0.000000 0.000000
# 3 -0.012264 -0.002197 0.016778 0.000000 0.000000 0.000000
# 4 0.000000 0.000000 0.000000 0.285977 0.000000 0.000000
# 5 0.000000 0.000000 0.000000 0.000000 0.028218 0.000000
# 6 0.000000 0.000000 0.000000 0.000000 0.000000 0.066566
#
#
# Mechanical properties :
#
#
# Convention : Reuss Voigt Hill
#
# Bulk Modulus (GPa) = 48.24349 51.58578 49.91464
# Shear Modulus (GPa) = 10.02931 18.62973 14.32952
#
# Velocity S-wave (km/s) = 2.25273 3.07028 2.69271
# Velocity P-wave (km/s) = 5.58368 6.21861 5.90968
#
# Compressibility (1/GPa) = 0.02072818
#
# Stress axis : x y z
#
# Youngs Moduli (GPa) = 34.01040 50.97509 59.60224
#
# Poissons Ratio (x) = 0.41161 0.73093
# Poissons Ratio (y) = 0.27462 0.13093
# Poissons Ratio (z) = 0.41709 0.11198
#
# Static dielectric constant tensor:
#      x y z
#    x 3.824410 0.000000 0.000000 
#    y 0.000000 3.300720 0.000000 
#    z 0.000000 0.000000 3.743310 
# 
# 
# High freq. dielectric constant tensor:
#      x y z
#    x 1.787400 0.000000 0.000000 
#    y 0.000000 1.733560 0.000000 
#    z 0.000000 0.000000 1.763320 
# 
# From -- ./inp_files/4936.got.cif
#   From: 2010.03.12/outbox.cif.g09.slc.cpg/sg25_3_cif.got.tgz:4936.got - 2010.04.14 03:30:10.
