data_PCOD8166607
_publ_section_title
;
Structure prediction by ZEFSAII (Michael W. Deem and Ramdas Pophale) SiO2 
 PCOD8166607
Probable space group: P M M 2
;
_chemical_formula_sum "Si O2"
_cell_formula_units_Z 20
_cell_length_a 9.286197
_cell_length_b 9.817505
_cell_length_c 12.844200
_cell_angle_alpha 90.000000
_cell_angle_beta 90.000000
_cell_angle_gamma 90.000000
_cell_volume 1170.970848
_symmetry_space_group_name_H-M "P M M 2"
_symmetry_group_IT_number 25
_symmetry_cell_setting 'orthorhombic'
loop_
_space_group_symop_operation_xyz
x,y,z
-x,-y,z
-x,y,z
x,-y,z
loop_
_atom_site_type_symbol
_atom_site_label
_atom_site_fract_x
_atom_site_fract_y
_atom_site_fract_z
Si Si1 0.671668 0.348414 0.970300
Si Si2 0.340181 0.338244 0.742368
Si Si3 0.667046 0.158758 0.380361
Si Si4 0.329237 0.150277 0.145357
Si Si5 0.168798 0.341512 0.542986
O O1 0.500000 0.353400 0.977021
O O2 0.734898 0.500000 0.987013
O O3 0.715203 0.289026 0.856284
O O4 0.737938 0.253430 0.060786
O O5 0.500000 0.279552 0.718521
O O6 0.348126 0.500000 0.746760
O O7 0.232318 0.288462 0.652763
O O8 0.500000 0.192207 0.400896
O O9 0.710967 0.195977 0.262118
O O10 0.764173 0.253357 0.451538
O O11 0.697849 0.000000 0.403117
O O12 0.500000 0.145675 0.134820
O O13 0.266149 0.000000 0.123012
O O14 0.207075 0.500000 0.524539
O O15 0.000000 0.316483 0.545741
#
# Coordination Sequence:
#
# PCOD8166607 Si02
#       5
#     4   4   4   4   4
#     4   8  13  22  39  63  87 112 145 182 220 265
#     4   8  14  26  44  65  90 119 149 183 224 268
#     4   9  18  32  49  69  93 122 156 191 228 273
#     4   8  14  25  41  63  91 117 141 177 225 270
#     4  10  20  32  47  68  93 122 157 194 231 273
#
# _framework density 17.079846
#
# number of rings (size 3 to 8) (size 9 to 14) (size 15 to 20)
#    0.000    3.400    0.000    3.000    0.000    2.400 
#    0.000    3.000    0.000    4.800    0.000    2.800 
#    0.000    0.000    0.000    0.000    0.000    0.000 
#
# Total GULP energy -247862.390073 kJ/mol
# GULP energy per Si atom -12393.119504 kJ/mol
# Density = 1.704097 g / cm^3
# Si number density = 17.079846 Si / 1000 Ang^3
#
#
#
# Elastic Constant Matrix: (Units=GPa)
#
#
# Indices 1 2 3 4 5 6 
#
# 1 56.0832 37.4906 56.5612 0.0000 0.0000 0.0000
# 2 37.4906 72.6464 79.6877 0.0000 0.0000 0.0000
# 3 56.5612 79.6877 171.4706 0.0000 0.0000 0.0000
# 4 0.0000 0.0000 0.0000 8.7689 0.0000 0.0000
# 5 0.0000 0.0000 0.0000 0.0000 0.3873 0.0000
# 6 0.0000 0.0000 0.0000 0.0000 0.0000 16.4657
#
#
#
# Elastic Compliance Matrix: (Units=1/GPa)
#
#
# Indices 1 2 3 4 5 6 
#
# 1 0.029498 -0.009281 -0.005417 0.000000 0.000000 0.000000
# 2 -0.009281 0.031000 -0.011345 0.000000 0.000000 0.000000
# 3 -0.005417 -0.011345 0.012891 0.000000 0.000000 0.000000
# 4 0.000000 0.000000 0.000000 0.114039 0.000000 0.000000
# 5 0.000000 0.000000 0.000000 0.000000 2.581822 0.000000
# 6 0.000000 0.000000 0.000000 0.000000 0.000000 0.060732
#
#
# Mechanical properties :
#
#
# Convention : Reuss Voigt Hill
#
# Bulk Modulus (GPa) = 46.94239 71.96433 59.45336
# Shear Modulus (GPa) = 1.73060 13.55510 7.64285
#
# Velocity S-wave (km/s) = 1.00769 2.82020 2.11766
# Velocity P-wave (km/s) = 5.37566 7.26844 6.39249
#
# Compressibility (1/GPa) = 0.02130271
#
# Stress axis : x y z
#
# Youngs Moduli (GPa) = 33.90061 32.25842 77.57224
#
# Poissons Ratio (x) = 0.29939 0.42021
# Poissons Ratio (y) = 0.31463 0.88007
# Poissons Ratio (z) = 0.18364 0.36598
#
# Static dielectric constant tensor:
#      x y z
#    x 2.802260 0.000000 0.000000 
#    y 0.000000 3.214420 0.000000 
#    z 0.000000 0.000000 3.552270 
# 
# 
# High freq. dielectric constant tensor:
#      x y z
#    x 1.612100 0.000000 0.000000 
#    y 0.000000 1.637620 0.000000 
#    z 0.000000 0.000000 1.674920 
# 
# From -- ./inp_files/4520.got.cif
#   From: 2010.03.12/outbox.cif.g09.slc.cpg/sg25_3_cif.got.tgz:4520.got - 2010.04.14 03:30:10.
