data_PCOD8166327
_publ_section_title
;
Structure prediction by ZEFSAII (Michael W. Deem and Ramdas Pophale) SiO2 
 PCOD8166327
Probable space group: P M M 2
;
_chemical_formula_sum "Si O2"
_cell_formula_units_Z 32
_cell_length_a 8.952996
_cell_length_b 15.541967
_cell_length_c 12.000087
_cell_angle_alpha 90.000000
_cell_angle_beta 90.000000
_cell_angle_gamma 90.000000
_cell_volume 1669.778126
_symmetry_space_group_name_H-M "P M M 2"
_symmetry_group_IT_number 25
_symmetry_cell_setting 'orthorhombic'
loop_
_space_group_symop_operation_xyz
x,y,z
-x,-y,z
-x,y,z
x,-y,z
loop_
_atom_site_type_symbol
_atom_site_label
_atom_site_fract_x
_atom_site_fract_y
_atom_site_fract_z
Si Si1 0.322897 0.904915 0.660090
Si Si2 0.172037 0.904645 0.201959
Si Si3 0.323704 0.343344 0.423037
Si Si4 0.322081 0.250051 0.811713
Si Si5 0.322704 0.149967 0.419493
Si Si6 0.673330 0.597379 0.184741
Si Si7 0.176746 0.747464 0.051332
Si Si8 0.322390 0.404869 0.658274
O O1 0.500000 0.897742 0.656476
O O2 0.261746 0.833724 0.745746
O O3 0.261696 0.887974 0.535803
O O4 0.271183 0.000000 0.699390
O O5 0.258918 0.904728 0.318133
O O6 0.234064 0.831584 0.118492
O O7 0.000000 0.885572 0.227616
O O8 0.193718 0.000000 0.148552
O O9 0.500000 0.340496 0.437120
O O10 0.262376 0.247059 0.408503
O O11 0.277958 0.397663 0.314306
O O12 0.255840 0.385341 0.535116
O O13 0.500000 0.249801 0.822474
O O14 0.264361 0.334806 0.746625
O O15 0.251221 0.249278 0.931962
O O16 0.500000 0.145017 0.413997
O O17 0.500000 0.624060 0.171184
O O18 0.699762 0.500000 0.143031
O O19 0.773808 0.660560 0.112392
O O20 0.000000 0.747540 0.037854
O O21 0.500000 0.400671 0.653124
O O22 0.268516 0.500000 0.695501
#
# Coordination Sequence:
#
# PCOD8166327 Si02
#       8
#     4   4   4   4   4   4   4   4
#     4   9  17  30  51  81 112 138 168 215 274 325
#     4  10  22  39  56  76 106 144 184 225 272 326
#     4   9  15  27  51  83 114 138 165 209 262 315
#     4  10  20  35  54  76 103 138 181 225 263 312
#     4  10  17  30  56  86 113 139 170 215 271 327
#     4  10  20  35  58  86 113 141 176 219 265 320
#     4  11  24  40  56  75 104 145 187 231 276 317
#     4   9  16  28  50  80 110 137 166 206 259 313
#
# _framework density 19.164223
#
# number of rings (size 3 to 8) (size 9 to 14) (size 15 to 20)
#    0.000    2.250    2.500    1.125    0.000    4.000 
#    0.000    1.875    0.000    1.500    0.000    0.000 
#    0.000    0.000    0.000    0.000    0.000    0.000 
#
# Total GULP energy -396737.580715 kJ/mol
# GULP energy per Si atom -12398.049397 kJ/mol
# Density = 1.912060 g / cm^3
# Si number density = 19.164223 Si / 1000 Ang^3
#
#
#
# Elastic Constant Matrix: (Units=GPa)
#
#
# Indices 1 2 3 4 5 6 
#
# 1 24.7449 23.6462 28.1568 0.0000 0.0000 0.0000
# 2 23.6462 159.6302 71.1126 0.0000 0.0000 0.0000
# 3 28.1568 71.1126 147.8204 0.0000 0.0000 0.0000
# 4 0.0000 0.0000 0.0000 14.5298 0.0000 0.0000
# 5 0.0000 0.0000 0.0000 0.0000 -0.8157 0.0000
# 6 0.0000 0.0000 0.0000 0.0000 0.0000 17.0863
#
#
#
# Elastic Compliance Matrix: (Units=1/GPa)
#
#
# Indices 1 2 3 4 5 6 
#
# 1 0.053856 -0.004337 -0.008172 0.000000 0.000000 0.000000
# 2 -0.004337 0.008323 -0.003178 0.000000 0.000000 0.000000
# 3 -0.008172 -0.003178 0.009850 0.000000 0.000000 0.000000
# 4 0.000000 0.000000 0.000000 0.068824 0.000000 0.000000
# 5 0.000000 0.000000 0.000000 0.000000 -1.225979 0.000000
# 6 0.000000 0.000000 0.000000 0.000000 0.000000 0.058526
#
#
# Mechanical properties :
#
#
# Convention : Reuss Voigt Hill
#
# Bulk Modulus (GPa) = 24.59720 64.22519 44.41120
# Shear Modulus (GPa) = -5.09333 20.11210 7.50938
#
# Velocity S-wave (km/s) = -1.63202 3.24305 1.98165
# Velocity P-wave (km/s) = 3.05147 6.89993 5.33481
#
# Compressibility (1/GPa) = 0.04065503
#
# Stress axis : x y z
#
# Youngs Moduli (GPa) = 18.56810 120.15580 101.52080
#
# Poissons Ratio (x) = 0.52115 0.82962
# Poissons Ratio (y) = 0.08054 0.32259
# Poissons Ratio (z) = 0.15174 0.38181
#
# Static dielectric constant tensor:
#      x y z
#    x 2.993880 0.000000 0.000000 
#    y 0.000000 3.847520 0.000000 
#    z 0.000000 0.000000 3.521600 
# 
# 
# High freq. dielectric constant tensor:
#      x y z
#    x 1.690720 0.000000 0.000000 
#    y 0.000000 1.764930 0.000000 
#    z 0.000000 0.000000 1.745730 
# 
# From -- ./inp_files/4221.got.cif
#   From: 2010.03.12/outbox.cif.g09.slc.cpg/sg25_3_cif.got.tgz:4221.got - 2010.04.14 03:30:10.
