data_PCOD8166127
_publ_section_title
;
Structure prediction by ZEFSAII (Michael W. Deem and Ramdas Pophale) SiO2 
 PCOD8166127
Probable space group: I 21 21 21
;
_chemical_formula_sum "Si O2"
_cell_formula_units_Z 56
_cell_length_a 13.659803
_cell_length_b 12.555232
_cell_length_c 13.669025
_cell_angle_alpha 90.000000
_cell_angle_beta 90.000000
_cell_angle_gamma 90.000000
_cell_volume 2344.265067
_symmetry_space_group_name_H-M "I 21 21 21"
_symmetry_group_IT_number 24
_symmetry_cell_setting 'orthorhombic'
loop_
_space_group_symop_operation_xyz
x,y,z
-x,1/2-y,z
x,-y,1/2-z
1/2-x,y,-z
1/2+x,1/2+y,1/2+z
1/2-x,-y,1/2+z
1/2+x,1/2-y,-z
-x,1/2+y,1/2-z
loop_
_atom_site_type_symbol
_atom_site_label
_atom_site_fract_x
_atom_site_fract_y
_atom_site_fract_z
Si Si1 0.138725 0.671192 0.823069
Si Si2 0.903038 0.319460 0.351384
Si Si3 0.079796 0.907461 0.824119
Si Si4 0.557512 0.488741 0.973422
Si Si5 0.844296 0.930953 0.441980
Si Si6 0.725762 0.000000 0.750000
Si Si7 0.750000 0.221780 0.500000
Si Si8 0.889415 0.287781 0.130971
O O1 0.139957 0.798850 0.803045
O O2 0.208686 0.607868 0.748052
O O3 0.033141 0.620248 0.811252
O O4 0.176015 0.650468 0.934472
O O5 0.937462 0.438025 0.377645
O O6 0.815990 0.289272 0.425302
O O7 0.857725 0.315710 0.242135
O O8 0.000000 0.250000 0.366178
O O9 0.112641 0.000000 0.750000
O O10 0.102274 0.950714 0.932889
O O11 0.445712 0.453257 0.998236
O O12 0.621281 0.385509 0.944777
O O13 0.750000 0.970783 0.500000
O O14 0.845872 0.000237 0.342619
O O15 0.826910 0.807460 0.414907
O O16 0.000000 0.250000 0.138931
#
# Coordination Sequence:
#
# PCOD8166127 Si02
#       8
#     8   8   8   8   8   4   4   8
#     4  11  25  44  70 106 143 184 246 303 364 433
#     4  11  23  42  71 104 144 184 242 307 364 434
#     4  11  24  47  71 104 144 197 243 296 368 448
#     4  11  23  44  71 102 140 196 240 298 373 436
#     4  11  26  43  69 107 146 185 242 306 365 437
#     4  12  26  42  70 112 136 186 246 310 368 418
#     4  12  24  42  72 104 142 184 238 302 368 438
#     4   9  22  43  68 102 141 188 239 298 370 429
#
# _framework density 23.888083000000002
#
# number of rings (size 3 to 8) (size 9 to 14) (size 15 to 20)
#    0.000    1.143    2.143    3.000   11.000    1.143 
#    6.429    2.857    0.000    0.000    0.000    0.000 
#    0.000    0.000    0.000    0.000    0.000    0.000 
#
# Total GULP energy -347138.994221 kJ/mol
# GULP energy per Si atom -12397.821222 kJ/mol
# Density = 2.383371 g / cm^3
# Si number density = 23.888083 Si / 1000 Ang^3
#
#
#
# Elastic Constant Matrix: (Units=GPa)
#
#
# Indices 1 2 3 4 5 6 
#
# 1 55.6394 10.8204 7.1533 0.0000 0.0000 0.0000
# 2 10.8204 142.7801 30.6279 0.0000 0.0000 0.0000
# 3 7.1533 30.6279 87.3586 0.0000 0.0000 0.0000
# 4 0.0000 0.0000 0.0000 36.4592 0.0000 0.0000
# 5 0.0000 0.0000 0.0000 0.0000 25.7975 0.0000
# 6 0.0000 0.0000 0.0000 0.0000 0.0000 27.0380
#
#
#
# Elastic Compliance Matrix: (Units=1/GPa)
#
#
# Indices 1 2 3 4 5 6 
#
# 1 0.018338 -0.001154 -0.001097 0.000000 0.000000 0.000000
# 2 -0.001154 0.007646 -0.002586 0.000000 0.000000 0.000000
# 3 -0.001097 -0.002586 0.012444 0.000000 0.000000 0.000000
# 4 0.000000 0.000000 0.000000 0.027428 0.000000 0.000000
# 5 0.000000 0.000000 0.000000 0.000000 0.038764 0.000000
# 6 0.000000 0.000000 0.000000 0.000000 0.000000 0.036985
#
#
# Mechanical properties :
#
#
# Convention : Reuss Voigt Hill
#
# Bulk Modulus (GPa) = 34.77894 42.55348 38.66621
# Shear Modulus (GPa) = 31.08218 33.67068 32.37643
#
# Velocity S-wave (km/s) = 3.61107 3.75843 3.68549
# Velocity P-wave (km/s) = 5.65484 6.05696 5.85935
#
# Compressibility (1/GPa) = 0.02875303
#
# Stress axis : x y z
#
# Youngs Moduli (GPa) = 54.53032 130.78689 80.36264
#
# Poissons Ratio (x) = 0.15099 0.08815
# Poissons Ratio (y) = 0.06295 0.20783
# Poissons Ratio (z) = 0.05981 0.33824
#
# Static dielectric constant tensor:
#      x y z
#    x 4.124100 0.000000 0.000000 
#    y 0.000000 4.624890 0.000000 
#    z 0.000000 0.000000 4.238910 
# 
# 
# High freq. dielectric constant tensor:
#      x y z
#    x 1.937360 0.000000 0.000000 
#    y 0.000000 1.960660 0.000000 
#    z 0.000000 0.000000 1.939110 
# 
# From -- ./inp_files/26583.got.cif
#   From: 2010.03.12/outbox.cif.g09.slc.cpg/sg24_14_cif.got.tgz:26583.got - 2010.04.14 03:06:53.
