data_PCOD8166912
_publ_section_title
;
Structure prediction by ZEFSAII (Michael W. Deem and Ramdas Pophale) SiO2 
 PCOD8166912
Probable space group: P M M 2
;
_chemical_formula_sum "Si O2"
_cell_formula_units_Z 32
_cell_length_a 9.197091
_cell_length_b 13.870175
_cell_length_c 12.987011
_cell_angle_alpha 90.000000
_cell_angle_beta 90.000000
_cell_angle_gamma 90.000000
_cell_volume 1656.691456
_symmetry_space_group_name_H-M "P M M 2"
_symmetry_group_IT_number 25
_symmetry_cell_setting 'orthorhombic'
loop_
_space_group_symop_operation_xyz
x,y,z
-x,-y,z
-x,y,z
x,-y,z
loop_
_atom_site_type_symbol
_atom_site_label
_atom_site_fract_x
_atom_site_fract_y
_atom_site_fract_z
Si Si1 0.671194 0.774078 0.355200
Si Si2 0.829596 0.387919 0.257549
Si Si3 0.336292 0.614431 0.053336
Si Si4 0.832752 0.608147 0.853445
Si Si5 0.832401 0.794569 0.743965
Si Si6 0.672041 0.109889 0.556280
Si Si7 0.167129 0.113121 0.956222
Si Si8 0.670366 0.890543 0.154101
O O1 0.500000 0.752346 0.358310
O O2 0.759194 0.673144 0.351247
O O3 0.722224 0.834713 0.453891
O O4 0.718269 0.835024 0.255939
O O5 0.797973 0.500000 0.279420
O O6 0.752618 0.351178 0.152989
O O7 0.000000 0.367490 0.248715
O O8 0.500000 0.656741 0.060060
O O9 0.339083 0.500000 0.050820
O O10 0.258988 0.650095 0.949117
O O11 0.784107 0.500000 0.821241
O O12 0.810847 0.678781 0.755717
O O13 0.000000 0.608895 0.889524
O O14 0.735719 0.833313 0.652373
O O15 0.777021 0.842021 0.849793
O O16 0.000000 0.821425 0.722282
O O17 0.500000 0.109976 0.566045
O O18 0.730575 0.000000 0.552870
O O19 0.000000 0.139925 0.974074
O O20 0.194582 0.000000 0.948450
O O21 0.255945 0.156799 0.052975
O O22 0.500000 0.885688 0.137066
O O23 0.724596 0.000000 0.167912
#
# Coordination Sequence:
#
# PCOD8166912 Si02
#       8
#     4   4   4   4   4   4   4   4
#     4  10  21  37  58  83 110 143 185 232 282 332
#     4  10  21  36  54  79 113 151 190 230 272 325
#     4   9  17  30  50  77 110 148 187 228 273 322
#     4   9  18  33  52  77 112 152 191 230 276 329
#     4  10  21  36  56  81 110 147 190 234 281 330
#     4  10  22  41  63  85 110 142 183 233 286 341
#     4   9  18  32  49  73 107 142 176 222 279 333
#     4   9  18  33  53  78 108 141 177 220 274 336
#
# _framework density 19.315607
#
# number of rings (size 3 to 8) (size 9 to 14) (size 15 to 20)
#    0.000    2.500    0.000    1.500    1.750    6.500 
#    0.000    1.875    0.000    4.500    0.000    0.000 
#    0.000    0.000    0.000    0.000    0.000    0.000 
#
# Total GULP energy -396817.269092 kJ/mol
# GULP energy per Si atom -12400.539659 kJ/mol
# Density = 1.927164 g / cm^3
# Si number density = 19.315607 Si / 1000 Ang^3
#
#
#
# Elastic Constant Matrix: (Units=GPa)
#
#
# Indices 1 2 3 4 5 6 
#
# 1 61.4123 39.5493 49.0606 0.0000 0.0000 0.0000
# 2 39.5493 92.0904 69.9937 0.0000 0.0000 0.0000
# 3 49.0606 69.9937 140.3573 0.0000 0.0000 0.0000
# 4 0.0000 0.0000 0.0000 32.7764 0.0000 0.0000
# 5 0.0000 0.0000 0.0000 0.0000 7.6793 0.0000
# 6 0.0000 0.0000 0.0000 0.0000 0.0000 24.8490
#
#
#
# Elastic Compliance Matrix: (Units=1/GPa)
#
#
# Indices 1 2 3 4 5 6 
#
# 1 0.024823 -0.006547 -0.005412 0.000000 0.000000 0.000000
# 2 -0.006547 0.019214 -0.007293 0.000000 0.000000 0.000000
# 3 -0.005412 -0.007293 0.012653 0.000000 0.000000 0.000000
# 4 0.000000 0.000000 0.000000 0.030510 0.000000 0.000000
# 5 0.000000 0.000000 0.000000 0.000000 0.130221 0.000000
# 6 0.000000 0.000000 0.000000 0.000000 0.000000 0.040243
#
#
# Mechanical properties :
#
#
# Convention : Reuss Voigt Hill
#
# Bulk Modulus (GPa) = 54.98740 67.89634 61.44187
# Shear Modulus (GPa) = 16.54371 22.07802 19.31087
#
# Velocity S-wave (km/s) = 2.92977 3.38452 3.16532
# Velocity P-wave (km/s) = 6.32253 7.10638 6.72588
#
# Compressibility (1/GPa) = 0.01818598
#
# Stress axis : x y z
#
# Youngs Moduli (GPa) = 40.28506 52.04575 79.03188
#
# Poissons Ratio (x) = 0.34077 0.42769
# Poissons Ratio (y) = 0.26377 0.57638
# Poissons Ratio (z) = 0.21801 0.37957
#
# Static dielectric constant tensor:
#      x y z
#    x 3.508020 0.000000 0.000000 
#    y 0.000000 3.740280 0.000000 
#    z 0.000000 0.000000 3.451790 
# 
# 
# High freq. dielectric constant tensor:
#      x y z
#    x 1.742540 0.000000 0.000000 
#    y 0.000000 1.766850 0.000000 
#    z 0.000000 0.000000 1.733340 
# 
# From -- ./inp_files/4252.got.cif
#   From: 2010.03.12/outbox.cif.g09.slc.cpg/sg25_3_cif.got.tgz:4252.got - 2010.04.14 03:30:10.
