data_PCOD8166494
_publ_section_title
;
Structure prediction by ZEFSAII (Michael W. Deem and Ramdas Pophale) SiO2 
 PCOD8166494
Probable space group: P M M 2
;
_chemical_formula_sum "Si O2"
_cell_formula_units_Z 28
_cell_length_a 7.843059
_cell_length_b 9.224221
_cell_length_c 19.793346
_cell_angle_alpha 90.000000
_cell_angle_beta 90.000000
_cell_angle_gamma 90.000000
_cell_volume 1431.971578
_symmetry_space_group_name_H-M "P M M 2"
_symmetry_group_IT_number 25
_symmetry_cell_setting 'orthorhombic'
loop_
_space_group_symop_operation_xyz
x,y,z
-x,-y,z
-x,y,z
x,-y,z
loop_
_atom_site_type_symbol
_atom_site_label
_atom_site_fract_x
_atom_site_fract_y
_atom_site_fract_z
Si Si1 0.500000 0.669516 0.706841
Si Si2 0.813954 0.827978 0.477751
Si Si3 0.500000 0.173009 0.565860
Si Si4 0.191317 0.334477 0.802788
Si Si5 0.699745 0.168549 0.931449
Si Si6 0.703876 0.162575 0.190246
Si Si7 0.310253 0.827340 0.336705
Si Si8 0.703044 0.662988 0.062926
O O1 0.500000 0.500000 0.689051
O O2 0.500000 0.762584 0.639810
O O3 0.669818 0.714498 0.747703
O O4 0.666736 0.767200 0.526561
O O5 0.796742 0.769273 0.400740
O O6 0.000000 0.779205 0.505082
O O7 0.797803 0.000000 0.476172
O O8 0.500000 0.000000 0.570787
O O9 0.229019 0.500000 0.824783
O O10 0.201953 0.233476 0.867949
O O11 0.000000 0.319238 0.772293
O O12 0.500000 0.196973 0.921293
O O13 0.742725 0.000000 0.937816
O O14 0.768618 0.246379 0.998776
O O15 0.500000 0.161340 0.190838
O O16 0.767725 0.220994 0.263890
O O17 0.776400 0.265669 0.131435
O O18 0.771631 0.000000 0.176515
O O19 0.500000 0.764320 0.345570
O O20 0.317038 0.000000 0.336365
O O21 0.500000 0.665103 0.064896
O O22 0.773778 0.500000 0.057427
#
# Coordination Sequence:
#
# PCOD8166494 Si02
#       8
#     2   4   2   4   4   4   4   4
#     4  10  22  40  60  82 111 142 173 210 255 312
#     4   9  16  27  46  74 106 137 170 211 260 310
#     4  10  20  34  54  80 109 136 169 212 255 304
#     4  10  21  38  60  83 107 140 180 218 260 315
#     4  10  19  31  51  78 108 141 178 223 272 317
#     4   8  13  21  36  60  89 123 168 219 267 313
#     4   8  12  21  39  62  90 127 169 213 260 311
#     4   9  16  25  40  65  99 138 179 221 265 316
#
# _framework density 19.553460000000001
#
# number of rings (size 3 to 8) (size 9 to 14) (size 15 to 20)
#    0.000    2.857    1.429    1.714    0.000    3.714 
#    0.000    0.000    0.000    1.714    0.000    2.000 
#    0.000    0.000    0.000    0.000    0.000    0.000 
#
# Total GULP energy -347047.055846 kJ/mol
# GULP energy per Si atom -12394.537709 kJ/mol
# Density = 1.950896 g / cm^3
# Si number density = 19.553460 Si / 1000 Ang^3
#
#
#
# Elastic Constant Matrix: (Units=GPa)
#
#
# Indices 1 2 3 4 5 6 
#
# 1 99.5642 26.6223 62.4594 0.0000 0.0000 0.0000
# 2 26.6223 71.0418 54.8926 0.0000 0.0000 0.0000
# 3 62.4594 54.8926 167.5204 0.0000 0.0000 0.0000
# 4 0.0000 0.0000 0.0000 7.6148 0.0000 0.0000
# 5 0.0000 0.0000 0.0000 0.0000 5.6449 0.0000
# 6 0.0000 0.0000 0.0000 0.0000 0.0000 9.1025
#
#
#
# Elastic Compliance Matrix: (Units=1/GPa)
#
#
# Indices 1 2 3 4 5 6 
#
# 1 0.013234 -0.001536 -0.004431 0.000000 0.000000 0.000000
# 2 -0.001536 0.019027 -0.005662 0.000000 0.000000 0.000000
# 3 -0.004431 -0.005662 0.009477 0.000000 0.000000 0.000000
# 4 0.000000 0.000000 0.000000 0.131323 0.000000 0.000000
# 5 0.000000 0.000000 0.000000 0.000000 0.177150 0.000000
# 6 0.000000 0.000000 0.000000 0.000000 0.000000 0.109860
#
#
# Mechanical properties :
#
#
# Convention : Reuss Voigt Hill
#
# Bulk Modulus (GPa) = 54.11208 69.56388 61.83798
# Shear Modulus (GPa) = 10.21474 17.41591 13.81533
#
# Velocity S-wave (km/s) = 2.28809 2.98767 2.66097
# Velocity P-wave (km/s) = 5.89190 6.89601 6.41364
#
# Compressibility (1/GPa) = 0.01848016
#
# Stress axis : x y z
#
# Youngs Moduli (GPa) = 75.56217 52.55797 105.51985
#
# Poissons Ratio (x) = 0.08070 0.46757
# Poissons Ratio (y) = 0.11603 0.59746
# Poissons Ratio (z) = 0.33483 0.29759
#
# Static dielectric constant tensor:
#      x y z
#    x 3.450150 0.000000 0.000000 
#    y 0.000000 3.246420 0.000000 
#    z 0.000000 0.000000 3.690380 
# 
# 
# High freq. dielectric constant tensor:
#      x y z
#    x 1.744150 0.000000 0.000000 
#    y 0.000000 1.719470 0.000000 
#    z 0.000000 0.000000 1.766340 
# 
# From -- ./inp_files/6426.got.cif
#   From: 2010.03.12/outbox.cif.g09.slc.cpg/sg25_4_cif.got.tgz:6426.got - 2010.04.14 03:30:10.
