data_PCOD8166824
_publ_section_title
;
Structure prediction by ZEFSAII (Michael W. Deem and Ramdas Pophale) SiO2 
 PCOD8166824
Probable space group: P M M 2
;
_chemical_formula_sum "Si O2"
_cell_formula_units_Z 28
_cell_length_a 9.075915
_cell_length_b 8.940211
_cell_length_c 18.027155
_cell_angle_alpha 90.000000
_cell_angle_beta 90.000000
_cell_angle_gamma 90.000000
_cell_volume 1462.734085
_symmetry_space_group_name_H-M "P M M 2"
_symmetry_group_IT_number 25
_symmetry_cell_setting 'orthorhombic'
loop_
_space_group_symop_operation_xyz
x,y,z
-x,-y,z
-x,y,z
x,-y,z
loop_
_atom_site_type_symbol
_atom_site_label
_atom_site_fract_x
_atom_site_fract_y
_atom_site_fract_z
Si Si1 0.171853 0.670674 0.350100
Si Si2 0.827849 0.173885 0.928092
Si Si3 0.172097 0.173757 0.199282
Si Si4 0.675194 0.168249 0.643662
Si Si5 0.673523 0.673313 0.064834
Si Si6 0.669121 0.676445 0.792444
Si Si7 0.672276 0.326987 0.497391
O O1 0.220558 0.500000 0.333135
O O2 0.217295 0.774720 0.281500
O O3 0.252853 0.734399 0.422733
O O4 0.000000 0.680010 0.366114
O O5 0.769416 0.263042 0.857818
O O6 0.000000 0.205087 0.937558
O O7 0.793489 0.000000 0.916624
O O8 0.747512 0.228992 0.001427
O O9 0.266796 0.272310 0.143489
O O10 0.000000 0.204218 0.184379
O O11 0.210970 0.000000 0.189421
O O12 0.500000 0.174767 0.641001
O O13 0.731117 0.258642 0.715269
O O14 0.738574 0.240869 0.568456
O O15 0.734682 0.000000 0.649771
O O16 0.500000 0.699023 0.061756
O O17 0.714218 0.500000 0.053262
O O18 0.500000 0.725939 0.806259
O O19 0.682889 0.500000 0.789134
O O20 0.500000 0.297837 0.489435
O O21 0.709926 0.500000 0.509100
#
# Coordination Sequence:
#
# PCOD8166824 Si02
#       7
#     4   4   4   4   4   4   4
#     4   9  18  33  52  74 103 140 178 216 264 320
#     4  11  24  40  58  82 112 144 178 217 264 318
#     4  10  21  37  57  81 109 142 180 221 268 321
#     4   9  17  30  50  76 105 138 176 219 269 320
#     4  11  24  40  59  84 111 140 178 221 264 314
#     4  10  20  35  57  83 109 140 181 225 268 317
#     4   9  17  30  49  73 101 134 175 222 267 314
#
# _framework density 19.142234999999999
#
# number of rings (size 3 to 8) (size 9 to 14) (size 15 to 20)
#    0.000    2.143    0.000    3.000    0.000   10.286 
#    0.000    2.143    0.000    2.571    0.000    0.000 
#    0.000    0.000    0.000    0.000    0.000    0.000 
#
# Total GULP energy -347293.501077 kJ/mol
# GULP energy per Si atom -12403.339324 kJ/mol
# Density = 1.909867 g / cm^3
# Si number density = 19.142235 Si / 1000 Ang^3
#
#
#
# Elastic Constant Matrix: (Units=GPa)
#
#
# Indices 1 2 3 4 5 6 
#
# 1 47.6363 32.8377 40.0057 0.0000 0.0000 0.0000
# 2 32.8377 70.9059 38.5277 0.0000 0.0000 0.0000
# 3 40.0057 38.5277 134.4192 0.0000 0.0000 0.0000
# 4 0.0000 0.0000 0.0000 25.7483 0.0000 0.0000
# 5 0.0000 0.0000 0.0000 0.0000 110.3573 0.0000
# 6 0.0000 0.0000 0.0000 0.0000 0.0000 22.1887
#
#
#
# Elastic Compliance Matrix: (Units=1/GPa)
#
#
# Indices 1 2 3 4 5 6 
#
# 1 0.035587 -0.012704 -0.006950 0.000000 0.000000 0.000000
# 2 -0.012704 0.021240 -0.002307 0.000000 0.000000 0.000000
# 3 -0.006950 -0.002307 0.010169 0.000000 0.000000 0.000000
# 4 0.000000 0.000000 0.000000 0.038838 0.000000 0.000000
# 5 0.000000 0.000000 0.000000 0.000000 0.009061 0.000000
# 6 0.000000 0.000000 0.000000 0.000000 0.000000 0.045068
#
#
# Mechanical properties :
#
#
# Convention : Reuss Voigt Hill
#
# Bulk Modulus (GPa) = 43.33958 52.85597 48.09777
# Shear Modulus (GPa) = 23.63207 41.09821 32.36514
#
# Velocity S-wave (km/s) = 3.51743 4.63859 4.11636
# Velocity P-wave (km/s) = 6.25990 7.50739 6.91185
#
# Compressibility (1/GPa) = 0.02307360
#
# Stress axis : x y z
#
# Youngs Moduli (GPa) = 28.10034 47.08025 98.33771
#
# Poissons Ratio (x) = 0.59813 0.68344
# Poissons Ratio (y) = 0.35700 0.22685
# Poissons Ratio (z) = 0.19529 0.10861
#
# Static dielectric constant tensor:
#      x y z
#    x 3.337900 0.000000 0.000000 
#    y 0.000000 3.608950 0.000000 
#    z 0.000000 0.000000 3.762960 
# 
# 
# High freq. dielectric constant tensor:
#      x y z
#    x 1.722960 0.000000 0.000000 
#    y 0.000000 1.751730 0.000000 
#    z 0.000000 0.000000 1.762220 
# 
# From -- ./inp_files/6413.got.cif
#   From: 2010.03.12/outbox.cif.g09.slc.cpg/sg25_4_cif.got.tgz:6413.got - 2010.04.14 03:30:10.
