data_PCOD8166600
_publ_section_title
;
Structure prediction by ZEFSAII (Michael W. Deem and Ramdas Pophale) SiO2 
 PCOD8166600
Probable space group: P M M 2
;
_chemical_formula_sum "Si O2"
_cell_formula_units_Z 32
_cell_length_a 9.038238
_cell_length_b 9.326881
_cell_length_c 20.670402
_cell_angle_alpha 90.000000
_cell_angle_beta 90.000000
_cell_angle_gamma 90.000000
_cell_volume 1742.485336
_symmetry_space_group_name_H-M "P M M 2"
_symmetry_group_IT_number 25
_symmetry_cell_setting 'orthorhombic'
loop_
_space_group_symop_operation_xyz
x,y,z
-x,-y,z
-x,y,z
x,-y,z
loop_
_atom_site_type_symbol
_atom_site_label
_atom_site_fract_x
_atom_site_fract_y
_atom_site_fract_z
Si Si1 0.175413 0.836900 0.463630
Si Si2 0.324705 0.164303 0.840988
Si Si3 0.176549 0.338485 0.340467
Si Si4 0.175438 0.664378 0.955719
Si Si5 0.175985 0.161187 0.220324
Si Si6 0.324477 0.658438 0.719859
Si Si7 0.175746 0.839436 0.077391
Si Si8 0.672168 0.333665 0.575205
O O1 0.236690 0.750680 0.401614
O O2 0.234949 0.766242 0.528496
O O3 0.000000 0.830426 0.465592
O O4 0.231864 0.000000 0.458696
O O5 0.500000 0.180179 0.847612
O O6 0.249001 0.250991 0.897770
O O7 0.267331 0.228054 0.772692
O O8 0.273869 0.000000 0.844484
O O9 0.237763 0.500000 0.345167
O O10 0.240400 0.267528 0.274728
O O11 0.000000 0.337263 0.339604
O O12 0.226194 0.500000 0.953031
O O13 0.235378 0.730499 0.023177
O O14 0.000000 0.680011 0.950077
O O15 0.000000 0.164110 0.222555
O O16 0.231517 0.000000 0.235010
O O17 0.231062 0.209598 0.148778
O O18 0.500000 0.651285 0.719940
O O19 0.261968 0.500000 0.737150
O O20 0.273225 0.703624 0.647972
O O21 0.000000 0.840347 0.076945
O O22 0.234109 0.000000 0.062082
O O23 0.500000 0.298357 0.566487
O O24 0.703659 0.500000 0.559699
#
# Coordination Sequence:
#
# PCOD8166600 Si02
#       8
#     4   4   4   4   4   4   4   4
#     4  10  20  32  46  67  97 130 161 194 233 277
#     4  10  20  33  51  74  96 121 156 195 234 278
#     4   9  16  25  39  60  87 120 156 194 235 275
#     4  10  20  32  47  69  97 128 160 194 234 279
#     4   8  13  22  37  58  85 117 152 189 230 276
#     4   8  15  30  51  72  94 120 151 190 234 277
#     4   8  14  25  41  61  88 122 155 189 232 277
#     4   9  18  33  53  75  96 120 153 192 234 281
#
# _framework density 18.364574000000001
#
# number of rings (size 3 to 8) (size 9 to 14) (size 15 to 20)
#    0.000    3.000    0.000    3.000    0.000    5.000 
#    0.000    4.375    0.000    0.750    0.000    0.875 
#    0.000    1.000    0.000    0.000    0.000    0.000 
#
# Total GULP energy -396666.379591 kJ/mol
# GULP energy per Si atom -12395.824362 kJ/mol
# Density = 1.832278 g / cm^3
# Si number density = 18.364574 Si / 1000 Ang^3
#
#
#
# Elastic Constant Matrix: (Units=GPa)
#
#
# Indices 1 2 3 4 5 6 
#
# 1 7.9460 19.9827 18.9259 0.0000 0.0000 0.0000
# 2 19.9827 162.0160 112.9761 0.0000 0.0000 0.0000
# 3 18.9259 112.9761 179.7908 0.0000 0.0000 0.0000
# 4 0.0000 0.0000 0.0000 42.8480 0.0000 0.0000
# 5 0.0000 0.0000 0.0000 0.0000 -38.2537 0.0000
# 6 0.0000 0.0000 0.0000 0.0000 0.0000 18.7821
#
#
#
# Elastic Compliance Matrix: (Units=1/GPa)
#
#
# Indices 1 2 3 4 5 6 
#
# 1 0.191032 -0.016979 -0.009440 0.000000 0.000000 0.000000
# 2 -0.016979 0.012495 -0.006064 0.000000 0.000000 0.000000
# 3 -0.009440 -0.006064 0.010366 0.000000 0.000000 0.000000
# 4 0.000000 0.000000 0.000000 0.023338 0.000000 0.000000
# 5 0.000000 0.000000 0.000000 0.000000 -0.026141 0.000000
# 6 0.000000 0.000000 0.000000 0.000000 0.000000 0.053242
#
#
# Mechanical properties :
#
#
# Convention : Reuss Voigt Hill
#
# Bulk Modulus (GPa) = 6.71470 72.61359 39.66415
# Shear Modulus (GPa) = 13.19465 17.86648 15.53056
#
# Velocity S-wave (km/s) = 2.68336 3.12248 2.91121
# Velocity P-wave (km/s) = 3.64209 7.25436 5.73980
#
# Compressibility (1/GPa) = 0.14892690
#
# Stress axis : x y z
#
# Youngs Moduli (GPa) = 5.23473 80.03153 96.46522
#
# Poissons Ratio (x) = 1.35883 0.91066
# Poissons Ratio (y) = 0.08888 0.58500
# Poissons Ratio (z) = 0.04942 0.48534
#
# Static dielectric constant tensor:
#      x y z
#    x 2.781740 0.000000 0.000000 
#    y 0.000000 3.759520 0.000000 
#    z 0.000000 0.000000 3.766490 
# 
# 
# High freq. dielectric constant tensor:
#      x y z
#    x 1.646690 0.000000 0.000000 
#    y 0.000000 1.718490 0.000000 
#    z 0.000000 0.000000 1.731060 
# 
# From -- ./inp_files/6360.got.cif
#   From: 2010.03.12/outbox.cif.g09.slc.cpg/sg25_4_cif.got.tgz:6360.got - 2010.04.14 03:30:10.
