data_PCOD8166816
_publ_section_title
;
Structure prediction by ZEFSAII (Michael W. Deem and Ramdas Pophale) SiO2 
 PCOD8166816
Probable space group: P M M 2
;
_chemical_formula_sum "Si O2"
_cell_formula_units_Z 24
_cell_length_a 18.891953
_cell_length_b 8.861932
_cell_length_c 7.666161
_cell_angle_alpha 90.000000
_cell_angle_beta 90.000000
_cell_angle_gamma 90.000000
_cell_volume 1283.462563
_symmetry_space_group_name_H-M "P M M 2"
_symmetry_group_IT_number 25
_symmetry_cell_setting 'orthorhombic'
loop_
_space_group_symop_operation_xyz
x,y,z
-x,-y,z
-x,y,z
x,-y,z
loop_
_atom_site_type_symbol
_atom_site_label
_atom_site_fract_x
_atom_site_fract_y
_atom_site_fract_z
Si Si1 0.673540 0.677848 0.410670
Si Si2 0.663093 0.178714 0.048067
Si Si3 0.178772 0.176703 0.018864
Si Si4 0.418036 0.325348 0.740585
Si Si5 0.177551 0.823423 0.409588
Si Si6 0.920993 0.179352 0.719955
O O1 0.673520 0.500000 0.383466
O O2 0.643008 0.753400 0.235802
O O3 0.623191 0.728099 0.568702
O O4 0.752066 0.732927 0.457555
O O5 0.741381 0.238547 0.993341
O O6 0.662753 0.000000 0.066486
O O7 0.606495 0.229750 0.906471
O O8 0.151823 0.214524 0.213691
O O9 0.179945 0.000000 0.984482
O O10 0.125037 0.249877 0.878966
O O11 0.500000 0.292772 0.707468
O O12 0.403157 0.500000 0.780874
O O13 0.115053 0.772743 0.538207
O O14 0.195648 0.000000 0.428604
O O15 0.000000 0.248239 0.726541
O O16 0.925025 0.000000 0.735208
#
# Coordination Sequence:
#
# PCOD8166816 Si02
#       6
#     4   4   4   4   4   4
#     4  10  20  35  56  79 103 137 178 216 258 311
#     4  10  20  35  56  80 105 135 173 219 265 306
#     4   8  15  27  43  65  94 125 157 199 250 298
#     4  10  22  38  54  75 105 139 172 209 257 313
#     4   9  17  30  48  71  98 128 166 214 260 299
#     4   9  16  25  41  68  99 129 162 204 256 308
#
# _framework density 18.699417
#
# number of rings (size 3 to 8) (size 9 to 14) (size 15 to 20)
#    0.000    2.667    0.000    3.000    0.000    4.333 
#    0.000    5.000    0.000    0.500    0.000    0.000 
#    0.000    0.000    0.000    0.000    0.000    0.000 
#
# Total GULP energy -297584.913820 kJ/mol
# GULP energy per Si atom -12399.371409 kJ/mol
# Density = 1.865686 g / cm^3
# Si number density = 18.699417 Si / 1000 Ang^3
#
#
#
# Elastic Constant Matrix: (Units=GPa)
#
#
# Indices 1 2 3 4 5 6 
#
# 1 90.7655 20.1656 64.0723 0.0000 0.0000 0.0000
# 2 20.1656 41.0021 29.9738 0.0000 0.0000 0.0000
# 3 64.0723 29.9738 131.0731 0.0000 0.0000 0.0000
# 4 0.0000 0.0000 0.0000 21.9614 0.0000 0.0000
# 5 0.0000 0.0000 0.0000 0.0000 21.3491 0.0000
# 6 0.0000 0.0000 0.0000 0.0000 0.0000 16.6020
#
#
#
# Elastic Compliance Matrix: (Units=1/GPa)
#
#
# Indices 1 2 3 4 5 6 
#
# 1 0.017078 -0.002757 -0.007718 0.000000 0.000000 0.000000
# 2 -0.002757 0.029730 -0.005451 0.000000 0.000000 0.000000
# 3 -0.007718 -0.005451 0.012648 0.000000 0.000000 0.000000
# 4 0.000000 0.000000 0.000000 0.045534 0.000000 0.000000
# 5 0.000000 0.000000 0.000000 0.000000 0.046840 0.000000
# 6 0.000000 0.000000 0.000000 0.000000 0.000000 0.060234
#
#
# Mechanical properties :
#
#
# Convention : Reuss Voigt Hill
#
# Bulk Modulus (GPa) = 36.22580 54.58491 45.40535
# Shear Modulus (GPa) = 19.75365 21.89110 20.82237
#
# Velocity S-wave (km/s) = 3.25372 3.42524 3.34058
# Velocity P-wave (km/s) = 5.79054 6.70053 6.26209
#
# Compressibility (1/GPa) = 0.02760463
#
# Stress axis : x y z
#
# Youngs Moduli (GPa) = 58.55493 33.63626 79.06143
#
# Poissons Ratio (x) = 0.09275 0.61017
# Poissons Ratio (y) = 0.16146 0.43094
# Poissons Ratio (z) = 0.45191 0.18334
#
# Static dielectric constant tensor:
#      x y z
#    x 3.581180 0.000000 0.000000 
#    y 0.000000 3.082750 0.000000 
#    z 0.000000 0.000000 3.621800 
# 
# 
# High freq. dielectric constant tensor:
#      x y z
#    x 1.722110 0.000000 0.000000 
#    y 0.000000 1.689570 0.000000 
#    z 0.000000 0.000000 1.741240 
# 
# From -- ./inp_files/3344.got.cif
#   From: 2010.03.12/outbox.cif.g09.slc.cpg/sg25_2_cif.got.tgz:3344.got - 2010.04.14 03:30:10.
