data_PCOD8166324
_publ_section_title
;
Structure prediction by ZEFSAII (Michael W. Deem and Ramdas Pophale) SiO2 
 PCOD8166324
Probable space group: P M M 2
;
_chemical_formula_sum "Si O2"
_cell_formula_units_Z 32
_cell_length_a 9.128406
_cell_length_b 14.820302
_cell_length_c 12.404043
_cell_angle_alpha 90.000000
_cell_angle_beta 90.000000
_cell_angle_gamma 90.000000
_cell_volume 1678.090058
_symmetry_space_group_name_H-M "P M M 2"
_symmetry_group_IT_number 25
_symmetry_cell_setting 'orthorhombic'
loop_
_space_group_symop_operation_xyz
x,y,z
-x,-y,z
-x,y,z
x,-y,z
loop_
_atom_site_type_symbol
_atom_site_label
_atom_site_fract_x
_atom_site_fract_y
_atom_site_fract_z
Si Si1 0.825793 0.103982 0.960450
Si Si2 0.331078 0.598122 0.224482
Si Si3 0.835550 0.099173 0.559214
Si Si4 0.332872 0.788664 0.143674
Si Si5 0.173122 0.643023 0.434972
Si Si6 0.825608 0.215569 0.756759
Si Si7 0.826233 0.597928 0.673432
Si Si8 0.332930 0.178300 0.387116
O O1 0.762592 0.162725 0.860503
O O2 0.000000 0.105027 0.962730
O O3 0.769507 0.000000 0.954529
O O4 0.769495 0.153549 0.066873
O O5 0.500000 0.618239 0.253379
O O6 0.313207 0.500000 0.165211
O O7 0.277646 0.683333 0.151874
O O8 0.245570 0.589175 0.336579
O O9 0.770457 0.166027 0.649200
O O10 0.728735 0.093885 0.454673
O O11 0.000000 0.128540 0.525255
O O12 0.838752 0.000000 0.611365
O O13 0.500000 0.792117 0.101817
O O14 0.318353 0.836421 0.259708
O O15 0.226934 0.604091 0.549578
O O16 0.224240 0.745259 0.429721
O O17 0.000000 0.635269 0.422108
O O18 0.767286 0.319595 0.748553
O O19 0.000000 0.211885 0.762222
O O20 0.774321 0.500000 0.719572
O O21 0.000000 0.604563 0.673408
O O22 0.500000 0.200118 0.417628
#
# Coordination Sequence:
#
# PCOD8166324 Si02
#       8
#     4   4   4   4   4   4   4   4
#     4  10  21  37  58  80 100 132 181 232 276 321
#     4   9  18  33  52  76 109 148 183 214 260 322
#     4  10  19  32  53  79 105 137 174 213 265 327
#     4   9  20  37  55  76 104 140 179 219 267 318
#     4  10  17  28  48  76 109 143 182 220 256 304
#     4   9  17  33  53  75 106 139 171 213 268 324
#     4   9  16  26  46  77 108 137 170 207 254 312
#     4  10  20  34  51  74 108 145 177 212 266 325
#
# _framework density 19.069298
#
# number of rings (size 3 to 8) (size 9 to 14) (size 15 to 20)
#    0.000    2.500    1.250    2.250    0.000    5.750 
#    0.000    3.750    0.000    2.250    0.000    0.000 
#    0.000    0.000    0.000    0.000    0.000    0.000 
#
# Total GULP energy -396490.574039 kJ/mol
# GULP energy per Si atom -12390.330439 kJ/mol
# Density = 1.902590 g / cm^3
# Si number density = 19.069298 Si / 1000 Ang^3
#
#
#
# Elastic Constant Matrix: (Units=GPa)
#
#
# Indices 1 2 3 4 5 6 
#
# 1 34.4274 23.3437 27.2003 0.0000 0.0000 0.0000
# 2 23.3437 154.2628 66.1867 0.0000 0.0000 0.0000
# 3 27.2003 66.1867 93.1067 0.0000 0.0000 0.0000
# 4 0.0000 0.0000 0.0000 23.2820 0.0000 0.0000
# 5 0.0000 0.0000 0.0000 0.0000 9.1304 0.0000
# 6 0.0000 0.0000 0.0000 0.0000 0.0000 18.5503
#
#
#
# Elastic Compliance Matrix: (Units=1/GPa)
#
#
# Indices 1 2 3 4 5 6 
#
# 1 0.037978 -0.001420 -0.010086 0.000000 0.000000 0.000000
# 2 -0.001420 0.009380 -0.006253 0.000000 0.000000 0.000000
# 3 -0.010086 -0.006253 0.018132 0.000000 0.000000 0.000000
# 4 0.000000 0.000000 0.000000 0.042952 0.000000 0.000000
# 5 0.000000 0.000000 0.000000 0.000000 0.109525 0.000000
# 6 0.000000 0.000000 0.000000 0.000000 0.000000 0.053907
#
#
# Mechanical properties :
#
#
# Convention : Reuss Voigt Hill
#
# Bulk Modulus (GPa) = 33.36370 57.25090 45.30730
# Shear Modulus (GPa) = 15.75387 21.19696 18.47542
#
# Velocity S-wave (km/s) = 2.87738 3.33765 3.11602
# Velocity P-wave (km/s) = 5.34538 6.70380 6.06276
#
# Compressibility (1/GPa) = 0.02997269
#
# Stress axis : x y z
#
# Youngs Moduli (GPa) = 26.33125 106.60621 55.15065
#
# Poissons Ratio (x) = 0.15135 0.55623
# Poissons Ratio (y) = 0.03738 0.34488
# Poissons Ratio (z) = 0.26557 0.66665
#
# Static dielectric constant tensor:
#      x y z
#    x 3.192680 0.000000 0.000000 
#    y 0.000000 3.883570 0.000000 
#    z 0.000000 0.000000 3.346480 
# 
# 
# High freq. dielectric constant tensor:
#      x y z
#    x 1.708600 0.000000 0.000000 
#    y 0.000000 1.759240 0.000000 
#    z 0.000000 0.000000 1.716950 
# 
# From -- ./inp_files/4207.got.cif
#   From: 2010.03.12/outbox.cif.g09.slc.cpg/sg25_3_cif.got.tgz:4207.got - 2010.04.14 03:30:10.
