data_PCOD8166927
_publ_section_title
;
Structure prediction by ZEFSAII (Michael W. Deem and Ramdas Pophale) SiO2 
 PCOD8166927
Probable space group: P M M 2
;
_chemical_formula_sum "Si O2"
_cell_formula_units_Z 32
_cell_length_a 14.596881
_cell_length_b 8.999932
_cell_length_c 12.389365
_cell_angle_alpha 90.000000
_cell_angle_beta 90.000000
_cell_angle_gamma 90.000000
_cell_volume 1627.602482
_symmetry_space_group_name_H-M "P M M 2"
_symmetry_group_IT_number 25
_symmetry_cell_setting 'orthorhombic'
loop_
_space_group_symop_operation_xyz
x,y,z
-x,-y,z
-x,y,z
x,-y,z
loop_
_atom_site_type_symbol
_atom_site_label
_atom_site_fract_x
_atom_site_fract_y
_atom_site_fract_z
Si Si1 0.635942 0.335089 0.936170
Si Si2 0.603704 0.171322 0.715559
Si Si3 0.771041 0.322809 0.620024
Si Si4 0.835886 0.334763 0.017627
Si Si5 0.600558 0.326046 0.173945
Si Si6 0.902416 0.676117 0.801578
Si Si7 0.106947 0.826139 0.439027
Si Si8 0.781530 0.172516 0.226571
O O1 0.596022 0.500000 0.912719
O O2 0.608867 0.229988 0.837876
O O3 0.743848 0.344643 0.948218
O O4 0.596909 0.270922 0.049503
O O5 0.500000 0.191288 0.673243
O O6 0.668502 0.257949 0.630075
O O7 0.633146 0.000000 0.716319
O O8 0.765641 0.500000 0.613156
O O9 0.822375 0.260402 0.726529
O O10 0.828808 0.265382 0.519093
O O11 0.863760 0.500000 0.058653
O O12 0.831682 0.226465 0.118630
O O13 0.903158 0.267951 0.926283
O O14 0.500000 0.294242 0.225985
O O15 0.624485 0.500000 0.174099
O O16 0.681440 0.247975 0.241780
O O17 0.892253 0.500000 0.804205
O O18 0.000000 0.724095 0.750385
O O19 0.148494 0.789545 0.321938
O O20 0.000000 0.775280 0.443456
O O21 0.114748 0.000000 0.465756
O O22 0.761907 0.000000 0.217390
#
# Coordination Sequence:
#
# PCOD8166927 Si02
#       8
#     4   4   4   4   4   4   4   4
#     4   9  16  30  51  77 111 153 196 234 278 332
#     4  11  23  36  53  81 117 156 195 234 283 346
#     4  11  22  39  62  87 114 145 191 246 292 341
#     4   9  17  32  52  78 116 155 187 227 282 337
#     4   9  18  33  54  81 115 154 193 234 283 338
#     4   9  17  31  53  82 114 145 178 224 283 340
#     4  10  23  44  65  84 112 151 192 238 294 349
#     4  10  21  36  56  83 114 149 191 237 283 335
#
# _framework density 19.660820000000001
#
# number of rings (size 3 to 8) (size 9 to 14) (size 15 to 20)
#    0.000    2.250    1.250    2.625    0.000    6.000 
#    0.000    0.625    0.000    2.250    0.000    0.000 
#    0.000    0.000    0.000    0.000    0.000    0.000 
#
# Total GULP energy -396547.213235 kJ/mol
# GULP energy per Si atom -12392.100414 kJ/mol
# Density = 1.961607 g / cm^3
# Si number density = 19.660820 Si / 1000 Ang^3
#
#
#
# Elastic Constant Matrix: (Units=GPa)
#
#
# Indices 1 2 3 4 5 6 
#
# 1 121.8790 51.4879 52.4829 0.0000 0.0000 0.0000
# 2 51.4879 79.8773 48.2784 0.0000 0.0000 0.0000
# 3 52.4829 48.2784 86.0447 0.0000 0.0000 0.0000
# 4 0.0000 0.0000 0.0000 30.9400 0.0000 0.0000
# 5 0.0000 0.0000 0.0000 0.0000 18.9602 0.0000
# 6 0.0000 0.0000 0.0000 0.0000 0.0000 14.0187
#
#
#
# Elastic Compliance Matrix: (Units=1/GPa)
#
#
# Indices 1 2 3 4 5 6 
#
# 1 0.012397 -0.005176 -0.004657 0.000000 0.000000 0.000000
# 2 -0.005176 0.021104 -0.008684 0.000000 0.000000 0.000000
# 3 -0.004657 -0.008684 0.019335 0.000000 0.000000 0.000000
# 4 0.000000 0.000000 0.000000 0.032321 0.000000 0.000000
# 5 0.000000 0.000000 0.000000 0.000000 0.052742 0.000000
# 6 0.000000 0.000000 0.000000 0.000000 0.000000 0.071333
#
#
# Mechanical properties :
#
#
# Convention : Reuss Voigt Hill
#
# Bulk Modulus (GPa) = 63.28561 65.81102 64.54832
# Shear Modulus (GPa) = 19.87797 21.82058 20.84928
#
# Velocity S-wave (km/s) = 3.18314 3.33506 3.25998
# Velocity P-wave (km/s) = 6.76524 6.95529 6.86092
#
# Compressibility (1/GPa) = 0.01580138
#
# Stress axis : x y z
#
# Youngs Moduli (GPa) = 80.66479 47.38349 51.71914
#
# Poissons Ratio (x) = 0.24526 0.24087
# Poissons Ratio (y) = 0.41752 0.44914
# Poissons Ratio (z) = 0.37568 0.41149
#
# Static dielectric constant tensor:
#      x y z
#    x 3.852600 0.000000 0.000000 
#    y 0.000000 3.408290 0.000000 
#    z 0.000000 0.000000 3.452800 
# 
# 
# High freq. dielectric constant tensor:
#      x y z
#    x 1.781290 0.000000 0.000000 
#    y 0.000000 1.745870 0.000000 
#    z 0.000000 0.000000 1.746790 
# 
# From -- ./inp_files/4907.got.cif
#   From: 2010.03.12/outbox.cif.g09.slc.cpg/sg25_3_cif.got.tgz:4907.got - 2010.04.14 03:30:10.
