data_PCOD8166997
_publ_section_title
;
Structure prediction by ZEFSAII (Michael W. Deem and Ramdas Pophale) SiO2 
 PCOD8166997
Probable space group: P M M 2
;
_chemical_formula_sum "Si O2"
_cell_formula_units_Z 24
_cell_length_a 8.479146
_cell_length_b 26.200447
_cell_length_c 4.991693
_cell_angle_alpha 90.000000
_cell_angle_beta 90.000000
_cell_angle_gamma 90.000000
_cell_volume 1108.941615
_symmetry_space_group_name_H-M "P M M 2"
_symmetry_group_IT_number 25
_symmetry_cell_setting 'orthorhombic'
loop_
_space_group_symop_operation_xyz
x,y,z
-x,-y,z
-x,y,z
x,-y,z
loop_
_atom_site_type_symbol
_atom_site_label
_atom_site_fract_x
_atom_site_fract_y
_atom_site_fract_z
Si Si1 0.682446 0.110374 0.570180
Si Si2 0.183335 0.558898 0.496214
Si Si3 0.816593 0.721406 0.953815
Si Si4 0.315449 0.388215 0.997596
Si Si5 0.683214 0.774496 0.451086
Si Si6 0.817229 0.058490 0.070298
O O1 0.500000 0.102671 0.500410
O O2 0.732283 0.169172 0.544654
O O3 0.714758 0.093404 0.873426
O O4 0.785670 0.075711 0.373445
O O5 0.218906 0.500000 0.555888
O O6 0.283820 0.593880 0.695566
O O7 0.000000 0.571642 0.533245
O O8 0.236060 0.570968 0.194894
O O9 0.762047 0.666318 0.055212
O O10 0.720808 0.735153 0.687397
O O11 0.000000 0.721450 0.882894
O O12 0.782920 0.761946 0.187228
O O13 0.500000 0.384619 0.052455
O O14 0.500000 0.770584 0.376965
O O15 0.000000 0.065463 0.002268
O O16 0.764842 0.000000 0.037795
#
# Coordination Sequence:
#
# PCOD8166997 Si02
#       6
#     4   4   4   4   4   4
#     4  11  24  41  64  92 123 161 204 253 306 365
#     4  11  24  43  66  93 127 165 206 255 308 363
#     4  12  25  42  65  93 124 162 208 253 304 366
#     4  12  25  42  65  93 127 165 206 255 308 363
#     4  11  24  43  64  91 126 161 202 253 310 365
#     4  11  24  41  62  90 125 163 204 253 306 361
#
# _framework density 21.64226
#
# number of rings (size 3 to 8) (size 9 to 14) (size 15 to 20)
#    0.000    0.667    0.000    8.000    0.000   13.333 
#    0.000    0.000    0.000    0.000    0.000    0.000 
#    0.000    0.000    0.000    0.000    0.000    0.000 
#
# Total GULP energy -297874.737343 kJ/mol
# GULP energy per Si atom -12411.447389 kJ/mol
# Density = 2.159300 g / cm^3
# Si number density = 21.642260 Si / 1000 Ang^3
#
#
#
# Elastic Constant Matrix: (Units=GPa)
#
#
# Indices 1 2 3 4 5 6 
#
# 1 76.4947 50.8301 10.2100 0.0000 0.0000 0.0000
# 2 50.8301 88.5061 13.5033 0.0000 0.0000 0.0000
# 3 10.2100 13.5033 85.5208 0.0000 0.0000 0.0000
# 4 0.0000 0.0000 0.0000 43.0024 0.0000 0.0000
# 5 0.0000 0.0000 0.0000 0.0000 121.0690 0.0000
# 6 0.0000 0.0000 0.0000 0.0000 0.0000 28.8073
#
#
#
# Elastic Compliance Matrix: (Units=1/GPa)
#
#
# Indices 1 2 3 4 5 6 
#
# 1 0.021173 -0.012065 -0.000623 0.000000 0.000000 0.000000
# 2 -0.012065 0.018452 -0.001473 0.000000 0.000000 0.000000
# 3 -0.000623 -0.001473 0.012000 0.000000 0.000000 0.000000
# 4 0.000000 0.000000 0.000000 0.023255 0.000000 0.000000
# 5 0.000000 0.000000 0.000000 0.000000 0.008260 0.000000
# 6 0.000000 0.000000 0.000000 0.000000 0.000000 0.034713
#
#
# Mechanical properties :
#
#
# Convention : Reuss Voigt Hill
#
# Bulk Modulus (GPa) = 42.91152 44.40094 43.65623
# Shear Modulus (GPa) = 32.47965 50.30763 41.39364
#
# Velocity S-wave (km/s) = 3.87816 4.82655 4.37811
# Velocity P-wave (km/s) = 6.31856 7.18478 6.76555
#
# Compressibility (1/GPa) = 0.02330377
#
# Stress axis : x y z
#
# Youngs Moduli (GPa) = 47.23012 54.19344 83.33315
#
# Poissons Ratio (x) = 0.65384 0.05190
# Poissons Ratio (y) = 0.56982 0.12276
# Poissons Ratio (z) = 0.02941 0.07984
#
# Static dielectric constant tensor:
#      x y z
#    x 3.855860 0.000000 0.000000 
#    y 0.000000 3.985280 0.000000 
#    z 0.000000 0.000000 3.839420 
# 
# 
# High freq. dielectric constant tensor:
#      x y z
#    x 1.858350 0.000000 0.000000 
#    y 0.000000 1.862580 0.000000 
#    z 0.000000 0.000000 1.861010 
# 
# From -- ./inp_files/313.got.cif
#   From: 2010.03.12/outbox.cif.g09.slc.cpg/sg25_1_cif.got.tgz:313.got - 2010.04.14 03:30:10.
