data_PCOD8166828
_publ_section_title
;
Structure prediction by ZEFSAII (Michael W. Deem and Ramdas Pophale) SiO2 
 PCOD8166828
Probable space group: P M M 2
;
_chemical_formula_sum "Si O2"
_cell_formula_units_Z 20
_cell_length_a 14.211450
_cell_length_b 8.726034
_cell_length_c 7.808395
_cell_angle_alpha 90.000000
_cell_angle_beta 90.000000
_cell_angle_gamma 90.000000
_cell_volume 968.315908
_symmetry_space_group_name_H-M "P M M 2"
_symmetry_group_IT_number 25
_symmetry_cell_setting 'orthorhombic'
loop_
_space_group_symop_operation_xyz
x,y,z
-x,-y,z
-x,y,z
x,-y,z
loop_
_atom_site_type_symbol
_atom_site_label
_atom_site_fract_x
_atom_site_fract_y
_atom_site_fract_z
Si Si1 0.713862 0.820903 0.183070
Si Si2 0.278717 0.320047 0.527936
Si Si3 0.390865 0.678270 0.865577
Si Si4 0.106152 0.823095 0.683611
Si Si5 0.106586 0.321263 0.046559
O O1 0.672905 0.736839 0.351983
O O2 0.704796 0.000000 0.210617
O O3 0.654662 0.773392 0.018109
O O4 0.823219 0.774762 0.164438
O O5 0.262059 0.500000 0.520504
O O6 0.344802 0.272295 0.685981
O O7 0.178074 0.234781 0.540003
O O8 0.500000 0.719214 0.854242
O O9 0.373459 0.500000 0.902645
O O10 0.124985 0.720511 0.849890
O O11 0.000000 0.799180 0.615102
O O12 0.124601 0.000000 0.730694
O O13 0.127991 0.500000 0.070261
O O14 0.000000 0.279504 0.099843
#
# Coordination Sequence:
#
# PCOD8166828 Si02
#       5
#     4   4   4   4   4
#     4  12  25  40  63  94 130 166 205 257 315 370
#     4  11  23  40  65  93 125 166 211 256 306 367
#     4  10  23  45  70  93 120 158 206 260 316 374
#     4  10  20  35  58  90 128 167 205 251 309 366
#     4  10  20  36  60  89 123 166 213 256 302 363
#
# _framework density 20.654416000000001
#
# number of rings (size 3 to 8) (size 9 to 14) (size 15 to 20)
#    0.000    1.400    2.000    3.600    0.000    5.200 
#    0.000    2.000    0.000    0.000    0.000    0.000 
#    0.000    0.000    0.000    0.000    0.000    0.000 
#
# Total GULP energy -248094.224308 kJ/mol
# GULP energy per Si atom -12404.711215 kJ/mol
# Density = 2.060741 g / cm^3
# Si number density = 20.654416 Si / 1000 Ang^3
#
#
#
# Elastic Constant Matrix: (Units=GPa)
#
#
# Indices 1 2 3 4 5 6 
#
# 1 109.4275 45.9641 52.9869 0.0000 0.0000 0.0000
# 2 45.9641 87.0920 42.4681 0.0000 0.0000 0.0000
# 3 52.9869 42.4681 126.9742 0.0000 0.0000 0.0000
# 4 0.0000 0.0000 0.0000 28.0354 0.0000 0.0000
# 5 0.0000 0.0000 0.0000 0.0000 9.3235 0.0000
# 6 0.0000 0.0000 0.0000 0.0000 0.0000 22.4603
#
#
#
# Elastic Compliance Matrix: (Units=1/GPa)
#
#
# Indices 1 2 3 4 5 6 
#
# 1 0.013094 -0.005073 -0.003767 0.000000 0.000000 0.000000
# 2 -0.005073 0.015685 -0.003129 0.000000 0.000000 0.000000
# 3 -0.003767 -0.003129 0.010494 0.000000 0.000000 0.000000
# 4 0.000000 0.000000 0.000000 0.035669 0.000000 0.000000
# 5 0.000000 0.000000 0.000000 0.000000 0.107256 0.000000
# 6 0.000000 0.000000 0.000000 0.000000 0.000000 0.044523
#
#
# Mechanical properties :
#
#
# Convention : Reuss Voigt Hill
#
# Bulk Modulus (GPa) = 65.21416 67.37020 66.29218
# Shear Modulus (GPa) = 19.54861 24.10212 21.82537
#
# Velocity S-wave (km/s) = 3.07980 3.41973 3.25421
# Velocity P-wave (km/s) = 6.65503 6.94848 6.80334
#
# Compressibility (1/GPa) = 0.01533409
#
# Stress axis : x y z
#
# Youngs Moduli (GPa) = 76.37295 63.75330 95.29050
#
# Poissons Ratio (x) = 0.32345 0.35898
# Poissons Ratio (y) = 0.38747 0.29817
# Poissons Ratio (z) = 0.28771 0.19949
#
# Static dielectric constant tensor:
#      x y z
#    x 3.825370 0.000000 0.000000 
#    y 0.000000 3.691430 0.000000 
#    z 0.000000 0.000000 3.698630 
# 
# 
# High freq. dielectric constant tensor:
#      x y z
#    x 1.805080 0.000000 0.000000 
#    y 0.000000 1.812870 0.000000 
#    z 0.000000 0.000000 1.808610 
# 
# From -- ./inp_files/1762.got.cif
#   From: 2010.03.12/outbox.cif.g09.slc.cpg/sg25_1_cif.got.tgz:1762.got - 2010.04.14 03:30:10.
