data_PCOD8166234
_publ_section_title
;
Structure prediction by ZEFSAII (Michael W. Deem and Ramdas Pophale) SiO2 
 PCOD8166234
Probable space group: I 21 21 21
;
_chemical_formula_sum "Si O2"
_cell_formula_units_Z 32
_cell_length_a 12.966396
_cell_length_b 4.923299
_cell_length_c 21.978854
_cell_angle_alpha 90.000000
_cell_angle_beta 90.000000
_cell_angle_gamma 90.000000
_cell_volume 1403.073872
_symmetry_space_group_name_H-M "I 21 21 21"
_symmetry_group_IT_number 24
_symmetry_cell_setting 'orthorhombic'
loop_
_space_group_symop_operation_xyz
x,y,z
-x,1/2-y,z
x,-y,1/2-z
1/2-x,y,-z
1/2+x,1/2+y,1/2+z
1/2-x,-y,1/2+z
1/2+x,1/2-y,-z
-x,1/2+y,1/2-z
loop_
_atom_site_type_symbol
_atom_site_label
_atom_site_fract_x
_atom_site_fract_y
_atom_site_fract_z
Si Si1 0.221303 0.395582 0.932877
Si Si2 0.000000 0.750000 0.809294
Si Si3 0.500000 0.750000 0.793811
Si Si4 0.671530 0.500000 0.250000
Si Si5 0.797514 0.588562 0.136419
Si Si6 0.000000 0.750000 0.605907
O O1 0.237163 0.644579 0.886371
O O2 0.101117 0.307805 0.934450
O O3 0.296335 0.141938 0.915940
O O4 0.250000 0.496561 0.000000
O O5 0.900965 0.763408 0.764170
O O6 0.974424 0.498981 0.851404
O O7 0.467918 0.500000 0.750000
O O8 0.589959 0.670238 0.840472
O O9 0.741909 0.436354 0.192210
#
# Coordination Sequence:
#
# PCOD8166234 Si02
#       6
#     8   4   4   4   8   4
#     4  12  27  49  73 102 143 191 240 294 343 414
#     4  12  25  38  73 106 149 176 217 278 374 428
#     4  12  26  46  72 104 144 188 236 292 354 426
#     4  12  24  44  70 112 144 180 222 292 358 442
#     4  12  27  45  75 105 142 188 237 291 358 417
#     4  12  23  46  67 108 137 186 233 284 344 430
#
# _framework density 22.807068000000001
#
# number of rings (size 3 to 8) (size 9 to 14) (size 15 to 20)
#    0.000    0.000    6.250    3.000    0.000    4.000 
#    0.000    0.000    0.000    0.000    0.000    0.000 
#    0.000    0.000    0.000    0.000    0.000    0.000 
#
# Total GULP energy -198345.037284 kJ/mol
# GULP energy per Si atom -12396.564830 kJ/mol
# Density = 2.275516 g / cm^3
# Si number density = 22.807068 Si / 1000 Ang^3
#
#
#
# Elastic Constant Matrix: (Units=GPa)
#
#
# Indices 1 2 3 4 5 6 
#
# 1 142.3645 19.3373 64.3538 0.0000 0.0000 0.0000
# 2 19.3373 112.2714 36.0250 0.0000 0.0000 0.0000
# 3 64.3538 36.0250 119.7115 0.0000 0.0000 0.0000
# 4 0.0000 0.0000 0.0000 36.7111 0.0000 0.0000
# 5 0.0000 0.0000 0.0000 0.0000 40.6707 0.0000
# 6 0.0000 0.0000 0.0000 0.0000 0.0000 28.3022
#
#
#
# Elastic Compliance Matrix: (Units=1/GPa)
#
#
# Indices 1 2 3 4 5 6 
#
# 1 0.009279 0.000003 -0.004989 0.000000 0.000000 0.000000
# 2 0.000003 0.009859 -0.002968 0.000000 0.000000 0.000000
# 3 -0.004989 -0.002968 0.011929 0.000000 0.000000 0.000000
# 4 0.000000 0.000000 0.000000 0.027240 0.000000 0.000000
# 5 0.000000 0.000000 0.000000 0.000000 0.024588 0.000000
# 6 0.000000 0.000000 0.000000 0.000000 0.000000 0.035333
#
#
# Mechanical properties :
#
#
# Convention : Reuss Voigt Hill
#
# Bulk Modulus (GPa) = 65.97445 68.19773 67.08609
# Shear Modulus (GPa) = 35.92244 38.11223 37.01733
#
# Velocity S-wave (km/s) = 3.97300 4.09231 4.03310
# Velocity P-wave (km/s) = 7.07364 7.23161 7.15306
#
# Compressibility (1/GPa) = 0.01515738
#
# Stress axis : x y z
#
# Youngs Moduli (GPa) = 107.76955 101.43039 83.83200
#
# Poissons Ratio (x) = -0.00027 0.41824
# Poissons Ratio (y) = -0.00028 0.24884
# Poissons Ratio (z) = 0.53766 0.30108
#
# Static dielectric constant tensor:
#      x y z
#    x 4.240030 0.000000 0.000000 
#    y 0.000000 4.260320 0.000000 
#    z 0.000000 0.000000 4.030840 
# 
# 
# High freq. dielectric constant tensor:
#      x y z
#    x 1.905520 0.000000 0.000000 
#    y 0.000000 1.909290 0.000000 
#    z 0.000000 0.000000 1.897820 
# 
# From -- ./inp_files/33155.got.cif
#   From: 2010.03.12/outbox.cif.g09.slc.cpg/sg24_17_cif.got.tgz:33155.got - 2010.04.14 03:06:53.
