data_PCOD8166533
_publ_section_title
;
Structure prediction by ZEFSAII (Michael W. Deem and Ramdas Pophale) SiO2 
 PCOD8166533
Probable space group: P M M 2
;
_chemical_formula_sum "Si O2"
_cell_formula_units_Z 32
_cell_length_a 8.957786
_cell_length_b 14.601406
_cell_length_c 12.540583
_cell_angle_alpha 90.000000
_cell_angle_beta 90.000000
_cell_angle_gamma 90.000000
_cell_volume 1640.261483
_symmetry_space_group_name_H-M "P M M 2"
_symmetry_group_IT_number 25
_symmetry_cell_setting 'orthorhombic'
loop_
_space_group_symop_operation_xyz
x,y,z
-x,-y,z
-x,y,z
x,-y,z
loop_
_atom_site_type_symbol
_atom_site_label
_atom_site_fract_x
_atom_site_fract_y
_atom_site_fract_z
Si Si1 0.176310 0.210436 0.983690
Si Si2 0.176776 0.399776 0.899809
Si Si3 0.832038 0.361321 0.666139
Si Si4 0.322942 0.795244 0.391815
Si Si5 0.168918 0.846308 0.603683
Si Si6 0.668833 0.898237 0.803135
Si Si7 0.325489 0.401581 0.454572
Si Si8 0.676704 0.104905 0.177369
O O1 0.228626 0.317513 0.978220
O O2 0.223312 0.164590 0.872990
O O3 0.000000 0.200683 0.998211
O O4 0.256826 0.160679 0.079898
O O5 0.226678 0.500000 0.944733
O O6 0.241020 0.387335 0.780098
O O7 0.000000 0.392995 0.890043
O O8 0.829043 0.253233 0.654705
O O9 0.738422 0.407441 0.573061
O O10 0.000000 0.399347 0.657596
O O11 0.500000 0.802865 0.406498
O O12 0.244207 0.848781 0.487723
O O13 0.267786 0.688085 0.389894
O O14 0.269395 0.844076 0.284137
O O15 0.266479 0.907489 0.683573
O O16 0.000000 0.883980 0.593887
O O17 0.500000 0.858358 0.801216
O O18 0.666819 0.000000 0.853061
O O19 0.500000 0.390591 0.467139
O O20 0.285841 0.500000 0.397869
O O21 0.500000 0.107206 0.166651
O O22 0.734634 0.000000 0.177877
#
# Coordination Sequence:
#
# PCOD8166533 Si02
#       8
#     4   4   4   4   4   4   4   4
#     4  11  22  38  59  84 112 141 182 236 285 326
#     4   9  17  31  52  78 110 147 182 217 267 329
#     4   9  16  29  49  74 107 147 185 217 258 317
#     4   9  19  36  56  78 108 145 185 229 278 333
#     4  10  19  33  54  83 116 146 181 227 276 323
#     4  11  23  37  55  80 112 151 187 220 273 342
#     4   9  17  29  47  75 109 143 181 224 271 321
#     4  10  22  41  62  81 104 142 191 236 282 340
#
# _framework density 19.509084999999999
#
# number of rings (size 3 to 8) (size 9 to 14) (size 15 to 20)
#    0.000    2.250    1.250    1.875    0.000    5.000 
#    0.000    1.875    0.000    3.000    0.000    0.000 
#    0.000    0.000    0.000    0.000    0.000    0.000 
#
# Total GULP energy -396619.608836 kJ/mol
# GULP energy per Si atom -12394.362776 kJ/mol
# Density = 1.946468 g / cm^3
# Si number density = 19.509085 Si / 1000 Ang^3
#
#
#
# Elastic Constant Matrix: (Units=GPa)
#
#
# Indices 1 2 3 4 5 6 
#
# 1 14.9118 18.4984 18.0550 0.0000 0.0000 0.0000
# 2 18.4984 139.1742 64.5619 0.0000 0.0000 0.0000
# 3 18.0550 64.5619 116.0300 0.0000 0.0000 0.0000
# 4 0.0000 0.0000 0.0000 21.9547 0.0000 0.0000
# 5 0.0000 0.0000 0.0000 0.0000 22.7984 0.0000
# 6 0.0000 0.0000 0.0000 0.0000 0.0000 16.6437
#
#
#
# Elastic Compliance Matrix: (Units=1/GPa)
#
#
# Indices 1 2 3 4 5 6 
#
# 1 0.087639 -0.007174 -0.009645 0.000000 0.000000 0.000000
# 2 -0.007174 0.010272 -0.004600 0.000000 0.000000 0.000000
# 3 -0.009645 -0.004600 0.012679 0.000000 0.000000 0.000000
# 4 0.000000 0.000000 0.000000 0.045548 0.000000 0.000000
# 5 0.000000 0.000000 0.000000 0.000000 0.043863 0.000000
# 6 0.000000 0.000000 0.000000 0.000000 0.000000 0.060083
#
#
# Mechanical properties :
#
#
# Convention : Reuss Voigt Hill
#
# Bulk Modulus (GPa) = 14.75964 52.48294 33.62129
# Shear Modulus (GPa) = 15.36069 23.54609 19.45339
#
# Velocity S-wave (km/s) = 2.80904 3.47786 3.16119
# Velocity P-wave (km/s) = 4.25475 6.56411 5.53129
#
# Compressibility (1/GPa) = 0.06775234
#
# Stress axis : x y z
#
# Youngs Moduli (GPa) = 11.41041 97.34747 78.87298
#
# Poissons Ratio (x) = 0.69839 0.76075
# Poissons Ratio (y) = 0.08186 0.36278
# Poissons Ratio (z) = 0.11006 0.44775
#
# Static dielectric constant tensor:
#      x y z
#    x 3.427000 0.000000 0.000000 
#    y 0.000000 3.972330 0.000000 
#    z 0.000000 0.000000 3.408570 
# 
# 
# High freq. dielectric constant tensor:
#      x y z
#    x 1.742820 0.000000 0.000000 
#    y 0.000000 1.776400 0.000000 
#    z 0.000000 0.000000 1.736960 
# 
# From -- ./inp_files/4159.got.cif
#   From: 2010.03.12/outbox.cif.g09.slc.cpg/sg25_3_cif.got.tgz:4159.got - 2010.04.14 03:30:10.
