data_PCOD8166082
_publ_section_title
;
Structure prediction by ZEFSAII (Michael W. Deem and Ramdas Pophale) SiO2 
 PCOD8166082
Probable space group: I 21 21 21
;
_chemical_formula_sum "Si O2"
_cell_formula_units_Z 60
_cell_length_a 17.617732
_cell_length_b 18.235706
_cell_length_c 9.050920
_cell_angle_alpha 90.000000
_cell_angle_beta 90.000000
_cell_angle_gamma 90.000000
_cell_volume 2907.805189
_symmetry_space_group_name_H-M "I 21 21 21"
_symmetry_group_IT_number 24
_symmetry_cell_setting 'orthorhombic'
loop_
_space_group_symop_operation_xyz
x,y,z
-x,1/2-y,z
x,-y,1/2-z
1/2-x,y,-z
1/2+x,1/2+y,1/2+z
1/2-x,-y,1/2+z
1/2+x,1/2-y,-z
-x,1/2+y,1/2-z
loop_
_atom_site_type_symbol
_atom_site_label
_atom_site_fract_x
_atom_site_fract_y
_atom_site_fract_z
Si Si1 0.250000 0.619673 0.000000
Si Si2 0.050912 0.101127 0.118919
Si Si3 0.340943 0.773619 0.702717
Si Si4 0.374456 0.510189 0.074303
Si Si5 0.686357 0.222939 0.259629
Si Si6 0.919476 0.708685 0.991956
Si Si7 0.897015 0.147257 0.003975
Si Si8 0.470414 0.056518 0.555224
O O1 0.322400 0.567721 0.989349
O O2 0.260694 0.668388 0.145838
O O3 0.123479 0.154744 0.123223
O O4 0.012007 0.087878 0.279830
O O5 0.076426 0.020431 0.060793
O O6 0.988702 0.139554 0.012251
O O7 0.249025 0.776915 0.684857
O O8 0.367034 0.770494 0.870986
O O9 0.369399 0.697368 0.636321
O O10 0.359734 0.500000 0.250000
O O11 0.361700 0.434059 0.987303
O O12 0.457278 0.542011 0.045982
O O13 0.626051 0.268734 0.349256
O O14 0.632024 0.180797 0.148188
O O15 0.000000 0.750000 0.004522
O O16 0.925168 0.620961 0.974030
#
# Coordination Sequence:
#
# PCOD8166082 Si02
#       8
#     4   8   8   8   8   8   8   8
#     4  12  24  40  60  92 138 178 208 254 330 408
#     4   9  20  41  69  96 123 168 222 276 322 398
#     4  11  22  41  66  94 130 170 220 270 329 396
#     4  11  24  41  61  92 134 169 214 266 322 396
#     4  12  25  42  63  97 135 170 222 272 324 395
#     4  11  22  39  68  97 129 175 220 267 323 395
#     4  11  24  41  62  94 130 173 216 268 330 382
#     4   9  20  41  67  96 123 168 225 271 327 389
#
# _framework density 20.634118999999998
#
# number of rings (size 3 to 8) (size 9 to 14) (size 15 to 20)
#    0.000    1.333    2.667    3.200    3.733    1.067 
#    4.800    0.000    0.000   12.800    0.000    0.000 
#    0.000    0.000    0.000    0.000    0.000    0.000 
#
# Total GULP energy -371810.927125 kJ/mol
# GULP energy per Si atom -12393.697571 kJ/mol
# Density = 2.058716 g / cm^3
# Si number density = 20.634119 Si / 1000 Ang^3
#
#
#
# Elastic Constant Matrix: (Units=GPa)
#
#
# Indices 1 2 3 4 5 6 
#
# 1 83.1310 66.4247 33.8345 0.0000 0.0000 0.0000
# 2 66.4247 122.0822 42.8488 0.0000 0.0000 0.0000
# 3 33.8345 42.8488 60.3968 0.0000 0.0000 0.0000
# 4 0.0000 0.0000 0.0000 24.7825 0.0000 0.0000
# 5 0.0000 0.0000 0.0000 0.0000 23.3024 0.0000
# 6 0.0000 0.0000 0.0000 0.0000 0.0000 73.9590
#
#
#
# Elastic Compliance Matrix: (Units=1/GPa)
#
#
# Indices 1 2 3 4 5 6 
#
# 1 0.022447 -0.010386 -0.005207 0.000000 0.000000 0.000000
# 2 -0.010386 0.015713 -0.005329 0.000000 0.000000 0.000000
# 3 -0.005207 -0.005329 0.023255 0.000000 0.000000 0.000000
# 4 0.000000 0.000000 0.000000 0.040351 0.000000 0.000000
# 5 0.000000 0.000000 0.000000 0.000000 0.042914 0.000000
# 6 0.000000 0.000000 0.000000 0.000000 0.000000 0.013521
#
#
# Mechanical properties :
#
#
# Convention : Reuss Voigt Hill
#
# Bulk Modulus (GPa) = 51.09590 61.31401 56.20496
# Shear Modulus (GPa) = 24.20516 32.57557 28.39037
#
# Velocity S-wave (km/s) = 3.42872 3.97763 3.71333
# Velocity P-wave (km/s) = 6.36329 7.13265 6.75892
#
# Compressibility (1/GPa) = 0.01957104
#
# Stress axis : x y z
#
# Youngs Moduli (GPa) = 44.54928 63.64307 43.00210
#
# Poissons Ratio (x) = 0.66100 0.22389
# Poissons Ratio (y) = 0.46269 0.22916
# Poissons Ratio (z) = 0.23195 0.33916
#
# Static dielectric constant tensor:
#      x y z
#    x 3.688720 0.000000 0.000000 
#    y 0.000000 4.142080 0.000000 
#    z 0.000000 0.000000 3.801450 
# 
# 
# High freq. dielectric constant tensor:
#      x y z
#    x 1.789630 0.000000 0.000000 
#    y 0.000000 1.824740 0.000000 
#    z 0.000000 0.000000 1.802250 
# 
# From -- ./inp_files/14447.got.cif
#   From: 2010.03.12/outbox.cif.g09.slc.cpg/sg24_8_cif.got.tgz:14447.got - 2010.04.14 03:06:53.
