data_PCOD8166287
_publ_section_title
;
Structure prediction by ZEFSAII (Michael W. Deem and Ramdas Pophale) SiO2 
 PCOD8166287
Probable space group: I 21 21 21
;
_chemical_formula_sum "Si O2"
_cell_formula_units_Z 20
_cell_length_a 4.941388
_cell_length_b 29.957081
_cell_length_c 5.238333
_cell_angle_alpha 90.000000
_cell_angle_beta 90.000000
_cell_angle_gamma 90.000000
_cell_volume 775.428132
_symmetry_space_group_name_H-M "I 21 21 21"
_symmetry_group_IT_number 24
_symmetry_cell_setting 'orthorhombic'
loop_
_space_group_symop_operation_xyz
x,y,z
-x,1/2-y,z
x,-y,1/2-z
1/2-x,y,-z
1/2+x,1/2+y,1/2+z
1/2-x,-y,1/2+z
1/2+x,1/2-y,-z
-x,1/2+y,1/2-z
loop_
_atom_site_type_symbol
_atom_site_label
_atom_site_fract_x
_atom_site_fract_y
_atom_site_fract_z
Si Si1 0.250000 0.426349 0.500000
Si Si2 0.250000 0.866240 0.000000
Si Si3 0.414685 0.699872 0.738335
Si Si4 0.065594 0.000000 0.250000
O O1 0.498233 0.396014 0.399822
O O2 0.368373 0.457158 0.727329
O O3 0.331914 0.833625 0.766116
O O4 0.500000 0.750000 0.675697
O O5 0.250000 0.681072 0.500000
O O6 0.250000 0.698346 0.000000
O O7 0.250000 0.994666 0.500000
#
# Coordination Sequence:
#
# PCOD8166287 Si02
#       4
#     4   4   8   4
#     4  12  28  57  86 126 172 220 280 355 420 502
#     4  12  28  55  82 134 166 220 284 355 404 504
#     4  12  27  52  83 121 171 227 281 342 417 496
#     4  12  28  60  88 122 164 228 278 344 430 510
#
# _framework density 25.792204000000002
#
# number of rings (size 3 to 8) (size 9 to 14) (size 15 to 20)
#    0.000    0.000    6.000    2.400    0.000    0.000 
#   18.000    0.000    0.000    0.000    0.000    0.000 
#    0.000    0.000    0.000    0.000    0.000    0.000 
#
# Total GULP energy -123996.603190 kJ/mol
# GULP energy per Si atom -12399.660319 kJ/mol
# Density = 2.573350 g / cm^3
# Si number density = 25.792204 Si / 1000 Ang^3
#
#
#
# Elastic Constant Matrix: (Units=GPa)
#
#
# Indices 1 2 3 4 5 6 
#
# 1 212.6658 109.1252 85.5145 -0.0018 0.0000 0.0005
# 2 109.1252 214.3887 50.7338 -0.0165 0.0003 0.0026
# 3 85.5145 50.7338 172.1105 -0.0101 0.0017 0.0046
# 4 -0.0018 -0.0165 -0.0101 122.2681 -0.0013 0.0088
# 5 0.0000 0.0003 0.0017 -0.0013 51.9100 0.0008
# 6 0.0005 0.0026 0.0046 0.0088 0.0008 46.9371
#
#
#
# Elastic Compliance Matrix: (Units=1/GPa)
#
#
# Indices 1 2 3 4 5 6 
#
# 1 0.007415 -0.003120 -0.002764 -0.000001 0.000000 0.000000
# 2 -0.003120 0.006327 -0.000315 0.000001 0.000000 0.000000
# 3 -0.002764 -0.000315 0.007277 0.000001 0.000000 -0.000001
# 4 -0.000001 0.000001 0.000001 0.008179 0.000000 -0.000002
# 5 0.000000 0.000000 0.000000 0.000000 0.019264 0.000000
# 6 0.000000 0.000000 -0.000001 -0.000002 0.000000 0.021305
#
#
# Mechanical properties :
#
#
# Convention : Reuss Voigt Hill
#
# Bulk Modulus (GPa) = 116.01111 121.10133 118.55622
# Shear Modulus (GPa) = 58.79721 67.80912 63.30317
#
# Velocity S-wave (km/s) = 4.77975 5.13299 4.95952
# Velocity P-wave (km/s) = 8.69127 9.06558 8.88040
#
# Compressibility (1/GPa) = 0.00861986
#
# Stress axis : x y z
#
# Youngs Moduli (GPa) = 134.86637 158.05225 137.42791
#
# Poissons Ratio (x) = 0.49312 0.37990
# Poissons Ratio (y) = 0.42078 0.04327
# Poissons Ratio (z) = 0.37282 0.04976
#
# Static dielectric constant tensor:
#      x y z
#    x 5.202160 0.000010 -0.000010 
#    y 0.000010 5.375890 0.000000 
#    z -0.000010 0.000000 4.357030 
# 
# 
# High freq. dielectric constant tensor:
#      x y z
#    x 2.058360 0.000000 0.000000 
#    y 0.000000 2.051810 0.000000 
#    z 0.000000 0.000000 2.010840 
# 
# From -- ./inp_files/369.got.cif
#   From: 2010.03.12/outbox.cif.g09.slc.cpg/sg24_1_cif.got.tgz:369.got - 2010.04.14 03:06:53.
