data_PCOD8166981
_publ_section_title
;
Structure prediction by ZEFSAII (Michael W. Deem and Ramdas Pophale) SiO2 
 PCOD8166981
Probable space group: P M M 2
;
_chemical_formula_sum "Si O2"
_cell_formula_units_Z 32
_cell_length_a 14.897279
_cell_length_b 9.325887
_cell_length_c 12.183678
_cell_angle_alpha 90.000000
_cell_angle_beta 90.000000
_cell_angle_gamma 90.000000
_cell_volume 1692.682534
_symmetry_space_group_name_H-M "P M M 2"
_symmetry_group_IT_number 25
_symmetry_cell_setting 'orthorhombic'
loop_
_space_group_symop_operation_xyz
x,y,z
-x,-y,z
-x,y,z
x,-y,z
loop_
_atom_site_type_symbol
_atom_site_label
_atom_site_fract_x
_atom_site_fract_y
_atom_site_fract_z
Si Si1 0.393594 0.341929 0.248450
Si Si2 0.604234 0.667653 0.492416
Si Si3 0.748925 0.832142 0.625694
Si Si4 0.897289 0.670698 0.018615
Si Si5 0.103803 0.670331 0.493687
Si Si6 0.244377 0.834460 0.881504
Si Si7 0.398723 0.167642 0.043149
Si Si8 0.894094 0.656302 0.255354
O O1 0.500000 0.343603 0.252264
O O2 0.356883 0.500000 0.220376
O O3 0.360711 0.294828 0.369432
O O4 0.358112 0.236192 0.154357
O O5 0.500000 0.706594 0.507180
O O6 0.620753 0.500000 0.516845
O O7 0.659298 0.765403 0.575318
O O8 0.837617 0.754153 0.581805
O O9 0.743029 0.802906 0.754388
O O10 0.753889 0.000000 0.598084
O O11 0.885451 0.500000 0.016289
O O12 0.837910 0.741410 0.925031
O O13 0.000000 0.713073 0.994171
O O14 0.866769 0.732270 0.139969
O O15 0.122040 0.500000 0.500468
O O16 0.131141 0.731253 0.371435
O O17 0.000000 0.703424 0.519475
O O18 0.222413 0.000000 0.904767
O O19 0.336641 0.788064 0.941194
O O20 0.500000 0.223376 0.018995
O O21 0.399164 0.000000 0.063414
O O22 0.848165 0.500000 0.256780
O O23 0.000000 0.635093 0.252984
#
# Coordination Sequence:
#
# PCOD8166981 Si02
#       8
#     4   4   4   4   4   4   4   4
#     4   8  15  30  53  81 109 133 161 203 259 317
#     4   9  19  37  59  81 107 138 171 213 264 315
#     4  11  24  38  52  74 106 144 184 223 261 306
#     4   9  18  34  57  82 105 131 167 212 259 309
#     4   9  18  35  59  82 106 139 175 214 264 318
#     4  10  23  39  51  70 103 142 181 217 257 304
#     4   9  18  34  55  76 101 135 173 213 256 306
#     4   7  12  27  52  80 105 128 160 205 260 318
#
# _framework density 18.904903999999998
#
# number of rings (size 3 to 8) (size 9 to 14) (size 15 to 20)
#    0.000    3.000    0.000    2.625    0.000    4.750 
#    0.000    9.375    0.000    3.750    0.000    0.000 
#    0.000    0.000    0.000    0.000    0.000    0.000 
#
# Total GULP energy -396541.909239 kJ/mol
# GULP energy per Si atom -12391.934664 kJ/mol
# Density = 1.886188 g / cm^3
# Si number density = 18.904904 Si / 1000 Ang^3
#
#
#
# Elastic Constant Matrix: (Units=GPa)
#
#
# Indices 1 2 3 4 5 6 
#
# 1 98.8871 50.7502 66.5575 0.0000 0.0000 0.0000
# 2 50.7502 61.7405 62.4607 0.0000 0.0000 0.0000
# 3 66.5575 62.4607 144.3492 0.0000 0.0000 0.0000
# 4 0.0000 0.0000 0.0000 31.0144 0.0000 0.0000
# 5 0.0000 0.0000 0.0000 0.0000 55.8013 0.0000
# 6 0.0000 0.0000 0.0000 0.0000 0.0000 25.3992
#
#
#
# Elastic Compliance Matrix: (Units=1/GPa)
#
#
# Indices 1 2 3 4 5 6 
#
# 1 0.018410 -0.011641 -0.003451 0.000000 0.000000 0.000000
# 2 -0.011641 0.036168 -0.010283 0.000000 0.000000 0.000000
# 3 -0.003451 -0.010283 0.012968 0.000000 0.000000 0.000000
# 4 0.000000 0.000000 0.000000 0.032243 0.000000 0.000000
# 5 0.000000 0.000000 0.000000 0.000000 0.017921 0.000000
# 6 0.000000 0.000000 0.000000 0.000000 0.000000 0.039371
#
#
# Mechanical properties :
#
#
# Convention : Reuss Voigt Hill
#
# Bulk Modulus (GPa) = 59.53700 73.83486 66.68593
# Shear Modulus (GPa) = 23.42673 30.79020 27.10846
#
# Velocity S-wave (km/s) = 3.52403 4.04008 3.79085
# Velocity P-wave (km/s) = 6.93683 7.80408 7.38320
#
# Compressibility (1/GPa) = 0.01679628
#
# Stress axis : x y z
#
# Youngs Moduli (GPa) = 54.31835 27.64839 77.11048
#
# Poissons Ratio (x) = 0.32186 0.26614
# Poissons Ratio (y) = 0.63233 0.79290
# Poissons Ratio (z) = 0.18747 0.28430
#
# Static dielectric constant tensor:
#      x y z
#    x 3.355700 0.000000 0.000000 
#    y 0.000000 3.286660 0.000000 
#    z 0.000000 0.000000 3.671360 
# 
# 
# High freq. dielectric constant tensor:
#      x y z
#    x 1.734070 0.000000 0.000000 
#    y 0.000000 1.706750 0.000000 
#    z 0.000000 0.000000 1.740640 
# 
# From -- ./inp_files/4249.got.cif
#   From: 2010.03.12/outbox.cif.g09.slc.cpg/sg25_3_cif.got.tgz:4249.got - 2010.04.14 03:30:10.
