data_PCOD8166950
_publ_section_title
;
Structure prediction by ZEFSAII (Michael W. Deem and Ramdas Pophale) SiO2 
 PCOD8166950
Probable space group: P M M 2
;
_chemical_formula_sum "Si O2"
_cell_formula_units_Z 32
_cell_length_a 8.890787
_cell_length_b 13.746938
_cell_length_c 12.992932
_cell_angle_alpha 90.000000
_cell_angle_beta 90.000000
_cell_angle_gamma 90.000000
_cell_volume 1588.010411
_symmetry_space_group_name_H-M "P M M 2"
_symmetry_group_IT_number 25
_symmetry_cell_setting 'orthorhombic'
loop_
_space_group_symop_operation_xyz
x,y,z
-x,-y,z
-x,y,z
x,-y,z
loop_
_atom_site_type_symbol
_atom_site_label
_atom_site_fract_x
_atom_site_fract_y
_atom_site_fract_z
Si Si1 0.170597 0.384348 0.688940
Si Si2 0.677152 0.708998 0.107716
Si Si3 0.821478 0.888826 0.581843
Si Si4 0.173409 0.614435 0.301705
Si Si5 0.673787 0.386491 0.893934
Si Si6 0.822077 0.112997 0.027465
Si Si7 0.825135 0.888294 0.804339
Si Si8 0.677471 0.711364 0.495775
O O1 0.180388 0.500000 0.692319
O O2 0.232979 0.342159 0.797544
O O3 0.266882 0.350046 0.592678
O O4 0.000000 0.347423 0.675330
O O5 0.500000 0.703830 0.127295
O O6 0.761095 0.647424 0.193319
O O7 0.734355 0.820939 0.110187
O O8 0.726142 0.663900 0.998751
O O9 0.774662 0.841797 0.694736
O O10 0.739513 0.821920 0.498379
O O11 0.000000 0.883617 0.568146
O O12 0.766702 0.000000 0.567890
O O13 0.193327 0.500000 0.312222
O O14 0.266192 0.664105 0.391561
O O15 0.000000 0.645509 0.310222
O O16 0.500000 0.366305 0.870639
O O17 0.707196 0.500000 0.906795
O O18 0.000000 0.130799 0.037014
O O19 0.784753 0.000000 0.048408
O O20 0.755680 0.145648 0.913797
O O21 0.000000 0.874596 0.819665
O O22 0.785179 0.000000 0.788020
O O23 0.500000 0.713123 0.495298
#
# Coordination Sequence:
#
# PCOD8166950 Si02
#       8
#     4   4   4   4   4   4   4   4
#     4  10  21  37  58  85 117 154 199 249 297 351
#     4  11  23  38  60  90 124 158 195 242 304 367
#     4   9  18  35  59  87 121 161 205 250 294 345
#     4  11  25  46  70  92 114 147 200 257 301 354
#     4   9  19  36  56  82 120 159 191 232 296 369
#     4   9  18  34  56  84 120 162 208 252 293 344
#     4   7  12  26  50  79 111 151 197 242 286 331
#     4  12  25  39  60  89 123 159 196 242 304 367
#
# _framework density 20.151001999999998
#
# number of rings (size 3 to 8) (size 9 to 14) (size 15 to 20)
#    0.000    2.250    0.000    4.500    1.750    5.250 
#    0.000    1.875    0.000    6.000    0.000    0.000 
#    0.000    0.000    0.000    0.000    0.000    0.000 
#
# Total GULP energy -396652.537753 kJ/mol
# GULP energy per Si atom -12395.391805 kJ/mol
# Density = 2.010514 g / cm^3
# Si number density = 20.151002 Si / 1000 Ang^3
#
#
#
# Elastic Constant Matrix: (Units=GPa)
#
#
# Indices 1 2 3 4 5 6 
#
# 1 99.5282 43.9090 47.4246 0.0000 0.0000 0.0000
# 2 43.9090 54.0408 38.5685 0.0000 0.0000 0.0000
# 3 47.4246 38.5685 89.3626 0.0000 0.0000 0.0000
# 4 0.0000 0.0000 0.0000 36.4976 0.0000 0.0000
# 5 0.0000 0.0000 0.0000 0.0000 33.6119 0.0000
# 6 0.0000 0.0000 0.0000 0.0000 0.0000 19.7697
#
#
#
# Elastic Compliance Matrix: (Units=1/GPa)
#
#
# Indices 1 2 3 4 5 6 
#
# 1 0.016760 -0.010506 -0.004360 0.000000 0.000000 0.000000
# 2 -0.010506 0.033327 -0.008808 0.000000 0.000000 0.000000
# 3 -0.004360 -0.008808 0.017306 0.000000 0.000000 0.000000
# 4 0.000000 0.000000 0.000000 0.027399 0.000000 0.000000
# 5 0.000000 0.000000 0.000000 0.000000 0.029751 0.000000
# 6 0.000000 0.000000 0.000000 0.000000 0.000000 0.050583
#
#
# Mechanical properties :
#
#
# Convention : Reuss Voigt Hill
#
# Bulk Modulus (GPa) = 49.88982 55.85953 52.87468
# Shear Modulus (GPa) = 21.81916 25.51114 23.66515
#
# Velocity S-wave (km/s) = 3.29414 3.56195 3.43066
# Velocity P-wave (km/s) = 6.26739 6.68560 6.47987
#
# Compressibility (1/GPa) = 0.02004417
#
# Stress axis : x y z
#
# Youngs Moduli (GPa) = 59.66630 30.00546 57.78345
#
# Poissons Ratio (x) = 0.31523 0.25194
# Poissons Ratio (y) = 0.62685 0.50898
# Poissons Ratio (z) = 0.26015 0.26430
#
# Static dielectric constant tensor:
#      x y z
#    x 3.484510 0.000000 0.000000 
#    y 0.000000 3.738810 0.000000 
#    z 0.000000 0.000000 3.719120 
# 
# 
# High freq. dielectric constant tensor:
#      x y z
#    x 1.770250 0.000000 0.000000 
#    y 0.000000 1.799340 0.000000 
#    z 0.000000 0.000000 1.781730 
# 
# From -- ./inp_files/4275.got.cif
#   From: 2010.03.12/outbox.cif.g09.slc.cpg/sg25_3_cif.got.tgz:4275.got - 2010.04.14 03:30:10.
