data_PCOD8166894
_publ_section_title
;
Structure prediction by ZEFSAII (Michael W. Deem and Ramdas Pophale) SiO2 
 PCOD8166894
Probable space group: P M M 2
;
_chemical_formula_sum "Si O2"
_cell_formula_units_Z 32
_cell_length_a 9.261931
_cell_length_b 9.442913
_cell_length_c 20.541217
_cell_angle_alpha 90.000000
_cell_angle_beta 90.000000
_cell_angle_gamma 90.000000
_cell_volume 1796.526800
_symmetry_space_group_name_H-M "P M M 2"
_symmetry_group_IT_number 25
_symmetry_cell_setting 'orthorhombic'
loop_
_space_group_symop_operation_xyz
x,y,z
-x,-y,z
-x,y,z
x,-y,z
loop_
_atom_site_type_symbol
_atom_site_label
_atom_site_fract_x
_atom_site_fract_y
_atom_site_fract_z
Si Si1 0.330257 0.162644 0.714030
Si Si2 0.671112 0.156792 0.473268
Si Si3 0.840513 0.168103 0.837377
Si Si4 0.167931 0.165401 0.982425
Si Si5 0.831920 0.335324 0.219939
Si Si6 0.665016 0.833173 0.327092
Si Si7 0.672275 0.659453 0.591571
Si Si8 0.667753 0.334877 0.090757
O O1 0.500000 0.177136 0.720465
O O2 0.265075 0.224587 0.781090
O O3 0.270323 0.254948 0.654164
O O4 0.284138 0.000000 0.702003
O O5 0.500000 0.148051 0.479353
O O6 0.711782 0.207220 0.400645
O O7 0.733862 0.266113 0.526340
O O8 0.735076 0.000000 0.486995
O O9 0.789505 0.215383 0.909312
O O10 0.000000 0.228757 0.823197
O O11 0.844948 0.000000 0.836774
O O12 0.000000 0.198892 0.996116
O O13 0.199021 0.000000 0.992395
O O14 0.269709 0.251840 0.029870
O O15 0.802685 0.500000 0.233305
O O16 0.773373 0.248694 0.280758
O O17 0.749295 0.283724 0.155544
O O18 0.000000 0.302451 0.210369
O O19 0.500000 0.785651 0.313675
O O20 0.680844 0.000000 0.315743
O O21 0.500000 0.659886 0.590700
O O22 0.732804 0.500000 0.594268
O O23 0.500000 0.298612 0.099119
O O24 0.694469 0.500000 0.078412
#
# Coordination Sequence:
#
# PCOD8166894 Si02
#       8
#     4   4   4   4   4   4   4   4
#     4   9  16  26  43  66  90 119 155 193 233 277
#     4   8  14  26  44  66  93 123 154 190 233 282
#     4   8  15  29  48  69  93 121 155 194 233 278
#     4   9  18  33  53  76 100 127 161 201 245 292
#     4  10  21  36  53  72  96 130 168 201 237 286
#     4   9  18  32  51  76 102 126 157 201 249 292
#     4   9  16  25  39  63  94 124 154 191 235 279
#     4  10  21  36  53  74 100 130 164 201 241 286
#
# _framework density 17.812148000000001
#
# number of rings (size 3 to 8) (size 9 to 14) (size 15 to 20)
#    0.000    3.000    0.000    2.625    0.000    5.000 
#    0.000    3.125    0.000    3.375    0.000    1.750 
#    0.000    0.000    0.000    0.000    0.000    0.000 
#
# Total GULP energy -396715.346902 kJ/mol
# GULP energy per Si atom -12397.354591 kJ/mol
# Density = 1.777161 g / cm^3
# Si number density = 17.812148 Si / 1000 Ang^3
#
#
#
# Elastic Constant Matrix: (Units=GPa)
#
#
# Indices 1 2 3 4 5 6 
#
# 1 64.8827 38.9770 63.1992 0.0000 0.0000 0.0000
# 2 38.9770 72.1076 71.9541 0.0000 0.0000 0.0000
# 3 63.1992 71.9541 170.2830 0.0000 0.0000 0.0000
# 4 0.0000 0.0000 0.0000 5.2495 0.0000 0.0000
# 5 0.0000 0.0000 0.0000 0.0000 7.8377 0.0000
# 6 0.0000 0.0000 0.0000 0.0000 0.0000 20.8971
#
#
#
# Elastic Compliance Matrix: (Units=1/GPa)
#
#
# Indices 1 2 3 4 5 6 
#
# 1 0.026444 -0.007782 -0.006526 0.000000 0.000000 0.000000
# 2 -0.007782 0.026269 -0.008212 0.000000 0.000000 0.000000
# 3 -0.006526 -0.008212 0.011765 0.000000 0.000000 0.000000
# 4 0.000000 0.000000 0.000000 0.190495 0.000000 0.000000
# 5 0.000000 0.000000 0.000000 0.000000 0.127589 0.000000
# 6 0.000000 0.000000 0.000000 0.000000 0.000000 0.047853
#
#
# Mechanical properties :
#
#
# Convention : Reuss Voigt Hill
#
# Bulk Modulus (GPa) = 51.44589 72.83709 62.14149
# Shear Modulus (GPa) = 10.37484 15.67305 13.02395
#
# Velocity S-wave (km/s) = 2.41604 2.96954 2.70697
# Velocity P-wave (km/s) = 6.06038 7.26210 6.68828
#
# Compressibility (1/GPa) = 0.01943790
#
# Stress axis : x y z
#
# Youngs Moduli (GPa) = 37.81558 38.06769 84.99925
#
# Poissons Ratio (x) = 0.29623 0.55473
# Poissons Ratio (y) = 0.29427 0.69802
# Poissons Ratio (z) = 0.24680 0.31261
#
# Static dielectric constant tensor:
#      x y z
#    x 3.085950 0.000000 0.000000 
#    y 0.000000 3.216610 0.000000 
#    z 0.000000 0.000000 3.560670 
# 
# 
# High freq. dielectric constant tensor:
#      x y z
#    x 1.659490 0.000000 0.000000 
#    y 0.000000 1.671570 0.000000 
#    z 0.000000 0.000000 1.704530 
# 
# From -- ./inp_files/6491.got.cif
#   From: 2010.03.12/outbox.cif.g09.slc.cpg/sg25_4_cif.got.tgz:6491.got - 2010.04.14 03:30:10.
