data_PCOD8166197
_publ_section_title
;
Structure prediction by ZEFSAII (Michael W. Deem and Ramdas Pophale) SiO2 
 PCOD8166197
Probable space group: I 21 21 21
;
_chemical_formula_sum "Si O2"
_cell_formula_units_Z 60
_cell_length_a 8.891580
_cell_length_b 18.218147
_cell_length_c 16.492757
_cell_angle_alpha 90.000000
_cell_angle_beta 90.000000
_cell_angle_gamma 90.000000
_cell_volume 2671.630560
_symmetry_space_group_name_H-M "I 21 21 21"
_symmetry_group_IT_number 24
_symmetry_cell_setting 'orthorhombic'
loop_
_space_group_symop_operation_xyz
x,y,z
-x,1/2-y,z
x,-y,1/2-z
1/2-x,y,-z
1/2+x,1/2+y,1/2+z
1/2-x,-y,1/2+z
1/2+x,1/2-y,-z
-x,1/2+y,1/2-z
loop_
_atom_site_type_symbol
_atom_site_label
_atom_site_fract_x
_atom_site_fract_y
_atom_site_fract_z
Si Si1 0.080261 0.675461 0.971134
Si Si2 0.315047 0.337513 0.836341
Si Si3 0.281224 0.075331 0.288669
Si Si4 0.750000 0.422074 0.000000
Si Si5 0.223180 0.514286 0.407731
Si Si6 0.382332 0.396224 0.308851
Si Si7 0.424887 0.046767 0.565248
Si Si8 0.172183 0.827373 0.346791
O O1 0.087546 0.666656 0.874810
O O2 0.000000 0.750000 0.995708
O O3 0.250000 0.672932 0.000000
O O4 0.977889 0.613640 0.011162
O O5 0.257591 0.397774 0.901052
O O6 0.246841 0.364871 0.750689
O O7 0.493613 0.333653 0.845954
O O8 0.260749 0.255094 0.856110
O O9 0.457462 0.085108 0.270976
O O10 0.219189 0.073264 0.381380
O O11 0.211248 0.143982 0.242098
O O12 0.224083 0.000000 0.250000
O O13 0.609425 0.478148 0.995254
O O14 0.752613 0.372856 0.918910
O O15 0.250000 0.489031 0.500000
O O16 0.336999 0.473848 0.348249
O O17 0.059608 0.484386 0.378878
#
# Coordination Sequence:
#
# PCOD8166197 Si02
#       8
#     8   8   8   4   8   8   8   8
#     4  12  29  49  73 112 147 194 244 309 379 443
#     4  11  26  48  71 103 148 200 235 309 370 445
#     4  12  25  44  72 108 141 192 246 308 367 440
#     4  12  24  46  78 106 142 186 256 306 352 452
#     4  12  23  46  73 105 138 193 249 297 364 442
#     4  12  26  47  73 105 148 186 250 303 371 445
#     4  12  24  47  78 104 145 192 246 306 363 444
#     4  11  27  47  72 109 145 193 250 296 378 438
#
# _framework density 22.458195
#
# number of rings (size 3 to 8) (size 9 to 14) (size 15 to 20)
#    0.000    0.267    5.333    2.800    5.600    1.067 
#    0.000    0.000    0.000    0.000    0.000    0.000 
#    0.000    0.000    0.000    0.000    0.000    0.000 
#
# Total GULP energy -371799.487876 kJ/mol
# GULP energy per Si atom -12393.316263 kJ/mol
# Density = 2.240708 g / cm^3
# Si number density = 22.458195 Si / 1000 Ang^3
#
#
#
# Elastic Constant Matrix: (Units=GPa)
#
#
# Indices 1 2 3 4 5 6 
#
# 1 71.7720 38.5623 33.6504 0.0000 0.0000 0.0000
# 2 38.5623 180.7590 50.3633 0.0000 0.0000 0.0000
# 3 33.6504 50.3633 102.3123 0.0000 0.0000 0.0000
# 4 0.0000 0.0000 0.0000 31.4434 0.0000 0.0000
# 5 0.0000 0.0000 0.0000 0.0000 100.7141 0.0000
# 6 0.0000 0.0000 0.0000 0.0000 0.0000 44.3672
#
#
#
# Elastic Compliance Matrix: (Units=1/GPa)
#
#
# Indices 1 2 3 4 5 6 
#
# 1 0.017361 -0.002449 -0.004505 0.000000 0.000000 0.000000
# 2 -0.002449 0.006757 -0.002521 0.000000 0.000000 0.000000
# 3 -0.004505 -0.002521 0.012496 0.000000 0.000000 0.000000
# 4 0.000000 0.000000 0.000000 0.031803 0.000000 0.000000
# 5 0.000000 0.000000 0.000000 0.000000 0.009929 0.000000
# 6 0.000000 0.000000 0.000000 0.000000 0.000000 0.022539
#
#
# Mechanical properties :
#
#
# Convention : Reuss Voigt Hill
#
# Bulk Modulus (GPa) = 56.60559 66.66614 61.63587
# Shear Modulus (GPa) = 39.77034 50.78942 45.27988
#
# Velocity S-wave (km/s) = 4.21272 4.76069 4.49507
# Velocity P-wave (km/s) = 6.99445 7.74390 7.37869
#
# Compressibility (1/GPa) = 0.01766610
#
# Stress axis : x y z
#
# Youngs Moduli (GPa) = 57.60182 147.99611 80.02309
#
# Poissons Ratio (x) = 0.36238 0.36047
# Poissons Ratio (y) = 0.14104 0.20172
# Poissons Ratio (z) = 0.25947 0.37307
#
# Static dielectric constant tensor:
#      x y z
#    x 4.217590 0.000000 0.000000 
#    y 0.000000 4.314500 0.000000 
#    z 0.000000 0.000000 3.998170 
# 
# 
# High freq. dielectric constant tensor:
#      x y z
#    x 1.895030 0.000000 0.000000 
#    y 0.000000 1.900800 0.000000 
#    z 0.000000 0.000000 1.876710 
# 
# From -- ./inp_files/29709.got.cif
#   From: 2010.03.12/outbox.cif.g09.slc.cpg/sg24_15_cif.got.tgz:29709.got - 2010.04.14 03:06:53.
