data_PCOD8166820
_publ_section_title
;
Structure prediction by ZEFSAII (Michael W. Deem and Ramdas Pophale) SiO2 
 PCOD8166820
Probable space group: P M M 2
;
_chemical_formula_sum "Si O2"
_cell_formula_units_Z 32
_cell_length_a 9.130237
_cell_length_b 9.313034
_cell_length_c 20.387657
_cell_angle_alpha 90.000000
_cell_angle_beta 90.000000
_cell_angle_gamma 90.000000
_cell_volume 1733.566707
_symmetry_space_group_name_H-M "P M M 2"
_symmetry_group_IT_number 25
_symmetry_cell_setting 'orthorhombic'
loop_
_space_group_symop_operation_xyz
x,y,z
-x,-y,z
-x,y,z
x,-y,z
loop_
_atom_site_type_symbol
_atom_site_label
_atom_site_fract_x
_atom_site_fract_y
_atom_site_fract_z
Si Si1 0.830104 0.832299 0.772200
Si Si2 0.665055 0.170629 0.644186
Si Si3 0.670599 0.668843 0.398317
Si Si4 0.830867 0.834501 0.288825
Si Si5 0.165366 0.833484 0.137461
Si Si6 0.170898 0.334054 0.899742
Si Si7 0.329728 0.665867 0.029010
Si Si8 0.171922 0.167479 0.514355
O O1 0.741466 0.770855 0.710030
O O2 0.771538 0.752138 0.836698
O O3 0.000000 0.798874 0.759425
O O4 0.801871 0.000000 0.782637
O O5 0.500000 0.230820 0.640248
O O6 0.754780 0.224678 0.581207
O O7 0.666642 0.000000 0.645776
O O8 0.500000 0.704426 0.407584
O O9 0.700616 0.500000 0.399374
O O10 0.724796 0.731467 0.329315
O O11 0.762270 0.742564 0.455373
O O12 0.796930 0.803757 0.213020
O O13 0.000000 0.800094 0.305284
O O14 0.797509 0.000000 0.306366
O O15 0.277796 0.746437 0.093642
O O16 0.000000 0.783057 0.122166
O O17 0.183103 0.000000 0.121068
O O18 0.209415 0.500000 0.888256
O O19 0.000000 0.307938 0.910426
O O20 0.250859 0.273044 0.964154
O O21 0.500000 0.692414 0.019709
O O22 0.289675 0.500000 0.038376
O O23 0.000000 0.195768 0.519188
O O24 0.206350 0.000000 0.502446
#
# Coordination Sequence:
#
# PCOD8166820 Si02
#       8
#     4   4   4   4   4   4   4   4
#     4   9  17  30  49  73  99 127 164 211 257 301
#     4   9  17  30  50  76 104 133 166 206 254 307
#     4  11  24  38  52  76 110 142 172 210 256 305
#     4   9  19  37  59  81 104 133 172 214 255 304
#     4   9  19  36  57  80 105 133 169 214 259 304
#     4   9  18  33  51  70  96 133 174 212 253 304
#     4  10  21  35  51  74 105 139 174 213 258 309
#     4  10  20  35  57  81 103 133 175 218 258 304
#
# _framework density 18.459053000000001
#
# number of rings (size 3 to 8) (size 9 to 14) (size 15 to 20)
#    0.000    2.500    0.000    2.625    0.000    8.000 
#    0.000    5.625    0.000    2.250    0.000    0.000 
#    0.000    0.000    0.000    0.000    0.000    0.000 
#
# Total GULP energy -396876.700102 kJ/mol
# GULP energy per Si atom -12402.396878 kJ/mol
# Density = 1.841704 g / cm^3
# Si number density = 18.459053 Si / 1000 Ang^3
#
#
#
# Elastic Constant Matrix: (Units=GPa)
#
#
# Indices 1 2 3 4 5 6 
#
# 1 91.8299 45.2888 67.1852 0.0000 0.0000 0.0000
# 2 45.2888 56.7440 54.6503 0.0000 0.0000 0.0000
# 3 67.1852 54.6503 139.7802 0.0000 0.0000 0.0000
# 4 0.0000 0.0000 0.0000 -7.7080 0.0000 0.0000
# 5 0.0000 0.0000 0.0000 0.0000 19.8391 0.0000
# 6 0.0000 0.0000 0.0000 0.0000 0.0000 25.9855
#
#
#
# Elastic Compliance Matrix: (Units=1/GPa)
#
#
# Indices 1 2 3 4 5 6 
#
# 1 0.020280 -0.010904 -0.005484 0.000000 0.000000 0.000000
# 2 -0.010904 0.034129 -0.008103 0.000000 0.000000 0.000000
# 3 -0.005484 -0.008103 0.012958 0.000000 0.000000 0.000000
# 4 0.000000 0.000000 0.000000 -0.129735 0.000000 0.000000
# 5 0.000000 0.000000 0.000000 0.000000 0.050405 0.000000
# 6 0.000000 0.000000 0.000000 0.000000 0.000000 0.038483
#
#
# Mechanical properties :
#
#
# Convention : Reuss Voigt Hill
#
# Bulk Modulus (GPa) = 54.39093 69.17809 61.78451
# Shear Modulus (GPa) = 61.25122 15.70531 38.47826
#
# Velocity S-wave (km/s) = 5.76665 2.92004 4.57061
# Velocity P-wave (km/s) = 8.59469 6.99477 7.83567
#
# Compressibility (1/GPa) = 0.01838542
#
# Stress axis : x y z
#
# Youngs Moduli (GPa) = 49.31036 29.30026 77.17170
#
# Poissons Ratio (x) = 0.31948 0.42324
# Poissons Ratio (y) = 0.53767 0.62531
# Poissons Ratio (z) = 0.27044 0.23741
#
# Static dielectric constant tensor:
#      x y z
#    x 3.435200 0.000000 0.000000 
#    y 0.000000 3.216000 0.000000 
#    z 0.000000 0.000000 3.552780 
# 
# 
# High freq. dielectric constant tensor:
#      x y z
#    x 1.718680 0.000000 0.000000 
#    y 0.000000 1.693440 0.000000 
#    z 0.000000 0.000000 1.730400 
# 
# From -- ./inp_files/6487.got.cif
#   From: 2010.03.12/outbox.cif.g09.slc.cpg/sg25_4_cif.got.tgz:6487.got - 2010.04.14 03:30:10.
