data_PCOD8166509
_publ_section_title
;
Structure prediction by ZEFSAII (Michael W. Deem and Ramdas Pophale) SiO2 
 PCOD8166509
Probable space group: P M M 2
;
_chemical_formula_sum "Si O2"
_cell_formula_units_Z 24
_cell_length_a 8.668532
_cell_length_b 15.409780
_cell_length_c 9.855993
_cell_angle_alpha 90.000000
_cell_angle_beta 90.000000
_cell_angle_gamma 90.000000
_cell_volume 1316.565231
_symmetry_space_group_name_H-M "P M M 2"
_symmetry_group_IT_number 25
_symmetry_cell_setting 'orthorhombic'
loop_
_space_group_symop_operation_xyz
x,y,z
-x,-y,z
-x,y,z
x,-y,z
loop_
_atom_site_type_symbol
_atom_site_label
_atom_site_fract_x
_atom_site_fract_y
_atom_site_fract_z
Si Si1 0.816266 0.222738 0.201480
Si Si2 0.323183 0.899518 0.983194
Si Si3 0.679110 0.230590 0.494077
Si Si4 0.173263 0.405218 0.513016
Si Si5 0.821425 0.101118 0.701549
Si Si6 0.173327 0.408864 0.190817
O O1 0.775088 0.210783 0.358707
O O2 0.753193 0.316949 0.144787
O O3 0.000000 0.216494 0.186886
O O4 0.733815 0.149300 0.116198
O O5 0.500000 0.876506 0.951765
O O6 0.221195 0.871796 0.854586
O O7 0.301399 0.000000 0.016671
O O8 0.500000 0.229418 0.457936
O O9 0.721558 0.324452 0.560604
O O10 0.716414 0.155348 0.600050
O O11 0.234842 0.500000 0.565257
O O12 0.170969 0.406498 0.351988
O O13 0.000000 0.390406 0.568507
O O14 0.000000 0.122307 0.676036
O O15 0.784229 0.000000 0.677818
O O16 0.257221 0.500000 0.143367
O O17 0.000000 0.412607 0.134656
#
# Coordination Sequence:
#
# PCOD8166509 Si02
#       6
#     4   4   4   4   4   4
#     4  10  19  32  52  77 104 135 172 211 249 295
#     4  10  21  37  55  75 101 132 165 206 260 314
#     4  11  21  32  50  78 110 138 167 211 262 304
#     4   8  14  27  47  70  99 135 172 208 247 296
#     4  10  21  38  58  76  96 129 173 214 254 309
#     4   7  11  22  42  68  96 126 161 200 240 282
#
# _framework density 18.229251999999999
#
# number of rings (size 3 to 8) (size 9 to 14) (size 15 to 20)
#    0.000    2.667    0.000    5.000    0.000    3.000 
#    0.000    0.000    0.000    2.500    0.000    2.333 
#    0.000    0.000    0.000    0.000    0.000    0.000 
#
# Total GULP energy -297349.829817 kJ/mol
# GULP energy per Si atom -12389.576242 kJ/mol
# Density = 1.818776 g / cm^3
# Si number density = 18.229252 Si / 1000 Ang^3
#
#
#
# Elastic Constant Matrix: (Units=GPa)
#
#
# Indices 1 2 3 4 5 6 
#
# 1 55.3762 38.0229 7.2691 0.0000 0.0000 0.0000
# 2 38.0229 107.4243 46.1425 0.0000 0.0000 0.0000
# 3 7.2691 46.1425 47.2005 0.0000 0.0000 0.0000
# 4 0.0000 0.0000 0.0000 -0.4858 0.0000 0.0000
# 5 0.0000 0.0000 0.0000 0.0000 24.3197 0.0000
# 6 0.0000 0.0000 0.0000 0.0000 0.0000 24.5262
#
#
#
# Elastic Compliance Matrix: (Units=1/GPa)
#
#
# Indices 1 2 3 4 5 6 
#
# 1 0.025695 -0.012748 0.008505 0.000000 0.000000 0.000000
# 2 -0.012748 0.022372 -0.019907 0.000000 0.000000 0.000000
# 3 0.008505 -0.019907 0.039337 0.000000 0.000000 0.000000
# 4 0.000000 0.000000 0.000000 -2.058343 0.000000 0.000000
# 5 0.000000 0.000000 0.000000 0.000000 0.041119 0.000000
# 6 0.000000 0.000000 0.000000 0.000000 0.000000 0.040773
#
#
# Mechanical properties :
#
#
# Convention : Reuss Voigt Hill
#
# Bulk Modulus (GPa) = 25.57277 43.65220 34.61248
# Shear Modulus (GPa) = -2.73566 17.57644 7.42039
#
# Velocity S-wave (km/s) = -1.22636 3.10851 2.01976
# Velocity P-wave (km/s) = 3.47183 6.07305 4.94649
#
# Compressibility (1/GPa) = 0.03910410
#
# Stress axis : x y z
#
# Youngs Moduli (GPa) = 38.91811 44.69902 25.42115
#
# Poissons Ratio (x) = 0.56982 -0.21621
# Poissons Ratio (y) = 0.49613 0.50606
# Poissons Ratio (z) = -0.33100 0.88983
#
# Static dielectric constant tensor:
#      x y z
#    x 3.246080 0.000000 0.000000 
#    y 0.000000 4.085210 0.000000 
#    z 0.000000 0.000000 2.912880 
# 
# 
# High freq. dielectric constant tensor:
#      x y z
#    x 1.693590 0.000000 0.000000 
#    y 0.000000 1.729480 0.000000 
#    z 0.000000 0.000000 1.659240 
# 
# From -- ./inp_files/2005.got.cif
#   From: 2010.03.12/outbox.cif.g09.slc.cpg/sg25_2_cif.got.tgz:2005.got - 2010.04.14 03:30:10.
