data_PCOD8166833
_publ_section_title
;
Structure prediction by ZEFSAII (Michael W. Deem and Ramdas Pophale) SiO2 
 PCOD8166833
Probable space group: P M M 2
;
_chemical_formula_sum "Si O2"
_cell_formula_units_Z 24
_cell_length_a 14.013208
_cell_length_b 8.517393
_cell_length_c 10.109178
_cell_angle_alpha 90.000000
_cell_angle_beta 90.000000
_cell_angle_gamma 90.000000
_cell_volume 1206.591047
_symmetry_space_group_name_H-M "P M M 2"
_symmetry_group_IT_number 25
_symmetry_cell_setting 'orthorhombic'
loop_
_space_group_symop_operation_xyz
x,y,z
-x,-y,z
-x,y,z
x,-y,z
loop_
_atom_site_type_symbol
_atom_site_label
_atom_site_fract_x
_atom_site_fract_y
_atom_site_fract_z
Si Si1 0.893384 0.180835 0.789950
Si Si2 0.610399 0.680321 0.672833
Si Si3 0.107460 0.317332 0.509409
Si Si4 0.292525 0.180436 0.422867
Si Si5 0.704480 0.179828 0.923447
Si Si6 0.389754 0.681073 0.173226
O O1 0.868916 0.287007 0.663381
O O2 0.817378 0.217696 0.905635
O O3 0.000000 0.217464 0.843703
O O4 0.884145 0.000000 0.744677
O O5 0.500000 0.720295 0.656294
O O6 0.627065 0.500000 0.713548
O O7 0.659316 0.710598 0.532498
O O8 0.653056 0.792755 0.784067
O O9 0.119570 0.500000 0.479706
O O10 0.179917 0.221389 0.416271
O O11 0.000000 0.260104 0.477250
O O12 0.339273 0.211639 0.281499
O O13 0.307445 0.000000 0.460731
O O14 0.688574 0.000000 0.966528
O O15 0.661166 0.293433 0.033114
O O16 0.500000 0.730623 0.160621
O O17 0.379744 0.500000 0.213897
#
# Coordination Sequence:
#
# PCOD8166833 Si02
#       6
#     4   4   4   4   4   4
#     4   9  18  34  57  87 122 157 194 239 294 352
#     4  11  23  38  58  85 118 155 197 248 301 355
#     4  10  20  35  59  90 122 157 197 242 294 353
#     4  12  24  39  61  89 119 155 198 249 304 357
#     4  11  22  37  60  90 120 156 199 247 300 354
#     4  11  25  44  63  83 115 161 205 250 306 363
#
# _framework density 19.890750000000001
#
# number of rings (size 3 to 8) (size 9 to 14) (size 15 to 20)
#    0.000    1.333    1.667    4.500    0.000    8.333 
#    0.000    0.833    0.000    3.000    0.000    0.000 
#    0.000    0.000    0.000    0.000    0.000    0.000 
#
# Total GULP energy -297725.817682 kJ/mol
# GULP energy per Si atom -12405.242403 kJ/mol
# Density = 1.984548 g / cm^3
# Si number density = 19.890750 Si / 1000 Ang^3
#
#
#
# Elastic Constant Matrix: (Units=GPa)
#
#
# Indices 1 2 3 4 5 6 
#
# 1 146.2571 39.0965 49.3425 0.0000 0.0000 0.0000
# 2 39.0965 60.8353 9.5924 0.0000 0.0000 0.0000
# 3 49.3425 9.5924 83.8482 0.0000 0.0000 0.0000
# 4 0.0000 0.0000 0.0000 32.9197 0.0000 0.0000
# 5 0.0000 0.0000 0.0000 0.0000 33.7948 0.0000
# 6 0.0000 0.0000 0.0000 0.0000 0.0000 26.3877
#
#
#
# Elastic Compliance Matrix: (Units=1/GPa)
#
#
# Indices 1 2 3 4 5 6 
#
# 1 0.010153 -0.005686 -0.005325 0.000000 0.000000 0.000000
# 2 -0.005686 0.019924 0.001067 0.000000 0.000000 0.000000
# 3 -0.005325 0.001067 0.014938 0.000000 0.000000 0.000000
# 4 0.000000 0.000000 0.000000 0.030377 0.000000 0.000000
# 5 0.000000 0.000000 0.000000 0.000000 0.029590 0.000000
# 6 0.000000 0.000000 0.000000 0.000000 0.000000 0.037896
#
#
# Mechanical properties :
#
#
# Convention : Reuss Voigt Hill
#
# Bulk Modulus (GPa) = 39.79727 54.11149 46.95438
# Shear Modulus (GPa) = 29.21555 31.48106 30.34831
#
# Velocity S-wave (km/s) = 3.83665 3.98263 3.91032
# Velocity P-wave (km/s) = 6.29904 6.95786 6.63663
#
# Compressibility (1/GPa) = 0.02512735
#
# Stress axis : x y z
#
# Youngs Moduli (GPa) = 98.48831 50.19171 66.94471
#
# Poissons Ratio (x) = 0.28537 0.35645
# Poissons Ratio (y) = 0.55997 -0.07140
# Poissons Ratio (z) = 0.52441 -0.05353
#
# Static dielectric constant tensor:
#      x y z
#    x 4.029020 0.000000 0.000000 
#    y 0.000000 3.590680 0.000000 
#    z 0.000000 0.000000 3.349610 
# 
# 
# High freq. dielectric constant tensor:
#      x y z
#    x 1.796820 0.000000 0.000000 
#    y 0.000000 1.781560 0.000000 
#    z 0.000000 0.000000 1.747730 
# 
# From -- ./inp_files/1953.got.cif
#   From: 2010.03.12/outbox.cif.g09.slc.cpg/sg25_1_cif.got.tgz:1953.got - 2010.04.14 03:30:10.
