data_PCOD8166346
_publ_section_title
;
Structure prediction by ZEFSAII (Michael W. Deem and Ramdas Pophale) SiO2 
 PCOD8166346
Probable space group: P M M 2
;
_chemical_formula_sum "Si O2"
_cell_formula_units_Z 32
_cell_length_a 14.076882
_cell_length_b 9.360795
_cell_length_c 15.477281
_cell_angle_alpha 90.000000
_cell_angle_beta 90.000000
_cell_angle_gamma 90.000000
_cell_volume 2039.453802
_symmetry_space_group_name_H-M "P M M 2"
_symmetry_group_IT_number 25
_symmetry_cell_setting 'orthorhombic'
loop_
_space_group_symop_operation_xyz
x,y,z
-x,-y,z
-x,y,z
x,-y,z
loop_
_atom_site_type_symbol
_atom_site_label
_atom_site_fract_x
_atom_site_fract_y
_atom_site_fract_z
Si Si1 0.891974 0.334977 0.306260
Si Si2 0.390972 0.832581 0.539190
Si Si3 0.606175 0.830506 0.205816
Si Si4 0.389498 0.332930 0.893575
Si Si5 0.387264 0.657526 0.700386
Si Si6 0.891303 0.335220 0.106982
Si Si7 0.278290 0.830596 0.370978
Si Si8 0.721537 0.170053 0.038392
O O1 0.865813 0.500000 0.319233
O O2 0.877768 0.290775 0.206648
O O3 0.825437 0.239524 0.367099
O O4 0.000000 0.305555 0.334719
O O5 0.500000 0.787110 0.522632
O O6 0.348658 0.762802 0.626355
O O7 0.329640 0.779418 0.458160
O O8 0.382347 0.000000 0.551672
O O9 0.500000 0.765915 0.204346
O O10 0.659737 0.773189 0.290571
O O11 0.660705 0.778355 0.120744
O O12 0.601430 0.000000 0.208637
O O13 0.500000 0.296192 0.907962
O O14 0.371045 0.500000 0.912586
O O15 0.356405 0.293449 0.796192
O O16 0.327023 0.232885 0.953826
O O17 0.500000 0.653403 0.698656
O O18 0.346430 0.500000 0.680933
O O19 0.862192 0.500000 0.093434
O O20 0.827018 0.234000 0.047377
O O21 0.000000 0.311179 0.078734
O O22 0.266840 0.000000 0.367847
O O23 0.727425 0.000000 0.030928
#
# Coordination Sequence:
#
# PCOD8166346 Si02
#       8
#     4   4   4   4   4   4   4   4
#     4   9  18  32  48  65  87 116 151 194 237 270
#     4   9  17  28  44  67  94 123 153 186 226 270
#     4   9  17  28  40  58  90 127 156 180 211 256
#     4   9  18  32  48  66  92 126 159 191 229 274
#     4   8  15  29  47  65  87 118 155 193 230 265
#     4   9  18  33  50  65  86 119 156 195 237 277
#     4  10  18  29  45  66  91 122 156 187 222 267
#     4  11  20  29  45  70  95 122 155 192 231 271
#
# _framework density 15.690474999999999
#
# number of rings (size 3 to 8) (size 9 to 14) (size 15 to 20)
#    0.000    2.750    1.250    2.625    0.000    3.750 
#    0.000    2.500    0.000    1.875    0.000    0.875 
#    0.000    5.000    0.000    0.000    0.000    0.000 
#
# Total GULP energy -396752.068457 kJ/mol
# GULP energy per Si atom -12398.502139 kJ/mol
# Density = 1.565476 g / cm^3
# Si number density = 15.690475 Si / 1000 Ang^3
#
#
#
# Elastic Constant Matrix: (Units=GPa)
#
#
# Indices 1 2 3 4 5 6 
#
# 1 87.9706 43.1296 52.2274 0.0000 0.0000 0.0000
# 2 43.1296 54.6404 50.6360 0.0000 0.0000 0.0000
# 3 52.2274 50.6360 121.9240 0.0000 0.0000 0.0000
# 4 0.0000 0.0000 0.0000 26.6244 0.0000 0.0000
# 5 0.0000 0.0000 0.0000 0.0000 12.3820 0.0000
# 6 0.0000 0.0000 0.0000 0.0000 0.0000 25.1288
#
#
#
# Elastic Compliance Matrix: (Units=1/GPa)
#
#
# Indices 1 2 3 4 5 6 
#
# 1 0.019259 -0.012285 -0.003148 0.000000 0.000000 0.000000
# 2 -0.012285 0.037588 -0.010348 0.000000 0.000000 0.000000
# 3 -0.003148 -0.010348 0.013848 0.000000 0.000000 0.000000
# 4 0.000000 0.000000 0.000000 0.037560 0.000000 0.000000
# 5 0.000000 0.000000 0.000000 0.000000 0.080762 0.000000
# 6 0.000000 0.000000 0.000000 0.000000 0.000000 0.039795
#
#
# Mechanical properties :
#
#
# Convention : Reuss Voigt Hill
#
# Bulk Modulus (GPa) = 52.26471 61.83566 57.05019
# Shear Modulus (GPa) = 17.43663 20.72983 19.08323
#
# Velocity S-wave (km/s) = 3.33721 3.63874 3.49123
# Velocity P-wave (km/s) = 6.94489 7.55970 7.25881
#
# Compressibility (1/GPa) = 0.01913337
#
# Stress axis : x y z
#
# Youngs Moduli (GPa) = 51.92314 26.60400 72.21223
#
# Poissons Ratio (x) = 0.32682 0.22732
# Poissons Ratio (y) = 0.63786 0.74728
# Poissons Ratio (z) = 0.16345 0.27531
#
# Static dielectric constant tensor:
#      x y z
#    x 2.871910 0.000000 0.000000 
#    y 0.000000 2.872740 0.000000 
#    z 0.000000 0.000000 3.033540 
# 
# 
# High freq. dielectric constant tensor:
#      x y z
#    x 1.583720 0.000000 0.000000 
#    y 0.000000 1.593250 0.000000 
#    z 0.000000 0.000000 1.593060 
# 
# From -- ./inp_files/5689.got.cif
#   From: 2010.03.12/outbox.cif.g09.slc.cpg/sg25_3_cif.got.tgz:5689.got - 2010.04.14 03:30:10.
