data_PCOD8166672
_publ_section_title
;
Structure prediction by ZEFSAII (Michael W. Deem and Ramdas Pophale) SiO2 
 PCOD8166672
Probable space group: P M M 2
;
_chemical_formula_sum "Si O2"
_cell_formula_units_Z 32
_cell_length_a 8.856527
_cell_length_b 13.934752
_cell_length_c 15.409111
_cell_angle_alpha 90.000000
_cell_angle_beta 90.000000
_cell_angle_gamma 90.000000
_cell_volume 1901.692433
_symmetry_space_group_name_H-M "P M M 2"
_symmetry_group_IT_number 25
_symmetry_cell_setting 'orthorhombic'
loop_
_space_group_symop_operation_xyz
x,y,z
-x,-y,z
-x,y,z
x,-y,z
loop_
_atom_site_type_symbol
_atom_site_label
_atom_site_fract_x
_atom_site_fract_y
_atom_site_fract_z
Si Si1 0.830548 0.113867 0.653870
Si Si2 0.827848 0.606894 0.082892
Si Si3 0.329342 0.886005 0.481849
Si Si4 0.674207 0.888066 0.158092
Si Si5 0.824269 0.800071 0.994282
Si Si6 0.324194 0.391598 0.263099
Si Si7 0.177538 0.789486 0.319688
Si Si8 0.323250 0.888259 0.830363
O O1 0.754679 0.155618 0.566676
O O2 0.731951 0.146402 0.736055
O O3 0.000000 0.155114 0.662221
O O4 0.834058 0.000000 0.648216
O O5 0.798226 0.500000 0.044297
O O6 0.718658 0.627355 0.163283
O O7 0.000000 0.615744 0.116752
O O8 0.795461 0.686469 0.009640
O O9 0.500000 0.847448 0.482727
O O10 0.247970 0.851114 0.395916
O O11 0.325957 0.000000 0.481699
O O12 0.500000 0.857310 0.166764
O O13 0.772347 0.830535 0.227179
O O14 0.694487 0.000000 0.175884
O O15 0.732597 0.864148 0.062375
O O16 0.765477 0.824298 0.899158
O O17 0.000000 0.826208 0.001882
O O18 0.500000 0.370607 0.274039
O O19 0.282490 0.500000 0.290172
O O20 0.232341 0.320718 0.326180
O O21 0.000000 0.795100 0.327938
O O22 0.500000 0.868680 0.838425
O O23 0.284904 0.000000 0.845670
#
# Coordination Sequence:
#
# PCOD8166672 Si02
#       8
#     4   4   4   4   4   4   4   4
#     4   9  17  31  51  74  99 127 163 208 251 293
#     4   9  18  33  51  71  96 126 162 206 255 301
#     4  10  20  34  52  74 102 135 169 206 248 296
#     4  11  23  36  48  65  96 136 172 206 245 292
#     4  11  21  32  49  73  98 130 167 206 250 297
#     4  10  20  34  53  74  96 126 165 209 254 299
#     4  12  23  34  50  73 100 133 169 207 249 295
#     4  10  20  33  49  70  99 135 170 205 246 293
#
# _framework density 16.827116
#
# number of rings (size 3 to 8) (size 9 to 14) (size 15 to 20)
#    0.000    1.750    1.250    4.125    0.000    8.250 
#    0.000    0.000    0.000    0.000    0.000    0.875 
#    0.000    5.000    0.000    0.000    0.000    0.000 
#
# Total GULP energy -396879.815948 kJ/mol
# GULP energy per Si atom -12402.494248 kJ/mol
# Density = 1.678882 g / cm^3
# Si number density = 16.827116 Si / 1000 Ang^3
#
#
#
# Elastic Constant Matrix: (Units=GPa)
#
#
# Indices 1 2 3 4 5 6 
#
# 1 92.4390 31.5966 18.0618 0.0000 0.0000 0.0000
# 2 31.5966 48.0716 11.4935 0.0000 0.0000 0.0000
# 3 18.0618 11.4935 64.1418 0.0000 0.0000 0.0000
# 4 0.0000 0.0000 0.0000 8.9211 0.0000 0.0000
# 5 0.0000 0.0000 0.0000 0.0000 33.8174 0.0000
# 6 0.0000 0.0000 0.0000 0.0000 0.0000 22.2361
#
#
#
# Elastic Compliance Matrix: (Units=1/GPa)
#
#
# Indices 1 2 3 4 5 6 
#
# 1 0.014312 -0.008821 -0.002449 0.000000 0.000000 0.000000
# 2 -0.008821 0.027170 -0.002385 0.000000 0.000000 0.000000
# 3 -0.002449 -0.002385 0.016708 0.000000 0.000000 0.000000
# 4 0.000000 0.000000 0.000000 0.112094 0.000000 0.000000
# 5 0.000000 0.000000 0.000000 0.000000 0.029571 0.000000
# 6 0.000000 0.000000 0.000000 0.000000 0.000000 0.044972
#
#
# Mechanical properties :
#
#
# Convention : Reuss Voigt Hill
#
# Bulk Modulus (GPa) = 32.38434 36.32849 34.35642
# Shear Modulus (GPa) = 17.70355 22.56162 20.13259
#
# Velocity S-wave (km/s) = 3.24710 3.66565 3.46271
# Velocity P-wave (km/s) = 5.77454 6.28905 6.03728
#
# Compressibility (1/GPa) = 0.03087912
#
# Stress axis : x y z
#
# Youngs Moduli (GPa) = 69.87287 36.80469 59.85332
#
# Poissons Ratio (x) = 0.32466 0.14660
# Poissons Ratio (y) = 0.61636 0.14273
# Poissons Ratio (z) = 0.17115 0.08777
#
# Static dielectric constant tensor:
#      x y z
#    x 3.371730 0.000000 0.000000 
#    y 0.000000 3.167010 0.000000 
#    z 0.000000 0.000000 3.068280 
# 
# 
# High freq. dielectric constant tensor:
#      x y z
#    x 1.668960 0.000000 0.000000 
#    y 0.000000 1.628010 0.000000 
#    z 0.000000 0.000000 1.633830 
# 
# From -- ./inp_files/5718.got.cif
#   From: 2010.03.12/outbox.cif.g09.slc.cpg/sg25_3_cif.got.tgz:5718.got - 2010.04.14 03:30:10.
