data_PCOD8166804
_publ_section_title
;
Structure prediction by ZEFSAII (Michael W. Deem and Ramdas Pophale) SiO2 
 PCOD8166804
Probable space group: P M M 2
;
_chemical_formula_sum "Si O2"
_cell_formula_units_Z 32
_cell_length_a 14.646064
_cell_length_b 8.899267
_cell_length_c 12.388346
_cell_angle_alpha 90.000000
_cell_angle_beta 90.000000
_cell_angle_gamma 90.000000
_cell_volume 1614.687529
_symmetry_space_group_name_H-M "P M M 2"
_symmetry_group_IT_number 25
_symmetry_cell_setting 'orthorhombic'
loop_
_space_group_symop_operation_xyz
x,y,z
-x,-y,z
-x,y,z
x,-y,z
loop_
_atom_site_type_symbol
_atom_site_label
_atom_site_fract_x
_atom_site_fract_y
_atom_site_fract_z
Si Si1 0.640121 0.175634 0.986370
Si Si2 0.602274 0.327234 0.761483
Si Si3 0.771994 0.176742 0.671420
Si Si4 0.817193 0.331715 0.042415
Si Si5 0.598472 0.326117 0.203570
Si Si6 0.900147 0.670609 0.828681
Si Si7 0.103943 0.822081 0.474859
Si Si8 0.793455 0.327141 0.281720
O O1 0.603045 0.250917 0.878157
O O2 0.621901 0.000000 0.976429
O O3 0.746441 0.209071 0.000263
O O4 0.589031 0.238188 0.091405
O O5 0.500000 0.311913 0.713368
O O6 0.630945 0.500000 0.775369
O O7 0.671949 0.251498 0.676025
O O8 0.825050 0.218027 0.780846
O O9 0.832695 0.239578 0.572114
O O10 0.758120 0.000000 0.663864
O O11 0.773849 0.500000 0.036820
O O12 0.843899 0.300831 0.166604
O O13 0.901539 0.319471 0.959730
O O14 0.500000 0.302454 0.264279
O O15 0.614429 0.500000 0.175667
O O16 0.686548 0.273337 0.273818
O O17 0.878215 0.500000 0.792212
O O18 0.000000 0.719844 0.787643
O O19 0.151307 0.773932 0.364371
O O20 0.000000 0.757888 0.483603
O O21 0.100131 0.000000 0.479324
O O22 0.799146 0.500000 0.319066
#
# Coordination Sequence:
#
# PCOD8166804 Si02
#       8
#     4   4   4   4   4   4   4   4
#     4  11  20  30  50  82 118 155 195 235 275 329
#     4  11  23  38  57  82 115 154 192 233 285 345
#     4  11  23  40  61  84 113 148 191 245 294 342
#     4   9  18  34  54  79 118 157 188 232 288 338
#     4   9  18  34  55  80 115 157 194 231 281 337
#     4  10  20  34  56  85 116 152 190 230 285 351
#     4  10  23  43  63  83 111 149 190 236 293 349
#     4   9  19  35  58  87 114 145 192 242 283 331
#
# _framework density 19.818076000000001
#
# number of rings (size 3 to 8) (size 9 to 14) (size 15 to 20)
#    0.000    2.000    1.250    3.375    0.000    7.250 
#    0.000    1.875    0.000    2.250    0.000    0.000 
#    0.000    0.000    0.000    0.000    0.000    0.000 
#
# Total GULP energy -396586.669405 kJ/mol
# GULP energy per Si atom -12393.333419 kJ/mol
# Density = 1.977297 g / cm^3
# Si number density = 19.818076 Si / 1000 Ang^3
#
#
#
# Elastic Constant Matrix: (Units=GPa)
#
#
# Indices 1 2 3 4 5 6 
#
# 1 131.4243 39.5034 54.0663 0.0000 0.0000 0.0000
# 2 39.5034 74.8171 27.6869 0.0000 0.0000 0.0000
# 3 54.0663 27.6869 96.9516 0.0000 0.0000 0.0000
# 4 0.0000 0.0000 0.0000 29.9334 0.0000 0.0000
# 5 0.0000 0.0000 0.0000 0.0000 20.6355 0.0000
# 6 0.0000 0.0000 0.0000 0.0000 0.0000 23.6223
#
#
#
# Elastic Compliance Matrix: (Units=1/GPa)
#
#
# Indices 1 2 3 4 5 6 
#
# 1 0.010797 -0.003883 -0.004912 0.000000 0.000000 0.000000
# 2 -0.003883 0.016342 -0.002501 0.000000 0.000000 0.000000
# 3 -0.004912 -0.002501 0.013768 0.000000 0.000000 0.000000
# 4 0.000000 0.000000 0.000000 0.033407 0.000000 0.000000
# 5 0.000000 0.000000 0.000000 0.000000 0.048460 0.000000
# 6 0.000000 0.000000 0.000000 0.000000 0.000000 0.042333
#
#
# Mechanical properties :
#
#
# Convention : Reuss Voigt Hill
#
# Bulk Modulus (GPa) = 54.60387 60.63404 57.61895
# Shear Modulus (GPa) = 25.79914 26.96734 26.38324
#
# Velocity S-wave (km/s) = 3.61196 3.69283 3.65262
# Velocity P-wave (km/s) = 6.70875 6.98888 6.85025
#
# Compressibility (1/GPa) = 0.01831372
#
# Stress axis : x y z
#
# Youngs Moduli (GPa) = 92.61943 61.19274 72.63171
#
# Poissons Ratio (x) = 0.23761 0.35678
# Poissons Ratio (y) = 0.35964 0.18168
# Poissons Ratio (z) = 0.45496 0.15307
#
# Static dielectric constant tensor:
#      x y z
#    x 3.853880 0.000000 0.000000 
#    y 0.000000 3.472570 0.000000 
#    z 0.000000 0.000000 3.445260 
# 
# 
# High freq. dielectric constant tensor:
#      x y z
#    x 1.781150 0.000000 0.000000 
#    y 0.000000 1.762400 0.000000 
#    z 0.000000 0.000000 1.750060 
# 
# From -- ./inp_files/4905.got.cif
#   From: 2010.03.12/outbox.cif.g09.slc.cpg/sg25_3_cif.got.tgz:4905.got - 2010.04.14 03:30:10.
