data_PCOD8166062
_publ_section_title
;
Structure prediction by ZEFSAII (Michael W. Deem and Ramdas Pophale) SiO2 
 PCOD8166062
Probable space group: I 21 21 21
;
_chemical_formula_sum "Si O2"
_cell_formula_units_Z 28
_cell_length_a 4.917715
_cell_length_b 33.194344
_cell_length_c 7.735805
_cell_angle_alpha 90.000000
_cell_angle_beta 90.000000
_cell_angle_gamma 90.000000
_cell_volume 1262.795310
_symmetry_space_group_name_H-M "I 21 21 21"
_symmetry_group_IT_number 24
_symmetry_cell_setting 'orthorhombic'
loop_
_space_group_symop_operation_xyz
x,y,z
-x,1/2-y,z
x,-y,1/2-z
1/2-x,y,-z
1/2+x,1/2+y,1/2+z
1/2-x,-y,1/2+z
1/2+x,1/2-y,-z
-x,1/2+y,1/2-z
loop_
_atom_site_type_symbol
_atom_site_label
_atom_site_fract_x
_atom_site_fract_y
_atom_site_fract_z
Si Si1 0.737062 0.882924 0.200765
Si Si2 0.750000 0.277216 0.500000
Si Si3 0.266205 0.163785 0.808072
Si Si4 0.006966 0.465950 0.618055
O O1 0.536707 0.851136 0.282341
O O2 0.629564 0.928471 0.226675
O O3 0.028068 0.874576 0.291642
O O4 0.750000 0.873417 0.000000
O O5 0.500000 0.250000 0.439390
O O6 0.653463 0.303366 0.664730
O O7 0.250000 0.182723 0.000000
O O8 0.906024 0.500000 0.750000
O O9 0.250000 0.483510 0.500000
O O10 0.750000 0.452251 0.500000
#
# Coordination Sequence:
#
# PCOD8166062 Si02
#       4
#     8   4   8   8
#     4  11  21  43  67  93 135 185 227 281 345 407
#     4  12  26  46  72 100 142 182 216 288 358 406
#     4  12  25  43  71 104 132 177 234 280 334 418
#     4  11  24  41  64  96 137 183 229 286 348 403
#
# _framework density 22.173031999999999
#
# number of rings (size 3 to 8) (size 9 to 14) (size 15 to 20)
#    0.000    0.571    2.857    6.857    0.000    4.571 
#    0.000    0.000    0.000    0.000    0.000    0.000 
#    0.000    0.000    0.000    0.000    0.000    0.000 
#
# Total GULP energy -173613.299345 kJ/mol
# GULP energy per Si atom -12400.949953 kJ/mol
# Density = 2.212257 g / cm^3
# Si number density = 22.173032 Si / 1000 Ang^3
#
#
#
# Elastic Constant Matrix: (Units=GPa)
#
#
# Indices 1 2 3 4 5 6 
#
# 1 97.9443 22.6787 12.0656 -0.0003 0.0000 0.0000
# 2 22.6787 105.4158 51.0337 -0.0002 0.0000 -0.0006
# 3 12.0656 51.0337 110.2472 0.0000 0.0000 -0.0020
# 4 -0.0003 -0.0002 0.0000 17.2684 0.0000 0.0001
# 5 0.0000 0.0000 0.0000 0.0000 36.0600 0.0001
# 6 0.0000 -0.0006 -0.0020 0.0001 0.0001 41.4744
#
#
#
# Elastic Compliance Matrix: (Units=1/GPa)
#
#
# Indices 1 2 3 4 5 6 
#
# 1 0.010747 -0.002246 -0.000136 0.000000 0.000000 0.000000
# 2 -0.002246 0.012695 -0.005631 0.000000 0.000000 0.000000
# 3 -0.000136 -0.005631 0.011692 0.000000 0.000000 0.000000
# 4 0.000000 0.000000 0.000000 0.057909 0.000000 0.000000
# 5 0.000000 0.000000 0.000000 0.000000 0.027732 0.000000
# 6 0.000000 0.000000 0.000000 0.000000 0.000000 0.024111
#
#
# Mechanical properties :
#
#
# Convention : Reuss Voigt Hill
#
# Bulk Modulus (GPa) = 52.33552 53.90704 53.12128
# Shear Modulus (GPa) = 29.88959 34.14918 32.01939
#
# Velocity S-wave (km/s) = 3.67552 3.92870 3.80421
# Velocity P-wave (km/s) = 6.45500 6.70405 6.58070
#
# Compressibility (1/GPa) = 0.01910748
#
# Stress axis : x y z
#
# Youngs Moduli (GPa) = 93.05149 78.76819 85.52816
#
# Poissons Ratio (x) = 0.17691 0.01167
# Poissons Ratio (y) = 0.20899 0.48161
# Poissons Ratio (z) = 0.01270 0.44354
#
# Static dielectric constant tensor:
#      x y z
#    x 4.069340 0.000000 0.000000 
#    y 0.000000 3.876970 0.000000 
#    z 0.000000 0.000000 3.591420 
# 
# 
# High freq. dielectric constant tensor:
#      x y z
#    x 1.893660 0.000000 0.000000 
#    y 0.000000 1.856910 0.000000 
#    z 0.000000 0.000000 1.867460 
# 
# From -- ./inp_files/8166.got.cif
#   From: 2010.03.12/outbox.cif.g09.slc.cpg/sg24_5_cif.got.tgz:8166.got - 2010.04.14 03:06:53.
