data_PCOD8166626
_publ_section_title
;
Structure prediction by ZEFSAII (Michael W. Deem and Ramdas Pophale) SiO2 
 PCOD8166626
Probable space group: P M M 2
;
_chemical_formula_sum "Si O2"
_cell_formula_units_Z 28
_cell_length_a 9.366267
_cell_length_b 9.290354
_cell_length_c 18.327698
_cell_angle_alpha 90.000000
_cell_angle_beta 90.000000
_cell_angle_gamma 90.000000
_cell_volume 1594.801798
_symmetry_space_group_name_H-M "P M M 2"
_symmetry_group_IT_number 25
_symmetry_cell_setting 'orthorhombic'
loop_
_space_group_symop_operation_xyz
x,y,z
-x,-y,z
-x,y,z
x,-y,z
loop_
_atom_site_type_symbol
_atom_site_label
_atom_site_fract_x
_atom_site_fract_y
_atom_site_fract_z
Si Si1 0.168968 0.334227 0.995870
Si Si2 0.843471 0.171016 0.291643
Si Si3 0.835495 0.331894 0.585923
Si Si4 0.829569 0.838566 0.135176
Si Si5 0.665979 0.665460 0.726551
Si Si6 0.666473 0.832019 0.871128
Si Si7 0.170816 0.161628 0.447515
O O1 0.215990 0.500000 0.991061
O O2 0.243138 0.244337 0.933046
O O3 0.000000 0.316241 0.987304
O O4 0.222675 0.271487 0.073318
O O5 0.765818 0.212047 0.214694
O O6 0.767274 0.217204 0.368299
O O7 0.000000 0.243090 0.290484
O O8 0.859739 0.000000 0.293721
O O9 0.813721 0.500000 0.575564
O O10 0.750887 0.276279 0.656496
O O11 0.771007 0.259329 0.513219
O O12 0.000000 0.289304 0.597127
O O13 0.000000 0.839556 0.141056
O O14 0.775816 0.000000 0.115589
O O15 0.500000 0.681858 0.708946
O O16 0.706062 0.500000 0.744336
O O17 0.712278 0.763056 0.794403
O O18 0.500000 0.804824 0.886592
O O19 0.704102 0.000000 0.869477
O O20 0.000000 0.168018 0.443139
O O21 0.223277 0.000000 0.463338
#
# Coordination Sequence:
#
# PCOD8166626 Si02
#       7
#     4   4   4   4   4   4   4
#     4  10  20  32  47  70  99 127 154 186 227 275
#     4   7  10  18  34  56  82 114 149 181 216 259
#     4   9  17  28  42  63  90 115 141 178 222 263
#     4   8  13  23  40  61  87 119 152 186 224 264
#     4   9  18  33  50  65  85 116 149 179 218 271
#     4  10  21  36  53  72  92 116 151 193 233 275
#     4   8  13  22  37  58  85 116 148 180 216 260
#
# _framework density 17.557040000000001
#
# number of rings (size 3 to 8) (size 9 to 14) (size 15 to 20)
#    0.000    3.286    0.000    2.571    0.000    2.857 
#    0.000    2.143    0.000    4.286    0.000    1.000 
#    0.000    5.714    0.000    0.000    0.000    0.000 
#
# Total GULP energy -346924.103285 kJ/mol
# GULP energy per Si atom -12390.146546 kJ/mol
# Density = 1.751708 g / cm^3
# Si number density = 17.557040 Si / 1000 Ang^3
#
#
#
# Elastic Constant Matrix: (Units=GPa)
#
#
# Indices 1 2 3 4 5 6 
#
# 1 22.1858 24.6917 42.8065 0.0000 0.0000 0.0000
# 2 24.6917 84.9413 82.1869 0.0000 0.0000 0.0000
# 3 42.8065 82.1869 202.5519 0.0000 0.0000 0.0000
# 4 0.0000 0.0000 0.0000 15.0246 0.0000 0.0000
# 5 0.0000 0.0000 0.0000 0.0000 -3.0288 0.0000
# 6 0.0000 0.0000 0.0000 0.0000 0.0000 15.5572
#
#
#
# Elastic Compliance Matrix: (Units=1/GPa)
#
#
# Indices 1 2 3 4 5 6 
#
# 1 0.082645 -0.011730 -0.012706 0.000000 0.000000 0.000000
# 2 -0.011730 0.021047 -0.006061 0.000000 0.000000 0.000000
# 3 -0.012706 -0.006061 0.010082 0.000000 0.000000 0.000000
# 4 0.000000 0.000000 0.000000 0.066557 0.000000 0.000000
# 5 0.000000 0.000000 0.000000 0.000000 -0.330162 0.000000
# 6 0.000000 0.000000 0.000000 0.000000 0.000000 0.064279
#
#
# Mechanical properties :
#
#
# Convention : Reuss Voigt Hill
#
# Bulk Modulus (GPa) = 18.94692 67.67215 43.30953
# Shear Modulus (GPa) = -717.93051 16.17686 -350.87683
#
# Velocity S-wave (km/s) = -20.24354 3.03873 -14.15216
# Velocity P-wave (km/s) = 23.14273 7.13721 15.56673
#
# Compressibility (1/GPa) = 0.05277903
#
# Stress axis : x y z
#
# Youngs Moduli (GPa) = 12.09999 47.51238 99.19003
#
# Poissons Ratio (x) = 0.55731 1.26034
# Poissons Ratio (y) = 0.14193 0.60120
# Poissons Ratio (z) = 0.15375 0.28798
#
# Static dielectric constant tensor:
#      x y z
#    x 2.781010 0.000000 0.000000 
#    y 0.000000 3.220170 0.000000 
#    z 0.000000 0.000000 3.816910 
# 
# 
# High freq. dielectric constant tensor:
#      x y z
#    x 1.618460 0.000000 0.000000 
#    y 0.000000 1.662640 0.000000 
#    z 0.000000 0.000000 1.704750 
# 
# From -- ./inp_files/6326.got.cif
#   From: 2010.03.12/outbox.cif.g09.slc.cpg/sg25_4_cif.got.tgz:6326.got - 2010.04.14 03:30:10.
