data_PCOD8166374
_publ_section_title
;
Structure prediction by ZEFSAII (Michael W. Deem and Ramdas Pophale) SiO2 
 PCOD8166374
Probable space group: P M M 2
;
_chemical_formula_sum "Si O2"
_cell_formula_units_Z 28
_cell_length_a 8.740844
_cell_length_b 19.876178
_cell_length_c 8.069597
_cell_angle_alpha 90.000000
_cell_angle_beta 90.000000
_cell_angle_gamma 90.000000
_cell_volume 1401.967975
_symmetry_space_group_name_H-M "P M M 2"
_symmetry_group_IT_number 25
_symmetry_cell_setting 'orthorhombic'
loop_
_space_group_symop_operation_xyz
x,y,z
-x,-y,z
-x,y,z
x,-y,z
loop_
_atom_site_type_symbol
_atom_site_label
_atom_site_fract_x
_atom_site_fract_y
_atom_site_fract_z
Si Si1 0.680073 0.072728 0.079940
Si Si2 0.824615 0.074642 0.427447
Si Si3 0.674378 0.792300 0.941955
Si Si4 0.681641 0.660286 0.440380
Si Si5 0.673704 0.800846 0.565418
Si Si6 0.317369 0.654939 0.073478
Si Si7 0.682458 0.576197 0.752817
O O1 0.500000 0.069808 0.052292
O O2 0.715562 0.084728 0.271371
O O3 0.750004 0.000000 0.022837
O O4 0.754344 0.135406 0.979355
O O5 0.779093 0.133092 0.554965
O O6 0.000000 0.083256 0.373221
O O7 0.798466 0.000000 0.505870
O O8 0.500000 0.799612 0.001589
O O9 0.684491 0.773194 0.750835
O O10 0.748861 0.730218 0.042032
O O11 0.500000 0.657710 0.454059
O O12 0.733368 0.738594 0.453779
O O13 0.735202 0.632314 0.259166
O O14 0.749501 0.615814 0.591753
O O15 0.500000 0.820857 0.519593
O O16 0.500000 0.656269 0.063016
O O17 0.254898 0.606232 0.927724
O O18 0.500000 0.579425 0.751326
O O19 0.741763 0.500000 0.740382
#
# Coordination Sequence:
#
# PCOD8166374 Si02
#       7
#     4   4   4   4   4   4   4
#     4   9  17  30  48  69  91 119 160 205 248 297
#     4  10  21  35  48  66  96 130 162 201 249 297
#     4   9  16  27  45  69  94 118 155 208 252 288
#     4   9  16  26  42  64  90 124 164 203 243 286
#     4  10  18  30  50  72  94 124 165 209 249 291
#     4   9  15  24  38  57  86 123 160 197 240 287
#     4   9  16  25  36  56  91 130 164 196 236 293
#
# _framework density 19.971924000000001
#
# number of rings (size 3 to 8) (size 9 to 14) (size 15 to 20)
#    0.000    2.714    1.429    1.286    0.000    4.286 
#    0.000    5.000    0.000    1.714    0.000    0.000 
#    0.000    0.571    0.000    0.571    0.000    1.571 
#
# Total GULP energy -346909.333732 kJ/mol
# GULP energy per Si atom -12389.619062 kJ/mol
# Density = 1.992647 g / cm^3
# Si number density = 19.971924 Si / 1000 Ang^3
#
#
#
# Elastic Constant Matrix: (Units=GPa)
#
#
# Indices 1 2 3 4 5 6 
#
# 1 9.6231 14.8732 5.7014 0.0000 0.0000 0.0000
# 2 14.8732 153.3361 75.6209 0.0000 0.0000 0.0000
# 3 5.7014 75.6209 127.6660 0.0000 0.0000 0.0000
# 4 0.0000 0.0000 0.0000 33.4956 0.0000 0.0000
# 5 0.0000 0.0000 0.0000 0.0000 1.1981 0.0000
# 6 0.0000 0.0000 0.0000 0.0000 0.0000 6.9442
#
#
#
# Elastic Compliance Matrix: (Units=1/GPa)
#
#
# Indices 1 2 3 4 5 6 
#
# 1 0.122686 -0.012994 0.002218 0.000000 0.000000 0.000000
# 2 -0.012994 0.010589 -0.005692 0.000000 0.000000 0.000000
# 3 0.002218 -0.005692 0.011105 0.000000 0.000000 0.000000
# 4 0.000000 0.000000 0.000000 0.029855 0.000000 0.000000
# 5 0.000000 0.000000 0.000000 0.000000 0.834672 0.000000
# 6 0.000000 0.000000 0.000000 0.000000 0.000000 0.144005
#
#
# Mechanical properties :
#
#
# Convention : Reuss Voigt Hill
#
# Bulk Modulus (GPa) = 8.97312 53.66846 31.32079
# Shear Modulus (GPa) = 4.08832 21.28955 12.68894
#
# Velocity S-wave (km/s) = 1.43230 3.26847 2.52333
# Velocity P-wave (km/s) = 2.69034 6.41671 4.91996
#
# Compressibility (1/GPa) = 0.11144396
#
# Stress axis : x y z
#
# Youngs Moduli (GPa) = 8.15091 94.43639 90.04566
#
# Poissons Ratio (x) = 1.22710 -0.19970
# Poissons Ratio (y) = 0.10591 0.51254
# Poissons Ratio (z) = -0.01808 0.53753
#
# Static dielectric constant tensor:
#      x y z
#    x 2.869860 0.000000 0.000000 
#    y 0.000000 3.963590 0.000000 
#    z 0.000000 0.000000 3.662020 
# 
# 
# High freq. dielectric constant tensor:
#      x y z
#    x 1.692850 0.000000 0.000000 
#    y 0.000000 1.792910 0.000000 
#    z 0.000000 0.000000 1.779260 
# 
# From -- ./inp_files/2309.got.cif
#   From: 2010.03.12/outbox.cif.g09.slc.cpg/sg25_2_cif.got.tgz:2309.got - 2010.04.14 03:30:10.
