data_PCOD8166402
_publ_section_title
;
Structure prediction by ZEFSAII (Michael W. Deem and Ramdas Pophale) SiO2 
 PCOD8166402
Probable space group: P M M 2
;
_chemical_formula_sum "Si O2"
_cell_formula_units_Z 32
_cell_length_a 8.981530
_cell_length_b 14.605232
_cell_length_c 12.390417
_cell_angle_alpha 90.000000
_cell_angle_beta 90.000000
_cell_angle_gamma 90.000000
_cell_volume 1625.341812
_symmetry_space_group_name_H-M "P M M 2"
_symmetry_group_IT_number 25
_symmetry_cell_setting 'orthorhombic'
loop_
_space_group_symop_operation_xyz
x,y,z
-x,-y,z
-x,y,z
x,-y,z
loop_
_atom_site_type_symbol
_atom_site_label
_atom_site_fract_x
_atom_site_fract_y
_atom_site_fract_z
Si Si1 0.828425 0.602136 0.153430
Si Si2 0.176796 0.894088 0.879986
Si Si3 0.828176 0.180697 0.435724
Si Si4 0.323944 0.774981 0.065903
Si Si5 0.667580 0.099395 0.262271
Si Si6 0.827250 0.780422 0.675046
Si Si7 0.673384 0.399381 0.611880
Si Si8 0.325536 0.641776 0.371872
O O1 0.814119 0.500000 0.103267
O O2 0.741914 0.672442 0.074706
O O3 0.761653 0.595939 0.273782
O O4 0.000000 0.632881 0.160539
O O5 0.230082 0.849196 0.766999
O O6 0.000000 0.889491 0.893025
O O7 0.230875 0.000000 0.884446
O O8 0.251923 0.832782 0.970593
O O9 0.779814 0.093046 0.365708
O O10 0.791140 0.169417 0.561851
O O11 0.719196 0.252970 0.378640
O O12 0.000000 0.206989 0.419624
O O13 0.500000 0.769496 0.047083
O O14 0.280922 0.825260 0.176391
O O15 0.500000 0.119170 0.302165
O O16 0.676455 0.000000 0.205401
O O17 0.753451 0.679851 0.680233
O O18 0.000000 0.761482 0.689498
O O19 0.500000 0.377339 0.618480
O O20 0.710606 0.500000 0.660967
O O21 0.722750 0.402282 0.486262
O O22 0.500000 0.630211 0.348902
#
# Coordination Sequence:
#
# PCOD8166402 Si02
#       8
#     4   4   4   4   4   4   4   4
#     4  11  23  37  56  85 119 154 194 238 284 340
#     4  10  22  42  66  87 111 148 194 244 297 350
#     4  10  19  32  53  82 117 154 192 234 284 340
#     4  11  23  40  62  86 115 150 192 243 292 344
#     4  10  21  36  54  80 115 152 186 228 289 352
#     4   9  20  37  57  84 115 148 191 241 290 341
#     4   9  18  32  52  81 117 156 196 235 279 336
#     4  10  18  31  52  79 115 158 198 234 279 336
#
# _framework density 19.688167
#
# number of rings (size 3 to 8) (size 9 to 14) (size 15 to 20)
#    0.000    2.000    1.250    2.250    0.000    5.250 
#    0.000    1.875    0.000    0.750    0.000    0.000 
#    0.000    0.000    0.000    0.000    0.000    0.000 
#
# Total GULP energy -396642.518547 kJ/mol
# GULP energy per Si atom -12395.078705 kJ/mol
# Density = 1.964336 g / cm^3
# Si number density = 19.688167 Si / 1000 Ang^3
#
#
#
# Elastic Constant Matrix: (Units=GPa)
#
#
# Indices 1 2 3 4 5 6 
#
# 1 61.4147 45.5380 46.4957 0.0000 0.0000 0.0000
# 2 45.5380 134.6360 64.8116 0.0000 0.0000 0.0000
# 3 46.4957 64.8116 108.4021 0.0000 0.0000 0.0000
# 4 0.0000 0.0000 0.0000 -38.2465 0.0000 0.0000
# 5 0.0000 0.0000 0.0000 0.0000 28.3250 0.0000
# 6 0.0000 0.0000 0.0000 0.0000 0.0000 27.8130
#
#
#
# Elastic Compliance Matrix: (Units=1/GPa)
#
#
# Indices 1 2 3 4 5 6 
#
# 1 0.026185 -0.004844 -0.008335 0.000000 0.000000 0.000000
# 2 -0.004844 0.011325 -0.004693 0.000000 0.000000 0.000000
# 3 -0.008335 -0.004693 0.015606 0.000000 0.000000 0.000000
# 4 0.000000 0.000000 0.000000 -0.026146 0.000000 0.000000
# 5 0.000000 0.000000 0.000000 0.000000 0.035305 0.000000
# 6 0.000000 0.000000 0.000000 0.000000 0.000000 0.035954
#
#
# Mechanical properties :
#
#
# Convention : Reuss Voigt Hill
#
# Bulk Modulus (GPa) = 57.56695 68.68260 63.12477
# Shear Modulus (GPa) = 35.77458 13.41879 24.59669
#
# Velocity S-wave (km/s) = 4.26732 2.61352 3.53840
# Velocity P-wave (km/s) = 7.32003 6.63839 6.98753
#
# Compressibility (1/GPa) = 0.01737108
#
# Stress axis : x y z
#
# Youngs Moduli (GPa) = 38.19005 88.29868 64.07806
#
# Poissons Ratio (x) = 0.42774 0.53408
# Poissons Ratio (y) = 0.18500 0.30074
# Poissons Ratio (z) = 0.31831 0.41442
#
# Static dielectric constant tensor:
#      x y z
#    x 3.532300 0.000000 0.000000 
#    y 0.000000 3.793140 0.000000 
#    z 0.000000 0.000000 3.579640 
# 
# 
# High freq. dielectric constant tensor:
#      x y z
#    x 1.765930 0.000000 0.000000 
#    y 0.000000 1.776660 0.000000 
#    z 0.000000 0.000000 1.747410 
# 
# From -- ./inp_files/4174.got.cif
#   From: 2010.03.12/outbox.cif.g09.slc.cpg/sg25_3_cif.got.tgz:4174.got - 2010.04.14 03:30:10.
