data_PCOD8166831
_publ_section_title
;
Structure prediction by ZEFSAII (Michael W. Deem and Ramdas Pophale) SiO2 
 PCOD8166831
Probable space group: P M M 2
;
_chemical_formula_sum "Si O2"
_cell_formula_units_Z 19
_cell_length_a 7.394575
_cell_length_b 12.341268
_cell_length_c 10.875183
_cell_angle_alpha 90.000000
_cell_angle_beta 90.000000
_cell_angle_gamma 90.000000
_cell_volume 992.452146
_symmetry_space_group_name_H-M "P M M 2"
_symmetry_group_IT_number 25
_symmetry_cell_setting 'orthorhombic'
loop_
_space_group_symop_operation_xyz
x,y,z
-x,-y,z
-x,y,z
x,-y,z
loop_
_atom_site_type_symbol
_atom_site_label
_atom_site_fract_x
_atom_site_fract_y
_atom_site_fract_z
Si Si1 0.500000 0.875864 0.232370
Si Si2 0.789156 0.625885 0.855098
Si Si3 0.500000 0.224639 0.973377
Si Si4 0.214441 0.381844 0.578732
Si Si5 0.788906 0.818698 0.429290
Si Si6 0.500000 0.000000 0.828773
Si Si7 0.206524 0.000000 0.624385
O O1 0.680137 0.854333 0.310327
O O2 0.500000 0.000000 0.187634
O O3 0.500000 0.794445 0.118818
O O4 0.753118 0.500000 0.888898
O O5 0.677891 0.705632 0.942600
O O6 0.720696 0.648908 0.715953
O O7 0.000000 0.653809 0.871370
O O8 0.500000 0.108039 0.909396
O O9 0.290434 0.500000 0.541897
O O10 0.281048 0.298365 0.475354
O O11 0.000000 0.383529 0.583345
O O12 0.746839 0.896080 0.543285
O O13 0.000000 0.820759 0.393982
O O14 0.321123 0.000000 0.747215
O O15 0.000000 0.000000 0.667628
#
# Coordination Sequence:
#
# PCOD8166831 Si02
#       7
#     2   4   2   4   4   1   2
#     4  12  25  43  56  74 112 159 208 242 274 327
#     4   9  19  39  65  90 119 152 188 239 301 359
#     4  12  25  39  56  82 118 161 207 242 279 340
#     4   8  15  31  58  91 120 142 172 225 294 358
#     4  10  20  37  61  84 110 147 190 236 288 345
#     4  12  24  36  54  84 124 156 182 244 304 344
#     4  10  20  35  59  87 111 142 191 244 302 358
#
# _framework density 19.144497999999999
#
# number of rings (size 3 to 8) (size 9 to 14) (size 15 to 20)
#    0.000    2.105    1.579    3.474    0.000    4.211 
#    0.000    3.684    0.000    2.526    0.000    0.000 
#    0.000    0.000    0.000    0.000    0.000    0.000 
#
# Total GULP energy -235575.342301 kJ/mol
# GULP energy per Si atom -12398.702226 kJ/mol
# Density = 1.910092 g / cm^3
# Si number density = 19.144498 Si / 1000 Ang^3
#
#
#
# Elastic Constant Matrix: (Units=GPa)
#
#
# Indices 1 2 3 4 5 6 
#
# 1 92.9301 46.1622 43.2856 0.0000 0.0000 0.0000
# 2 46.1622 125.0815 46.0298 0.0000 0.0000 0.0000
# 3 43.2856 46.0298 82.1588 0.0000 0.0000 0.0000
# 4 0.0000 0.0000 0.0000 87.2922 0.0000 0.0000
# 5 0.0000 0.0000 0.0000 0.0000 -3.7477 0.0000
# 6 0.0000 0.0000 0.0000 0.0000 0.0000 92.5444
#
#
#
# Elastic Compliance Matrix: (Units=1/GPa)
#
#
# Indices 1 2 3 4 5 6 
#
# 1 0.015316 -0.003380 -0.006176 0.000000 0.000000 0.000000
# 2 -0.003380 0.010817 -0.004280 0.000000 0.000000 0.000000
# 3 -0.006176 -0.004280 0.017823 0.000000 0.000000 0.000000
# 4 0.000000 0.000000 0.000000 0.011456 0.000000 0.000000
# 5 0.000000 0.000000 0.000000 0.000000 -0.266830 0.000000
# 6 0.000000 0.000000 0.000000 0.000000 0.000000 0.010806
#
#
# Mechanical properties :
#
#
# Convention : Reuss Voigt Hill
#
# Bulk Modulus (GPa) = 61.40364 63.45840 62.43102
# Shear Modulus (GPa) = -29.84841 46.19731 8.17445
#
# Velocity S-wave (km/s) = -3.95284 4.91765 2.06861
# Velocity P-wave (km/s) = 3.36305 8.09094 6.19570
#
# Compressibility (1/GPa) = 0.01628568
#
# Stress axis : x y z
#
# Youngs Moduli (GPa) = 65.28981 92.44682 56.10742
#
# Poissons Ratio (x) = 0.31246 0.34651
# Poissons Ratio (y) = 0.22067 0.24012
# Poissons Ratio (z) = 0.40322 0.39563
#
# Static dielectric constant tensor:
#      x y z
#    x 3.439740 0.000000 0.000000 
#    y 0.000000 4.020990 0.000000 
#    z 0.000000 0.000000 3.217300 
# 
# 
# High freq. dielectric constant tensor:
#      x y z
#    x 1.749500 0.000000 0.000000 
#    y 0.000000 1.761840 0.000000 
#    z 0.000000 0.000000 1.712990 
# 
# From -- ./inp_files/1724.got.cif
#   From: 2010.03.12/outbox.cif.g09.slc.cpg/sg25_1_cif.got.tgz:1724.got - 2010.04.14 03:30:10.
