data_PCOD8166420
_publ_section_title
;
Structure prediction by ZEFSAII (Michael W. Deem and Ramdas Pophale) SiO2 
 PCOD8166420
Probable space group: P M M 2
;
_chemical_formula_sum "Si O2"
_cell_formula_units_Z 32
_cell_length_a 9.609043
_cell_length_b 14.297388
_cell_length_c 15.622316
_cell_angle_alpha 90.000000
_cell_angle_beta 90.000000
_cell_angle_gamma 90.000000
_cell_volume 2146.259637
_symmetry_space_group_name_H-M "P M M 2"
_symmetry_group_IT_number 25
_symmetry_cell_setting 'orthorhombic'
loop_
_space_group_symop_operation_xyz
x,y,z
-x,-y,z
-x,y,z
x,-y,z
loop_
_atom_site_type_symbol
_atom_site_label
_atom_site_fract_x
_atom_site_fract_y
_atom_site_fract_z
Si Si1 0.333946 0.104673 0.451600
Si Si2 0.661818 0.890137 0.785754
Si Si3 0.158917 0.603744 0.860156
Si Si4 0.338755 0.603645 0.694350
Si Si5 0.838592 0.108457 0.108464
Si Si6 0.344897 0.111384 0.264593
Si Si7 0.838596 0.796756 0.934044
Si Si8 0.663409 0.209559 0.614685
O O1 0.500000 0.102671 0.453474
O O2 0.288267 0.144057 0.358120
O O3 0.270332 0.170043 0.526754
O O4 0.276115 0.000000 0.466734
O O5 0.500000 0.865019 0.800036
O O6 0.748555 0.849273 0.863766
O O7 0.719764 0.845366 0.697785
O O8 0.685958 0.000000 0.780332
O O9 0.192849 0.500000 0.898160
O O10 0.254218 0.625985 0.779396
O O11 0.185874 0.684366 0.930471
O O12 0.000000 0.607594 0.828200
O O13 0.500000 0.612880 0.719742
O O14 0.304342 0.500000 0.658421
O O15 0.299464 0.680208 0.622480
O O16 0.755904 0.148434 0.190211
O O17 0.000000 0.122768 0.128455
O O18 0.803436 0.000000 0.090579
O O19 0.789970 0.168218 0.026853
O O20 0.500000 0.150804 0.247340
O O21 0.348692 0.000000 0.265458
O O22 0.000000 0.822521 0.918586
O O23 0.500000 0.192416 0.609814
#
# Coordination Sequence:
#
# PCOD8166420 Si02
#       8
#     4   4   4   4   4   4   4   4
#     4   8  13  22  38  59  81 104 131 164 200 237
#     4  10  19  28  39  58  84 113 143 169 194 231
#     4   9  17  29  44  60  78 103 137 175 209 240
#     4   9  16  26  41  60  81 105 135 171 206 239
#     4   9  17  28  41  57  79 107 134 160 198 246
#     4   8  14  25  41  60  78  98 130 170 204 232
#     4  10  19  30  43  59  81 110 140 168 203 248
#     4   9  15  24  38  58  83 109 135 164 199 238
#
# _framework density 14.909660000000001
#
# number of rings (size 3 to 8) (size 9 to 14) (size 15 to 20)
#    0.000    3.000    1.250    1.500    0.000    2.750 
#    0.000    1.250    0.000    1.500    0.000    2.625 
#    0.000    1.000    0.000    0.000    0.000    0.000 
#
# Total GULP energy -396590.001925 kJ/mol
# GULP energy per Si atom -12393.437560 kJ/mol
# Density = 1.487572 g / cm^3
# Si number density = 14.909660 Si / 1000 Ang^3
#
#
#
# Elastic Constant Matrix: (Units=GPa)
#
#
# Indices 1 2 3 4 5 6 
#
# 1 34.9671 27.3234 43.0582 0.0000 0.0000 0.0000
# 2 27.3234 90.0533 67.0308 0.0000 0.0000 0.0000
# 3 43.0582 67.0308 144.8121 0.0000 0.0000 0.0000
# 4 0.0000 0.0000 0.0000 11.8180 0.0000 0.0000
# 5 0.0000 0.0000 0.0000 0.0000 1.2630 0.0000
# 6 0.0000 0.0000 0.0000 0.0000 0.0000 14.3041
#
#
#
# Elastic Compliance Matrix: (Units=1/GPa)
#
#
# Indices 1 2 3 4 5 6 
#
# 1 0.047085 -0.005897 -0.011270 0.000000 0.000000 0.000000
# 2 -0.005897 0.017680 -0.006430 0.000000 0.000000 0.000000
# 3 -0.011270 -0.006430 0.013233 0.000000 0.000000 0.000000
# 4 0.000000 0.000000 0.000000 0.084617 0.000000 0.000000
# 5 0.000000 0.000000 0.000000 0.000000 0.791743 0.000000
# 6 0.000000 0.000000 0.000000 0.000000 0.000000 0.069910
#
#
# Mechanical properties :
#
#
# Convention : Reuss Voigt Hill
#
# Bulk Modulus (GPa) = 32.46520 60.51747 46.49133
# Shear Modulus (GPa) = 4.62222 14.30503 9.46363
#
# Velocity S-wave (km/s) = 1.76263 3.10085 2.52212
# Velocity P-wave (km/s) = 5.09553 7.31423 6.30327
#
# Compressibility (1/GPa) = 0.03080221
#
# Stress axis : x y z
#
# Youngs Moduli (GPa) = 21.23836 56.56023 75.56771
#
# Poissons Ratio (x) = 0.33354 0.85168
# Poissons Ratio (y) = 0.12524 0.48593
# Poissons Ratio (z) = 0.23937 0.36371
#
# Static dielectric constant tensor:
#      x y z
#    x 2.771870 0.000000 0.000000 
#    y 0.000000 2.991910 0.000000 
#    z 0.000000 0.000000 3.039880 
# 
# 
# High freq. dielectric constant tensor:
#      x y z
#    x 1.549330 0.000000 0.000000 
#    y 0.000000 1.558760 0.000000 
#    z 0.000000 0.000000 1.558990 
# 
# From -- ./inp_files/5676.got.cif
#   From: 2010.03.12/outbox.cif.g09.slc.cpg/sg25_3_cif.got.tgz:5676.got - 2010.04.14 03:30:10.
