data_PCOD8166657
_publ_section_title
;
Structure prediction by ZEFSAII (Michael W. Deem and Ramdas Pophale) SiO2 
 PCOD8166657
Probable space group: P M M 2
;
_chemical_formula_sum "Si O2"
_cell_formula_units_Z 24
_cell_length_a 18.883169
_cell_length_b 8.981566
_cell_length_c 7.736373
_cell_angle_alpha 90.000000
_cell_angle_beta 90.000000
_cell_angle_gamma 90.000000
_cell_volume 1312.092177
_symmetry_space_group_name_H-M "P M M 2"
_symmetry_group_IT_number 25
_symmetry_cell_setting 'orthorhombic'
loop_
_space_group_symop_operation_xyz
x,y,z
-x,-y,z
-x,y,z
x,-y,z
loop_
_atom_site_type_symbol
_atom_site_label
_atom_site_fract_x
_atom_site_fract_y
_atom_site_fract_z
Si Si1 0.581813 0.327330 0.038080
Si Si2 0.418395 0.174948 0.389700
Si Si3 0.174499 0.677523 0.706768
Si Si4 0.920672 0.677092 0.398417
Si Si5 0.664641 0.323633 0.698955
Si Si6 0.920644 0.322880 0.014870
O O1 0.500000 0.296287 0.995087
O O2 0.595939 0.500000 0.077321
O O3 0.607269 0.235273 0.204289
O O4 0.626603 0.271618 0.874434
O O5 0.500000 0.219503 0.420313
O O6 0.372168 0.249209 0.536739
O O7 0.406928 0.000000 0.394105
O O8 0.172181 0.500000 0.708102
O O9 0.134812 0.741610 0.537207
O O10 0.254863 0.734001 0.706913
O O11 0.134767 0.742021 0.876081
O O12 0.919605 0.500000 0.403589
O O13 0.000000 0.732799 0.443962
O O14 0.898856 0.732902 0.206676
O O15 0.659448 0.500000 0.676023
O O16 0.919485 0.500000 0.009954
O O17 0.000000 0.267366 0.969351
#
# Coordination Sequence:
#
# PCOD8166657 Si02
#       6
#     4   4   4   4   4   4
#     4   9  18  33  52  72  95 125 161 201 244 290
#     4  10  21  36  54  74  95 124 163 204 244 288
#     4   9  16  24  36  58  89 123 155 187 228 280
#     4   8  13  21  34  53  80 118 159 192 224 267
#     4  10  20  32  49  75 104 132 160 195 244 297
#     4   8  13  21  33  50  77 117 160 194 224 265
#
# _framework density 18.291398000000001
#
# number of rings (size 3 to 8) (size 9 to 14) (size 15 to 20)
#    0.000    3.000    0.000    2.500    0.000    5.667 
#    0.000    6.667    0.000    0.000    0.000    0.000 
#    0.000    2.667    0.000    5.333    0.000    9.333 
#
# Total GULP energy -297535.312678 kJ/mol
# GULP energy per Si atom -12397.304695 kJ/mol
# Density = 1.824977 g / cm^3
# Si number density = 18.291398 Si / 1000 Ang^3
#
#
#
# Elastic Constant Matrix: (Units=GPa)
#
#
# Indices 1 2 3 4 5 6 
#
# 1 140.3831 27.3903 116.0385 0.0000 0.0000 0.0000
# 2 27.3903 20.7023 31.2721 0.0000 0.0000 0.0000
# 3 116.0385 31.2721 189.4410 0.0000 0.0000 0.0000
# 4 0.0000 0.0000 0.0000 2.1004 0.0000 0.0000
# 5 0.0000 0.0000 0.0000 0.0000 1.4417 0.0000
# 6 0.0000 0.0000 0.0000 0.0000 0.0000 4.8382
#
#
#
# Elastic Compliance Matrix: (Units=1/GPa)
#
#
# Indices 1 2 3 4 5 6 
#
# 1 0.015398 -0.008160 -0.008085 0.000000 0.000000 0.000000
# 2 -0.008160 0.068674 -0.006338 0.000000 0.000000 0.000000
# 3 -0.008085 -0.006338 0.011277 0.000000 0.000000 0.000000
# 4 0.000000 0.000000 0.000000 0.476106 0.000000 0.000000
# 5 0.000000 0.000000 0.000000 0.000000 0.693625 0.000000
# 6 0.000000 0.000000 0.000000 0.000000 0.000000 0.206689
#
#
# Mechanical properties :
#
#
# Convention : Reuss Voigt Hill
#
# Bulk Modulus (GPa) = 19.92685 77.76980 48.84832
# Shear Modulus (GPa) = 3.26016 13.39774 8.32895
#
# Velocity S-wave (km/s) = 1.33649 2.70934 2.13620
# Velocity P-wave (km/s) = 3.64683 7.23856 5.73133
#
# Compressibility (1/GPa) = 0.05018355
#
# Stress axis : x y z
#
# Youngs Moduli (GPa) = 64.94180 14.56147 88.67405
#
# Poissons Ratio (x) = 0.11882 0.71693
# Poissons Ratio (y) = 0.52993 0.56203
# Poissons Ratio (z) = 0.52505 0.09229
#
# Static dielectric constant tensor:
#      x y z
#    x 3.587090 0.000000 0.000000 
#    y 0.000000 2.781740 0.000000 
#    z 0.000000 0.000000 3.693260 
# 
# 
# High freq. dielectric constant tensor:
#      x y z
#    x 1.708690 0.000000 0.000000 
#    y 0.000000 1.644710 0.000000 
#    z 0.000000 0.000000 1.726990 
# 
# From -- ./inp_files/3346.got.cif
#   From: 2010.03.12/outbox.cif.g09.slc.cpg/sg25_2_cif.got.tgz:3346.got - 2010.04.14 03:30:10.
