data_PCOD8166700
_publ_section_title
;
Structure prediction by ZEFSAII (Michael W. Deem and Ramdas Pophale) SiO2 
 PCOD8166700
Probable space group: P M M 2
;
_chemical_formula_sum "Si O2"
_cell_formula_units_Z 28
_cell_length_a 9.329407
_cell_length_b 9.072736
_cell_length_c 18.154000
_cell_angle_alpha 90.000000
_cell_angle_beta 90.000000
_cell_angle_gamma 90.000000
_cell_volume 1536.613501
_symmetry_space_group_name_H-M "P M M 2"
_symmetry_group_IT_number 25
_symmetry_cell_setting 'orthorhombic'
loop_
_space_group_symop_operation_xyz
x,y,z
-x,-y,z
-x,y,z
x,-y,z
loop_
_atom_site_type_symbol
_atom_site_label
_atom_site_fract_x
_atom_site_fract_y
_atom_site_fract_z
Si Si1 0.329609 0.666117 0.211520
Si Si2 0.829174 0.666282 0.777784
Si Si3 0.333050 0.828879 0.066786
Si Si4 0.833635 0.171363 0.923133
Si Si5 0.170458 0.166031 0.635042
Si Si6 0.330702 0.170505 0.357267
Si Si7 0.832493 0.327744 0.487998
O O1 0.500000 0.667451 0.210248
O O2 0.269863 0.500000 0.217695
O O3 0.271841 0.739510 0.136552
O O4 0.274544 0.760254 0.280844
O O5 0.770845 0.500000 0.774232
O O6 0.773549 0.741255 0.852673
O O7 0.767205 0.755179 0.707865
O O8 0.000000 0.669525 0.775912
O O9 0.500000 0.798199 0.054241
O O10 0.302386 0.000000 0.081908
O O11 0.250821 0.772345 0.994642
O O12 0.000000 0.204443 0.936571
O O13 0.805194 0.000000 0.908200
O O14 0.222429 0.255656 0.563784
O O15 0.000000 0.164367 0.638651
O O16 0.231217 0.000000 0.631016
O O17 0.500000 0.191381 0.366001
O O18 0.254415 0.255453 0.422493
O O19 0.286439 0.000000 0.358805
O O20 0.798519 0.500000 0.491398
O O21 0.000000 0.296884 0.475557
#
# Coordination Sequence:
#
# PCOD8166700 Si02
#       7
#     4   4   4   4   4   4   4
#     4   9  17  30  49  71  93 120 157 198 236 277
#     4   9  16  26  42  65  92 121 154 192 232 274
#     4   9  17  30  48  68  90 118 153 191 230 275
#     4   9  17  29  45  66  92 120 150 186 230 278
#     4   9  16  27  45  68  94 125 160 196 234 278
#     4  10  20  34  53  75  98 127 164 202 240 286
#     4  10  20  33  50  74 103 131 160 198 244 290
#
# _framework density 18.221886999999999
#
# number of rings (size 3 to 8) (size 9 to 14) (size 15 to 20)
#    0.000    2.714    0.000    2.143    0.000    7.429 
#    0.000    0.714    0.000    3.429    0.000    2.000 
#    0.000    0.000    0.000    0.000    0.000    0.000 
#
# Total GULP energy -347218.529420 kJ/mol
# GULP energy per Si atom -12400.661765 kJ/mol
# Density = 1.818041 g / cm^3
# Si number density = 18.221887 Si / 1000 Ang^3
#
#
#
# Elastic Constant Matrix: (Units=GPa)
#
#
# Indices 1 2 3 4 5 6 
#
# 1 20.6802 27.4462 35.6774 0.0000 0.0000 0.0000
# 2 27.4462 139.0619 95.1611 0.0000 0.0000 0.0000
# 3 35.6774 95.1611 194.4302 0.0000 0.0000 0.0000
# 4 0.0000 0.0000 0.0000 32.8982 0.0000 0.0000
# 5 0.0000 0.0000 0.0000 0.0000 110.9949 0.0000
# 6 0.0000 0.0000 0.0000 0.0000 0.0000 17.4421
#
#
#
# Elastic Compliance Matrix: (Units=1/GPa)
#
#
# Indices 1 2 3 4 5 6 
#
# 1 0.076595 -0.008269 -0.010008 0.000000 0.000000 0.000000
# 2 -0.008269 0.011705 -0.004212 0.000000 0.000000 0.000000
# 3 -0.010008 -0.004212 0.009041 0.000000 0.000000 0.000000
# 4 0.000000 0.000000 0.000000 0.030397 0.000000 0.000000
# 5 0.000000 0.000000 0.000000 0.000000 0.009009 0.000000
# 6 0.000000 0.000000 0.000000 0.000000 0.000000 0.057333
#
#
# Mechanical properties :
#
#
# Convention : Reuss Voigt Hill
#
# Bulk Modulus (GPa) = 19.09685 74.52685 46.81185
# Shear Modulus (GPa) = 19.49228 45.32620 32.40924
#
# Velocity S-wave (km/s) = 3.27420 4.99285 4.22191
# Velocity P-wave (km/s) = 4.97964 8.61548 7.03645
#
# Compressibility (1/GPa) = 0.05236467
#
# Stress axis : x y z
#
# Youngs Moduli (GPa) = 13.05561 85.43328 110.60769
#
# Poissons Ratio (x) = 0.70643 1.10696
# Poissons Ratio (y) = 0.10795 0.46583
# Poissons Ratio (z) = 0.13066 0.35981
#
# Static dielectric constant tensor:
#      x y z
#    x 2.791880 0.000000 0.000000 
#    y 0.000000 3.563040 0.000000 
#    z 0.000000 0.000000 3.616470 
# 
# 
# High freq. dielectric constant tensor:
#      x y z
#    x 1.648020 0.000000 0.000000 
#    y 0.000000 1.718350 0.000000 
#    z 0.000000 0.000000 1.724820 
# 
# From -- ./inp_files/6080.got.cif
#   From: 2010.03.12/outbox.cif.g09.slc.cpg/sg25_4_cif.got.tgz:6080.got - 2010.04.14 03:30:10.
