data_PCOD8166341
_publ_section_title
;
Structure prediction by ZEFSAII (Michael W. Deem and Ramdas Pophale) SiO2 
 PCOD8166341
Probable space group: P M M 2
;
_chemical_formula_sum "Si O2"
_cell_formula_units_Z 32
_cell_length_a 8.927234
_cell_length_b 14.079579
_cell_length_c 15.757086
_cell_angle_alpha 90.000000
_cell_angle_beta 90.000000
_cell_angle_gamma 90.000000
_cell_volume 1980.534869
_symmetry_space_group_name_H-M "P M M 2"
_symmetry_group_IT_number 25
_symmetry_cell_setting 'orthorhombic'
loop_
_space_group_symop_operation_xyz
x,y,z
-x,-y,z
-x,y,z
x,-y,z
loop_
_atom_site_type_symbol
_atom_site_label
_atom_site_fract_x
_atom_site_fract_y
_atom_site_fract_z
Si Si1 0.675898 0.784705 0.452130
Si Si2 0.326552 0.608137 0.210404
Si Si3 0.822195 0.892226 0.970426
Si Si4 0.828209 0.886647 0.604500
Si Si5 0.175665 0.775496 0.129024
Si Si6 0.826834 0.889784 0.298015
Si Si7 0.822764 0.104714 0.787601
Si Si8 0.176145 0.392653 0.388816
O O1 0.500000 0.772128 0.448876
O O2 0.719855 0.839990 0.536694
O O3 0.727508 0.842936 0.370369
O O4 0.749879 0.680047 0.454878
O O5 0.500000 0.629138 0.228054
O O6 0.300808 0.500000 0.180864
O O7 0.263036 0.676073 0.137171
O O8 0.236231 0.631149 0.295586
O O9 0.775008 0.847206 0.877720
O O10 0.000000 0.895430 0.979124
O O11 0.760675 0.000000 0.980072
O O12 0.758069 0.826032 0.044951
O O13 0.775949 0.846592 0.698040
O O14 0.000000 0.858233 0.584741
O O15 0.810888 0.000000 0.601539
O O16 0.211655 0.843277 0.208106
O O17 0.000000 0.754171 0.121228
O O18 0.000000 0.874597 0.322388
O O19 0.785945 0.000000 0.291538
O O20 0.000000 0.095173 0.785029
O O21 0.751609 0.000000 0.789517
O O22 0.218635 0.500000 0.415758
O O23 0.000000 0.376700 0.387467
#
# Coordination Sequence:
#
# PCOD8166341 Si02
#       8
#     4   4   4   4   4   4   4   4
#     4  12  23  32  45  67  95 126 156 189 231 276
#     4  10  20  33  48  66  90 120 153 192 236 276
#     4   8  13  23  42  70  99 122 150 190 232 273
#     4   9  17  30  48  68  92 125 162 197 232 273
#     4  10  18  28  46  70  94 123 156 190 229 272
#     4  10  20  32  44  61  91 130 165 191 218 261
#     4   7  11  22  42  67  92 118 151 193 236 271
#     4  10  20  35  54  71  87 112 150 195 238 279
#
# _framework density 16.157252
#
# number of rings (size 3 to 8) (size 9 to 14) (size 15 to 20)
#    0.000    2.500    1.250    4.125    0.000    5.000 
#    0.000    0.000    0.000    1.875    0.000    2.625 
#    0.000    3.000    0.000    0.000    0.000    0.000 
#
# Total GULP energy -396577.182839 kJ/mol
# GULP energy per Si atom -12393.036964 kJ/mol
# Density = 1.612048 g / cm^3
# Si number density = 16.157252 Si / 1000 Ang^3
#
#
#
# Elastic Constant Matrix: (Units=GPa)
#
#
# Indices 1 2 3 4 5 6 
#
# 1 58.9202 34.4144 39.5491 0.0000 0.0000 0.0000
# 2 34.4144 82.6068 46.3533 0.0000 0.0000 0.0000
# 3 39.5491 46.3533 122.9736 0.0000 0.0000 0.0000
# 4 0.0000 0.0000 0.0000 8.8060 0.0000 0.0000
# 5 0.0000 0.0000 0.0000 0.0000 0.1634 0.0000
# 6 0.0000 0.0000 0.0000 0.0000 0.0000 17.1964
#
#
#
# Elastic Compliance Matrix: (Units=1/GPa)
#
#
# Indices 1 2 3 4 5 6 
#
# 1 0.024778 -0.007421 -0.005172 0.000000 0.000000 0.000000
# 2 -0.007421 0.017575 -0.004238 0.000000 0.000000 0.000000
# 3 -0.005172 -0.004238 0.011393 0.000000 0.000000 0.000000
# 4 0.000000 0.000000 0.000000 0.113559 0.000000 0.000000
# 5 0.000000 0.000000 0.000000 0.000000 6.118923 0.000000
# 6 0.000000 0.000000 0.000000 0.000000 0.000000 0.058152
#
#
# Mechanical properties :
#
#
# Convention : Reuss Voigt Hill
#
# Bulk Modulus (GPa) = 49.78918 56.12603 52.95760
# Shear Modulus (GPa) = 0.78312 14.84543 7.81427
#
# Velocity S-wave (km/s) = 0.69695 3.03447 2.20156
# Velocity P-wave (km/s) = 5.61515 6.86223 6.26977
#
# Compressibility (1/GPa) = 0.02008469
#
# Stress axis : x y z
#
# Youngs Moduli (GPa) = 40.35893 56.89838 87.77643
#
# Poissons Ratio (x) = 0.42222 0.45394
# Poissons Ratio (y) = 0.29949 0.37202
# Poissons Ratio (z) = 0.20872 0.24115
#
# Static dielectric constant tensor:
#      x y z
#    x 2.832940 0.000000 0.000000 
#    y 0.000000 3.063720 0.000000 
#    z 0.000000 0.000000 3.323090 
# 
# 
# High freq. dielectric constant tensor:
#      x y z
#    x 1.600560 0.000000 0.000000 
#    y 0.000000 1.602700 0.000000 
#    z 0.000000 0.000000 1.617100 
# 
# From -- ./inp_files/5752.got.cif
#   From: 2010.03.12/outbox.cif.g09.slc.cpg/sg25_3_cif.got.tgz:5752.got - 2010.04.14 03:30:10.
