data_PCOD8166262
_publ_section_title
;
Structure prediction by ZEFSAII (Michael W. Deem and Ramdas Pophale) SiO2 
 PCOD8166262
Probable space group: I 21 21 21
;
_chemical_formula_sum "Si O2"
_cell_formula_units_Z 24
_cell_length_a 4.872834
_cell_length_b 7.686323
_cell_length_c 27.237556
_cell_angle_alpha 90.000000
_cell_angle_beta 90.000000
_cell_angle_gamma 90.000000
_cell_volume 1020.160218
_symmetry_space_group_name_H-M "I 21 21 21"
_symmetry_group_IT_number 24
_symmetry_cell_setting 'orthorhombic'
loop_
_space_group_symop_operation_xyz
x,y,z
-x,1/2-y,z
x,-y,1/2-z
1/2-x,y,-z
1/2+x,1/2+y,1/2+z
1/2-x,-y,1/2+z
1/2+x,1/2-y,-z
-x,1/2+y,1/2-z
loop_
_atom_site_type_symbol
_atom_site_label
_atom_site_fract_x
_atom_site_fract_y
_atom_site_fract_z
Si Si1 0.749892 0.127336 0.705809
Si Si2 0.111695 0.940787 0.950839
Si Si3 0.603275 0.944598 0.606247
O O1 0.500000 0.250000 0.721638
O O2 0.000000 0.250000 0.691969
O O3 0.828849 0.000000 0.750000
O O4 0.694341 0.008895 0.659032
O O5 0.000000 0.750000 0.962341
O O6 0.352162 0.931846 0.910370
O O7 0.250000 0.021660 0.000000
O O8 0.643785 0.055646 0.067838
O O9 0.500000 0.750000 0.610510
#
# Coordination Sequence:
#
# PCOD8166262 Si02
#       3
#     8   8   8
#     4  12  26  46  73 103 139 180 228 281 342 408
#     4  12  25  45  71 100 137 184 232 282 341 405
#     4  12  26  45  71 103 140 180 228 283 342 405
#
# _framework density 23.525715999999999
#
# number of rings (size 3 to 8) (size 9 to 14) (size 15 to 20)
#    0.000    0.000    0.000   12.000    0.000    5.333 
#    0.000    1.667    0.000    0.000    0.000    0.000 
#    0.000    0.000    0.000    0.000    0.000    0.000 
#
# Total GULP energy -148888.092313 kJ/mol
# GULP energy per Si atom -12407.341026 kJ/mol
# Density = 2.347217 g / cm^3
# Si number density = 23.525716 Si / 1000 Ang^3
#
#
#
# Elastic Constant Matrix: (Units=GPa)
#
#
# Indices 1 2 3 4 5 6 
#
# 1 179.5207 60.7766 71.2775 0.0000 0.0000 0.0000
# 2 60.7766 115.6321 79.8063 0.0000 0.0000 0.0000
# 3 71.2775 79.8063 147.6798 0.0000 0.0000 0.0000
# 4 0.0000 0.0000 0.0000 34.1446 0.0000 0.0000
# 5 0.0000 0.0000 0.0000 0.0000 44.4243 0.0000
# 6 0.0000 0.0000 0.0000 0.0000 0.0000 51.5185
#
#
#
# Elastic Compliance Matrix: (Units=1/GPa)
#
#
# Indices 1 2 3 4 5 6 
#
# 1 0.007231 -0.002220 -0.002291 0.000000 0.000000 0.000000
# 2 -0.002220 0.014474 -0.006750 0.000000 0.000000 0.000000
# 3 -0.002291 -0.006750 0.011525 0.000000 0.000000 0.000000
# 4 0.000000 0.000000 0.000000 0.029287 0.000000 0.000000
# 5 0.000000 0.000000 0.000000 0.000000 0.022510 0.000000
# 6 0.000000 0.000000 0.000000 0.000000 0.000000 0.019410
#
#
# Mechanical properties :
#
#
# Convention : Reuss Voigt Hill
#
# Bulk Modulus (GPa) = 93.38369 96.28372 94.83371
# Shear Modulus (GPa) = 38.30578 41.41564 39.86071
#
# Velocity S-wave (km/s) = 4.03954 4.20031 4.12071
# Velocity P-wave (km/s) = 7.84459 8.03364 7.93968
#
# Compressibility (1/GPa) = 0.01070851
#
# Stress axis : x y z
#
# Youngs Moduli (GPa) = 138.28565 69.09080 86.76993
#
# Poissons Ratio (x) = 0.15338 0.19875
# Poissons Ratio (y) = 0.30699 0.58571
# Poissons Ratio (z) = 0.31675 0.46637
#
# Static dielectric constant tensor:
#      x y z
#    x 4.938590 0.000000 0.000000 
#    y 0.000000 4.098460 0.000000 
#    z 0.000000 0.000000 4.251560 
# 
# 
# High freq. dielectric constant tensor:
#      x y z
#    x 1.958720 0.000000 0.000000 
#    y 0.000000 1.932600 0.000000 
#    z 0.000000 0.000000 1.940960 
# 
# From -- ./inp_files/34436.got.cif
#   From: 2010.03.12/outbox.cif.g09.slc.cpg/sg24_18_cif.got.tgz:34436.got - 2010.04.14 03:06:53.
