data_PCOD8166669
_publ_section_title
;
Structure prediction by ZEFSAII (Michael W. Deem and Ramdas Pophale) SiO2 
 PCOD8166669
Probable space group: P M M 2
;
_chemical_formula_sum "Si O2"
_cell_formula_units_Z 32
_cell_length_a 9.037295
_cell_length_b 9.175200
_cell_length_c 20.975418
_cell_angle_alpha 90.000000
_cell_angle_beta 90.000000
_cell_angle_gamma 90.000000
_cell_volume 1739.260456
_symmetry_space_group_name_H-M "P M M 2"
_symmetry_group_IT_number 25
_symmetry_cell_setting 'orthorhombic'
loop_
_space_group_symop_operation_xyz
x,y,z
-x,-y,z
-x,y,z
x,-y,z
loop_
_atom_site_type_symbol
_atom_site_label
_atom_site_fract_x
_atom_site_fract_y
_atom_site_fract_z
Si Si1 0.831256 0.825964 0.592610
Si Si2 0.327220 0.331724 0.704797
Si Si3 0.175879 0.165887 0.318066
Si Si4 0.824768 0.839100 0.455197
Si Si5 0.823970 0.663531 0.197401
Si Si6 0.171496 0.171118 0.071497
Si Si7 0.166719 0.673174 0.830635
Si Si8 0.674134 0.668017 0.957628
O O1 0.721896 0.758640 0.643722
O O2 0.778606 0.764186 0.522480
O O3 0.000000 0.777861 0.607452
O O4 0.818756 0.000000 0.593270
O O5 0.500000 0.310813 0.715994
O O6 0.285472 0.500000 0.693628
O O7 0.245436 0.267374 0.767019
O O8 0.223205 0.235104 0.387613
O O9 0.243493 0.263634 0.261407
O O10 0.000000 0.165501 0.312371
O O11 0.233915 0.000000 0.311192
O O12 0.000000 0.852757 0.456987
O O13 0.754983 0.000000 0.453557
O O14 0.761020 0.500000 0.191620
O O15 0.771414 0.755685 0.136579
O O16 0.000000 0.662018 0.200949
O O17 0.000000 0.208500 0.058650
O O18 0.197892 0.000000 0.077456
O O19 0.268542 0.233851 0.014760
O O20 0.170147 0.500000 0.829481
O O21 0.252852 0.728963 0.892887
O O22 0.000000 0.734036 0.832716
O O23 0.500000 0.685601 0.950694
O O24 0.719031 0.500000 0.970072
#
# Coordination Sequence:
#
# PCOD8166669 Si02
#       8
#     4   4   4   4   4   4   4   4
#     4   9  17  30  48  70  96 127 165 207 248 291
#     4  10  20  33  49  71 100 132 165 201 241 287
#     4   8  12  20  36  58  86 120 155 192 239 293
#     4   7  11  21  38  60  87 120 156 194 239 291
#     4   9  16  25  39  62  93 126 159 198 243 289
#     4  10  20  33  49  70  97 130 167 204 241 283
#     4   9  17  31  53  77  99 126 160 197 238 286
#     4  10  20  34  53  76 100 126 157 195 241 292
#
# _framework density 18.398624999999999
#
# number of rings (size 3 to 8) (size 9 to 14) (size 15 to 20)
#    0.000    3.000    0.000    3.375    0.000    5.500 
#    0.000    1.250    0.000    6.000    0.000    0.875 
#    0.000    5.000    0.000    0.000    0.000    0.000 
#
# Total GULP energy -396539.901313 kJ/mol
# GULP energy per Si atom -12391.871916 kJ/mol
# Density = 1.835675 g / cm^3
# Si number density = 18.398625 Si / 1000 Ang^3
#
#
#
# Elastic Constant Matrix: (Units=GPa)
#
#
# Indices 1 2 3 4 5 6 
#
# 1 54.7414 24.5225 47.6739 0.0000 0.0000 0.0000
# 2 24.5225 62.8656 55.4875 0.0000 0.0000 0.0000
# 3 47.6739 55.4875 191.4481 0.0000 0.0000 0.0000
# 4 0.0000 0.0000 0.0000 29.1347 0.0000 0.0000
# 5 0.0000 0.0000 0.0000 0.0000 2.3516 0.0000
# 6 0.0000 0.0000 0.0000 0.0000 0.0000 17.2042
#
#
#
# Elastic Compliance Matrix: (Units=1/GPa)
#
#
# Indices 1 2 3 4 5 6 
#
# 1 0.024740 -0.005661 -0.004520 0.000000 0.000000 0.000000
# 2 -0.005661 0.022670 -0.005161 0.000000 0.000000 0.000000
# 3 -0.004520 -0.005161 0.007845 0.000000 0.000000 0.000000
# 4 0.000000 0.000000 0.000000 0.034323 0.000000 0.000000
# 5 0.000000 0.000000 0.000000 0.000000 0.425238 0.000000
# 6 0.000000 0.000000 0.000000 0.000000 0.000000 0.058125
#
#
# Mechanical properties :
#
#
# Convention : Reuss Voigt Hill
#
# Bulk Modulus (GPa) = 40.69780 62.71367 51.70573
# Shear Modulus (GPa) = 8.17239 21.82953 15.00096
#
# Velocity S-wave (km/s) = 2.10986 3.44826 2.85850
# Velocity P-wave (km/s) = 5.30126 7.07206 6.24970
#
# Compressibility (1/GPa) = 0.02457135
#
# Stress axis : x y z
#
# Youngs Moduli (GPa) = 40.42020 44.11043 127.47500
#
# Poissons Ratio (x) = 0.24971 0.57618
# Poissons Ratio (y) = 0.22882 0.65788
# Poissons Ratio (z) = 0.18270 0.22765
#
# Static dielectric constant tensor:
#      x y z
#    x 2.991630 0.000000 0.000000 
#    y 0.000000 3.149110 0.000000 
#    z 0.000000 0.000000 3.856260 
# 
# 
# High freq. dielectric constant tensor:
#      x y z
#    x 1.670220 0.000000 0.000000 
#    y 0.000000 1.679280 0.000000 
#    z 0.000000 0.000000 1.740750 
# 
# From -- ./inp_files/6558.got.cif
#   From: 2010.03.12/outbox.cif.g09.slc.cpg/sg25_4_cif.got.tgz:6558.got - 2010.04.14 03:30:10.
