data_PCOD8166179
_publ_section_title
;
Structure prediction by ZEFSAII (Michael W. Deem and Ramdas Pophale) SiO2 
 PCOD8166179
Probable space group: I 21 21 21
;
_chemical_formula_sum "Si O2"
_cell_formula_units_Z 24
_cell_length_a 4.790028
_cell_length_b 22.089440
_cell_length_c 9.864996
_cell_angle_alpha 90.000000
_cell_angle_beta 90.000000
_cell_angle_gamma 90.000000
_cell_volume 1043.805718
_symmetry_space_group_name_H-M "I 21 21 21"
_symmetry_group_IT_number 24
_symmetry_cell_setting 'orthorhombic'
loop_
_space_group_symop_operation_xyz
x,y,z
-x,1/2-y,z
x,-y,1/2-z
1/2-x,y,-z
1/2+x,1/2+y,1/2+z
1/2-x,-y,1/2+z
1/2+x,1/2-y,-z
-x,1/2+y,1/2-z
loop_
_atom_site_type_symbol
_atom_site_label
_atom_site_fract_x
_atom_site_fract_y
_atom_site_fract_z
Si Si1 0.923291 0.888747 0.292770
Si Si2 0.750000 0.988446 0.500000
Si Si3 0.571491 0.594729 0.115475
Si Si4 0.750000 0.209924 0.000000
O O1 0.830465 0.948275 0.371715
O O2 0.730967 0.878795 0.158165
O O3 0.899196 0.829350 0.384114
O O4 0.242023 0.902380 0.251706
O O5 0.487989 0.028704 0.449953
O O6 0.750000 0.631236 0.000000
O O7 0.500000 0.250000 0.063728
#
# Coordination Sequence:
#
# PCOD8166179 Si02
#       4
#     8   4   8   4
#     4  11  26  41  65  98 134 171 228 270 322 389
#     4  11  26  36  64  96 142 184 218 253 320 398
#     4  12  24  39  60  96 143 181 208 257 324 404
#     4  11  24  50  76  96 118 166 228 299 338 364
#
# _framework density 22.992785000000001
#
# number of rings (size 3 to 8) (size 9 to 14) (size 15 to 20)
#    0.000    0.667    3.333    3.000    9.333    2.667 
#    0.000    0.000    0.000   20.000    0.000    0.000 
#    0.000    0.000    0.000    0.000    0.000    0.000 
#
# Total GULP energy -148705.541494 kJ/mol
# GULP energy per Si atom -12392.128458 kJ/mol
# Density = 2.294045 g / cm^3
# Si number density = 22.992785 Si / 1000 Ang^3
#
#
#
# Elastic Constant Matrix: (Units=GPa)
#
#
# Indices 1 2 3 4 5 6 
#
# 1 138.7632 44.3290 19.9715 0.0001 0.0000 0.0000
# 2 44.3290 87.7230 39.4150 0.0001 0.0000 0.0000
# 3 19.9715 39.4150 65.4476 0.0001 0.0000 -0.0001
# 4 0.0001 0.0001 0.0001 0.8894 0.0000 0.0000
# 5 0.0000 0.0000 0.0000 0.0000 61.1694 0.0000
# 6 0.0000 0.0000 -0.0001 0.0000 0.0000 21.4567
#
#
#
# Elastic Compliance Matrix: (Units=1/GPa)
#
#
# Indices 1 2 3 4 5 6 
#
# 1 0.008594 -0.004338 -0.000010 0.000000 0.000000 0.000000
# 2 -0.004338 0.017819 -0.009407 -0.000002 0.000000 0.000000
# 3 -0.000010 -0.009407 0.020948 0.000000 0.000000 0.000000
# 4 0.000000 -0.000002 0.000000 1.124356 0.000000 -0.000001
# 5 0.000000 0.000000 0.000000 0.000000 0.016348 0.000000
# 6 0.000000 0.000000 0.000000 -0.000001 0.000000 0.046606
#
#
# Mechanical properties :
#
#
# Convention : Reuss Voigt Hill
#
# Bulk Modulus (GPa) = 50.37867 55.48498 52.93182
# Shear Modulus (GPa) = 3.94074 29.25098 16.59586
#
# Velocity S-wave (km/s) = 1.31058 3.57063 2.68952
# Velocity P-wave (km/s) = 4.92426 6.41741 5.71977
#
# Compressibility (1/GPa) = 0.01984967
#
# Stress axis : x y z
#
# Youngs Moduli (GPa) = 116.36242 56.12132 47.73797
#
# Poissons Ratio (x) = 0.24347 0.00046
# Poissons Ratio (y) = 0.50482 0.44908
# Poissons Ratio (z) = 0.00113 0.52794
#
# Static dielectric constant tensor:
#      x y z
#    x 4.430710 0.000000 0.000000 
#    y 0.000000 3.779710 0.000000 
#    z 0.000000 0.000000 4.441300 
# 
# 
# High freq. dielectric constant tensor:
#      x y z
#    x 1.941660 0.000000 0.000000 
#    y 0.000000 1.850990 0.000000 
#    z 0.000000 0.000000 1.921940 
# 
# From -- ./inp_files/8115.got.cif
#   From: 2010.03.12/outbox.cif.g09.slc.cpg/sg24_5_cif.got.tgz:8115.got - 2010.04.14 03:06:53.
