data_PCOD8166704
_publ_section_title
;
Structure prediction by ZEFSAII (Michael W. Deem and Ramdas Pophale) SiO2 
 PCOD8166704
Probable space group: P M M 2
;
_chemical_formula_sum "Si O2"
_cell_formula_units_Z 28
_cell_length_a 9.142729
_cell_length_b 8.669717
_cell_length_c 18.195228
_cell_angle_alpha 90.000000
_cell_angle_beta 90.000000
_cell_angle_gamma 90.000000
_cell_volume 1442.242437
_symmetry_space_group_name_H-M "P M M 2"
_symmetry_group_IT_number 25
_symmetry_cell_setting 'orthorhombic'
loop_
_space_group_symop_operation_xyz
x,y,z
-x,-y,z
-x,y,z
x,-y,z
loop_
_atom_site_type_symbol
_atom_site_label
_atom_site_fract_x
_atom_site_fract_y
_atom_site_fract_z
Si Si1 0.664644 0.316651 0.238130
Si Si2 0.335716 0.316601 0.957311
Si Si3 0.335725 0.683446 0.795300
Si Si4 0.332165 0.180346 0.520719
Si Si5 0.163892 0.316933 0.656120
Si Si6 0.835649 0.315741 0.096708
Si Si7 0.171207 0.319774 0.383875
O O1 0.500000 0.250743 0.242567
O O2 0.662287 0.500000 0.235156
O O3 0.741953 0.251196 0.165027
O O4 0.755227 0.260915 0.308775
O O5 0.500000 0.256457 0.971626
O O6 0.334506 0.500000 0.960641
O O7 0.281908 0.261740 0.876333
O O8 0.231127 0.249495 0.020741
O O9 0.500000 0.744927 0.780629
O O10 0.336674 0.500000 0.792507
O O11 0.228368 0.749715 0.732723
O O12 0.500000 0.232021 0.509859
O O13 0.267295 0.267236 0.590313
O O14 0.240666 0.223735 0.449325
O O15 0.319096 0.000000 0.535023
O O16 0.159921 0.500000 0.658210
O O17 0.000000 0.250832 0.645444
O O18 0.833599 0.500000 0.096737
O O19 0.000000 0.253054 0.104194
O O20 0.201485 0.500000 0.397494
O O21 0.000000 0.284552 0.379359
#
# Coordination Sequence:
#
# PCOD8166704 Si02
#       7
#     4   4   4   4   4   4   4
#     4   9  16  26  41  61  87 121 159 196 234 279
#     4   8  13  21  33  51  79 117 157 192 230 278
#     4   8  14  25  41  61  87 121 159 197 236 280
#     4  11  24  39  54  73  97 126 161 199 240 289
#     4  10  20  33  51  75 100 127 161 200 243 291
#     4   9  15  21  31  51  82 119 156 194 236 279
#     4  10  20  34  53  76 100 126 159 199 243 291
#
# _framework density 19.414211999999999
#
# number of rings (size 3 to 8) (size 9 to 14) (size 15 to 20)
#    0.000    2.714    0.000    3.429    0.000    8.571 
#    0.000    2.857    0.000    0.000    0.000    0.000 
#    0.000    1.143    0.000   10.000    0.000   14.143 
#
# Total GULP energy -347123.752060 kJ/mol
# GULP energy per Si atom -12397.276859 kJ/mol
# Density = 1.937002 g / cm^3
# Si number density = 19.414212 Si / 1000 Ang^3
#
#
#
# Elastic Constant Matrix: (Units=GPa)
#
#
# Indices 1 2 3 4 5 6 
#
# 1 145.4693 12.0109 79.8736 0.0000 0.0000 0.0000
# 2 12.0109 7.4949 8.3686 0.0000 0.0000 0.0000
# 3 79.8736 8.3686 168.2517 0.0000 0.0000 0.0000
# 4 0.0000 0.0000 0.0000 -4.2316 0.0000 0.0000
# 5 0.0000 0.0000 0.0000 0.0000 34.6481 0.0000
# 6 0.0000 0.0000 0.0000 0.0000 0.0000 12.2957
#
#
#
# Elastic Compliance Matrix: (Units=1/GPa)
#
#
# Indices 1 2 3 4 5 6 
#
# 1 0.010160 -0.011537 -0.004249 0.000000 0.000000 0.000000
# 2 -0.011537 0.154371 -0.002201 0.000000 0.000000 0.000000
# 3 -0.004249 -0.002201 0.008070 0.000000 0.000000 0.000000
# 4 0.000000 0.000000 0.000000 -0.236318 0.000000 0.000000
# 5 0.000000 0.000000 0.000000 0.000000 0.028862 0.000000
# 6 0.000000 0.000000 0.000000 0.000000 0.000000 0.081329
#
#
# Mechanical properties :
#
#
# Convention : Reuss Voigt Hill
#
# Bulk Modulus (GPa) = 7.31928 57.96914 32.64421
# Shear Modulus (GPa) = 39.06503 23.27329 31.16916
#
# Velocity S-wave (km/s) = 4.49061 3.46609 4.01119
# Velocity P-wave (km/s) = 5.53766 6.77808 6.18902
#
# Compressibility (1/GPa) = 0.13662542
#
# Stress axis : x y z
#
# Youngs Moduli (GPa) = 98.42352 6.47791 123.91125
#
# Poissons Ratio (x) = 0.07474 0.52656
# Poissons Ratio (y) = 1.13554 0.27275
# Poissons Ratio (z) = 0.41825 0.01426
#
# Static dielectric constant tensor:
#      x y z
#    x 3.822120 0.000000 0.000000 
#    y 0.000000 2.826850 0.000000 
#    z 0.000000 0.000000 3.918470 
# 
# 
# High freq. dielectric constant tensor:
#      x y z
#    x 1.766620 0.000000 0.000000 
#    y 0.000000 1.681400 0.000000 
#    z 0.000000 0.000000 1.776770 
# 
# From -- ./inp_files/6099.got.cif
#   From: 2010.03.12/outbox.cif.g09.slc.cpg/sg25_4_cif.got.tgz:6099.got - 2010.04.14 03:30:10.
