data_PCOD8166400
_publ_section_title
;
Structure prediction by ZEFSAII (Michael W. Deem and Ramdas Pophale) SiO2 
 PCOD8166400
Probable space group: P M M 2
;
_chemical_formula_sum "Si O2"
_cell_formula_units_Z 32
_cell_length_a 19.715345
_cell_length_b 9.320807
_cell_length_c 10.019638
_cell_angle_alpha 90.000000
_cell_angle_beta 90.000000
_cell_angle_gamma 90.000000
_cell_volume 1841.237993
_symmetry_space_group_name_H-M "P M M 2"
_symmetry_group_IT_number 25
_symmetry_cell_setting 'orthorhombic'
loop_
_space_group_symop_operation_xyz
x,y,z
-x,-y,z
-x,y,z
x,-y,z
loop_
_atom_site_type_symbol
_atom_site_label
_atom_site_fract_x
_atom_site_fract_y
_atom_site_fract_z
Si Si1 0.178846 0.170063 0.644920
Si Si2 0.578716 0.332115 0.735971
Si Si3 0.844317 0.166112 0.164967
Si Si4 0.673625 0.831077 0.539176
Si Si5 0.184866 0.332134 0.911789
Si Si6 0.690233 0.164530 0.238462
Si Si7 0.338227 0.665597 0.988504
Si Si8 0.075785 0.829673 0.420010
O O1 0.253480 0.214884 0.596335
O O2 0.160002 0.252998 0.779326
O O3 0.124921 0.226496 0.536342
O O4 0.173729 0.000000 0.668798
O O5 0.500000 0.293938 0.732419
O O6 0.593013 0.500000 0.716319
O O7 0.614332 0.249068 0.616392
O O8 0.607926 0.281085 0.878697
O O9 0.770261 0.189958 0.226751
O O10 0.897533 0.220425 0.275540
O O11 0.855445 0.000000 0.125939
O O12 0.855997 0.263891 0.035282
O O13 0.667864 0.783925 0.384929
O O14 0.663355 0.000000 0.555098
O O15 0.168490 0.500000 0.902545
O O16 0.264318 0.301043 0.929830
O O17 0.671501 0.000000 0.216076
O O18 0.649024 0.251636 0.126621
O O19 0.347794 0.500000 0.022140
O O20 0.000000 0.768858 0.442197
O O21 0.076645 0.000000 0.423213
#
# Coordination Sequence:
#
# PCOD8166400 Si02
#       8
#     4   4   4   4   4   4   4   4
#     4  10  18  31  52  78 104 134 171 213 259 303
#     4  10  21  37  54  73 102 138 173 211 256 306
#     4   9  16  30  51  75 101 130 166 209 256 302
#     4  10  19  32  52  78 106 134 167 211 259 306
#     4  10  19  31  49  75 103 131 168 212 254 297
#     4   9  17  30  50  76 102 128 161 206 255 298
#     4   9  18  32  49  73 100 128 165 208 249 296
#     4   9  17  31  53  79 105 134 172 216 259 307
#
# _framework density 17.379611000000001
#
# number of rings (size 3 to 8) (size 9 to 14) (size 15 to 20)
#    0.000    2.500    2.500    0.375    0.000    1.750 
#    0.000    1.875    0.000    7.500    0.000    0.000 
#    0.000    0.000    0.000    0.000    0.000    0.000 
#
# Total GULP energy -396828.499407 kJ/mol
# GULP energy per Si atom -12400.890606 kJ/mol
# Density = 1.734005 g / cm^3
# Si number density = 17.379611 Si / 1000 Ang^3
#
#
#
# Elastic Constant Matrix: (Units=GPa)
#
#
# Indices 1 2 3 4 5 6 
#
# 1 84.4709 30.7712 64.1997 0.0000 0.0000 0.0000
# 2 30.7712 50.0888 58.5946 0.0000 0.0000 0.0000
# 3 64.1997 58.5946 167.6863 0.0000 0.0000 0.0000
# 4 0.0000 0.0000 0.0000 21.8168 0.0000 0.0000
# 5 0.0000 0.0000 0.0000 0.0000 27.3953 0.0000
# 6 0.0000 0.0000 0.0000 0.0000 0.0000 16.0631
#
#
#
# Elastic Compliance Matrix: (Units=1/GPa)
#
#
# Indices 1 2 3 4 5 6 
#
# 1 0.017378 -0.004893 -0.004944 0.000000 0.000000 0.000000
# 2 -0.004893 0.035145 -0.010408 0.000000 0.000000 0.000000
# 3 -0.004944 -0.010408 0.011493 0.000000 0.000000 0.000000
# 4 0.000000 0.000000 0.000000 0.045836 0.000000 0.000000
# 5 0.000000 0.000000 0.000000 0.000000 0.036503 0.000000
# 6 0.000000 0.000000 0.000000 0.000000 0.000000 0.062255
#
#
# Mechanical properties :
#
#
# Convention : Reuss Voigt Hill
#
# Bulk Modulus (GPa) = 42.50205 67.70857 55.10531
# Shear Modulus (GPa) = 19.45976 22.96705 21.21340
#
# Velocity S-wave (km/s) = 3.34981 3.63918 3.49749
# Velocity P-wave (km/s) = 6.28250 7.53003 6.93438
#
# Compressibility (1/GPa) = 0.02352828
#
# Stress axis : x y z
#
# Youngs Moduli (GPa) = 57.54414 28.45330 87.01017
#
# Poissons Ratio (x) = 0.13922 0.43014
# Poissons Ratio (y) = 0.28155 0.90557
# Poissons Ratio (z) = 0.28447 0.29613
#
# Static dielectric constant tensor:
#      x y z
#    x 3.114650 0.000000 0.000000 
#    y 0.000000 3.064370 0.000000 
#    z 0.000000 0.000000 3.390080 
# 
# 
# High freq. dielectric constant tensor:
#      x y z
#    x 1.647330 0.000000 0.000000 
#    y 0.000000 1.653220 0.000000 
#    z 0.000000 0.000000 1.685640 
# 
# From -- ./inp_files/2899.got.cif
#   From: 2010.03.12/outbox.cif.g09.slc.cpg/sg25_2_cif.got.tgz:2899.got - 2010.04.14 03:30:10.
