data_PCOD8166940
_publ_section_title
;
Structure prediction by ZEFSAII (Michael W. Deem and Ramdas Pophale) SiO2 
 PCOD8166940
Probable space group: P M M 2
;
_chemical_formula_sum "Si O2"
_cell_formula_units_Z 32
_cell_length_a 13.902665
_cell_length_b 9.020823
_cell_length_c 13.070415
_cell_angle_alpha 90.000000
_cell_angle_beta 90.000000
_cell_angle_gamma 90.000000
_cell_volume 1639.206233
_symmetry_space_group_name_H-M "P M M 2"
_symmetry_group_IT_number 25
_symmetry_cell_setting 'orthorhombic'
loop_
_space_group_symop_operation_xyz
x,y,z
-x,-y,z
-x,y,z
x,-y,z
loop_
_atom_site_type_symbol
_atom_site_label
_atom_site_fract_x
_atom_site_fract_y
_atom_site_fract_z
Si Si1 0.221149 0.175500 0.947390
Si Si2 0.113375 0.670488 0.349916
Si Si3 0.614161 0.166556 0.249348
Si Si4 0.205048 0.327398 0.555234
Si Si5 0.113065 0.325914 0.762499
Si Si6 0.108842 0.174186 0.149039
Si Si7 0.607338 0.672178 0.452052
Si Si8 0.388584 0.325733 0.043093
O O1 0.160267 0.235418 0.853452
O O2 0.232428 0.000000 0.937481
O O3 0.166204 0.225562 0.049620
O O4 0.326588 0.251381 0.951898
O O5 0.144469 0.500000 0.339898
O O6 0.155391 0.741449 0.454226
O O7 0.156197 0.755044 0.250891
O O8 0.000000 0.691643 0.354272
O O9 0.500000 0.164171 0.253238
O O10 0.650266 0.244169 0.353183
O O11 0.648066 0.256735 0.150092
O O12 0.656330 0.000000 0.241836
O O13 0.179585 0.500000 0.557183
O O14 0.161794 0.260153 0.659160
O O15 0.320400 0.298550 0.547130
O O16 0.134091 0.500000 0.777101
O O17 0.000000 0.293074 0.758466
O O18 0.000000 0.232140 0.135357
O O19 0.111776 0.000000 0.162707
O O20 0.500000 0.727032 0.482748
O O21 0.605407 0.500000 0.422651
O O22 0.500000 0.288062 0.022142
O O23 0.370561 0.500000 0.045983
#
# Coordination Sequence:
#
# PCOD8166940 Si02
#       8
#     4   4   4   4   4   4   4   4
#     4  11  23  38  58  83 113 149 189 234 288 346
#     4   9  17  30  50  76 104 135 174 223 278 332
#     4   9  17  30  49  75 110 150 187 226 274 327
#     4   9  18  33  54  79 106 140 185 236 288 335
#     4  10  21  39  62  84 108 143 192 246 294 345
#     4   9  19  35  52  74 108 145 178 220 277 338
#     4   9  17  30  49  75 108 146 187 229 277 336
#     4  10  21  37  57  82 113 149 191 236 280 333
#
# _framework density 19.521644999999999
#
# number of rings (size 3 to 8) (size 9 to 14) (size 15 to 20)
#    0.000    2.500    0.000    1.875    1.750    5.500 
#    0.000    3.125    0.000    3.750    0.000    0.000 
#    0.000    0.000    0.000    0.000    0.000    0.000 
#
# Total GULP energy -396767.325011 kJ/mol
# GULP energy per Si atom -12398.978907 kJ/mol
# Density = 1.947721 g / cm^3
# Si number density = 19.521645 Si / 1000 Ang^3
#
#
#
# Elastic Constant Matrix: (Units=GPa)
#
#
# Indices 1 2 3 4 5 6 
#
# 1 92.6839 40.1334 72.3162 0.0000 0.0000 0.0000
# 2 40.1334 68.2641 49.9456 0.0000 0.0000 0.0000
# 3 72.3162 49.9456 148.9665 0.0000 0.0000 0.0000
# 4 0.0000 0.0000 0.0000 -0.3751 0.0000 0.0000
# 5 0.0000 0.0000 0.0000 0.0000 36.6272 0.0000
# 6 0.0000 0.0000 0.0000 0.0000 0.0000 19.7041
#
#
#
# Elastic Compliance Matrix: (Units=1/GPa)
#
#
# Indices 1 2 3 4 5 6 
#
# 1 0.018983 -0.005854 -0.007253 0.000000 0.000000 0.000000
# 2 -0.005854 0.021216 -0.004271 0.000000 0.000000 0.000000
# 3 -0.007253 -0.004271 0.011666 0.000000 0.000000 0.000000
# 4 0.000000 0.000000 0.000000 -2.665901 0.000000 0.000000
# 5 0.000000 0.000000 0.000000 0.000000 0.027302 0.000000
# 6 0.000000 0.000000 0.000000 0.000000 0.000000 0.050751
#
#
# Mechanical properties :
#
#
# Convention : Reuss Voigt Hill
#
# Bulk Modulus (GPa) = 58.45003 70.52278 64.48640
# Shear Modulus (GPa) = -2.00359 21.02585 9.51113
#
# Velocity S-wave (km/s) = -1.01418 3.28541 2.20968
# Velocity P-wave (km/s) = 5.35114 7.11307 6.29406
#
# Compressibility (1/GPa) = 0.01710863
#
# Stress axis : x y z
#
# Youngs Moduli (GPa) = 52.67849 47.13456 85.72015
#
# Poissons Ratio (x) = 0.27593 0.62170
# Poissons Ratio (y) = 0.30838 0.36615
# Poissons Ratio (z) = 0.38206 0.20133
#
# Static dielectric constant tensor:
#      x y z
#    x 3.733330 0.000000 0.000000 
#    y 0.000000 3.444740 0.000000 
#    z 0.000000 0.000000 3.585130 
# 
# 
# High freq. dielectric constant tensor:
#      x y z
#    x 1.775070 0.000000 0.000000 
#    y 0.000000 1.740380 0.000000 
#    z 0.000000 0.000000 1.745740 
# 
# From -- ./inp_files/4248.got.cif
#   From: 2010.03.12/outbox.cif.g09.slc.cpg/sg25_3_cif.got.tgz:4248.got - 2010.04.14 03:30:10.
