data_PCOD8166793
_publ_section_title
;
Structure prediction by ZEFSAII (Michael W. Deem and Ramdas Pophale) SiO2 
 PCOD8166793
Probable space group: P M M 2
;
_chemical_formula_sum "Si O2"
_cell_formula_units_Z 28
_cell_length_a 9.162342
_cell_length_b 9.162394
_cell_length_c 18.092738
_cell_angle_alpha 90.000000
_cell_angle_beta 90.000000
_cell_angle_gamma 90.000000
_cell_volume 1518.867034
_symmetry_space_group_name_H-M "P M M 2"
_symmetry_group_IT_number 25
_symmetry_cell_setting 'orthorhombic'
loop_
_space_group_symop_operation_xyz
x,y,z
-x,-y,z
-x,y,z
x,-y,z
loop_
_atom_site_type_symbol
_atom_site_label
_atom_site_fract_x
_atom_site_fract_y
_atom_site_fract_z
Si Si1 0.672722 0.836868 0.909060
Si Si2 0.163132 0.672721 0.034432
Si Si3 0.831151 0.827932 0.604064
Si Si4 0.338047 0.826802 0.746867
Si Si5 0.827931 0.831152 0.339427
Si Si6 0.328976 0.671020 0.471746
Si Si7 0.173199 0.338048 0.196624
O O1 0.500000 0.839009 0.914434
O O2 0.717761 0.775004 0.827803
O O3 0.735323 0.000000 0.920720
O O4 0.732917 0.732916 0.971746
O O5 0.160986 0.500000 0.029056
O O6 0.225001 0.717757 0.115689
O O7 0.000000 0.735326 0.022774
O O8 0.774786 0.775063 0.684252
O O9 0.739672 0.742857 0.543679
O O10 0.000000 0.785876 0.596818
O O11 0.806683 0.000000 0.592583
O O12 0.500000 0.763356 0.729526
O O13 0.348394 0.000000 0.749105
O O14 0.742855 0.739678 0.399813
O O15 0.775061 0.774784 0.259240
O O16 0.000000 0.806683 0.350909
O O17 0.785876 0.000000 0.346672
O O18 0.500000 0.704576 0.470995
O O19 0.295399 0.500000 0.472496
O O20 0.236643 0.500000 0.213967
O O21 0.000000 0.348392 0.194385
#
# Coordination Sequence:
#
# PCOD8166793 Si02
#       7
#     4   4   4   4   4   4   4
#     4   9  18  32  50  74 103 135 173 213 253 301
#     4   9  18  32  50  74 103 135 173 213 253 301
#     4  10  20  34  55  82 106 129 164 209 255 304
#     4   8  15  30  51  73 100 135 171 208 252 300
#     4  10  20  34  55  82 106 129 164 209 255 304
#     4  11  24  39  54  74 102 137 174 207 244 296
#     4   8  15  30  51  73 100 135 171 208 252 300
#
# _framework density 18.434794
#
# number of rings (size 3 to 8) (size 9 to 14) (size 15 to 20)
#    0.000    2.714    0.000    3.429    0.000    6.286 
#    0.000    4.286    0.000    1.714    0.000    0.000 
#    0.000    0.000    0.000    0.000    0.000    0.000 
#
# Total GULP energy -347108.408943 kJ/mol
# GULP energy per Si atom -12396.728891 kJ/mol
# Density = 1.839284 g / cm^3
# Si number density = 18.434794 Si / 1000 Ang^3
#
#
#
# Elastic Constant Matrix: (Units=GPa)
#
#
# Indices 1 2 3 4 5 6 
#
# 1 57.1779 37.1855 56.5594 0.0000 0.0000 0.0000
# 2 37.1855 57.1944 56.5691 0.0000 0.0000 0.0000
# 3 56.5594 56.5691 171.1576 0.0000 0.0000 0.0000
# 4 0.0000 0.0000 0.0000 64.2143 0.0000 0.0000
# 5 0.0000 0.0000 0.0000 0.0000 64.2267 0.0000
# 6 0.0000 0.0000 0.0000 0.0000 0.0000 25.4441
#
#
#
# Elastic Compliance Matrix: (Units=1/GPa)
#
#
# Indices 1 2 3 4 5 6 
#
# 1 0.033778 -0.016225 -0.005799 0.000000 0.000000 0.000000
# 2 -0.016225 0.033769 -0.005799 0.000000 0.000000 0.000000
# 3 -0.005799 -0.005799 0.009676 0.000000 0.000000 0.000000
# 4 0.000000 0.000000 0.000000 0.015573 0.000000 0.000000
# 5 0.000000 0.000000 0.000000 0.000000 0.015570 0.000000
# 6 0.000000 0.000000 0.000000 0.000000 0.000000 0.039302
#
#
# Mechanical properties :
#
#
# Convention : Reuss Voigt Hill
#
# Bulk Modulus (GPa) = 46.34984 65.12865 55.73924
# Shear Modulus (GPa) = 23.75224 39.79141 31.77182
#
# Velocity S-wave (km/s) = 3.59339 4.65100 4.15597
# Velocity P-wave (km/s) = 6.51258 8.01550 7.30281
#
# Compressibility (1/GPa) = 0.02157505
#
# Stress axis : x y z
#
# Youngs Moduli (GPa) = 29.60522 29.61295 103.35093
#
# Poissons Ratio (x) = 0.48047 0.59938
# Poissons Ratio (y) = 0.48034 0.59937
# Poissons Ratio (z) = 0.17169 0.17174
#
# Static dielectric constant tensor:
#      x y z
#    x 3.088760 0.000000 0.000000 
#    y 0.000000 3.088820 0.000000 
#    z 0.000000 0.000000 3.835690 
# 
# 
# High freq. dielectric constant tensor:
#      x y z
#    x 1.696120 0.000000 0.000000 
#    y 0.000000 1.696120 0.000000 
#    z 0.000000 0.000000 1.734950 
# 
# From -- ./inp_files/6037.got.cif
#   From: 2010.03.12/outbox.cif.g09.slc.cpg/sg25_4_cif.got.tgz:6037.got - 2010.04.14 03:30:10.
