data_PCOD8166318
_publ_section_title
;
Structure prediction by ZEFSAII (Michael W. Deem and Ramdas Pophale) SiO2 
 PCOD8166318
Probable space group: P M M 2
;
_chemical_formula_sum "Si O2"
_cell_formula_units_Z 32
_cell_length_a 9.191360
_cell_length_b 14.817247
_cell_length_c 12.425922
_cell_angle_alpha 90.000000
_cell_angle_beta 90.000000
_cell_angle_gamma 90.000000
_cell_volume 1692.294411
_symmetry_space_group_name_H-M "P M M 2"
_symmetry_group_IT_number 25
_symmetry_cell_setting 'orthorhombic'
loop_
_space_group_symop_operation_xyz
x,y,z
-x,-y,z
-x,y,z
x,-y,z
loop_
_atom_site_type_symbol
_atom_site_label
_atom_site_fract_x
_atom_site_fract_y
_atom_site_fract_z
Si Si1 0.172553 0.401950 0.883060
Si Si2 0.662356 0.814181 0.169426
Si Si3 0.666614 0.790909 0.408730
Si Si4 0.668535 0.597701 0.330534
Si Si5 0.664527 0.900752 0.957801
Si Si6 0.172930 0.104245 0.593151
Si Si7 0.827798 0.216521 0.797107
Si Si8 0.171436 0.357520 0.121289
O O1 0.225004 0.500000 0.838354
O O2 0.227508 0.321096 0.804085
O O3 0.000000 0.397062 0.886573
O O4 0.228943 0.392111 0.005591
O O5 0.500000 0.770509 0.159741
O O6 0.686434 0.840856 0.293741
O O7 0.786687 0.746482 0.131387
O O8 0.675340 0.898283 0.088200
O O9 0.500000 0.795369 0.448884
O O10 0.719655 0.685211 0.400224
O O11 0.767197 0.847090 0.487962
O O12 0.500000 0.613301 0.303810
O O13 0.692406 0.500000 0.390303
O O14 0.752306 0.588972 0.217875
O O15 0.500000 0.878942 0.920664
O O16 0.773135 0.830179 0.905317
O O17 0.710914 0.000000 0.919923
O O18 0.233691 0.162881 0.693774
O O19 0.000000 0.106899 0.588536
O O20 0.227056 0.000000 0.601419
O O21 0.000000 0.211850 0.796650
O O22 0.000000 0.370852 0.132697
#
# Coordination Sequence:
#
# PCOD8166318 Si02
#       8
#     4   4   4   4   4   4   4   4
#     4   9  17  29  48  76 107 138 173 211 255 307
#     4   9  18  33  51  74 108 143 173 210 264 321
#     4   9  19  35  56  80 104 136 179 220 261 313
#     4   9  18  33  52  76 109 147 180 211 258 317
#     4  10  20  33  52  79 109 138 170 215 269 322
#     4  10  22  39  57  77 102 135 177 227 277 321
#     4  10  20  37  57  76 104 141 178 218 266 319
#     4  10  17  27  47  76 109 143 180 216 252 301
#
# _framework density 18.909238999999999
#
# number of rings (size 3 to 8) (size 9 to 14) (size 15 to 20)
#    0.000    2.500    1.250    1.875    0.000    4.750 
#    0.000    1.875    0.000    1.875    0.000    0.000 
#    0.000    0.000    0.000    0.000    0.000    0.000 
#
# Total GULP energy -396446.782025 kJ/mol
# GULP energy per Si atom -12388.961938 kJ/mol
# Density = 1.886620 g / cm^3
# Si number density = 18.909239 Si / 1000 Ang^3
#
#
#
# Elastic Constant Matrix: (Units=GPa)
#
#
# Indices 1 2 3 4 5 6 
#
# 1 23.8604 23.0342 20.5665 0.0000 0.0000 0.0000
# 2 23.0342 146.4069 67.1045 0.0000 0.0000 0.0000
# 3 20.5665 67.1045 98.3069 0.0000 0.0000 0.0000
# 4 0.0000 0.0000 0.0000 23.5627 0.0000 0.0000
# 5 0.0000 0.0000 0.0000 0.0000 23.8227 0.0000
# 6 0.0000 0.0000 0.0000 0.0000 0.0000 19.2991
#
#
#
# Elastic Compliance Matrix: (Units=1/GPa)
#
#
# Indices 1 2 3 4 5 6 
#
# 1 0.053324 -0.004768 -0.007901 0.000000 0.000000 0.000000
# 2 -0.004768 0.010367 -0.006079 0.000000 0.000000 0.000000
# 3 -0.007901 -0.006079 0.015975 0.000000 0.000000 0.000000
# 4 0.000000 0.000000 0.000000 0.042440 0.000000 0.000000
# 5 0.000000 0.000000 0.000000 0.000000 0.041977 0.000000
# 6 0.000000 0.000000 0.000000 0.000000 0.000000 0.051816
#
#
# Mechanical properties :
#
#
# Convention : Reuss Voigt Hill
#
# Bulk Modulus (GPa) = 23.71401 54.44273 39.07837
# Shear Modulus (GPa) = 18.69514 23.86151 21.27832
#
# Velocity S-wave (km/s) = 3.14774 3.55617 3.35817
# Velocity P-wave (km/s) = 5.07732 6.76136 5.97893
#
# Compressibility (1/GPa) = 0.04216917
#
# Stress axis : x y z
#
# Youngs Moduli (GPa) = 18.75342 96.46390 62.59968
#
# Poissons Ratio (x) = 0.45994 0.49460
# Poissons Ratio (y) = 0.08942 0.38053
# Poissons Ratio (z) = 0.14817 0.58638
#
# Static dielectric constant tensor:
#      x y z
#    x 3.235210 0.000000 0.000000 
#    y 0.000000 3.863260 0.000000 
#    z 0.000000 0.000000 3.366480 
# 
# 
# High freq. dielectric constant tensor:
#      x y z
#    x 1.713000 0.000000 0.000000 
#    y 0.000000 1.743980 0.000000 
#    z 0.000000 0.000000 1.713920 
# 
# From -- ./inp_files/4243.got.cif
#   From: 2010.03.12/outbox.cif.g09.slc.cpg/sg25_3_cif.got.tgz:4243.got - 2010.04.14 03:30:10.
