data_PCOD8166921
_publ_section_title
;
Structure prediction by ZEFSAII (Michael W. Deem and Ramdas Pophale) SiO2 
 PCOD8166921
Probable space group: P M M 2
;
_chemical_formula_sum "Si O2"
_cell_formula_units_Z 32
_cell_length_a 9.244415
_cell_length_b 13.829089
_cell_length_c 12.866055
_cell_angle_alpha 90.000000
_cell_angle_beta 90.000000
_cell_angle_gamma 90.000000
_cell_volume 1644.820116
_symmetry_space_group_name_H-M "P M M 2"
_symmetry_group_IT_number 25
_symmetry_cell_setting 'orthorhombic'
loop_
_space_group_symop_operation_xyz
x,y,z
-x,-y,z
-x,y,z
x,-y,z
loop_
_atom_site_type_symbol
_atom_site_label
_atom_site_fract_x
_atom_site_fract_y
_atom_site_fract_z
Si Si1 0.668101 0.113212 0.812210
Si Si2 0.831004 0.609624 0.913525
Si Si3 0.331523 0.282042 0.319999
Si Si4 0.331850 0.387556 0.112526
Si Si5 0.829102 0.890603 0.243945
Si Si6 0.668047 0.612801 0.531981
Si Si7 0.840218 0.114349 0.012565
Si Si8 0.829161 0.726295 0.709209
O O1 0.500000 0.139635 0.808602
O O2 0.752476 0.169210 0.720408
O O3 0.695110 0.000000 0.794184
O O4 0.729760 0.148493 0.923766
O O5 0.776500 0.500000 0.898194
O O6 0.785786 0.665890 0.810662
O O7 0.000000 0.613915 0.933845
O O8 0.753967 0.657214 0.014083
O O9 0.500000 0.258474 0.315012
O O10 0.277813 0.338447 0.218118
O O11 0.247757 0.179882 0.326431
O O12 0.293986 0.348446 0.417884
O O13 0.500000 0.369277 0.093269
O O14 0.294882 0.500000 0.123479
O O15 0.784044 0.856232 0.127234
O O16 0.000000 0.883767 0.257389
O O17 0.776116 0.000000 0.265560
O O18 0.500000 0.630028 0.559245
O O19 0.707537 0.500000 0.536612
O O20 0.768555 0.670619 0.610459
O O21 0.000000 0.159298 0.989089
O O22 0.855777 0.000000 0.012117
O O23 0.000000 0.740160 0.696324
#
# Coordination Sequence:
#
# PCOD8166921 Si02
#       8
#     4   4   4   4   4   4   4   4
#     4  10  21  36  55  82 116 152 193 239 285 340
#     4   9  19  35  53  77 111 146 179 222 278 337
#     4  10  21  36  57  85 113 145 189 237 286 337
#     4   9  18  33  53  79 112 146 179 220 274 337
#     4   9  19  35  54  79 114 154 194 234 279 336
#     4  10  22  42  65  86 112 148 191 240 292 346
#     4   8  15  30  51  75 108 151 192 230 277 331
#     4  11  23  38  59  85 114 149 192 240 290 344
#
# _framework density 19.455013999999998
#
# number of rings (size 3 to 8) (size 9 to 14) (size 15 to 20)
#    0.000    2.500    0.000    2.250    1.750    5.750 
#    0.000    3.125    0.000    3.000    0.000    0.000 
#    0.000    0.000    0.000    0.000    0.000    0.000 
#
# Total GULP energy -396829.033750 kJ/mol
# GULP energy per Si atom -12400.907305 kJ/mol
# Density = 1.941073 g / cm^3
# Si number density = 19.455014 Si / 1000 Ang^3
#
#
#
# Elastic Constant Matrix: (Units=GPa)
#
#
# Indices 1 2 3 4 5 6 
#
# 1 75.9460 43.5329 51.5752 0.0000 0.0000 0.0000
# 2 43.5329 75.8458 41.1442 0.0000 0.0000 0.0000
# 3 51.5752 41.1442 96.0070 0.0000 0.0000 0.0000
# 4 0.0000 0.0000 0.0000 36.3697 0.0000 0.0000
# 5 0.0000 0.0000 0.0000 0.0000 -18.7911 0.0000
# 6 0.0000 0.0000 0.0000 0.0000 0.0000 28.0751
#
#
#
# Elastic Compliance Matrix: (Units=1/GPa)
#
#
# Indices 1 2 3 4 5 6 
#
# 1 0.024783 -0.009123 -0.009404 0.000000 0.000000 0.000000
# 2 -0.009123 0.020537 -0.003900 0.000000 0.000000 0.000000
# 3 -0.009404 -0.003900 0.017139 0.000000 0.000000 0.000000
# 4 0.000000 0.000000 0.000000 0.027495 0.000000 0.000000
# 5 0.000000 0.000000 0.000000 0.000000 -0.053217 0.000000
# 6 0.000000 0.000000 0.000000 0.000000 0.000000 0.035619
#
#
# Mechanical properties :
#
#
# Convention : Reuss Voigt Hill
#
# Bulk Modulus (GPa) = 56.80318 57.81147 57.30732
# Shear Modulus (GPa) = 40.62466 16.56718 28.59592
#
# Velocity S-wave (km/s) = 4.57457 2.92132 3.83802
# Velocity P-wave (km/s) = 7.56061 6.41551 7.01148
#
# Compressibility (1/GPa) = 0.01760465
#
# Stress axis : x y z
#
# Youngs Moduli (GPa) = 40.35056 48.69310 58.34681
#
# Poissons Ratio (x) = 0.44424 0.54867
# Poissons Ratio (y) = 0.36813 0.22756
# Poissons Ratio (z) = 0.37944 0.18991
#
# Static dielectric constant tensor:
#      x y z
#    x 3.438880 0.000000 0.000000 
#    y 0.000000 3.643610 0.000000 
#    z 0.000000 0.000000 3.543980 
# 
# 
# High freq. dielectric constant tensor:
#      x y z
#    x 1.750490 0.000000 0.000000 
#    y 0.000000 1.768210 0.000000 
#    z 0.000000 0.000000 1.743300 
# 
# From -- ./inp_files/4211.got.cif
#   From: 2010.03.12/outbox.cif.g09.slc.cpg/sg25_3_cif.got.tgz:4211.got - 2010.04.14 03:30:10.
