data_PCOD8166359
_publ_section_title
;
Structure prediction by ZEFSAII (Michael W. Deem and Ramdas Pophale) SiO2 
 PCOD8166359
Probable space group: P M M 2
;
_chemical_formula_sum "Si O2"
_cell_formula_units_Z 32
_cell_length_a 9.605695
_cell_length_b 13.511675
_cell_length_c 14.240500
_cell_angle_alpha 90.000000
_cell_angle_beta 90.000000
_cell_angle_gamma 90.000000
_cell_volume 1848.260667
_symmetry_space_group_name_H-M "P M M 2"
_symmetry_group_IT_number 25
_symmetry_cell_setting 'orthorhombic'
loop_
_space_group_symop_operation_xyz
x,y,z
-x,-y,z
-x,y,z
x,-y,z
loop_
_atom_site_type_symbol
_atom_site_label
_atom_site_fract_x
_atom_site_fract_y
_atom_site_fract_z
Si Si1 0.339431 0.292099 0.536190
Si Si2 0.150830 0.386102 0.398655
Si Si3 0.338645 0.717196 0.064830
Si Si4 0.342840 0.612638 0.728811
Si Si5 0.650152 0.613970 0.246432
Si Si6 0.334991 0.109386 0.201217
Si Si7 0.335446 0.890330 0.412322
Si Si8 0.835996 0.614295 0.909508
O O1 0.500000 0.311075 0.508940
O O2 0.243265 0.376441 0.491447
O O3 0.318935 0.304976 0.647746
O O4 0.285838 0.187150 0.493036
O O5 0.126256 0.500000 0.376891
O O6 0.232995 0.335425 0.311477
O O7 0.000000 0.333867 0.409489
O O8 0.500000 0.727611 0.031615
O O9 0.318745 0.626226 0.136691
O O10 0.283759 0.814313 0.120991
O O11 0.238797 0.692138 0.978338
O O12 0.500000 0.624447 0.769303
O O13 0.324194 0.500000 0.690399
O O14 0.229159 0.634805 0.807811
O O15 0.500000 0.665707 0.268468
O O16 0.639960 0.500000 0.272010
O O17 0.500000 0.108026 0.199561
O O18 0.285374 0.140125 0.306729
O O19 0.276912 0.000000 0.176462
O O20 0.500000 0.895614 0.414001
O O21 0.275973 0.000000 0.437083
O O22 0.808257 0.500000 0.939219
O O23 0.000000 0.637201 0.906588
#
# Coordination Sequence:
#
# PCOD8166359 Si02
#       8
#     4   4   4   4   4   4   4   4
#     4  10  18  29  49  73  94 120 157 197 236 278
#     4  10  20  30  40  60  93 129 159 188 226 274
#     4  10  18  29  49  72  92 119 157 198 238 280
#     4   9  18  32  49  69  93 122 158 199 239 281
#     4   9  17  28  42  62  89 121 156 191 227 273
#     4   8  14  25  43  70 101 128 155 190 232 276
#     4   8  14  26  46  73 102 127 153 190 234 277
#     4  10  21  35  50  69  94 124 157 195 240 289
#
# _framework density 17.313576000000001
#
# number of rings (size 3 to 8) (size 9 to 14) (size 15 to 20)
#    0.000    2.750    0.000    3.000    0.000    5.500 
#    0.000    2.500    0.000    1.500    0.000    5.250 
#    0.000    0.000    0.000    0.000    0.000    0.000 
#
# Total GULP energy -396417.922810 kJ/mol
# GULP energy per Si atom -12388.060088 kJ/mol
# Density = 1.727417 g / cm^3
# Si number density = 17.313576 Si / 1000 Ang^3
#
#
#
# Elastic Constant Matrix: (Units=GPa)
#
#
# Indices 1 2 3 4 5 6 
#
# 1 91.2181 31.8289 56.0572 0.0000 0.0000 0.0000
# 2 31.8289 84.3318 53.7146 0.0000 0.0000 0.0000
# 3 56.0572 53.7146 108.4723 0.0000 0.0000 0.0000
# 4 0.0000 0.0000 0.0000 30.4089 0.0000 0.0000
# 5 0.0000 0.0000 0.0000 0.0000 3.0682 0.0000
# 6 0.0000 0.0000 0.0000 0.0000 0.0000 10.3558
#
#
#
# Elastic Compliance Matrix: (Units=1/GPa)
#
#
# Indices 1 2 3 4 5 6 
#
# 1 0.016139 -0.001138 -0.007777 0.000000 0.000000 0.000000
# 2 -0.001138 0.017401 -0.008029 0.000000 0.000000 0.000000
# 3 -0.007777 -0.008029 0.017214 0.000000 0.000000 0.000000
# 4 0.000000 0.000000 0.000000 0.032885 0.000000 0.000000
# 5 0.000000 0.000000 0.000000 0.000000 0.325920 0.000000
# 6 0.000000 0.000000 0.000000 0.000000 0.000000 0.096564
#
#
# Mechanical properties :
#
#
# Convention : Reuss Voigt Hill
#
# Bulk Modulus (GPa) = 59.28847 63.02485 61.15666
# Shear Modulus (GPa) = 9.16365 18.26136 13.71251
#
# Velocity S-wave (km/s) = 2.30309 3.25120 2.81732
# Velocity P-wave (km/s) = 6.43355 7.11159 6.78105
#
# Compressibility (1/GPa) = 0.01686669
#
# Stress axis : x y z
#
# Youngs Moduli (GPa) = 61.96146 57.46666 58.09231
#
# Poissons Ratio (x) = 0.06538 0.45179
# Poissons Ratio (y) = 0.07049 0.46643
# Poissons Ratio (z) = 0.48188 0.46140
#
# Static dielectric constant tensor:
#      x y z
#    x 3.259630 0.000000 0.000000 
#    y 0.000000 3.454580 0.000000 
#    z 0.000000 0.000000 3.081950 
# 
# 
# High freq. dielectric constant tensor:
#      x y z
#    x 1.645170 0.000000 0.000000 
#    y 0.000000 1.654340 0.000000 
#    z 0.000000 0.000000 1.652950 
# 
# From -- ./inp_files/5744.got.cif
#   From: 2010.03.12/outbox.cif.g09.slc.cpg/sg25_3_cif.got.tgz:5744.got - 2010.04.14 03:30:10.
