data_PCOD8166597
_publ_section_title
;
Structure prediction by ZEFSAII (Michael W. Deem and Ramdas Pophale) SiO2 
 PCOD8166597
Probable space group: P M M 2
;
_chemical_formula_sum "Si O2"
_cell_formula_units_Z 28
_cell_length_a 9.324640
_cell_length_b 9.618687
_cell_length_c 18.089293
_cell_angle_alpha 90.000000
_cell_angle_beta 90.000000
_cell_angle_gamma 90.000000
_cell_volume 1622.443044
_symmetry_space_group_name_H-M "P M M 2"
_symmetry_group_IT_number 25
_symmetry_cell_setting 'orthorhombic'
loop_
_space_group_symop_operation_xyz
x,y,z
-x,-y,z
-x,y,z
x,-y,z
loop_
_atom_site_type_symbol
_atom_site_label
_atom_site_fract_x
_atom_site_fract_y
_atom_site_fract_z
Si Si1 0.838819 0.334659 0.596210
Si Si2 0.338422 0.665540 0.459114
Si Si3 0.168584 0.340063 0.157010
Si Si4 0.667846 0.337706 0.740120
Si Si5 0.661076 0.665146 0.296268
Si Si6 0.830018 0.846637 0.024881
Si Si7 0.165343 0.836641 0.858734
O O1 0.841059 0.500000 0.592530
O O2 0.767129 0.273159 0.521588
O O3 0.746310 0.285042 0.666075
O O4 0.000000 0.275255 0.603024
O O5 0.500000 0.718312 0.474665
O O6 0.336791 0.500000 0.462169
O O7 0.287338 0.716699 0.377578
O O8 0.211745 0.500000 0.146009
O O9 0.237413 0.276049 0.231595
O O10 0.231396 0.259312 0.085899
O O11 0.000000 0.320462 0.164858
O O12 0.500000 0.307372 0.731355
O O13 0.697822 0.500000 0.754475
O O14 0.729917 0.251382 0.807867
O O15 0.500000 0.717830 0.281365
O O16 0.666453 0.500000 0.295441
O O17 0.000000 0.852910 0.030113
O O18 0.766525 0.000000 0.040788
O O19 0.788387 0.798216 0.942431
O O20 0.000000 0.794664 0.843903
O O21 0.186668 0.000000 0.844072
#
# Coordination Sequence:
#
# PCOD8166597 Si02
#       7
#     4   4   4   4   4   4   4
#     4   9  16  25  39  61  88 117 149 185 224 264
#     4   8  13  22  36  54  80 115 149 178 214 262
#     4   9  16  25  40  64  89 111 141 181 218 253
#     4  10  20  32  46  67  96 126 154 186 227 275
#     4   8  14  24  37  55  83 118 148 174 213 263
#     4   8  15  29  47  65  86 113 144 178 219 267
#     4   9  18  33  52  71  90 116 153 194 233 275
#
# _framework density 17.257925
#
# number of rings (size 3 to 8) (size 9 to 14) (size 15 to 20)
#    0.000    3.286    0.000    2.571    0.000    4.000 
#    0.000    5.000    0.000    3.000    0.000    1.000 
#    0.000    3.429    0.000    0.000    0.000    0.000 
#
# Total GULP energy -347028.358663 kJ/mol
# GULP energy per Si atom -12393.869952 kJ/mol
# Density = 1.721865 g / cm^3
# Si number density = 17.257925 Si / 1000 Ang^3
#
#
#
# Elastic Constant Matrix: (Units=GPa)
#
#
# Indices 1 2 3 4 5 6 
#
# 1 89.3148 30.5999 77.4402 0.0000 0.0000 0.0000
# 2 30.5999 33.6443 49.8521 0.0000 0.0000 0.0000
# 3 77.4402 49.8521 178.0794 0.0000 0.0000 0.0000
# 4 0.0000 0.0000 0.0000 1.0071 0.0000 0.0000
# 5 0.0000 0.0000 0.0000 0.0000 27.0369 0.0000
# 6 0.0000 0.0000 0.0000 0.0000 0.0000 13.8552
#
#
#
# Elastic Compliance Matrix: (Units=1/GPa)
#
#
# Indices 1 2 3 4 5 6 
#
# 1 0.019381 -0.008782 -0.005970 0.000000 0.000000 0.000000
# 2 -0.008782 0.054770 -0.011514 0.000000 0.000000 0.000000
# 3 -0.005970 -0.011514 0.011435 0.000000 0.000000 0.000000
# 4 0.000000 0.000000 0.000000 0.992951 0.000000 0.000000
# 5 0.000000 0.000000 0.000000 0.000000 0.036987 0.000000
# 6 0.000000 0.000000 0.000000 0.000000 0.000000 0.072175
#
#
# Mechanical properties :
#
#
# Convention : Reuss Voigt Hill
#
# Bulk Modulus (GPa) = 30.25212 68.53586 49.39399
# Shear Modulus (GPa) = 3.99601 17.92294 10.95948
#
# Velocity S-wave (km/s) = 1.52332 3.22613 2.52273
# Velocity P-wave (km/s) = 4.54549 7.32640 6.09662
#
# Compressibility (1/GPa) = 0.03305554
#
# Stress axis : x y z
#
# Youngs Moduli (GPa) = 51.59680 18.25819 87.45343
#
# Poissons Ratio (x) = 0.16034 0.52207
# Poissons Ratio (y) = 0.45311 1.00691
# Poissons Ratio (z) = 0.30802 0.21022
#
# Static dielectric constant tensor:
#      x y z
#    x 3.174720 0.000000 0.000000 
#    y 0.000000 2.835630 0.000000 
#    z 0.000000 0.000000 3.624760 
# 
# 
# High freq. dielectric constant tensor:
#      x y z
#    x 1.652760 0.000000 0.000000 
#    y 0.000000 1.610410 0.000000 
#    z 0.000000 0.000000 1.684380 
# 
# From -- ./inp_files/6333.got.cif
#   From: 2010.03.12/outbox.cif.g09.slc.cpg/sg25_4_cif.got.tgz:6333.got - 2010.04.14 03:30:10.
