data_PCOD8166472
_publ_section_title
;
Structure prediction by ZEFSAII (Michael W. Deem and Ramdas Pophale) SiO2 
 PCOD8166472
Probable space group: P M M 2
;
_chemical_formula_sum "Si O2"
_cell_formula_units_Z 32
_cell_length_a 8.936914
_cell_length_b 14.016687
_cell_length_c 15.493714
_cell_angle_alpha 90.000000
_cell_angle_beta 90.000000
_cell_angle_gamma 90.000000
_cell_volume 1940.834436
_symmetry_space_group_name_H-M "P M M 2"
_symmetry_group_IT_number 25
_symmetry_cell_setting 'orthorhombic'
loop_
_space_group_symop_operation_xyz
x,y,z
-x,-y,z
-x,y,z
x,-y,z
loop_
_atom_site_type_symbol
_atom_site_label
_atom_site_fract_x
_atom_site_fract_y
_atom_site_fract_z
Si Si1 0.323415 0.214641 0.585020
Si Si2 0.175441 0.608266 0.518531
Si Si3 0.175613 0.109495 0.087750
Si Si4 0.326943 0.608442 0.337346
Si Si5 0.331403 0.886570 0.915448
Si Si6 0.828319 0.886969 0.743492
Si Si7 0.827235 0.110855 0.428122
Si Si8 0.174249 0.223746 0.255689
O O1 0.500000 0.221402 0.588918
O O2 0.255785 0.321485 0.585710
O O3 0.266282 0.159179 0.667847
O O4 0.275640 0.159798 0.499010
O O5 0.213989 0.500000 0.545475
O O6 0.233079 0.630932 0.422872
O O7 0.000000 0.628168 0.519386
O O8 0.228104 0.170917 0.169411
O O9 0.000000 0.118046 0.071340
O O10 0.220981 0.000000 0.105296
O O11 0.258355 0.151591 0.003745
O O12 0.500000 0.628246 0.357728
O O13 0.301506 0.500000 0.306198
O O14 0.267656 0.678329 0.262773
O O15 0.500000 0.847421 0.907988
O O16 0.236144 0.849034 0.834280
O O17 0.328229 0.000000 0.916156
O O18 0.000000 0.855051 0.736091
O O19 0.811508 0.000000 0.735430
O O20 0.789896 0.154480 0.335276
O O21 0.000000 0.127505 0.453629
O O22 0.787744 0.000000 0.424061
O O23 0.000000 0.249329 0.251240
#
# Coordination Sequence:
#
# PCOD8166472 Si02
#       8
#     4   4   4   4   4   4   4   4
#     4  12  23  33  48  72 101 131 163 202 247 294
#     4  10  20  35  54  72  92 123 164 207 248 292
#     4   9  17  30  48  71  99 131 166 201 239 287
#     4  10  20  33  49  70  96 125 159 204 255 298
#     4   9  17  30  48  71  98 127 161 204 249 289
#     4  10  20  34  52  72  97 132 170 206 243 288
#     4  10  20  33  47  65  95 135 173 204 236 280
#     4  10  19  31  49  71  96 130 169 205 241 286
#
# _framework density 16.487753999999999
#
# number of rings (size 3 to 8) (size 9 to 14) (size 15 to 20)
#    0.000    2.000    1.250    3.375    0.000    7.500 
#    0.000    0.000    0.000    2.250    0.000    0.875 
#    0.000    3.000    0.000    0.000    0.000    0.000 
#
# Total GULP energy -396886.237158 kJ/mol
# GULP energy per Si atom -12402.694911 kJ/mol
# Density = 1.645023 g / cm^3
# Si number density = 16.487754 Si / 1000 Ang^3
#
#
#
# Elastic Constant Matrix: (Units=GPa)
#
#
# Indices 1 2 3 4 5 6 
#
# 1 102.9150 44.3614 56.7677 0.0000 0.0000 0.0000
# 2 44.3614 68.9351 33.8774 0.0000 0.0000 0.0000
# 3 56.7677 33.8774 106.4455 0.0000 0.0000 0.0000
# 4 0.0000 0.0000 0.0000 5.8591 0.0000 0.0000
# 5 0.0000 0.0000 0.0000 0.0000 9.6814 0.0000
# 6 0.0000 0.0000 0.0000 0.0000 0.0000 23.7986
#
#
#
# Elastic Compliance Matrix: (Units=1/GPa)
#
#
# Indices 1 2 3 4 5 6 
#
# 1 0.016461 -0.007443 -0.006410 0.000000 0.000000 0.000000
# 2 -0.007443 0.020561 -0.002575 0.000000 0.000000 0.000000
# 3 -0.006410 -0.002575 0.013632 0.000000 0.000000 0.000000
# 4 0.000000 0.000000 0.000000 0.170674 0.000000 0.000000
# 5 0.000000 0.000000 0.000000 0.000000 0.103291 0.000000
# 6 0.000000 0.000000 0.000000 0.000000 0.000000 0.042019
#
#
# Mechanical properties :
#
#
# Convention : Reuss Voigt Hill
#
# Bulk Modulus (GPa) = 56.18026 60.92317 58.55172
# Shear Modulus (GPa) = 12.33272 17.42043 14.87657
#
# Velocity S-wave (km/s) = 2.73791 3.25401 3.00706
# Velocity P-wave (km/s) = 6.64400 7.15185 6.90260
#
# Compressibility (1/GPa) = 0.01779985
#
# Stress axis : x y z
#
# Youngs Moduli (GPa) = 60.75133 48.63513 73.35585
#
# Poissons Ratio (x) = 0.36198 0.47019
# Poissons Ratio (y) = 0.45216 0.18886
# Poissons Ratio (z) = 0.38940 0.12521
#
# Static dielectric constant tensor:
#      x y z
#    x 3.211980 0.000000 0.000000 
#    y 0.000000 3.099620 0.000000 
#    z 0.000000 0.000000 3.115450 
# 
# 
# High freq. dielectric constant tensor:
#      x y z
#    x 1.645070 0.000000 0.000000 
#    y 0.000000 1.616410 0.000000 
#    z 0.000000 0.000000 1.623220 
# 
# From -- ./inp_files/5679.got.cif
#   From: 2010.03.12/outbox.cif.g09.slc.cpg/sg25_3_cif.got.tgz:5679.got - 2010.04.14 03:30:10.
