data_PCOD8166344
_publ_section_title
;
Structure prediction by ZEFSAII (Michael W. Deem and Ramdas Pophale) SiO2 
 PCOD8166344
Probable space group: P M M 2
;
_chemical_formula_sum "Si O2"
_cell_formula_units_Z 32
_cell_length_a 14.375935
_cell_length_b 9.065316
_cell_length_c 15.706348
_cell_angle_alpha 90.000000
_cell_angle_beta 90.000000
_cell_angle_gamma 90.000000
_cell_volume 2046.888866
_symmetry_space_group_name_H-M "P M M 2"
_symmetry_group_IT_number 25
_symmetry_cell_setting 'orthorhombic'
loop_
_space_group_symop_operation_xyz
x,y,z
-x,-y,z
-x,y,z
x,-y,z
loop_
_atom_site_type_symbol
_atom_site_label
_atom_site_fract_x
_atom_site_fract_y
_atom_site_fract_z
Si Si1 0.208788 0.173326 0.679700
Si Si2 0.105411 0.676105 0.528739
Si Si3 0.605092 0.171366 0.947729
Si Si4 0.110210 0.338794 0.344966
Si Si5 0.895689 0.323588 0.162823
Si Si6 0.107958 0.828123 0.853226
Si Si7 0.780525 0.675030 0.002448
Si Si8 0.398973 0.824941 0.754805
O O1 0.174764 0.257931 0.597142
O O2 0.144101 0.214072 0.759594
O O3 0.314182 0.230813 0.696561
O O4 0.205986 0.000000 0.661408
O O5 0.111840 0.500000 0.528845
O O6 0.136258 0.739669 0.434923
O O7 0.000000 0.726301 0.549896
O O8 0.500000 0.197305 0.980561
O O9 0.675240 0.265624 0.005262
O O10 0.615577 0.230055 0.851226
O O11 0.632300 0.000000 0.953733
O O12 0.157423 0.500000 0.346074
O O13 0.138927 0.259158 0.255541
O O14 0.000000 0.357867 0.343030
O O15 0.895172 0.500000 0.168022
O O16 0.000000 0.267564 0.142116
O O17 0.828736 0.265754 0.088579
O O18 0.164158 0.735048 0.921575
O O19 0.000000 0.785887 0.858802
O O20 0.125581 0.000000 0.871419
O O21 0.780909 0.500000 0.998163
O O22 0.500000 0.768616 0.720335
O O23 0.398791 0.000000 0.757623
#
# Coordination Sequence:
#
# PCOD8166344 Si02
#       8
#     4   4   4   4   4   4   4   4
#     4  10  18  29  45  63  84 112 147 181 212 252
#     4   9  17  28  43  64  88 113 143 179 217 256
#     4   9  17  32  51  64  80 113 153 186 217 260
#     4   7  11  23  42  60  80 110 146 179 209 250
#     4   8  14  25  41  62  88 117 147 175 209 257
#     4  10  20  32  43  57  85 125 160 180 201 251
#     4  11  20  28  43  68  94 115 141 184 228 260
#     4   8  14  27  47  64  77 102 144 185 212 245
#
# _framework density 15.633483
#
# number of rings (size 3 to 8) (size 9 to 14) (size 15 to 20)
#    0.000    3.000    1.250    3.375    0.000    2.250 
#    0.000    0.000    0.000    1.875    0.000    4.375 
#    0.000    5.000    0.000    0.000    0.000    0.000 
#
# Total GULP energy -396471.102456 kJ/mol
# GULP energy per Si atom -12389.721952 kJ/mol
# Density = 1.559790 g / cm^3
# Si number density = 15.633483 Si / 1000 Ang^3
#
#
#
# Elastic Constant Matrix: (Units=GPa)
#
#
# Indices 1 2 3 4 5 6 
#
# 1 108.1958 25.8054 60.5317 0.0000 0.0000 0.0000
# 2 25.8054 27.3624 29.0735 0.0000 0.0000 0.0000
# 3 60.5317 29.0735 122.0789 0.0000 0.0000 0.0000
# 4 0.0000 0.0000 0.0000 -1.3386 0.0000 0.0000
# 5 0.0000 0.0000 0.0000 0.0000 11.2008 0.0000
# 6 0.0000 0.0000 0.0000 0.0000 0.0000 20.1240
#
#
#
# Elastic Compliance Matrix: (Units=1/GPa)
#
#
# Indices 1 2 3 4 5 6 
#
# 1 0.013921 -0.007758 -0.005055 0.000000 0.000000 0.000000
# 2 -0.007758 0.053250 -0.008835 0.000000 0.000000 0.000000
# 3 -0.005055 -0.008835 0.012802 0.000000 0.000000 0.000000
# 4 0.000000 0.000000 0.000000 -0.747030 0.000000 0.000000
# 5 0.000000 0.000000 0.000000 0.000000 0.089279 0.000000
# 6 0.000000 0.000000 0.000000 0.000000 0.000000 0.049692
#
#
# Mechanical properties :
#
#
# Convention : Reuss Voigt Hill
#
# Bulk Modulus (GPa) = 27.26459 54.27316 40.76888
# Shear Modulus (GPa) = -10.58059 15.47900 2.44920
#
# Velocity S-wave (km/s) = -2.60434 3.15003 1.25301
# Velocity P-wave (km/s) = 2.90418 6.92976 5.31300
#
# Compressibility (1/GPa) = 0.03667761
#
# Stress axis : x y z
#
# Youngs Moduli (GPa) = 71.83472 18.77921 78.11247
#
# Poissons Ratio (x) = 0.14568 0.39486
# Poissons Ratio (y) = 0.55726 0.69014
# Poissons Ratio (z) = 0.36313 0.16592
#
# Static dielectric constant tensor:
#      x y z
#    x 3.156130 0.000000 0.000000 
#    y 0.000000 2.633730 0.000000 
#    z 0.000000 0.000000 3.225890 
# 
# 
# High freq. dielectric constant tensor:
#      x y z
#    x 1.587490 0.000000 0.000000 
#    y 0.000000 1.564320 0.000000 
#    z 0.000000 0.000000 1.595670 
# 
# From -- ./inp_files/5666.got.cif
#   From: 2010.03.12/outbox.cif.g09.slc.cpg/sg25_3_cif.got.tgz:5666.got - 2010.04.14 03:30:10.
