data_PCOD8166753
_publ_section_title
;
Structure prediction by ZEFSAII (Michael W. Deem and Ramdas Pophale) SiO2 
 PCOD8166753
Probable space group: P M M 2
;
_chemical_formula_sum "Si O2"
_cell_formula_units_Z 32
_cell_length_a 14.158888
_cell_length_b 9.598325
_cell_length_c 12.506195
_cell_angle_alpha 90.000000
_cell_angle_beta 90.000000
_cell_angle_gamma 90.000000
_cell_volume 1699.612019
_symmetry_space_group_name_H-M "P M M 2"
_symmetry_group_IT_number 25
_symmetry_cell_setting 'orthorhombic'
loop_
_space_group_symop_operation_xyz
x,y,z
-x,-y,z
-x,y,z
x,-y,z
loop_
_atom_site_type_symbol
_atom_site_label
_atom_site_fract_x
_atom_site_fract_y
_atom_site_fract_z
Si Si1 0.893789 0.844000 0.145320
Si Si2 0.609631 0.159521 0.934465
Si Si3 0.390433 0.657430 0.543728
Si Si4 0.706397 0.837989 0.712170
Si Si5 0.102461 0.160401 0.612288
Si Si6 0.718928 0.331995 0.103985
Si Si7 0.896273 0.742752 0.376223
Si Si8 0.701757 0.651165 0.338229
O O1 0.822908 0.735085 0.087722
O O2 0.888796 0.845853 0.274687
O O3 0.000000 0.803811 0.108468
O O4 0.868040 0.000000 0.106485
O O5 0.500000 0.189556 0.905009
O O6 0.642493 0.268698 0.023704
O O7 0.620508 0.000000 0.974501
O O8 0.678943 0.185855 0.834746
O O9 0.500000 0.651925 0.525413
O O10 0.350115 0.500000 0.561208
O O11 0.369034 0.751857 0.645004
O O12 0.345622 0.731742 0.437715
O O13 0.811671 0.778267 0.684329
O O14 0.698418 0.000000 0.680488
O O15 0.122965 0.175062 0.486133
O O16 0.000000 0.230611 0.640981
O O17 0.094985 0.000000 0.640775
O O18 0.725296 0.500000 0.093132
O O19 0.683792 0.282134 0.221886
O O20 0.813882 0.630386 0.360266
O O21 0.000000 0.670541 0.378807
O O22 0.653771 0.500000 0.336303
#
# Coordination Sequence:
#
# PCOD8166753 Si02
#       8
#     4   4   4   4   4   4   4   4
#     4   9  17  30  51  80 114 151 186 219 263 321
#     4  10  22  40  59  78 103 137 181 235 287 333
#     4  10  20  34  52  75 106 141 174 215 271 331
#     4  10  20  36  58  81 107 139 177 224 271 317
#     4   9  16  27  47  77 110 141 173 209 255 310
#     4  10  21  36  56  81 108 141 184 232 277 325
#     4   9  15  25  45  74 108 145 182 216 251 305
#     4   9  18  32  48  73 108 143 176 214 267 326
#
# _framework density 18.827825000000001
#
# number of rings (size 3 to 8) (size 9 to 14) (size 15 to 20)
#    0.000    2.500    1.250    1.125    0.000    4.000 
#    0.000    5.000    0.000    2.625    0.000    0.000 
#    0.000    0.000    0.000    0.000    0.000    0.000 
#
# Total GULP energy -396423.697986 kJ/mol
# GULP energy per Si atom -12388.240562 kJ/mol
# Density = 1.878497 g / cm^3
# Si number density = 18.827825 Si / 1000 Ang^3
#
#
#
# Elastic Constant Matrix: (Units=GPa)
#
#
# Indices 1 2 3 4 5 6 
#
# 1 102.4570 32.2100 48.1791 0.0000 0.0000 0.0000
# 2 32.2100 66.4411 33.0697 0.0000 0.0000 0.0000
# 3 48.1791 33.0697 83.3168 0.0000 0.0000 0.0000
# 4 0.0000 0.0000 0.0000 20.8169 0.0000 0.0000
# 5 0.0000 0.0000 0.0000 0.0000 31.9009 0.0000
# 6 0.0000 0.0000 0.0000 0.0000 0.0000 23.4242
#
#
#
# Elastic Compliance Matrix: (Units=1/GPa)
#
#
# Indices 1 2 3 4 5 6 
#
# 1 0.014009 -0.003439 -0.006736 0.000000 0.000000 0.000000
# 2 -0.003439 0.019600 -0.005791 0.000000 0.000000 0.000000
# 3 -0.006736 -0.005791 0.018196 0.000000 0.000000 0.000000
# 4 0.000000 0.000000 0.000000 0.048038 0.000000 0.000000
# 5 0.000000 0.000000 0.000000 0.000000 0.031347 0.000000
# 6 0.000000 0.000000 0.000000 0.000000 0.000000 0.042691
#
#
# Mechanical properties :
#
#
# Convention : Reuss Voigt Hill
#
# Bulk Modulus (GPa) = 50.31774 53.23692 51.77733
# Shear Modulus (GPa) = 23.53638 24.47881 24.00759
#
# Velocity S-wave (km/s) = 3.53949 3.60966 3.57475
# Velocity P-wave (km/s) = 6.59448 6.76091 6.67821
#
# Compressibility (1/GPa) = 0.01987371
#
# Stress axis : x y z
#
# Youngs Moduli (GPa) = 71.38439 51.01929 54.95676
#
# Poissons Ratio (x) = 0.17544 0.37018
# Poissons Ratio (y) = 0.24546 0.31827
# Poissons Ratio (z) = 0.48084 0.29547
#
# Static dielectric constant tensor:
#      x y z
#    x 3.716500 0.000000 0.000000 
#    y 0.000000 3.217680 0.000000 
#    z 0.000000 0.000000 3.314450 
# 
# 
# High freq. dielectric constant tensor:
#      x y z
#    x 1.740970 0.000000 0.000000 
#    y 0.000000 1.702600 0.000000 
#    z 0.000000 0.000000 1.716030 
# 
# From -- ./inp_files/3209.got.cif
#   From: 2010.03.12/outbox.cif.g09.slc.cpg/sg25_2_cif.got.tgz:3209.got - 2010.04.14 03:30:10.
