data_PCOD8166486
_publ_section_title
;
Structure prediction by ZEFSAII (Michael W. Deem and Ramdas Pophale) SiO2 
 PCOD8166486
Probable space group: P M M 2
;
_chemical_formula_sum "Si O2"
_cell_formula_units_Z 28
_cell_length_a 19.309243
_cell_length_b 8.979867
_cell_length_c 9.606096
_cell_angle_alpha 90.000000
_cell_angle_beta 90.000000
_cell_angle_gamma 90.000000
_cell_volume 1665.643579
_symmetry_space_group_name_H-M "P M M 2"
_symmetry_group_IT_number 25
_symmetry_cell_setting 'orthorhombic'
loop_
_space_group_symop_operation_xyz
x,y,z
-x,-y,z
-x,y,z
x,-y,z
loop_
_atom_site_type_symbol
_atom_site_label
_atom_site_fract_x
_atom_site_fract_y
_atom_site_fract_z
Si Si1 0.077197 0.829368 0.715890
Si Si2 0.791865 0.170146 0.861296
Si Si3 0.579877 0.327511 0.581442
Si Si4 0.688648 0.175116 0.088185
Si Si5 0.579770 0.670044 0.899133
Si Si6 0.197503 0.675748 0.591428
Si Si7 0.305230 0.823062 0.401412
O O1 0.123444 0.817540 0.858818
O O2 0.117549 0.734585 0.596770
O O3 0.000000 0.765176 0.741440
O O4 0.073282 0.000000 0.665765
O O5 0.763101 0.271885 0.733708
O O6 0.768978 0.000000 0.831392
O O7 0.759037 0.224941 0.006561
O O8 0.500000 0.303483 0.539613
O O9 0.600851 0.500000 0.562613
O O10 0.626133 0.226155 0.482300
O O11 0.592061 0.277571 0.740640
O O12 0.622299 0.230470 0.005218
O O13 0.689787 0.239059 0.243860
O O14 0.683430 0.000000 0.097407
O O15 0.500000 0.689122 0.939624
O O16 0.603269 0.500000 0.916151
O O17 0.199256 0.500000 0.577388
O O18 0.236093 0.749079 0.461926
O O19 0.298005 0.000000 0.408644
#
# Coordination Sequence:
#
# PCOD8166486 Si02
#       7
#     4   4   4   4   4   4   4
#     4   8  15  30  54  80 103 128 160 201 246 293
#     4   8  16  32  51  73  99 128 161 202 246 292
#     4   9  19  36  55  74  97 127 166 212 258 303
#     4  10  21  34  49  70 100 133 167 208 248 291
#     4   9  19  35  53  72  95 124 162 208 255 303
#     4  10  19  31  50  76 102 131 164 203 246 291
#     4  11  22  34  48  70 102 137 171 208 247 294
#
# _framework density 16.810317999999999
#
# number of rings (size 3 to 8) (size 9 to 14) (size 15 to 20)
#    0.857    1.857    0.000    3.000    0.000    6.000 
#    0.000    4.286    0.000    0.857    0.000    4.000 
#    0.000    0.000    0.000    0.000    0.000    0.000 
#
# Total GULP energy -346929.581743 kJ/mol
# GULP energy per Si atom -12390.342205 kJ/mol
# Density = 1.677206 g / cm^3
# Si number density = 16.810318 Si / 1000 Ang^3
#
#
#
# Elastic Constant Matrix: (Units=GPa)
#
#
# Indices 1 2 3 4 5 6 
#
# 1 108.3399 32.5630 58.1344 0.0000 0.0000 0.0000
# 2 32.5630 57.2512 36.0928 0.0000 0.0000 0.0000
# 3 58.1344 36.0928 115.3277 0.0000 0.0000 0.0000
# 4 0.0000 0.0000 0.0000 17.9829 0.0000 0.0000
# 5 0.0000 0.0000 0.0000 0.0000 6.7416 0.0000
# 6 0.0000 0.0000 0.0000 0.0000 0.0000 22.1343
#
#
#
# Elastic Compliance Matrix: (Units=1/GPa)
#
#
# Indices 1 2 3 4 5 6 
#
# 1 0.013415 -0.004195 -0.005450 0.000000 0.000000 0.000000
# 2 -0.004195 0.023072 -0.005106 0.000000 0.000000 0.000000
# 3 -0.005450 -0.005106 0.013016 0.000000 0.000000 0.000000
# 4 0.000000 0.000000 0.000000 0.055608 0.000000 0.000000
# 5 0.000000 0.000000 0.000000 0.000000 0.148333 0.000000
# 6 0.000000 0.000000 0.000000 0.000000 0.000000 0.045179
#
#
# Mechanical properties :
#
#
# Convention : Reuss Voigt Hill
#
# Bulk Modulus (GPa) = 49.99429 59.38878 54.69153
# Shear Modulus (GPa) = 14.93468 19.64700 17.29084
#
# Velocity S-wave (km/s) = 2.98388 3.42240 3.21064
# Velocity P-wave (km/s) = 6.45571 7.14301 6.80804
#
# Compressibility (1/GPa) = 0.02000228
#
# Stress axis : x y z
#
# Youngs Moduli (GPa) = 74.54250 43.34320 76.82886
#
# Poissons Ratio (x) = 0.18181 0.41868
# Poissons Ratio (y) = 0.31268 0.39229
# Poissons Ratio (z) = 0.40622 0.22131
#
# Static dielectric constant tensor:
#      x y z
#    x 3.190210 0.000000 0.000000 
#    y 0.000000 3.039550 0.000000 
#    z 0.000000 0.000000 3.124110 
# 
# 
# High freq. dielectric constant tensor:
#      x y z
#    x 1.645220 0.000000 0.000000 
#    y 0.000000 1.645240 0.000000 
#    z 0.000000 0.000000 1.625940 
# 
# From -- ./inp_files/3564.got.cif
#   From: 2010.03.12/outbox.cif.g09.slc.cpg/sg25_2_cif.got.tgz:3564.got - 2010.04.14 03:30:10.
