data_PCOD8166094
_publ_section_title
;
Structure prediction by ZEFSAII (Michael W. Deem and Ramdas Pophale) SiO2 
 PCOD8166094
Probable space group: I 21 21 21
;
_chemical_formula_sum "Si O2"
_cell_formula_units_Z 56
_cell_length_a 12.045267
_cell_length_b 14.093492
_cell_length_c 13.699241
_cell_angle_alpha 90.000000
_cell_angle_beta 90.000000
_cell_angle_gamma 90.000000
_cell_volume 2325.581427
_symmetry_space_group_name_H-M "I 21 21 21"
_symmetry_group_IT_number 24
_symmetry_cell_setting 'orthorhombic'
loop_
_space_group_symop_operation_xyz
x,y,z
-x,1/2-y,z
x,-y,1/2-z
1/2-x,y,-z
1/2+x,1/2+y,1/2+z
1/2-x,-y,1/2+z
1/2+x,1/2-y,-z
-x,1/2+y,1/2-z
loop_
_atom_site_type_symbol
_atom_site_label
_atom_site_fract_x
_atom_site_fract_y
_atom_site_fract_z
Si Si1 0.763734 0.614328 0.889459
Si Si2 0.614864 0.207096 0.331216
Si Si3 0.126617 0.533842 0.977657
Si Si4 0.397686 0.803631 0.583226
Si Si5 0.452784 0.961429 0.348458
Si Si6 0.040431 0.012153 0.359348
Si Si7 0.157396 0.768577 0.636340
O O1 0.790847 0.712374 0.835380
O O2 0.860336 0.535967 0.885246
O O3 0.647176 0.578803 0.846262
O O4 0.750000 0.643902 0.000000
O O5 0.500000 0.250000 0.369386
O O6 0.641908 0.119975 0.401638
O O7 0.613415 0.185706 0.212052
O O8 0.052686 0.451668 0.926766
O O9 0.250000 0.493920 0.000000
O O10 0.059218 0.559865 0.076963
O O11 0.500000 0.750000 0.634233
O O12 0.289517 0.773413 0.641726
O O13 0.387204 0.761458 0.473458
O O14 0.417319 0.916228 0.586619
O O15 0.390896 0.865956 0.320494
O O16 0.509051 0.000000 0.250000
O O17 0.992114 0.000000 0.250000
#
# Coordination Sequence:
#
# PCOD8166094 Si02
#       7
#     8   8   8   8   8   8   8
#     4  12  20  38  72 108 141 186 248 321 376 443
#     4  12  23  42  69 109 147 191 254 318 388 444
#     4  12  28  47  68 105 158 204 248 310 389 469
#     4  11  24  43  70 111 146 188 257 328 387 450
#     4  12  21  42  76 105 138 191 263 314 373 446
#     4  12  25  47  77 108 152 205 259 314 389 459
#     4  11  22  42  73 103 143 190 252 319 378 449
#
# _framework density 24.080002
#
# number of rings (size 3 to 8) (size 9 to 14) (size 15 to 20)
#    0.000    0.286    7.143    2.143    0.000    1.714 
#    2.571    2.143    0.000    0.000    0.000    0.000 
#    0.000    0.000    0.000    0.000    0.000    0.000 
#
# Total GULP energy -347073.054665 kJ/mol
# GULP energy per Si atom -12395.466238 kJ/mol
# Density = 2.402519 g / cm^3
# Si number density = 24.080002 Si / 1000 Ang^3
#
#
#
# Elastic Constant Matrix: (Units=GPa)
#
#
# Indices 1 2 3 4 5 6 
#
# 1 169.1867 23.8178 42.4156 0.0000 0.0000 0.0000
# 2 23.8178 51.1939 22.5957 0.0000 0.0000 0.0000
# 3 42.4156 22.5957 146.7316 0.0000 0.0000 0.0000
# 4 0.0000 0.0000 0.0000 43.5933 0.0000 0.0000
# 5 0.0000 0.0000 0.0000 0.0000 35.6690 0.0000
# 6 0.0000 0.0000 0.0000 0.0000 0.0000 16.9657
#
#
#
# Elastic Compliance Matrix: (Units=1/GPa)
#
#
# Indices 1 2 3 4 5 6 
#
# 1 0.006637 -0.002405 -0.001548 0.000000 0.000000 0.000000
# 2 -0.002405 0.021829 -0.002666 0.000000 0.000000 0.000000
# 3 -0.001548 -0.002666 0.007673 0.000000 0.000000 0.000000
# 4 0.000000 0.000000 0.000000 0.022939 0.000000 0.000000
# 5 0.000000 0.000000 0.000000 0.000000 0.028036 0.000000
# 6 0.000000 0.000000 0.000000 0.000000 0.000000 0.058942
#
#
# Mechanical properties :
#
#
# Convention : Reuss Voigt Hill
#
# Bulk Modulus (GPa) = 43.66603 60.53005 52.09804
# Shear Modulus (GPa) = 29.95275 37.79782 33.87528
#
# Velocity S-wave (km/s) = 3.53070 3.96621 3.75478
# Velocity P-wave (km/s) = 5.89866 6.79456 6.36240
#
# Compressibility (1/GPa) = 0.02290110
#
# Stress axis : x y z
#
# Youngs Moduli (GPa) = 150.66324 45.81014 130.32094
#
# Poissons Ratio (x) = 0.11015 0.20178
# Poissons Ratio (y) = 0.36228 0.34750
# Poissons Ratio (z) = 0.23328 0.12215
#
# Static dielectric constant tensor:
#      x y z
#    x 4.526790 0.000000 0.000000 
#    y 0.000000 4.106160 0.000000 
#    z 0.000000 0.000000 4.895840 
# 
# 
# High freq. dielectric constant tensor:
#      x y z
#    x 1.963270 0.000000 0.000000 
#    y 0.000000 1.930470 0.000000 
#    z 0.000000 0.000000 1.976510 
# 
# From -- ./inp_files/25830.got.cif
#   From: 2010.03.12/outbox.cif.g09.slc.cpg/sg24_13_cif.got.tgz:25830.got - 2010.04.14 03:06:53.
