data_PCOD8166747
_publ_section_title
;
Structure prediction by ZEFSAII (Michael W. Deem and Ramdas Pophale) SiO2 
 PCOD8166747
Probable space group: P M M 2
;
_chemical_formula_sum "Si O2"
_cell_formula_units_Z 28
_cell_length_a 9.413770
_cell_length_b 7.961428
_cell_length_c 19.959112
_cell_angle_alpha 90.000000
_cell_angle_beta 90.000000
_cell_angle_gamma 90.000000
_cell_volume 1495.876606
_symmetry_space_group_name_H-M "P M M 2"
_symmetry_group_IT_number 25
_symmetry_cell_setting 'orthorhombic'
loop_
_space_group_symop_operation_xyz
x,y,z
-x,-y,z
-x,y,z
x,-y,z
loop_
_atom_site_type_symbol
_atom_site_label
_atom_site_fract_x
_atom_site_fract_y
_atom_site_fract_z
Si Si1 0.669773 0.000000 0.916330
Si Si2 0.840899 0.802434 0.560965
Si Si3 0.162322 0.193176 0.281647
Si Si4 0.830324 0.000000 0.055361
Si Si5 0.160554 0.696705 0.420331
Si Si6 0.831554 0.314003 0.143127
Si Si7 0.338067 0.199217 0.684964
Si Si8 0.331673 0.687272 0.827673
O O1 0.723056 0.167665 0.877635
O O2 0.500000 0.000000 0.926597
O O3 0.749914 0.000000 0.985898
O O4 0.766148 0.754532 0.489906
O O5 0.749694 0.727837 0.622102
O O6 0.000000 0.725297 0.564820
O O7 0.845964 0.000000 0.568180
O O8 0.238162 0.230142 0.353421
O O9 0.231693 0.290797 0.218507
O O10 0.000000 0.253868 0.289984
O O11 0.172671 0.000000 0.262604
O O12 0.776786 0.167513 0.094073
O O13 0.000000 0.000000 0.044798
O O14 0.164822 0.500000 0.414125
O O15 0.000000 0.768516 0.423460
O O16 0.786939 0.500000 0.116653
O O17 0.000000 0.296307 0.148079
O O18 0.500000 0.255311 0.673992
O O19 0.273695 0.279379 0.752757
O O20 0.326008 0.000000 0.691638
O O21 0.500000 0.700148 0.824916
O O22 0.282961 0.500000 0.851467
#
# Coordination Sequence:
#
# PCOD8166747 Si02
#       8
#     2   4   4   2   4   4   4   4
#     4  10  20  36  56  76  99 126 158 194 233 282
#     4   9  17  28  41  61  91 125 155 188 236 286
#     4   9  14  22  38  60  87 121 161 199 233 273
#     4  10  20  34  50  74 103 130 156 188 237 288
#     4   9  16  24  35  55  86 122 157 194 236 278
#     4   9  16  27  44  67  97 130 162 196 235 280
#     4   9  16  29  49  69  89 117 155 197 235 274
#     4   9  17  31  53  77  97 121 158 201 239 275
#
# _framework density 18.718121
#
# number of rings (size 3 to 8) (size 9 to 14) (size 15 to 20)
#    0.000    2.857    1.429    0.857    0.000    4.571 
#    0.000    0.714    0.000    0.857    0.000    1.000 
#    0.000    2.286    0.000    0.000    0.000    0.000 
#
# Total GULP energy -346956.475665 kJ/mol
# GULP energy per Si atom -12391.302702 kJ/mol
# Density = 1.867552 g / cm^3
# Si number density = 18.718121 Si / 1000 Ang^3
#
#
#
# Elastic Constant Matrix: (Units=GPa)
#
#
# Indices 1 2 3 4 5 6 
#
# 1 22.9686 16.6436 31.5020 0.0000 0.0000 0.0000
# 2 16.6436 106.5391 73.9036 0.0000 0.0000 0.0000
# 3 31.5020 73.9036 181.7983 0.0000 0.0000 0.0000
# 4 0.0000 0.0000 0.0000 19.9554 0.0000 0.0000
# 5 0.0000 0.0000 0.0000 0.0000 -1.9261 0.0000
# 6 0.0000 0.0000 0.0000 0.0000 0.0000 6.4321
#
#
#
# Elastic Compliance Matrix: (Units=1/GPa)
#
#
# Indices 1 2 3 4 5 6 
#
# 1 0.057745 -0.002897 -0.008828 0.000000 0.000000 0.000000
# 2 -0.002897 0.013218 -0.004871 0.000000 0.000000 0.000000
# 3 -0.008828 -0.004871 0.009011 0.000000 0.000000 0.000000
# 4 0.000000 0.000000 0.000000 0.050112 0.000000 0.000000
# 5 0.000000 0.000000 0.000000 0.000000 -0.519191 0.000000
# 6 0.000000 0.000000 0.000000 0.000000 0.000000 0.155470
#
#
# Mechanical properties :
#
#
# Convention : Reuss Voigt Hill
#
# Bulk Modulus (GPa) = 21.37641 61.71161 41.54401
# Shear Modulus (GPa) = -27.04931 17.50939 -4.76996
#
# Velocity S-wave (km/s) = -3.80555 3.06179 -1.59807
# Velocity P-wave (km/s) = 2.80441 6.74833 4.34023
#
# Compressibility (1/GPa) = 0.04678053
#
# Stress axis : x y z
#
# Youngs Moduli (GPa) = 17.31740 75.65517 110.97983
#
# Poissons Ratio (x) = 0.21917 0.97978
# Poissons Ratio (y) = 0.05017 0.54061
# Poissons Ratio (z) = 0.15289 0.36854
#
# Static dielectric constant tensor:
#      x y z
#    x 2.912750 0.000000 0.000000 
#    y 0.000000 3.505820 0.000000 
#    z 0.000000 0.000000 3.693880 
# 
# 
# High freq. dielectric constant tensor:
#      x y z
#    x 1.638500 0.000000 0.000000 
#    y 0.000000 1.735160 0.000000 
#    z 0.000000 0.000000 1.742800 
# 
# From -- ./inp_files/6348.got.cif
#   From: 2010.03.12/outbox.cif.g09.slc.cpg/sg25_4_cif.got.tgz:6348.got - 2010.04.14 03:30:10.
