data_PCOD8166506
_publ_section_title
;
Structure prediction by ZEFSAII (Michael W. Deem and Ramdas Pophale) SiO2 
 PCOD8166506
Probable space group: P M M 2
;
_chemical_formula_sum "Si O2"
_cell_formula_units_Z 32
_cell_length_a 9.353670
_cell_length_b 14.498255
_cell_length_c 12.509173
_cell_angle_alpha 90.000000
_cell_angle_beta 90.000000
_cell_angle_gamma 90.000000
_cell_volume 1696.392628
_symmetry_space_group_name_H-M "P M M 2"
_symmetry_group_IT_number 25
_symmetry_cell_setting 'orthorhombic'
loop_
_space_group_symop_operation_xyz
x,y,z
-x,-y,z
-x,y,z
x,-y,z
loop_
_atom_site_type_symbol
_atom_site_label
_atom_site_fract_x
_atom_site_fract_y
_atom_site_fract_z
Si Si1 0.666533 0.895645 0.835150
Si Si2 0.830396 0.273252 0.760312
Si Si3 0.163943 0.099350 0.275663
Si Si4 0.338527 0.654792 0.142967
Si Si5 0.169686 0.604673 0.562750
Si Si6 0.160211 0.600874 0.953641
Si Si7 0.831028 0.296501 0.347216
Si Si8 0.660109 0.137665 0.073875
O O1 0.500000 0.868667 0.829105
O O2 0.754892 0.826574 0.758897
O O3 0.692694 0.000000 0.794395
O O4 0.721881 0.887110 0.957248
O O5 0.773629 0.335023 0.661947
O O6 0.782934 0.325614 0.868018
O O7 0.000000 0.259155 0.753078
O O8 0.212778 0.187098 0.347343
O O9 0.245680 0.090556 0.164195
O O10 0.000000 0.114279 0.245133
O O11 0.186527 0.000000 0.335968
O O12 0.500000 0.620037 0.163985
O O13 0.251603 0.651248 0.253127
O O14 0.337009 0.753966 0.089395
O O15 0.260517 0.591008 0.056893
O O16 0.231638 0.500000 0.566254
O O17 0.222157 0.657260 0.456412
O O18 0.000000 0.600032 0.565744
O O19 0.158021 0.500000 0.898162
O O20 0.000000 0.628890 0.990237
O O21 0.000000 0.309801 0.330736
O O22 0.500000 0.098157 0.084381
#
# Coordination Sequence:
#
# PCOD8166506 Si02
#       8
#     4   4   4   4   4   4   4   4
#     4  10  20  34  52  75 107 146 181 213 259 320
#     4  10  20  35  56  80 106 134 176 230 270 307
#     4   9  17  28  44  70 103 136 171 212 258 306
#     4  10  19  32  51  76 108 141 173 215 263 310
#     4   9  18  35  59  82 102 133 179 226 271 319
#     4  10  20  33  51  76 106 140 174 212 266 327
#     4   9  18  33  53  76 104 137 176 218 266 320
#     4   9  17  30  48  70 100 139 178 210 247 302
#
# _framework density 18.863558000000001
#
# number of rings (size 3 to 8) (size 9 to 14) (size 15 to 20)
#    0.000    2.500    1.250    1.125    0.000    4.250 
#    0.000    2.500    0.000    4.125    0.000    0.000 
#    0.000    0.000    0.000    0.000    0.000    0.000 
#
# Total GULP energy -396656.009390 kJ/mol
# GULP energy per Si atom -12395.500293 kJ/mol
# Density = 1.882062 g / cm^3
# Si number density = 18.863558 Si / 1000 Ang^3
#
#
#
# Elastic Constant Matrix: (Units=GPa)
#
#
# Indices 1 2 3 4 5 6 
#
# 1 52.6395 32.6391 40.7479 0.0000 0.0000 0.0000
# 2 32.6391 127.5502 63.0855 0.0000 0.0000 0.0000
# 3 40.7479 63.0855 116.5900 0.0000 0.0000 0.0000
# 4 0.0000 0.0000 0.0000 21.5843 0.0000 0.0000
# 5 0.0000 0.0000 0.0000 0.0000 14.4406 0.0000
# 6 0.0000 0.0000 0.0000 0.0000 0.0000 13.4221
#
#
#
# Elastic Compliance Matrix: (Units=1/GPa)
#
#
# Indices 1 2 3 4 5 6 
#
# 1 0.026884 -0.003048 -0.007747 0.000000 0.000000 0.000000
# 2 -0.003048 0.011050 -0.004914 0.000000 0.000000 0.000000
# 3 -0.007747 -0.004914 0.013943 0.000000 0.000000 0.000000
# 4 0.000000 0.000000 0.000000 0.046330 0.000000 0.000000
# 5 0.000000 0.000000 0.000000 0.000000 0.069249 0.000000
# 6 0.000000 0.000000 0.000000 0.000000 0.000000 0.074504
#
#
# Mechanical properties :
#
#
# Convention : Reuss Voigt Hill
#
# Bulk Modulus (GPa) = 48.87484 63.30274 56.08879
# Shear Modulus (GPa) = 17.84457 20.57656 19.21057
#
# Velocity S-wave (km/s) = 3.07902 3.30632 3.19469
# Velocity P-wave (km/s) = 6.21340 6.94311 6.58837
#
# Compressibility (1/GPa) = 0.02046043
#
# Stress axis : x y z
#
# Youngs Moduli (GPa) = 37.19745 90.49418 71.71861
#
# Poissons Ratio (x) = 0.27582 0.55557
# Poissons Ratio (y) = 0.11337 0.35243
# Poissons Ratio (z) = 0.28815 0.44469
#
# Static dielectric constant tensor:
#      x y z
#    x 3.312290 0.000000 0.000000 
#    y 0.000000 3.638030 0.000000 
#    z 0.000000 0.000000 3.270880 
# 
# 
# High freq. dielectric constant tensor:
#      x y z
#    x 1.710120 0.000000 0.000000 
#    y 0.000000 1.748100 0.000000 
#    z 0.000000 0.000000 1.706930 
# 
# From -- ./inp_files/4173.got.cif
#   From: 2010.03.12/outbox.cif.g09.slc.cpg/sg25_3_cif.got.tgz:4173.got - 2010.04.14 03:30:10.
