data_PCOD8166070
_publ_section_title
;
Structure prediction by ZEFSAII (Michael W. Deem and Ramdas Pophale) SiO2 
 PCOD8166070
Probable space group: I 21 21 21
;
_chemical_formula_sum "Si O2"
_cell_formula_units_Z 32
_cell_length_a 36.438344
_cell_length_b 5.129545
_cell_length_c 7.717324
_cell_angle_alpha 90.000000
_cell_angle_beta 90.000000
_cell_angle_gamma 90.000000
_cell_volume 1442.461430
_symmetry_space_group_name_H-M "I 21 21 21"
_symmetry_group_IT_number 24
_symmetry_cell_setting 'orthorhombic'
loop_
_space_group_symop_operation_xyz
x,y,z
-x,1/2-y,z
x,-y,1/2-z
1/2-x,y,-z
1/2+x,1/2+y,1/2+z
1/2-x,-y,1/2+z
1/2+x,1/2-y,-z
-x,1/2+y,1/2-z
loop_
_atom_site_type_symbol
_atom_site_label
_atom_site_fract_x
_atom_site_fract_y
_atom_site_fract_z
Si Si1 0.895620 0.978204 0.957317
Si Si2 0.142859 0.029395 0.947098
Si Si3 0.478695 0.496895 0.456338
Si Si4 0.779447 0.738922 0.639888
O O1 0.869766 0.744360 0.032235
O O2 0.937247 0.965100 0.024678
O O3 0.893519 0.000000 0.750000
O O4 0.879305 0.240821 0.040631
O O5 0.185767 0.104996 0.954962
O O6 0.129873 0.000000 0.750000
O O7 0.500000 0.250000 0.530924
O O8 0.478662 0.500000 0.250000
O O9 0.500000 0.750000 0.528370
O O10 0.761927 0.500000 0.750000
O O11 0.750000 0.834731 0.500000
O O12 0.790603 0.000000 0.750000
#
# Coordination Sequence:
#
# PCOD8166070 Si02
#       4
#     8   8   8   8
#     4   9  15  23  36  53  77 111 153 199 239 282
#     4   9  16  27  42  61  84 115 157 203 244 293
#     4   9  15  21  29  45  71 105 147 193 233 275
#     4  11  22  37  56  79 106 137 177 225 274 324
#
# _framework density 22.184301999999999
#
# number of rings (size 3 to 8) (size 9 to 14) (size 15 to 20)
#    0.000    2.500    0.000    6.000    0.000    6.000 
#    0.000    0.000    0.000    0.000    0.000    0.000 
#    0.000    0.000    0.000    0.000    0.000   70.000 
#
# Total GULP energy -198210.565410 kJ/mol
# GULP energy per Si atom -12388.160338 kJ/mol
# Density = 2.213381 g / cm^3
# Si number density = 22.184302 Si / 1000 Ang^3
#
#
#
# Elastic Constant Matrix: (Units=GPa)
#
#
# Indices 1 2 3 4 5 6 
#
# 1 177.7138 96.2967 21.1124 0.0000 0.0000 0.0000
# 2 96.2967 200.6936 8.3426 0.0000 0.0000 0.0000
# 3 21.1124 8.3426 15.4887 0.0000 0.0000 0.0000
# 4 0.0000 0.0000 0.0000 1.8780 0.0000 0.0000
# 5 0.0000 0.0000 0.0000 0.0000 1.4757 0.0000
# 6 0.0000 0.0000 0.0000 0.0000 0.0000 48.1759
#
#
#
# Elastic Compliance Matrix: (Units=1/GPa)
#
#
# Indices 1 2 3 4 5 6 
#
# 1 0.008915 -0.003859 -0.010073 0.000000 0.000000 0.000000
# 2 -0.003859 0.006767 0.001615 0.000000 0.000000 0.000000
# 3 -0.010073 0.001615 0.077423 0.000000 0.000000 0.000000
# 4 0.000000 0.000000 0.000000 0.532495 0.000000 0.000000
# 5 0.000000 0.000000 0.000000 0.000000 0.677624 0.000000
# 6 0.000000 0.000000 0.000000 0.000000 0.000000 0.020757
#
#
# Mechanical properties :
#
#
# Convention : Reuss Voigt Hill
#
# Bulk Modulus (GPa) = 14.60464 71.71106 43.15785
# Shear Modulus (GPa) = 3.64581 28.18221 15.91401
#
# Velocity S-wave (km/s) = 1.28335 3.56809 2.68125
# Velocity P-wave (km/s) = 2.96540 7.02640 5.39277
#
# Compressibility (1/GPa) = 0.06847141
#
# Stress axis : x y z
#
# Youngs Moduli (GPa) = 112.17622 147.77473 12.91600
#
# Poissons Ratio (x) = 0.57021 0.13010
# Poissons Ratio (y) = 0.43285 -0.02086
# Poissons Ratio (z) = 1.12993 -0.23862
#
# Static dielectric constant tensor:
#      x y z
#    x 3.925630 0.000000 0.000000 
#    y 0.000000 4.544110 0.000000 
#    z 0.000000 0.000000 3.089580 
# 
# 
# High freq. dielectric constant tensor:
#      x y z
#    x 1.877850 0.000000 0.000000 
#    y 0.000000 1.900850 0.000000 
#    z 0.000000 0.000000 1.790920 
# 
# From -- ./inp_files/1154.got.cif
#   From: 2010.03.12/outbox.cif.g09.slc.cpg/sg24_1_cif.got.tgz:1154.got - 2010.04.14 03:06:53.
