data_PCOD8166191
_publ_section_title
;
Structure prediction by ZEFSAII (Michael W. Deem and Ramdas Pophale) SiO2 
 PCOD8166191
Probable space group: I 21 21 21
;
_chemical_formula_sum "Si O2"
_cell_formula_units_Z 32
_cell_length_a 17.216438
_cell_length_b 14.961455
_cell_length_c 5.139558
_cell_angle_alpha 90.000000
_cell_angle_beta 90.000000
_cell_angle_gamma 90.000000
_cell_volume 1323.862575
_symmetry_space_group_name_H-M "I 21 21 21"
_symmetry_group_IT_number 24
_symmetry_cell_setting 'orthorhombic'
loop_
_space_group_symop_operation_xyz
x,y,z
-x,1/2-y,z
x,-y,1/2-z
1/2-x,y,-z
1/2+x,1/2+y,1/2+z
1/2-x,-y,1/2+z
1/2+x,1/2-y,-z
-x,1/2+y,1/2-z
loop_
_atom_site_type_symbol
_atom_site_label
_atom_site_fract_x
_atom_site_fract_y
_atom_site_fract_z
Si Si1 0.664493 0.083522 0.089276
Si Si2 0.799839 0.270698 0.743209
Si Si3 0.023274 0.646874 0.321486
Si Si4 0.438394 0.095634 0.316762
O O1 0.672274 0.168739 0.279751
O O2 0.627330 0.000000 0.250000
O O3 0.750000 0.053078 0.000000
O O4 0.614845 0.117901 0.831566
O O5 0.750000 0.300531 0.500000
O O6 0.875838 0.329503 0.734548
O O7 0.750000 0.289375 0.000000
O O8 0.000000 0.750000 0.274798
O O9 0.005958 0.616463 0.614470
O O10 0.975670 0.592666 0.104565
O O11 0.400396 0.000000 0.250000
#
# Coordination Sequence:
#
# PCOD8166191 Si02
#       4
#     8   8   8   8
#     4  11  26  47  75 114 156 204 260 322 392 470
#     4  11  25  46  75 108 152 201 255 314 387 463
#     4  12  26  49  77 108 154 203 254 321 388 461
#     4  12  27  47  74 112 148 198 257 317 384 458
#
# _framework density 24.171693999999999
#
# number of rings (size 3 to 8) (size 9 to 14) (size 15 to 20)
#    0.000    0.500    2.500    4.500    3.500    5.000 
#    0.000    0.000    0.000    0.000    0.000    0.000 
#    0.000    0.000    0.000    0.000    0.000    0.000 
#
# Total GULP energy -198356.042452 kJ/mol
# GULP energy per Si atom -12397.252653 kJ/mol
# Density = 2.411668 g / cm^3
# Si number density = 24.171694 Si / 1000 Ang^3
#
#
#
# Elastic Constant Matrix: (Units=GPa)
#
#
# Indices 1 2 3 4 5 6 
#
# 1 118.4930 44.4010 53.6173 0.0000 0.0000 0.0000
# 2 44.4010 122.7705 35.6888 0.0000 0.0000 0.0000
# 3 53.6173 35.6888 137.6965 0.0000 0.0000 0.0000
# 4 0.0000 0.0000 0.0000 33.5321 0.0000 0.0000
# 5 0.0000 0.0000 0.0000 0.0000 15.1915 0.0000
# 6 0.0000 0.0000 0.0000 0.0000 0.0000 18.1426
#
#
#
# Elastic Compliance Matrix: (Units=1/GPa)
#
#
# Indices 1 2 3 4 5 6 
#
# 1 0.011183 -0.003005 -0.003576 0.000000 0.000000 0.000000
# 2 -0.003005 0.009616 -0.001322 0.000000 0.000000 0.000000
# 3 -0.003576 -0.001322 0.008997 0.000000 0.000000 0.000000
# 4 0.000000 0.000000 0.000000 0.029822 0.000000 0.000000
# 5 0.000000 0.000000 0.000000 0.000000 0.065826 0.000000
# 6 0.000000 0.000000 0.000000 0.000000 0.000000 0.055119
#
#
# Mechanical properties :
#
#
# Convention : Reuss Voigt Hill
#
# Bulk Modulus (GPa) = 71.47488 71.81934 71.64711
# Shear Modulus (GPa) = 24.87132 29.72342 27.29737
#
# Velocity S-wave (km/s) = 3.21120 3.51048 3.36417
# Velocity P-wave (km/s) = 6.58657 6.79765 6.69294
#
# Compressibility (1/GPa) = 0.01399093
#
# Stress axis : x y z
#
# Youngs Moduli (GPa) = 89.41823 103.98803 111.14279
#
# Poissons Ratio (x) = 0.31250 0.39742
# Poissons Ratio (y) = 0.26871 0.14696
# Poissons Ratio (z) = 0.31974 0.13750
#
# Static dielectric constant tensor:
#      x y z
#    x 4.487640 0.000000 0.000000 
#    y 0.000000 4.513190 0.000000 
#    z 0.000000 0.000000 4.527470 
# 
# 
# High freq. dielectric constant tensor:
#      x y z
#    x 1.968030 0.000000 0.000000 
#    y 0.000000 1.972160 0.000000 
#    z 0.000000 0.000000 1.964070 
# 
# From -- ./inp_files/4291.got.cif
#   From: 2010.03.12/outbox.cif.g09.slc.cpg/sg24_3_cif.got.tgz:4291.got - 2010.04.14 03:06:53.
