data_PCOD8166301
_publ_section_title
;
Structure prediction by ZEFSAII (Michael W. Deem and Ramdas Pophale) SiO2 
 PCOD8166301
Probable space group: I 21 21 21
;
_chemical_formula_sum "Si O2"
_cell_formula_units_Z 30
_cell_length_a 9.000000
_cell_length_b 24.000000
_cell_length_c 15.000000
_cell_angle_alpha 90.000000
_cell_angle_beta 90.000000
_cell_angle_gamma 90.000000
_cell_volume 3240.000000
_symmetry_space_group_name_H-M "I 21 21 21"
_symmetry_group_IT_number 24
_symmetry_cell_setting 'orthorhombic'
loop_
_space_group_symop_operation_xyz
x,y,z
-x,1/2-y,z
x,-y,1/2-z
1/2-x,y,-z
1/2+x,1/2+y,1/2+z
1/2-x,-y,1/2+z
1/2+x,1/2-y,-z
-x,1/2+y,1/2-z
loop_
_atom_site_type_symbol
_atom_site_label
_atom_site_fract_x
_atom_site_fract_y
_atom_site_fract_z
Si Si1 0.463183 0.070017 0.361060
Si Si2 0.750000 0.946375 0.500000
Si Si3 0.212271 0.636105 0.653621
Si Si4 0.293413 0.558200 0.800079
Si Si5 0.873382 0.632533 0.697038
Si Si6 0.007071 0.531728 0.041154
Si Si7 0.273489 0.020102 0.839499
Si Si8 0.827046 0.741834 0.593735
O O1 0.631300 0.056668 0.339891
O O2 0.393884 0.122549 0.304844
O O3 0.452802 0.078110 0.468629
O O4 0.379575 0.013599 0.335402
O O5 0.721687 0.905667 0.581719
O O6 0.608481 0.986407 0.490800
O O7 0.301050 0.614850 0.741110
O O8 0.245879 0.701226 0.633105
O O9 0.036193 0.626050 0.655440
O O10 0.324949 0.500000 0.750000
O O11 0.411468 0.564685 0.879647
O O12 0.761838 0.585988 0.658111
O O13 0.806781 0.692936 0.668532
O O14 0.866595 0.496473 0.074430
O O15 0.362722 0.000000 0.750000
O O16 0.750000 0.725488 0.500000
O O17 0.000000 0.750000 0.573240
#
# Coordination Sequence:
#
# PCOD8166301 Si02
#       8
#     8   4   8   8   8   8   8   8
#     4  10  19  35  52  75 109 149 186 224 280 340
#     4  12  20  30  50  78 118 144 174 220 292 334
#     4  10  20  34  54  77 112 150 183 234 279 343
#     4  11  18  32  51  77 113 146 181 226 281 341
#     4   9  20  37  56  74 107 152 191 224 279 339
#     4  12  21  31  52  86 112 143 189 227 281 340
#     4  10  21  34  51  79 111 142 178 227 279 336
#     4  10  21  38  57  82 107 149 197 232 282 342
#
# _framework density 9.2592590000000001
#
# number of rings (size 3 to 8) (size 9 to 14) (size 15 to 20)
#    0.000    1.600    3.333    3.600    0.000    3.200 
#    0.000    0.000    0.000    0.000    0.000   35.467 
#    0.000    0.000    0.000    0.000    0.000    0.000 
#
# Total GULP energy -371701.690366 kJ/mol
# GULP energy per Si atom -12390.056346 kJ/mol
# Density = 0.923818 g / cm^3
# Si number density = 9.259259 Si / 1000 Ang^3
#
#
#
# Elastic Constant Matrix: (Units=GPa)
#
#
# Indices 1 2 3 4 5 6 
#
# 1 43.8692 24.1621 39.2246 -0.0001 0.0000 0.0000
# 2 24.1621 124.4496 66.0830 0.0001 0.0000 0.0000
# 3 39.2246 66.0830 143.3074 -0.0002 0.0000 0.0001
# 4 -0.0001 0.0001 -0.0002 35.0531 0.0000 0.0000
# 5 0.0000 0.0000 0.0000 0.0000 30.7586 -0.0001
# 6 0.0000 0.0000 0.0001 0.0000 -0.0001 15.7832
#
#
#
# Elastic Compliance Matrix: (Units=1/GPa)
#
#
# Indices 1 2 3 4 5 6 
#
# 1 0.030543 -0.001974 -0.007450 0.000000 0.000000 0.000000
# 2 -0.001974 0.010769 -0.004425 0.000000 0.000000 0.000000
# 3 -0.007450 -0.004425 0.011058 0.000000 0.000000 0.000000
# 4 0.000000 0.000000 0.000000 0.028528 0.000000 0.000000
# 5 0.000000 0.000000 0.000000 0.000000 0.032511 0.000000
# 6 0.000000 0.000000 0.000000 0.000000 0.000000 0.063359
#
#
# Mechanical properties :
#
#
# Convention : Reuss Voigt Hill
#
# Bulk Modulus (GPa) = 40.53319 63.39617 51.96468
# Shear Modulus (GPa) = 23.50845 28.46273 25.98559
#
# Velocity S-wave (km/s) = 3.56681 3.92470 3.75002
# Velocity P-wave (km/s) = 6.23685 7.40580 6.84632
#
# Compressibility (1/GPa) = 0.02467114
#
# Stress axis : x y z
#
# Youngs Moduli (GPa) = 32.74045 92.86319 90.43511
#
# Poissons Ratio (x) = 0.18334 0.67370
# Poissons Ratio (y) = 0.06464 0.40020
# Poissons Ratio (z) = 0.24390 0.41095
#
# Static dielectric constant tensor:
#      x y z
#    x 3.358360 0.000000 0.000000 
#    y 0.000000 3.402630 0.000000 
#    z 0.000000 0.000000 3.916030 
# 
# 
# High freq. dielectric constant tensor:
#      x y z
#    x 1.716150 0.000000 0.000000 
#    y 0.000000 1.688710 0.000000 
#    z 0.000000 0.000000 1.728640 
# 
# From -- ./inp_files/25179.got.cif
#   From: 2010.03.12/outbox.ucp.g09.slc.cvg/sg24_13_cif.got.tgz:25179.got - 2010.05.04 21:04:44.
