data_PCOD8166662
_publ_section_title
;
Structure prediction by ZEFSAII (Michael W. Deem and Ramdas Pophale) SiO2 
 PCOD8166662
Probable space group: P M M 2
;
_chemical_formula_sum "Si O2"
_cell_formula_units_Z 32
_cell_length_a 15.180173
_cell_length_b 8.751502
_cell_length_c 15.151393
_cell_angle_alpha 90.000000
_cell_angle_beta 90.000000
_cell_angle_gamma 90.000000
_cell_volume 2012.852172
_symmetry_space_group_name_H-M "P M M 2"
_symmetry_group_IT_number 25
_symmetry_cell_setting 'orthorhombic'
loop_
_space_group_symop_operation_xyz
x,y,z
-x,-y,z
-x,y,z
x,-y,z
loop_
_atom_site_type_symbol
_atom_site_label
_atom_site_fract_x
_atom_site_fract_y
_atom_site_fract_z
Si Si1 0.895225 0.328194 0.251140
Si Si2 0.404139 0.821151 0.938761
Si Si3 0.404904 0.322593 0.748549
Si Si4 0.229508 0.320781 0.934115
Si Si5 0.104800 0.828116 0.427458
Si Si6 0.896391 0.323825 0.607317
Si Si7 0.103752 0.824147 0.071281
Si Si8 0.767596 0.819896 0.741101
O O1 0.858227 0.500000 0.244162
O O2 0.856510 0.250352 0.339381
O O3 0.863022 0.232776 0.166654
O O4 0.000000 0.329554 0.255718
O O5 0.500000 0.781472 0.982542
O O6 0.408461 0.774933 0.837154
O O7 0.321838 0.729930 0.981446
O O8 0.384673 0.000000 0.946823
O O9 0.500000 0.302385 0.698944
O O10 0.388723 0.500000 0.771032
O O11 0.320530 0.255744 0.696151
O O12 0.228703 0.500000 0.918449
O O13 0.218171 0.238444 0.840375
O O14 0.148689 0.275153 0.995657
O O15 0.137329 0.733678 0.512199
O O16 0.000000 0.828969 0.423045
O O17 0.141686 0.000000 0.433832
O O18 0.870516 0.500000 0.617427
O O19 0.851503 0.226444 0.683894
O O20 0.000000 0.297240 0.617159
O O21 0.000000 0.799363 0.061267
O O22 0.130572 0.000000 0.060597
O O23 0.757268 0.000000 0.741581
#
# Coordination Sequence:
#
# PCOD8166662 Si02
#       8
#     4   4   4   4   4   4   4   4
#     4   9  16  27  44  65  87 111 141 178 221 265
#     4   9  16  27  44  64  85 109 139 177 220 263
#     4   9  16  27  44  64  85 109 139 177 220 263
#     4  11  21  32  46  63  87 118 151 186 221 261
#     4   9  16  27  44  65  87 111 141 178 221 265
#     4  10  20  33  47  63  86 117 152 188 223 260
#     4  10  20  33  47  63  86 117 152 188 223 260
#     4  11  21  32  46  63  87 118 151 186 221 261
#
# _framework density 15.897838999999999
#
# number of rings (size 3 to 8) (size 9 to 14) (size 15 to 20)
#    0.000    2.250    0.000    6.000    0.000    6.500 
#    0.000    0.000    0.000    0.000    0.000    0.000 
#    0.000    1.000    0.000    3.750    0.000    6.250 
#
# Total GULP energy -396624.001410 kJ/mol
# GULP energy per Si atom -12394.500044 kJ/mol
# Density = 1.586166 g / cm^3
# Si number density = 15.897839 Si / 1000 Ang^3
#
#
#
# Elastic Constant Matrix: (Units=GPa)
#
#
# Indices 1 2 3 4 5 6 
#
# 1 53.7632 35.1869 35.9316 0.0000 0.0000 0.0000
# 2 35.1869 93.7015 32.3491 0.0000 0.0000 0.0000
# 3 35.9316 32.3491 75.7261 0.0000 0.0000 0.0000
# 4 0.0000 0.0000 0.0000 27.0686 0.0000 0.0000
# 5 0.0000 0.0000 0.0000 0.0000 0.7728 0.0000
# 6 0.0000 0.0000 0.0000 0.0000 0.0000 24.2423
#
#
#
# Elastic Compliance Matrix: (Units=1/GPa)
#
#
# Indices 1 2 3 4 5 6 
#
# 1 0.031459 -0.007812 -0.011590 0.000000 0.000000 0.000000
# 2 -0.007812 0.014458 -0.002470 0.000000 0.000000 0.000000
# 3 -0.011590 -0.002470 0.019760 0.000000 0.000000 0.000000
# 4 0.000000 0.000000 0.000000 0.036943 0.000000 0.000000
# 5 0.000000 0.000000 0.000000 0.000000 1.294054 0.000000
# 6 0.000000 0.000000 0.000000 0.000000 0.000000 0.041250
#
#
# Mechanical properties :
#
#
# Convention : Reuss Voigt Hill
#
# Bulk Modulus (GPa) = 45.59165 47.79177 46.69171
# Shear Modulus (GPa) = 3.35801 18.39830 10.87815
#
# Velocity S-wave (km/s) = 1.45493 3.40558 2.61866
# Velocity P-wave (km/s) = 5.61806 6.75211 6.21102
#
# Compressibility (1/GPa) = 0.02193384
#
# Stress axis : x y z
#
# Youngs Moduli (GPa) = 31.78759 69.16378 50.60804
#
# Poissons Ratio (x) = 0.54033 0.58653
# Poissons Ratio (y) = 0.24833 0.12498
# Poissons Ratio (z) = 0.36841 0.17080
#
# Static dielectric constant tensor:
#      x y z
#    x 3.296310 0.000000 0.000000 
#    y 0.000000 3.225830 0.000000 
#    z 0.000000 0.000000 2.822260 
# 
# 
# High freq. dielectric constant tensor:
#      x y z
#    x 1.587060 0.000000 0.000000 
#    y 0.000000 1.635090 0.000000 
#    z 0.000000 0.000000 1.575380 
# 
# From -- ./inp_files/5934.got.cif
#   From: 2010.03.12/outbox.cif.g09.slc.cpg/sg25_3_cif.got.tgz:5934.got - 2010.04.14 03:30:10.
