data_PCOD8166931
_publ_section_title
;
Structure prediction by ZEFSAII (Michael W. Deem and Ramdas Pophale) SiO2 
 PCOD8166931
Probable space group: P M M 2
;
_chemical_formula_sum "Si O2"
_cell_formula_units_Z 28
_cell_length_a 9.093068
_cell_length_b 9.528502
_cell_length_c 17.827178
_cell_angle_alpha 90.000000
_cell_angle_beta 90.000000
_cell_angle_gamma 90.000000
_cell_volume 1544.605828
_symmetry_space_group_name_H-M "P M M 2"
_symmetry_group_IT_number 25
_symmetry_cell_setting 'orthorhombic'
loop_
_space_group_symop_operation_xyz
x,y,z
-x,-y,z
-x,y,z
x,-y,z
loop_
_atom_site_type_symbol
_atom_site_label
_atom_site_fract_x
_atom_site_fract_y
_atom_site_fract_z
Si Si1 0.825284 0.657436 0.134570
Si Si2 0.169426 0.837300 0.271767
Si Si3 0.173799 0.342623 0.969246
Si Si4 0.665161 0.837180 0.849005
Si Si5 0.827020 0.335677 0.553273
Si Si6 0.328318 0.838667 0.677368
Si Si7 0.673202 0.837867 0.424058
O O1 0.769567 0.500000 0.150548
O O2 0.763278 0.757404 0.199765
O O3 0.000000 0.662646 0.135731
O O4 0.770292 0.706582 0.051939
O O5 0.264622 0.793479 0.343394
O O6 0.000000 0.796083 0.287451
O O7 0.185336 0.000000 0.253526
O O8 0.230902 0.500000 0.953657
O O9 0.228679 0.242007 0.904713
O O10 0.000000 0.339319 0.967793
O O11 0.500000 0.782372 0.861250
O O12 0.713225 0.809612 0.763550
O O13 0.675851 0.000000 0.867895
O O14 0.787774 0.500000 0.553715
O O15 0.770548 0.266666 0.629847
O O16 0.746953 0.262058 0.484404
O O17 0.000000 0.310469 0.545956
O O18 0.500000 0.808837 0.662272
O O19 0.292882 0.000000 0.655872
O O20 0.500000 0.813162 0.425052
O O21 0.712418 0.000000 0.442008
#
# Coordination Sequence:
#
# PCOD8166931 Si02
#       7
#     4   4   4   4   4   4   4
#     4   8  15  29  48  70  98 132 168 207 252 299
#     4   9  17  30  50  75 100 128 166 210 253 298
#     4   9  18  32  50  74 104 137 173 212 254 301
#     4   9  19  35  53  75 103 134 170 211 254 301
#     4  11  24  38  53  78 108 134 165 207 252 298
#     4   9  19  37  58  77 100 133 171 209 252 303
#     4  10  21  37  56  77 103 136 171 206 249 302
#
# _framework density 18.127603000000001
#
# number of rings (size 3 to 8) (size 9 to 14) (size 15 to 20)
#    0.000    2.714    0.000    3.000    0.000    6.857 
#    0.000    7.857    0.000    2.571    0.000    0.000 
#    0.000    0.000    0.000    0.000    0.000    0.000 
#
# Total GULP energy -347150.482053 kJ/mol
# GULP energy per Si atom -12398.231502 kJ/mol
# Density = 1.808634 g / cm^3
# Si number density = 18.127603 Si / 1000 Ang^3
#
#
#
# Elastic Constant Matrix: (Units=GPa)
#
#
# Indices 1 2 3 4 5 6 
#
# 1 56.3017 43.5611 49.7252 0.0000 0.0000 0.0000
# 2 43.5611 90.2035 79.8012 0.0000 0.0000 0.0000
# 3 49.7252 79.8012 142.5824 0.0000 0.0000 0.0000
# 4 0.0000 0.0000 0.0000 -187.5946 0.0000 0.0000
# 5 0.0000 0.0000 0.0000 0.0000 -116.9192 0.0000
# 6 0.0000 0.0000 0.0000 0.0000 0.0000 24.9273
#
#
#
# Elastic Compliance Matrix: (Units=1/GPa)
#
#
# Indices 1 2 3 4 5 6 
#
# 1 0.029827 -0.010303 -0.004636 0.000000 0.000000 0.000000
# 2 -0.010303 0.025518 -0.010689 0.000000 0.000000 0.000000
# 3 -0.004636 -0.010689 0.014612 0.000000 0.000000 0.000000
# 4 0.000000 0.000000 0.000000 -0.005331 0.000000 0.000000
# 5 0.000000 0.000000 0.000000 0.000000 -0.008553 0.000000
# 6 0.000000 0.000000 0.000000 0.000000 0.000000 0.040117
#
#
# Mechanical properties :
#
#
# Convention : Reuss Voigt Hill
#
# Bulk Modulus (GPa) = 53.46886 70.58475 62.02681
# Shear Modulus (GPa) = 32.53524 -48.18395 -7.82436
#
# Velocity S-wave (km/s) = 4.24109 -5.16121 -2.07982
# Velocity P-wave (km/s) = 7.31726 1.87209 5.34074
#
# Compressibility (1/GPa) = 0.01870247
#
# Stress axis : x y z
#
# Youngs Moduli (GPa) = 33.52639 39.18851 68.43473
#
# Poissons Ratio (x) = 0.40376 0.31724
# Poissons Ratio (y) = 0.34543 0.73148
# Poissons Ratio (z) = 0.15542 0.41887
#
# Static dielectric constant tensor:
#      x y z
#    x 3.409280 0.000000 0.000000 
#    y 0.000000 4.582250 0.000000 
#    z 0.000000 0.000000 3.567130 
# 
# 
# High freq. dielectric constant tensor:
#      x y z
#    x 1.683920 0.000000 0.000000 
#    y 0.000000 1.698790 0.000000 
#    z 0.000000 0.000000 1.716670 
# 
# From -- ./inp_files/6104.got.cif
#   From: 2010.03.12/outbox.cif.g09.slc.cpg/sg25_4_cif.got.tgz:6104.got - 2010.04.14 03:30:10.
