data_PCOD8166061
_publ_section_title
;
Structure prediction by ZEFSAII (Michael W. Deem and Ramdas Pophale) SiO2 
 PCOD8166061
Probable space group: I 21 21 21
;
_chemical_formula_sum "Si O2"
_cell_formula_units_Z 60
_cell_length_a 13.492516
_cell_length_b 15.618352
_cell_length_c 12.450327
_cell_angle_alpha 90.000000
_cell_angle_beta 90.000000
_cell_angle_gamma 90.000000
_cell_volume 2623.668169
_symmetry_space_group_name_H-M "I 21 21 21"
_symmetry_group_IT_number 24
_symmetry_cell_setting 'orthorhombic'
loop_
_space_group_symop_operation_xyz
x,y,z
-x,1/2-y,z
x,-y,1/2-z
1/2-x,y,-z
1/2+x,1/2+y,1/2+z
1/2-x,-y,1/2+z
1/2+x,1/2-y,-z
-x,1/2+y,1/2-z
loop_
_atom_site_type_symbol
_atom_site_label
_atom_site_fract_x
_atom_site_fract_y
_atom_site_fract_z
Si Si1 0.494218 0.916833 0.946053
Si Si2 0.000000 0.250000 0.580589
Si Si3 0.217618 0.044351 0.381823
Si Si4 0.702570 0.629548 0.385675
Si Si5 0.719845 0.936091 0.384530
Si Si6 0.797385 0.276088 0.683127
Si Si7 0.501387 0.952963 0.361281
Si Si8 0.304700 0.391854 0.669043
O O1 0.478714 0.827157 0.001803
O O2 0.512786 0.984215 0.038936
O O3 0.398826 0.938104 0.872884
O O4 0.584921 0.915485 0.864123
O O5 0.093912 0.260472 0.658225
O O6 0.250000 0.012051 0.500000
O O7 0.283174 0.129296 0.365745
O O8 0.246210 0.953449 0.322093
O O9 0.750000 0.652872 0.500000
O O10 0.718792 0.713199 0.311270
O O11 0.584299 0.614050 0.391380
O O12 0.750000 0.899096 0.500000
O O13 0.796570 0.898130 0.298058
O O14 0.608584 0.907418 0.351153
O O15 0.727622 0.040498 0.383725
O O16 0.721409 0.205770 0.634474
O O17 0.473413 0.000000 0.250000
#
# Coordination Sequence:
#
# PCOD8166061 Si02
#       8
#     8   4   8   8   8   8   8   8
#     4  12  23  41  70 103 141 181 230 291 358 433
#     4  12  24  36  68 108 142 182 222 290 370 416
#     4  11  21  43  67 104 139 184 230 288 358 425
#     4  11  24  45  68 101 136 190 241 293 345 424
#     4  11  24  46  69  99 138 184 237 299 351 428
#     4  12  26  42  68 101 148 178 236 296 362 434
#     4  12  21  38  72 101 132 176 238 288 347 418
#     4  11  26  43  68 107 138 183 236 292 366 422
#
# _framework density 22.868746000000002
#
# number of rings (size 3 to 8) (size 9 to 14) (size 15 to 20)
#    0.000    0.533    6.667    3.600    1.867    0.533 
#    7.200    0.000    0.000    0.000    0.000    0.000 
#    0.000    0.000    0.000    0.000    0.000    0.000 
#
# Total GULP energy -371975.087014 kJ/mol
# GULP energy per Si atom -12399.169567 kJ/mol
# Density = 2.281670 g / cm^3
# Si number density = 22.868746 Si / 1000 Ang^3
#
#
#
# Elastic Constant Matrix: (Units=GPa)
#
#
# Indices 1 2 3 4 5 6 
#
# 1 172.4414 22.9785 38.8865 0.0000 0.0000 0.0000
# 2 22.9785 69.4103 -4.5804 0.0000 0.0000 0.0000
# 3 38.8865 -4.5804 81.4354 0.0000 0.0000 0.0000
# 4 0.0000 0.0000 0.0000 9.3604 0.0000 0.0000
# 5 0.0000 0.0000 0.0000 0.0000 38.6352 0.0000
# 6 0.0000 0.0000 0.0000 0.0000 0.0000 12.6435
#
#
#
# Elastic Compliance Matrix: (Units=1/GPa)
#
#
# Indices 1 2 3 4 5 6 
#
# 1 0.006910 -0.002515 -0.003441 0.000000 0.000000 0.000000
# 2 -0.002515 0.015376 0.002066 0.000000 0.000000 0.000000
# 3 -0.003441 0.002066 0.014039 0.000000 0.000000 0.000000
# 4 0.000000 0.000000 0.000000 0.106832 0.000000 0.000000
# 5 0.000000 0.000000 0.000000 0.000000 0.025883 0.000000
# 6 0.000000 0.000000 0.000000 0.000000 0.000000 0.079092
#
#
# Mechanical properties :
#
#
# Convention : Reuss Voigt Hill
#
# Bulk Modulus (GPa) = 35.03281 48.65070 41.84176
# Shear Modulus (GPa) = 18.83748 29.86132 24.34940
#
# Velocity S-wave (km/s) = 2.87317 3.61746 3.26658
# Velocity P-wave (km/s) = 5.13411 6.22641 5.70646
#
# Compressibility (1/GPa) = 0.02854467
#
# Stress axis : x y z
#
# Youngs Moduli (GPa) = 144.71441 65.03687 71.22995
#
# Poissons Ratio (x) = 0.16355 0.24511
# Poissons Ratio (y) = 0.36391 -0.14713
# Poissons Ratio (z) = 0.49798 -0.13434
#
# Static dielectric constant tensor:
#      x y z
#    x 4.285960 0.000000 0.000000 
#    y 0.000000 4.031260 0.000000 
#    z 0.000000 0.000000 4.574270 
# 
# 
# High freq. dielectric constant tensor:
#      x y z
#    x 1.903850 0.000000 0.000000 
#    y 0.000000 1.892160 0.000000 
#    z 0.000000 0.000000 1.914370 
# 
# From -- ./inp_files/25979.got.cif
#   From: 2010.03.12/outbox.cif.g09.slc.cpg/sg24_13_cif.got.tgz:25979.got - 2010.04.14 03:06:53.
