data_PCOD8166258
_publ_section_title
;
Structure prediction by ZEFSAII (Michael W. Deem and Ramdas Pophale) SiO2 
 PCOD8166258
Probable space group: I 21 21 21
;
_chemical_formula_sum "Si O2"
_cell_formula_units_Z 28
_cell_length_a 23.741726
_cell_length_b 7.811185
_cell_length_c 6.003745
_cell_angle_alpha 90.000000
_cell_angle_beta 90.000000
_cell_angle_gamma 90.000000
_cell_volume 1113.400598
_symmetry_space_group_name_H-M "I 21 21 21"
_symmetry_group_IT_number 24
_symmetry_cell_setting 'orthorhombic'
loop_
_space_group_symop_operation_xyz
x,y,z
-x,1/2-y,z
x,-y,1/2-z
1/2-x,y,-z
1/2+x,1/2+y,1/2+z
1/2-x,-y,1/2+z
1/2+x,1/2-y,-z
-x,1/2+y,1/2-z
loop_
_atom_site_type_symbol
_atom_site_label
_atom_site_fract_x
_atom_site_fract_y
_atom_site_fract_z
Si Si1 0.500000 0.750000 0.614864
Si Si2 0.837670 0.500000 0.750000
Si Si3 0.178900 0.500000 0.250000
Si Si4 0.095669 0.268178 0.478928
Si Si5 0.524019 0.000000 0.250000
Si Si6 0.750000 0.734359 0.500000
O O1 0.557305 0.749465 0.758658
O O2 0.507938 0.572977 0.469347
O O3 0.875618 0.406749 0.562380
O O4 0.798048 0.627895 0.618914
O O5 0.140676 0.420009 0.443951
O O6 0.218726 0.652888 0.320362
O O7 0.058228 0.330011 0.685063
#
# Coordination Sequence:
#
# PCOD8166258 Si02
#       6
#     4   4   4   8   4   4
#     4  12  28  52  78 116 166 214 280 332 402 500
#     4  12  28  49  82 126 162 212 276 343 418 472
#     4  12  24  53  80 110 160 210 273 328 412 476
#     4  12  27  51  80 121 163 213 271 338 407 496
#     4  12  26  52  74 114 160 224 269 327 402 486
#     4  12  26  52  80 116 160 212 272 344 402 490
#
# _framework density 25.148183
#
# number of rings (size 3 to 8) (size 9 to 14) (size 15 to 20)
#    0.000    0.000    2.857    6.000    0.000    6.857 
#    5.143    0.000    0.000    0.000    0.000    0.000 
#    0.000    0.000    0.000    0.000    0.000    0.000 
#
# Total GULP energy -173582.182150 kJ/mol
# GULP energy per Si atom -12398.727296 kJ/mol
# Density = 2.509094 g / cm^3
# Si number density = 25.148183 Si / 1000 Ang^3
#
#
#
# Elastic Constant Matrix: (Units=GPa)
#
#
# Indices 1 2 3 4 5 6 
#
# 1 131.4500 76.2484 67.9599 0.0000 0.0000 0.0000
# 2 76.2484 153.0241 72.9201 0.0000 0.0000 0.0000
# 3 67.9599 72.9201 135.6516 -0.0001 0.0000 0.0000
# 4 0.0000 0.0000 -0.0001 75.6543 0.0000 0.0000
# 5 0.0000 0.0000 0.0000 0.0000 27.3109 0.0000
# 6 0.0000 0.0000 0.0000 0.0000 0.0000 54.5605
#
#
#
# Elastic Compliance Matrix: (Units=1/GPa)
#
#
# Indices 1 2 3 4 5 6 
#
# 1 0.011970 -0.004176 -0.003752 0.000000 0.000000 0.000000
# 2 -0.004176 0.010243 -0.003414 0.000000 0.000000 0.000000
# 3 -0.003752 -0.003414 0.011086 0.000000 0.000000 0.000000
# 4 0.000000 0.000000 0.000000 0.013218 0.000000 0.000000
# 5 0.000000 0.000000 0.000000 0.000000 0.036615 0.000000
# 6 0.000000 0.000000 0.000000 0.000000 0.000000 0.018328
#
#
# Mechanical properties :
#
#
# Convention : Reuss Voigt Hill
#
# Bulk Modulus (GPa) = 94.20379 94.93141 94.56760
# Shear Modulus (GPa) = 39.15982 45.03830 42.09906
#
# Velocity S-wave (km/s) = 3.95037 4.23651 4.09594
# Velocity P-wave (km/s) = 7.63859 7.85885 7.74950
#
# Compressibility (1/GPa) = 0.01061528
#
# Stress axis : x y z
#
# Youngs Moduli (GPa) = 83.54502 97.63125 90.20125
#
# Poissons Ratio (x) = 0.40775 0.33840
# Poissons Ratio (y) = 0.34892 0.30791
# Poissons Ratio (z) = 0.31342 0.33328
#
# Static dielectric constant tensor:
#      x y z
#    x 5.084590 0.000000 0.000000 
#    y 0.000000 4.735270 0.000000 
#    z 0.000000 0.000000 4.550690 
# 
# 
# High freq. dielectric constant tensor:
#      x y z
#    x 2.016800 0.000000 0.000000 
#    y 0.000000 2.027340 0.000000 
#    z 0.000000 0.000000 2.011150 
# 
# From -- ./inp_files/1061.got.cif
#   From: 2010.03.12/outbox.cif.g09.slc.cpg/sg24_1_cif.got.tgz:1061.got - 2010.04.14 03:06:53.
