data_PCOD8166722
_publ_section_title
;
Structure prediction by ZEFSAII (Michael W. Deem and Ramdas Pophale) SiO2 
 PCOD8166722
Probable space group: P M M 2
;
_chemical_formula_sum "Si O2"
_cell_formula_units_Z 19
_cell_length_a 12.584010
_cell_length_b 7.388701
_cell_length_c 10.978808
_cell_angle_alpha 90.000000
_cell_angle_beta 90.000000
_cell_angle_gamma 90.000000
_cell_volume 1020.803939
_symmetry_space_group_name_H-M "P M M 2"
_symmetry_group_IT_number 25
_symmetry_cell_setting 'orthorhombic'
loop_
_space_group_symop_operation_xyz
x,y,z
-x,-y,z
-x,y,z
x,-y,z
loop_
_atom_site_type_symbol
_atom_site_label
_atom_site_fract_x
_atom_site_fract_y
_atom_site_fract_z
Si Si1 0.374671 0.711515 0.546340
Si Si2 0.120955 0.708778 0.975932
Si Si3 0.500000 0.285082 0.973907
Si Si4 0.693273 0.000000 0.359069
Si Si5 0.500000 0.000000 0.177817
Si Si6 0.308600 0.712157 0.807972
Si Si7 0.122720 0.000000 0.174798
O O1 0.500000 0.750906 0.546176
O O2 0.350695 0.500000 0.527032
O O3 0.317685 0.819258 0.438820
O O4 0.325472 0.789204 0.672470
O O5 0.141188 0.500000 0.010183
O O6 0.000000 0.745504 0.935239
O O7 0.150229 0.822877 0.095172
O O8 0.193649 0.767475 0.861330
O O9 0.500000 0.500000 0.998065
O O10 0.500000 0.184813 0.101985
O O11 0.602260 0.215577 0.899860
O O12 0.605097 0.000000 0.256528
O O13 0.808833 0.000000 0.297250
O O14 0.324132 0.500000 0.797275
O O15 0.000000 0.000000 0.214807
#
# Coordination Sequence:
#
# PCOD8166722 Si02
#       7
#     4   4   2   2   1   4   2
#     4  10  20  37  57  77 109 149 180 217 272 325
#     4   9  18  34  57  83 109 138 174 220 274 326
#     4  10  20  33  51  77 107 132 163 214 272 324
#     4  12  24  38  52  78 108 141 196 229 253 311
#     4  12  24  32  48  80 106 134 174 224 264 308
#     4   9  17  33  56  81 106 135 171 213 269 330
#     4  10  22  39  56  75 108 150 186 222 267 319
#
# _framework density 18.612780999999998
#
# number of rings (size 3 to 8) (size 9 to 14) (size 15 to 20)
#    0.000    2.105    2.105    1.263    0.000    3.368 
#    0.000    1.053    0.000    1.263    0.000    0.000 
#    0.000    0.000    0.000    0.000    0.000    0.000 
#
# Total GULP energy -235606.105120 kJ/mol
# GULP energy per Si atom -12400.321322 kJ/mol
# Density = 1.857042 g / cm^3
# Si number density = 18.612781 Si / 1000 Ang^3
#
#
#
# Elastic Constant Matrix: (Units=GPa)
#
#
# Indices 1 2 3 4 5 6 
#
# 1 120.1169 43.2089 81.3557 0.0000 0.0000 0.0000
# 2 43.2089 89.5434 59.8836 0.0000 0.0000 0.0000
# 3 81.3557 59.8836 156.3494 0.0000 0.0000 0.0000
# 4 0.0000 0.0000 0.0000 65.6399 0.0000 0.0000
# 5 0.0000 0.0000 0.0000 0.0000 34.8715 0.0000
# 6 0.0000 0.0000 0.0000 0.0000 0.0000 17.0709
#
#
#
# Elastic Compliance Matrix: (Units=1/GPa)
#
#
# Indices 1 2 3 4 5 6 
#
# 1 0.013227 -0.002393 -0.005966 0.000000 0.000000 0.000000
# 2 -0.002393 0.015446 -0.004671 0.000000 0.000000 0.000000
# 3 -0.005966 -0.004671 0.011289 0.000000 0.000000 0.000000
# 4 0.000000 0.000000 0.000000 0.015235 0.000000 0.000000
# 5 0.000000 0.000000 0.000000 0.000000 0.028677 0.000000
# 6 0.000000 0.000000 0.000000 0.000000 0.000000 0.058579
#
#
# Mechanical properties :
#
#
# Convention : Reuss Voigt Hill
#
# Bulk Modulus (GPa) = 71.92787 81.65622 76.79205
# Shear Modulus (GPa) = 28.87725 35.62055 32.24890
#
# Velocity S-wave (km/s) = 3.94315 4.37941 4.16699
# Velocity P-wave (km/s) = 7.71100 8.33898 8.03113
#
# Compressibility (1/GPa) = 0.01390282
#
# Stress axis : x y z
#
# Youngs Moduli (GPa) = 75.60430 64.74091 88.57853
#
# Poissons Ratio (x) = 0.15490 0.52847
# Poissons Ratio (y) = 0.18089 0.41376
# Poissons Ratio (z) = 0.45106 0.30241
#
# Static dielectric constant tensor:
#      x y z
#    x 3.517590 0.000000 0.000000 
#    y 0.000000 3.321090 0.000000 
#    z 0.000000 0.000000 3.423700 
# 
# 
# High freq. dielectric constant tensor:
#      x y z
#    x 1.718400 0.000000 0.000000 
#    y 0.000000 1.730270 0.000000 
#    z 0.000000 0.000000 1.714220 
# 
# From -- ./inp_files/1710.got.cif
#   From: 2010.03.12/outbox.cif.g09.slc.cpg/sg25_1_cif.got.tgz:1710.got - 2010.04.14 03:30:10.
