data_PCOD8166254
_publ_section_title
;
Structure prediction by ZEFSAII (Michael W. Deem and Ramdas Pophale) SiO2 
 PCOD8166254
Probable space group: I 21 21 21
;
_chemical_formula_sum "Si O2"
_cell_formula_units_Z 36
_cell_length_a 14.956707
_cell_length_b 5.537132
_cell_length_c 17.896947
_cell_angle_alpha 90.000000
_cell_angle_beta 90.000000
_cell_angle_gamma 90.000000
_cell_volume 1482.176130
_symmetry_space_group_name_H-M "I 21 21 21"
_symmetry_group_IT_number 24
_symmetry_cell_setting 'orthorhombic'
loop_
_space_group_symop_operation_xyz
x,y,z
-x,1/2-y,z
x,-y,1/2-z
1/2-x,y,-z
1/2+x,1/2+y,1/2+z
1/2-x,-y,1/2+z
1/2+x,1/2-y,-z
-x,1/2+y,1/2-z
loop_
_atom_site_type_symbol
_atom_site_label
_atom_site_fract_x
_atom_site_fract_y
_atom_site_fract_z
Si Si1 0.091499 0.107988 0.534337
Si Si2 0.250000 0.410706 0.500000
Si Si3 0.657584 0.639282 0.328234
Si Si4 0.157006 0.787613 0.399855
Si Si5 0.000000 0.750000 0.292859
Si Si6 0.056035 0.500000 0.750000
O O1 0.180327 0.262765 0.549610
O O2 0.000000 0.250000 0.523696
O O3 0.086065 0.945418 0.608680
O O4 0.108993 0.969828 0.456545
O O5 0.189414 0.559128 0.444536
O O6 0.645444 0.500000 0.250000
O O7 0.758096 0.601423 0.356909
O O8 0.624572 0.917845 0.316218
O O9 0.086772 0.690654 0.340810
O O10 0.980523 0.500000 0.250000
O O11 0.000000 0.250000 0.730183
#
# Coordination Sequence:
#
# PCOD8166254 Si02
#       6
#     8   4   8   8   4   4
#     4  12  28  52  86 118 169 225 284 353 423 515
#     4  12  24  48  84 120 166 216 290 344 428 500
#     4  12  28  49  82 120 169 224 276 356 422 509
#     4  12  27  54  81 124 162 224 285 348 430 506
#     4  12  32  54  88 126 166 218 288 354 426 506
#     4  12  30  52  74 120 170 216 278 334 430 504
#
# _framework density 24.288613000000002
#
# number of rings (size 3 to 8) (size 9 to 14) (size 15 to 20)
#    0.000    0.000    5.556    2.000   12.444    0.000 
#    2.000    0.000    2.444    0.000    0.000    0.000 
#    0.000    0.000    0.000    0.000    0.000    0.000 
#
# Total GULP energy -223005.539041 kJ/mol
# GULP energy per Si atom -12389.196613 kJ/mol
# Density = 2.423333 g / cm^3
# Si number density = 24.288613 Si / 1000 Ang^3
#
#
#
# Elastic Constant Matrix: (Units=GPa)
#
#
# Indices 1 2 3 4 5 6 
#
# 1 155.1733 64.5119 63.2524 0.0000 0.0000 0.0000
# 2 64.5119 139.7825 60.7873 0.0000 0.0000 0.0000
# 3 63.2524 60.7873 137.8661 0.0000 0.0000 0.0000
# 4 0.0000 0.0000 0.0000 -166.3090 0.0000 0.0000
# 5 0.0000 0.0000 0.0000 0.0000 6.9974 0.0000
# 6 0.0000 0.0000 0.0000 0.0000 0.0000 52.1275
#
#
#
# Elastic Compliance Matrix: (Units=1/GPa)
#
#
# Indices 1 2 3 4 5 6 
#
# 1 0.008750 -0.002836 -0.002764 0.000000 0.000000 0.000000
# 2 -0.002836 0.009771 -0.003007 0.000000 0.000000 0.000000
# 3 -0.002764 -0.003007 0.009847 0.000000 0.000000 0.000000
# 4 0.000000 0.000000 0.000000 -0.006013 0.000000 0.000000
# 5 0.000000 0.000000 0.000000 0.000000 0.142910 0.000000
# 6 0.000000 0.000000 0.000000 0.000000 0.000000 0.019184
#
#
# Mechanical properties :
#
#
# Convention : Reuss Voigt Hill
#
# Bulk Modulus (GPa) = 89.65450 89.99168 89.82309
# Shear Modulus (GPa) = 24.34502 -5.15214 9.59644
#
# Velocity S-wave (km/s) = 3.16938 -1.45802 1.98987
# Velocity P-wave (km/s) = 7.09828 5.85636 6.50702
#
# Compressibility (1/GPa) = 0.01115393
#
# Stress axis : x y z
#
# Youngs Moduli (GPa) = 114.28201 102.34858 101.55183
#
# Poissons Ratio (x) = 0.29030 0.28069
# Poissons Ratio (y) = 0.32415 0.30533
# Poissons Ratio (z) = 0.31587 0.30773
#
# Static dielectric constant tensor:
#      x y z
#    x 4.767020 0.000000 0.000000 
#    y 0.000000 4.684510 0.000000 
#    z 0.000000 0.000000 4.595840 
# 
# 
# High freq. dielectric constant tensor:
#      x y z
#    x 1.990450 0.000000 0.000000 
#    y 0.000000 1.970830 0.000000 
#    z 0.000000 0.000000 1.974550 
# 
# From -- ./inp_files/33590.got.cif
#   From: 2010.03.12/outbox.cif.g09.slc.cpg/sg24_17_cif.got.tgz:33590.got - 2010.04.14 03:06:53.
