data_PCOD8166888
_publ_section_title
;
Structure prediction by ZEFSAII (Michael W. Deem and Ramdas Pophale) SiO2 
 PCOD8166888
Probable space group: P M M 2
;
_chemical_formula_sum "Si O2"
_cell_formula_units_Z 24
_cell_length_a 9.147670
_cell_length_b 9.300251
_cell_length_c 15.157073
_cell_angle_alpha 90.000000
_cell_angle_beta 90.000000
_cell_angle_gamma 90.000000
_cell_volume 1289.497490
_symmetry_space_group_name_H-M "P M M 2"
_symmetry_group_IT_number 25
_symmetry_cell_setting 'orthorhombic'
loop_
_space_group_symop_operation_xyz
x,y,z
-x,-y,z
-x,y,z
x,-y,z
loop_
_atom_site_type_symbol
_atom_site_label
_atom_site_fract_x
_atom_site_fract_y
_atom_site_fract_z
Si Si1 0.830691 0.337473 0.378490
Si Si2 0.331238 0.666862 0.695501
Si Si3 0.327841 0.164140 0.524967
Si Si4 0.330003 0.831219 0.027672
Si Si5 0.171515 0.666502 0.872753
Si Si6 0.832147 0.333733 0.174975
O O1 0.777972 0.500000 0.397318
O O2 0.740133 0.228062 0.436863
O O3 0.803028 0.298086 0.276872
O O4 0.000000 0.321824 0.402212
O O5 0.500000 0.703611 0.714961
O O6 0.308682 0.500000 0.674261
O O7 0.270617 0.753289 0.611487
O O8 0.238110 0.715561 0.779626
O O9 0.500000 0.181449 0.516669
O O10 0.278606 0.000000 0.533741
O O11 0.500000 0.795344 0.016044
O O12 0.275025 0.766276 0.119568
O O13 0.299855 0.000000 0.028297
O O14 0.241798 0.761834 0.948113
O O15 0.208149 0.500000 0.891714
O O16 0.000000 0.694847 0.870498
O O17 0.797695 0.500000 0.154540
O O18 0.000000 0.300331 0.149781
#
# Coordination Sequence:
#
# PCOD8166888 Si02
#       6
#     4   4   4   4   4   4
#     4   9  19  36  57  80 106 138 178 223 267 312
#     4   9  18  34  55  77 104 141 182 221 262 310
#     4  10  21  35  52  78 112 146 178 216 263 314
#     4  11  24  38  53  78 111 144 177 215 261 314
#     4  10  21  37  58  83 108 136 174 220 267 315
#     4   9  19  37  59  81 105 136 177 223 268 314
#
# _framework density 18.611901
#
# number of rings (size 3 to 8) (size 9 to 14) (size 15 to 20)
#    0.000    2.333    0.000    3.000    0.000    8.667 
#    0.000    8.333    0.000    0.000    0.000    0.000 
#    0.000    0.000    0.000    0.000    0.000    0.000 
#
# Total GULP energy -297687.032550 kJ/mol
# GULP energy per Si atom -12403.626356 kJ/mol
# Density = 1.856954 g / cm^3
# Si number density = 18.611901 Si / 1000 Ang^3
#
#
#
# Elastic Constant Matrix: (Units=GPa)
#
#
# Indices 1 2 3 4 5 6 
#
# 1 68.7952 52.0580 55.4542 0.0000 0.0000 0.0000
# 2 52.0580 96.3122 72.3453 0.0000 0.0000 0.0000
# 3 55.4542 72.3453 125.5934 0.0000 0.0000 0.0000
# 4 0.0000 0.0000 0.0000 2.1802 0.0000 0.0000
# 5 0.0000 0.0000 0.0000 0.0000 45.6906 0.0000
# 6 0.0000 0.0000 0.0000 0.0000 0.0000 29.6615
#
#
#
# Elastic Compliance Matrix: (Units=1/GPa)
#
#
# Indices 1 2 3 4 5 6 
#
# 1 0.027097 -0.009975 -0.006218 0.000000 0.000000 0.000000
# 2 -0.009975 0.021974 -0.008253 0.000000 0.000000 0.000000
# 3 -0.006218 -0.008253 0.015462 0.000000 0.000000 0.000000
# 4 0.000000 0.000000 0.000000 0.458674 0.000000 0.000000
# 5 0.000000 0.000000 0.000000 0.000000 0.021886 0.000000
# 6 0.000000 0.000000 0.000000 0.000000 0.000000 0.033714
#
#
# Mechanical properties :
#
#
# Convention : Reuss Voigt Hill
#
# Bulk Modulus (GPa) = 63.94172 72.26842 68.10507
# Shear Modulus (GPa) = 7.89999 22.89601 15.39800
#
# Velocity S-wave (km/s) = 2.06248 3.51120 2.87944
# Velocity P-wave (km/s) = 6.33258 7.43986 6.90844
#
# Compressibility (1/GPa) = 0.01563924
#
# Stress axis : x y z
#
# Youngs Moduli (GPa) = 36.90506 45.50812 64.67543
#
# Poissons Ratio (x) = 0.45396 0.40216
# Poissons Ratio (y) = 0.36814 0.53378
# Poissons Ratio (z) = 0.22948 0.37559
#
# Static dielectric constant tensor:
#      x y z
#    x 3.069880 0.000000 0.000000 
#    y 0.000000 3.428000 0.000000 
#    z 0.000000 0.000000 3.484970 
# 
# 
# High freq. dielectric constant tensor:
#      x y z
#    x 1.720130 0.000000 0.000000 
#    y 0.000000 1.719810 0.000000 
#    z 0.000000 0.000000 1.734790 
# 
# From -- ./inp_files/5216.got.cif
#   From: 2010.03.12/outbox.cif.g09.slc.cpg/sg25_3_cif.got.tgz:5216.got - 2010.04.14 03:30:10.
