data_PCOD8166038
_publ_section_title
;
Structure prediction by ZEFSAII (Michael W. Deem and Ramdas Pophale) SiO2 
 PCOD8166038
Probable space group: I 21 21 21
;
_chemical_formula_sum "Si O2"
_cell_formula_units_Z 48
_cell_length_a 12.978102
_cell_length_b 12.426990
_cell_length_c 14.163912
_cell_angle_alpha 90.000000
_cell_angle_beta 90.000000
_cell_angle_gamma 90.000000
_cell_volume 2284.337934
_symmetry_space_group_name_H-M "I 21 21 21"
_symmetry_group_IT_number 24
_symmetry_cell_setting 'orthorhombic'
loop_
_space_group_symop_operation_xyz
x,y,z
-x,1/2-y,z
x,-y,1/2-z
1/2-x,y,-z
1/2+x,1/2+y,1/2+z
1/2-x,-y,1/2+z
1/2+x,1/2-y,-z
-x,1/2+y,1/2-z
loop_
_atom_site_type_symbol
_atom_site_label
_atom_site_fract_x
_atom_site_fract_y
_atom_site_fract_z
Si Si1 0.165431 0.451667 0.345119
Si Si2 0.884262 0.797090 0.655078
Si Si3 0.563379 0.639982 0.090384
Si Si4 0.250000 0.608700 0.500000
Si Si5 0.043605 0.866947 0.119458
Si Si6 0.036199 0.500000 0.750000
Si Si7 0.753197 0.719896 0.181435
O O1 0.211536 0.500000 0.250000
O O2 0.186839 0.532133 0.430418
O O3 0.218316 0.336618 0.360353
O O4 0.041968 0.440489 0.330987
O O5 0.831021 0.813408 0.553356
O O6 0.808271 0.722219 0.718478
O O7 0.000000 0.750000 0.644804
O O8 0.888829 0.912067 0.705230
O O9 0.500000 0.750000 0.108123
O O10 0.531937 0.550513 0.166758
O O11 0.682477 0.667282 0.102602
O O12 0.558226 0.587346 0.986752
O O13 0.145098 0.856683 0.185991
O O14 0.000000 0.750000 0.100890
#
# Coordination Sequence:
#
# PCOD8166038 Si02
#       7
#     8   8   8   4   8   4   8
#     4  11  23  42  66  98 127 168 222 272 322 396
#     4  12  24  44  66 100 132 176 225 273 334 403
#     4  11  21  36  62  98 129 168 218 280 332 386
#     4  12  26  42  72  98 130 174 230 274 332 408
#     4   9  22  36  60  93 128 163 210 269 330 382
#     4  12  20  38  68  92 136 162 226 280 322 396
#     4  11  20  41  65  92 131 166 213 271 341 380
#
# _framework density 21.012653
#
# number of rings (size 3 to 8) (size 9 to 14) (size 15 to 20)
#    0.000    1.000    5.000    2.500    7.000    0.000 
#    4.500    0.000    3.667    0.000    0.000    0.000 
#    0.000    0.000    0.000    0.000    0.000    0.000 
#
# Total GULP energy -297486.399545 kJ/mol
# GULP energy per Si atom -12395.266648 kJ/mol
# Density = 2.096483 g / cm^3
# Si number density = 21.012653 Si / 1000 Ang^3
#
#
#
# Elastic Constant Matrix: (Units=GPa)
#
#
# Indices 1 2 3 4 5 6 
#
# 1 148.2099 30.3798 51.8797 0.0000 0.0000 0.0000
# 2 30.3798 44.7588 30.2450 -0.0001 0.0000 0.0000
# 3 51.8797 30.2450 116.6461 -0.0001 0.0000 0.0000
# 4 0.0000 -0.0001 -0.0001 19.1891 0.0000 0.0000
# 5 0.0000 0.0000 0.0000 0.0000 40.2811 0.0000
# 6 0.0000 0.0000 0.0000 0.0000 0.0000 11.1564
#
#
#
# Elastic Compliance Matrix: (Units=1/GPa)
#
#
# Indices 1 2 3 4 5 6 
#
# 1 0.008520 -0.003907 -0.002776 0.000000 0.000000 0.000000
# 2 -0.003907 0.028879 -0.005751 0.000000 0.000000 0.000000
# 3 -0.002776 -0.005751 0.011299 0.000000 0.000000 0.000000
# 4 0.000000 0.000000 0.000000 0.052113 0.000000 0.000000
# 5 0.000000 0.000000 0.000000 0.000000 0.024826 0.000000
# 6 0.000000 0.000000 0.000000 0.000000 0.000000 0.089635
#
#
# Mechanical properties :
#
#
# Convention : Reuss Voigt Hill
#
# Bulk Modulus (GPa) = 41.96234 59.40264 50.68249
# Shear Modulus (GPa) = 20.15463 27.26602 23.71032
#
# Velocity S-wave (km/s) = 3.10040 3.60613 3.36279
# Velocity P-wave (km/s) = 5.72975 6.75797 6.26499
#
# Compressibility (1/GPa) = 0.02383089
#
# Stress axis : x y z
#
# Youngs Moduli (GPa) = 117.37347 34.62665 88.50506
#
# Poissons Ratio (x) = 0.13528 0.24572
# Poissons Ratio (y) = 0.45855 0.50895
# Poissons Ratio (z) = 0.32587 0.19912
#
# Static dielectric constant tensor:
#      x y z
#    x 4.101700 0.000000 0.000000 
#    y 0.000000 3.689070 0.000000 
#    z 0.000000 0.000000 3.862930 
# 
# 
# High freq. dielectric constant tensor:
#      x y z
#    x 1.841670 0.000000 0.000000 
#    y 0.000000 1.794610 0.000000 
#    z 0.000000 0.000000 1.818790 
# 
# From -- ./inp_files/25754.got.cif
#   From: 2010.03.12/outbox.cif.g09.slc.cpg/sg24_13_cif.got.tgz:25754.got - 2010.04.14 03:06:53.
