data_PCOD8166358
_publ_section_title
;
Structure prediction by ZEFSAII (Michael W. Deem and Ramdas Pophale) SiO2 
 PCOD8166358
Probable space group: P M M 2
;
_chemical_formula_sum "Si O2"
_cell_formula_units_Z 32
_cell_length_a 9.341088
_cell_length_b 13.219590
_cell_length_c 14.610405
_cell_angle_alpha 90.000000
_cell_angle_beta 90.000000
_cell_angle_gamma 90.000000
_cell_volume 1804.171026
_symmetry_space_group_name_H-M "P M M 2"
_symmetry_group_IT_number 25
_symmetry_cell_setting 'orthorhombic'
loop_
_space_group_symop_operation_xyz
x,y,z
-x,-y,z
-x,y,z
x,-y,z
loop_
_atom_site_type_symbol
_atom_site_label
_atom_site_fract_x
_atom_site_fract_y
_atom_site_fract_z
Si Si1 0.330817 0.208289 0.117670
Si Si2 0.168522 0.111623 0.482353
Si Si3 0.665938 0.385107 0.981179
Si Si4 0.833769 0.614514 0.799262
Si Si5 0.656862 0.883954 0.808633
Si Si6 0.832179 0.881722 0.278044
Si Si7 0.157198 0.115742 0.968531
Si Si8 0.832904 0.789596 0.664022
O O1 0.500000 0.188921 0.122459
O O2 0.261732 0.196386 0.217821
O O3 0.293754 0.315385 0.068729
O O4 0.252096 0.121697 0.059417
O O5 0.220279 0.143433 0.381289
O O6 0.209841 0.198644 0.556733
O O7 0.000000 0.100256 0.477089
O O8 0.231213 0.000000 0.508694
O O9 0.500000 0.373636 0.957361
O O10 0.705529 0.500000 0.008736
O O11 0.750326 0.351264 0.890290
O O12 0.793059 0.500000 0.772317
O O13 0.792057 0.681841 0.709954
O O14 0.000000 0.625768 0.822215
O O15 0.500000 0.831408 0.805861
O O16 0.754618 0.830275 0.886443
O O17 0.739047 0.875056 0.713148
O O18 0.635085 0.000000 0.833597
O O19 0.000000 0.858570 0.262930
O O20 0.801316 0.000000 0.255536
O O21 0.000000 0.167436 0.979478
O O22 0.132602 0.000000 0.943467
O O23 0.000000 0.813819 0.678093
#
# Coordination Sequence:
#
# PCOD8166358 Si02
#       8
#     4   4   4   4   4   4   4   4
#     4  11  21  31  48  72  94 118 152 197 244 283
#     4   8  15  29  49  71  93 121 161 201 231 270
#     4   9  19  35  51  67  91 125 161 193 231 283
#     4   9  18  31  47  71 100 125 153 193 238 279
#     4  10  20  31  42  62  95 127 152 186 232 277
#     4   9  18  33  51  70  95 128 162 194 231 280
#     4  10  20  32  45  63  91 127 160 186 219 273
#     4  10  18  29  49  71  91 122 161 196 232 277
#
# _framework density 17.736675999999999
#
# number of rings (size 3 to 8) (size 9 to 14) (size 15 to 20)
#    0.000    2.500    0.000    3.375    0.000    7.250 
#    0.000    0.625    0.000    1.500    0.000    1.750 
#    0.000    0.000    0.000    0.000    0.000    0.000 
#
# Total GULP energy -396512.483450 kJ/mol
# GULP energy per Si atom -12391.015108 kJ/mol
# Density = 1.769631 g / cm^3
# Si number density = 17.736676 Si / 1000 Ang^3
#
#
#
# Elastic Constant Matrix: (Units=GPa)
#
#
# Indices 1 2 3 4 5 6 
#
# 1 89.0449 36.9871 57.6993 0.0000 0.0000 0.0000
# 2 36.9871 79.4141 57.3705 0.0000 0.0000 0.0000
# 3 57.6993 57.3705 151.8608 0.0000 0.0000 0.0000
# 4 0.0000 0.0000 0.0000 27.0559 0.0000 0.0000
# 5 0.0000 0.0000 0.0000 0.0000 6.5400 0.0000
# 6 0.0000 0.0000 0.0000 0.0000 0.0000 15.9214
#
#
#
# Elastic Compliance Matrix: (Units=1/GPa)
#
#
# Indices 1 2 3 4 5 6 
#
# 1 0.015841 -0.004167 -0.004445 0.000000 0.000000 0.000000
# 2 -0.004167 0.018415 -0.005374 0.000000 0.000000 0.000000
# 3 -0.004445 -0.005374 0.010304 0.000000 0.000000 0.000000
# 4 0.000000 0.000000 0.000000 0.036960 0.000000 0.000000
# 5 0.000000 0.000000 0.000000 0.000000 0.152906 0.000000
# 6 0.000000 0.000000 0.000000 0.000000 0.000000 0.062809
#
#
# Mechanical properties :
#
#
# Convention : Reuss Voigt Hill
#
# Bulk Modulus (GPa) = 60.27965 69.38152 64.83058
# Shear Modulus (GPa) = 15.11781 21.12098 18.11939
#
# Velocity S-wave (km/s) = 2.92267 3.45455 3.19968
# Velocity P-wave (km/s) = 6.74158 7.42391 7.09096
#
# Compressibility (1/GPa) = 0.01658935
#
# Stress axis : x y z
#
# Youngs Moduli (GPa) = 63.12640 54.30331 97.05227
#
# Poissons Ratio (x) = 0.22629 0.43135
# Poissons Ratio (y) = 0.26306 0.52152
# Poissons Ratio (z) = 0.28057 0.29180
#
# Static dielectric constant tensor:
#      x y z
#    x 3.390470 0.000000 0.000000 
#    y 0.000000 3.198380 0.000000 
#    z 0.000000 0.000000 3.457340 
# 
# 
# High freq. dielectric constant tensor:
#      x y z
#    x 1.681820 0.000000 0.000000 
#    y 0.000000 1.666990 0.000000 
#    z 0.000000 0.000000 1.674960 
# 
# From -- ./inp_files/5714.got.cif
#   From: 2010.03.12/outbox.cif.g09.slc.cpg/sg25_3_cif.got.tgz:5714.got - 2010.04.14 03:30:10.
