data_PCOD8166898
_publ_section_title
;
Structure prediction by ZEFSAII (Michael W. Deem and Ramdas Pophale) SiO2 
 PCOD8166898
Probable space group: P M M 2
;
_chemical_formula_sum "Si O2"
_cell_formula_units_Z 28
_cell_length_a 9.151719
_cell_length_b 9.096867
_cell_length_c 18.187513
_cell_angle_alpha 90.000000
_cell_angle_beta 90.000000
_cell_angle_gamma 90.000000
_cell_volume 1514.146297
_symmetry_space_group_name_H-M "P M M 2"
_symmetry_group_IT_number 25
_symmetry_cell_setting 'orthorhombic'
loop_
_space_group_symop_operation_xyz
x,y,z
-x,-y,z
-x,y,z
x,-y,z
loop_
_atom_site_type_symbol
_atom_site_label
_atom_site_fract_x
_atom_site_fract_y
_atom_site_fract_z
Si Si1 0.327271 0.666563 0.767800
Si Si2 0.172629 0.160209 0.056704
Si Si3 0.668911 0.827559 0.621237
Si Si4 0.828267 0.330563 0.491002
Si Si5 0.330629 0.669991 0.343023
Si Si6 0.832224 0.825325 0.897869
Si Si7 0.834551 0.175535 0.215195
O O1 0.500000 0.672247 0.772668
O O2 0.268997 0.500000 0.764512
O O3 0.272839 0.749895 0.694944
O O4 0.267391 0.746269 0.839129
O O5 0.213601 0.239519 0.134127
O O6 0.000000 0.138408 0.055950
O O7 0.247783 0.000000 0.056946
O O8 0.215659 0.237559 0.979176
O O9 0.500000 0.787945 0.606054
O O10 0.765340 0.771088 0.554419
O O11 0.692255 0.000000 0.630931
O O12 0.788422 0.500000 0.507717
O O13 0.757033 0.278601 0.414787
O O14 0.000000 0.305801 0.485020
O O15 0.500000 0.702553 0.357061
O O16 0.300569 0.500000 0.326098
O O17 0.277574 0.762715 0.273926
O O18 0.000000 0.785916 0.881135
O O19 0.807968 0.000000 0.894624
O O20 0.000000 0.226220 0.234254
O O21 0.826084 0.000000 0.213939
#
# Coordination Sequence:
#
# PCOD8166898 Si02
#       7
#     4   4   4   4   4   4   4
#     4  10  21  36  53  74 103 139 174 207 248 299
#     4   7  12  26  48  73 100 130 166 209 256 303
#     4  10  21  37  57  79 102 131 168 208 251 300
#     4  10  21  37  57  79 102 131 168 208 251 300
#     4  10  21  36  53  74 103 139 174 207 248 299
#     4   9  17  31  53  78 102 131 170 215 259 302
#     4   9  17  31  53  78 102 131 170 215 259 302
#
# _framework density 18.492269
#
# number of rings (size 3 to 8) (size 9 to 14) (size 15 to 20)
#    0.000    2.714    0.000    3.429    0.000    5.143 
#    0.000    1.429    0.000    6.857    0.000    0.000 
#    0.000    0.000    0.000    0.000    0.000    0.000 
#
# Total GULP energy -347042.211760 kJ/mol
# GULP energy per Si atom -12394.364706 kJ/mol
# Density = 1.845018 g / cm^3
# Si number density = 18.492269 Si / 1000 Ang^3
#
#
#
# Elastic Constant Matrix: (Units=GPa)
#
#
# Indices 1 2 3 4 5 6 
#
# 1 51.8070 26.0122 47.6146 0.0000 0.0000 0.0000
# 2 26.0122 54.4272 50.5896 0.0000 0.0000 0.0000
# 3 47.6146 50.5896 167.4469 0.0000 0.0000 0.0000
# 4 0.0000 0.0000 0.0000 354.0752 0.0000 0.0000
# 5 0.0000 0.0000 0.0000 0.0000 119.3236 0.0000
# 6 0.0000 0.0000 0.0000 0.0000 0.0000 26.8418
#
#
#
# Elastic Compliance Matrix: (Units=1/GPa)
#
#
# Indices 1 2 3 4 5 6 
#
# 1 0.028724 -0.008532 -0.005590 0.000000 0.000000 0.000000
# 2 -0.008532 0.028082 -0.006058 0.000000 0.000000 0.000000
# 3 -0.005590 -0.006058 0.009392 0.000000 0.000000 0.000000
# 4 0.000000 0.000000 0.000000 0.002824 0.000000 0.000000
# 5 0.000000 0.000000 0.000000 0.000000 0.008381 0.000000
# 6 0.000000 0.000000 0.000000 0.000000 0.000000 0.037255
#
#
# Mechanical properties :
#
#
# Convention : Reuss Voigt Hill
#
# Bulk Modulus (GPa) = 38.70361 58.01264 48.35813
# Shear Modulus (GPa) = 30.55661 110.01242 70.28451
#
# Velocity S-wave (km/s) = 4.06938 7.72141 6.17171
# Velocity P-wave (km/s) = 6.56162 10.53247 8.77462
#
# Compressibility (1/GPa) = 0.02583738
#
# Stress axis : x y z
#
# Youngs Moduli (GPa) = 34.81396 35.61040 106.47465
#
# Poissons Ratio (x) = 0.30383 0.59521
# Poissons Ratio (y) = 0.29703 0.64502
# Poissons Ratio (z) = 0.19462 0.21573
#
# Static dielectric constant tensor:
#      x y z
#    x 3.194300 0.000000 0.000000 
#    y 0.000000 2.743080 0.000000 
#    z 0.000000 0.000000 3.753370 
# 
# 
# High freq. dielectric constant tensor:
#      x y z
#    x 1.698520 0.000000 0.000000 
#    y 0.000000 1.695240 0.000000 
#    z 0.000000 0.000000 1.740020 
# 
# From -- ./inp_files/6152.got.cif
#   From: 2010.03.12/outbox.cif.g09.slc.cpg/sg25_4_cif.got.tgz:6152.got - 2010.04.14 03:30:10.
