data_PCOD8166330
_publ_section_title
;
Structure prediction by ZEFSAII (Michael W. Deem and Ramdas Pophale) SiO2 
 PCOD8166330
Probable space group: P M M 2
;
_chemical_formula_sum "Si O2"
_cell_formula_units_Z 32
_cell_length_a 8.888691
_cell_length_b 18.536828
_cell_length_c 13.005956
_cell_angle_alpha 90.000000
_cell_angle_beta 90.000000
_cell_angle_gamma 90.000000
_cell_volume 2142.967130
_symmetry_space_group_name_H-M "P M M 2"
_symmetry_group_IT_number 25
_symmetry_cell_setting 'orthorhombic'
loop_
_space_group_symop_operation_xyz
x,y,z
-x,-y,z
-x,y,z
x,-y,z
loop_
_atom_site_type_symbol
_atom_site_label
_atom_site_fract_x
_atom_site_fract_y
_atom_site_fract_z
Si Si1 0.177106 0.417614 0.226180
Si Si2 0.674678 0.350208 0.032085
Si Si3 0.670202 0.217452 0.913005
Si Si4 0.678064 0.664144 0.639251
Si Si5 0.325076 0.417118 0.434753
Si Si6 0.826049 0.585146 0.831425
Si Si7 0.672710 0.079808 0.814266
Si Si8 0.824757 0.795508 0.715899
O O1 0.230275 0.500000 0.208936
O O2 0.243407 0.368611 0.136845
O O3 0.235821 0.388530 0.335298
O O4 0.000000 0.410944 0.223264
O O5 0.500000 0.370129 0.041873
O O6 0.699770 0.263122 0.016064
O O7 0.742527 0.392569 0.936000
O O8 0.500000 0.234472 0.874151
O O9 0.688376 0.129318 0.919175
O O10 0.786518 0.244629 0.824919
O O11 0.500000 0.663890 0.653168
O O12 0.728204 0.627628 0.533040
O O13 0.751217 0.620660 0.732286
O O14 0.741057 0.746347 0.631451
O O15 0.500000 0.406322 0.411940
O O16 0.285008 0.500000 0.456980
O O17 0.809245 0.500000 0.819389
O O18 0.000000 0.608518 0.838216
O O19 0.500000 0.072303 0.781386
O O20 0.759114 0.122404 0.722000
O O21 0.742608 0.000000 0.832322
O O22 0.000000 0.798439 0.692837
#
# Coordination Sequence:
#
# PCOD8166330 Si02
#       8
#     4   4   4   4   4   4   4   4
#     4  10  21  35  49  65  87 114 149 196 242 282
#     4  11  20  31  48  64  87 120 152 187 226 272
#     4   8  16  29  42  62  88 118 151 181 216 261
#     4  11  20  32  48  65  88 118 152 188 228 276
#     4   9  19  35  52  67  83 110 153 199 239 280
#     4  11  22  31  41  62  89 115 146 184 228 276
#     4   8  14  27  45  63  90 126 157 184 215 259
#     4  10  18  27  42  64  92 122 148 181 220 264
#
# _framework density 14.932567000000001
#
# number of rings (size 3 to 8) (size 9 to 14) (size 15 to 20)
#    0.750    1.500    1.250    3.000    0.000    5.500 
#    0.000    1.250    0.000    0.000    0.000    0.000 
#    0.000    1.000    0.000    7.750    0.000    1.875 
#
# Total GULP energy -396435.062830 kJ/mol
# GULP energy per Si atom -12388.595713 kJ/mol
# Density = 1.489858 g / cm^3
# Si number density = 14.932567 Si / 1000 Ang^3
#
#
#
# Elastic Constant Matrix: (Units=GPa)
#
#
# Indices 1 2 3 4 5 6 
#
# 1 54.9873 32.2068 39.2673 0.0000 0.0000 0.0000
# 2 32.2068 103.4100 54.7986 0.0000 0.0000 0.0000
# 3 39.2673 54.7986 94.9371 0.0000 0.0000 0.0000
# 4 0.0000 0.0000 0.0000 15.8136 0.0000 0.0000
# 5 0.0000 0.0000 0.0000 0.0000 5.1792 0.0000
# 6 0.0000 0.0000 0.0000 0.0000 0.0000 17.7760
#
#
#
# Elastic Compliance Matrix: (Units=1/GPa)
#
#
# Indices 1 2 3 4 5 6 
#
# 1 0.026683 -0.003547 -0.008989 0.000000 0.000000 0.000000
# 2 -0.003547 0.014403 -0.006847 0.000000 0.000000 0.000000
# 3 -0.008989 -0.006847 0.018203 0.000000 0.000000 0.000000
# 4 0.000000 0.000000 0.000000 0.063237 0.000000 0.000000
# 5 0.000000 0.000000 0.000000 0.000000 0.193079 0.000000
# 6 0.000000 0.000000 0.000000 0.000000 0.000000 0.056256
#
#
# Mechanical properties :
#
#
# Convention : Reuss Voigt Hill
#
# Bulk Modulus (GPa) = 48.72342 56.20886 52.46614
# Shear Modulus (GPa) = 11.97701 16.22454 14.10077
#
# Velocity S-wave (km/s) = 2.83516 3.29982 3.07627
# Velocity P-wave (km/s) = 6.58918 7.22786 6.91590
#
# Compressibility (1/GPa) = 0.02052401
#
# Stress axis : x y z
#
# Youngs Moduli (GPa) = 37.47758 69.43008 54.93549
#
# Poissons Ratio (x) = 0.24625 0.49382
# Poissons Ratio (y) = 0.13293 0.37612
# Poissons Ratio (z) = 0.33689 0.47536
#
# Static dielectric constant tensor:
#      x y z
#    x 2.954420 0.000000 0.000000 
#    y 0.000000 3.052800 0.000000 
#    z 0.000000 0.000000 2.722470 
# 
# 
# High freq. dielectric constant tensor:
#      x y z
#    x 1.583560 0.000000 0.000000 
#    y 0.000000 1.561530 0.000000 
#    z 0.000000 0.000000 1.537480 
# 
# From -- ./inp_files/4475.got.cif
#   From: 2010.03.12/outbox.cif.g09.slc.cpg/sg25_3_cif.got.tgz:4475.got - 2010.04.14 03:30:10.
