data_PCOD8166917
_publ_section_title
;
Structure prediction by ZEFSAII (Michael W. Deem and Ramdas Pophale) SiO2 
 PCOD8166917
Probable space group: P M M 2
;
_chemical_formula_sum "Si O2"
_cell_formula_units_Z 28
_cell_length_a 9.312957
_cell_length_b 8.964633
_cell_length_c 17.860926
_cell_angle_alpha 90.000000
_cell_angle_beta 90.000000
_cell_angle_gamma 90.000000
_cell_volume 1491.159445
_symmetry_space_group_name_H-M "P M M 2"
_symmetry_group_IT_number 25
_symmetry_cell_setting 'orthorhombic'
loop_
_space_group_symop_operation_xyz
x,y,z
-x,-y,z
-x,y,z
x,-y,z
loop_
_atom_site_type_symbol
_atom_site_label
_atom_site_fract_x
_atom_site_fract_y
_atom_site_fract_z
Si Si1 0.666667 0.826825 0.298150
Si Si2 0.668115 0.172623 0.729209
Si Si3 0.831384 0.670944 0.429677
Si Si4 0.164175 0.675208 0.860398
Si Si5 0.165854 0.174261 0.013589
Si Si6 0.330844 0.671312 0.146514
Si Si7 0.165433 0.827930 0.581480
O O1 0.500000 0.795582 0.313273
O O2 0.752875 0.771698 0.369428
O O3 0.721010 0.737973 0.225445
O O4 0.698102 0.000000 0.284540
O O5 0.500000 0.204136 0.724425
O O6 0.734378 0.271824 0.794163
O O7 0.738181 0.222445 0.651123
O O8 0.702378 0.000000 0.745869
O O9 0.782783 0.500000 0.421184
O O10 0.786727 0.727662 0.511652
O O11 0.000000 0.690488 0.417361
O O12 0.179996 0.500000 0.870608
O O13 0.000000 0.721489 0.842602
O O14 0.217786 0.751275 0.936639
O O15 0.257220 0.238727 0.080797
O O16 0.000000 0.211266 0.028948
O O17 0.195162 0.000000 0.007107
O O18 0.500000 0.690640 0.137156
O O19 0.282749 0.500000 0.143026
O O20 0.000000 0.799643 0.602973
O O21 0.192336 0.000000 0.560329
#
# Coordination Sequence:
#
# PCOD8166917 Si02
#       7
#     4   4   4   4   4   4   4
#     4  10  21  37  57  80 107 142 183 224 267 317
#     4  10  21  36  55  81 111 142 178 220 266 318
#     4  10  21  36  55  81 111 142 178 221 269 320
#     4  10  21  37  57  80 107 141 180 222 269 319
#     4  10  21  37  58  83 109 140 180 223 267 317
#     4  10  21  37  57  81 110 144 180 219 267 321
#     4   9  18  34  55  77 105 143 183 222 265 315
#
# _framework density 18.777335000000001
#
# number of rings (size 3 to 8) (size 9 to 14) (size 15 to 20)
#    0.000    2.143    0.000    2.571    0.000    7.429 
#    0.000    2.857    0.000    0.000    0.000    0.000 
#    0.000    0.000    0.000    0.000    0.000    0.000 
#
# Total GULP energy -347346.656223 kJ/mol
# GULP energy per Si atom -12405.237722 kJ/mol
# Density = 1.873460 g / cm^3
# Si number density = 18.777335 Si / 1000 Ang^3
#
#
#
# Elastic Constant Matrix: (Units=GPa)
#
#
# Indices 1 2 3 4 5 6 
#
# 1 58.0363 31.9804 55.8752 0.0000 0.0000 0.0000
# 2 31.9804 66.6774 42.7623 0.0000 0.0000 0.0000
# 3 55.8752 42.7623 129.5664 0.0000 0.0000 0.0000
# 4 0.0000 0.0000 0.0000 -20.7022 0.0000 0.0000
# 5 0.0000 0.0000 0.0000 0.0000 54.9356 0.0000
# 6 0.0000 0.0000 0.0000 0.0000 0.0000 29.7548
#
#
#
# Elastic Compliance Matrix: (Units=1/GPa)
#
#
# Indices 1 2 3 4 5 6 
#
# 1 0.032838 -0.008458 -0.011370 0.000000 0.000000 0.000000
# 2 -0.008458 0.021203 -0.003350 0.000000 0.000000 0.000000
# 3 -0.011370 -0.003350 0.013727 0.000000 0.000000 0.000000
# 4 0.000000 0.000000 0.000000 -0.048304 0.000000 0.000000
# 5 0.000000 0.000000 0.000000 0.000000 0.018203 0.000000
# 6 0.000000 0.000000 0.000000 0.000000 0.000000 0.033608
#
#
# Mechanical properties :
#
#
# Convention : Reuss Voigt Hill
#
# Bulk Modulus (GPa) = 46.70411 57.27954 51.99183
# Shear Modulus (GPa) = 40.07432 21.04178 30.55805
#
# Velocity S-wave (km/s) = 4.62474 3.35116 4.03847
# Velocity P-wave (km/s) = 7.31055 6.74867 7.03522
#
# Compressibility (1/GPa) = 0.02141139
#
# Stress axis : x y z
#
# Youngs Moduli (GPa) = 30.45280 47.16303 72.84950
#
# Poissons Ratio (x) = 0.39891 0.82827
# Poissons Ratio (y) = 0.25758 0.24407
# Poissons Ratio (z) = 0.34624 0.15801
#
# Static dielectric constant tensor:
#      x y z
#    x 3.372320 0.000000 0.000000 
#    y 0.000000 3.893670 0.000000 
#    z 0.000000 0.000000 3.539180 
# 
# 
# High freq. dielectric constant tensor:
#      x y z
#    x 1.721910 0.000000 0.000000 
#    y 0.000000 1.739610 0.000000 
#    z 0.000000 0.000000 1.741040 
# 
# From -- ./inp_files/6029.got.cif
#   From: 2010.03.12/outbox.cif.g09.slc.cpg/sg25_4_cif.got.tgz:6029.got - 2010.04.14 03:30:10.
