data_PCOD8166559
_publ_section_title
;
Structure prediction by ZEFSAII (Michael W. Deem and Ramdas Pophale) SiO2 
 PCOD8166559
Probable space group: P M M 2
;
_chemical_formula_sum "Si O2"
_cell_formula_units_Z 12
_cell_length_a 7.673947
_cell_length_b 8.724413
_cell_length_c 9.262816
_cell_angle_alpha 90.000000
_cell_angle_beta 90.000000
_cell_angle_gamma 90.000000
_cell_volume 620.151857
_symmetry_space_group_name_H-M "P M M 2"
_symmetry_group_IT_number 25
_symmetry_cell_setting 'orthorhombic'
loop_
_space_group_symop_operation_xyz
x,y,z
-x,-y,z
-x,y,z
x,-y,z
loop_
_atom_site_type_symbol
_atom_site_label
_atom_site_fract_x
_atom_site_fract_y
_atom_site_fract_z
Si Si1 0.306650 0.329565 0.688420
Si Si2 0.500000 0.180565 0.925525
Si Si3 0.500000 0.321102 0.237344
Si Si4 0.195788 0.824752 0.414231
O O1 0.500000 0.341071 0.617480
O O2 0.226590 0.500000 0.708325
O O3 0.326505 0.247932 0.845464
O O4 0.189493 0.229822 0.580873
O O5 0.500000 0.000000 0.910592
O O6 0.500000 0.226656 0.090545
O O7 0.500000 0.500000 0.202336
O O8 0.675338 0.280530 0.322906
O O9 0.000000 0.809494 0.351822
O O10 0.260638 0.000000 0.407787
#
# Coordination Sequence:
#
# PCOD8166559 Si02
#       4
#     4   2   2   4
#     4   9  18  34  56  84 112 144 186 231 279 332
#     4  10  19  34  59  84 112 152 190 232 287 342
#     4  12  23  38  59  84 118 154 190 236 289 344
#     4  11  23  38  59  87 117 152 194 237 283 338
#
# _framework density 19.350100000000001
#
# number of rings (size 3 to 8) (size 9 to 14) (size 15 to 20)
#    1.000    0.667    1.667    4.500    0.000    2.667 
#    0.000    1.667    0.000   10.000    0.000    0.000 
#    0.000    0.000    0.000    0.000    0.000    0.000 
#
# Total GULP energy -148734.802483 kJ/mol
# GULP energy per Si atom -12394.566874 kJ/mol
# Density = 1.930606 g / cm^3
# Si number density = 19.350100 Si / 1000 Ang^3
#
#
#
# Elastic Constant Matrix: (Units=GPa)
#
#
# Indices 1 2 3 4 5 6 
#
# 1 66.0156 15.8015 19.7065 0.0000 0.0000 0.0000
# 2 15.8015 122.5910 16.1772 0.0000 0.0000 0.0000
# 3 19.7065 16.1772 95.0871 0.0000 0.0000 0.0000
# 4 0.0000 0.0000 0.0000 39.3279 0.0000 0.0000
# 5 0.0000 0.0000 0.0000 0.0000 9.9101 0.0000
# 6 0.0000 0.0000 0.0000 0.0000 0.0000 16.2676
#
#
#
# Elastic Compliance Matrix: (Units=1/GPa)
#
#
# Indices 1 2 3 4 5 6 
#
# 1 0.016491 -0.001713 -0.003126 0.000000 0.000000 0.000000
# 2 -0.001713 0.008523 -0.001095 0.000000 0.000000 0.000000
# 3 -0.003126 -0.001095 0.011351 0.000000 0.000000 0.000000
# 4 0.000000 0.000000 0.000000 0.025427 0.000000 0.000000
# 5 0.000000 0.000000 0.000000 0.000000 0.100907 0.000000
# 6 0.000000 0.000000 0.000000 0.000000 0.000000 0.061472
#
#
# Mechanical properties :
#
#
# Convention : Reuss Voigt Hill
#
# Bulk Modulus (GPa) = 40.82305 43.00714 41.91510
# Shear Modulus (GPa) = 20.47463 28.56836 24.52149
#
# Velocity S-wave (km/s) = 3.25640 3.84655 3.56371
# Velocity P-wave (km/s) = 5.93984 6.48090 6.21626
#
# Compressibility (1/GPa) = 0.02449596
#
# Stress axis : x y z
#
# Youngs Moduli (GPa) = 60.63829 117.33641 88.09899
#
# Poissons Ratio (x) = 0.20101 0.27542
# Poissons Ratio (y) = 0.10388 0.09646
# Poissons Ratio (z) = 0.18957 0.12847
#
# Static dielectric constant tensor:
#      x y z
#    x 3.204730 0.000000 0.000000 
#    y 0.000000 3.593250 0.000000 
#    z 0.000000 0.000000 3.350310 
# 
# 
# High freq. dielectric constant tensor:
#      x y z
#    x 1.723940 0.000000 0.000000 
#    y 0.000000 1.772580 0.000000 
#    z 0.000000 0.000000 1.740140 
# 
# From -- ./inp_files/1386.got.cif
#   From: 2010.03.12/outbox.cif.g09.slc.cpg/sg25_1_cif.got.tgz:1386.got - 2010.04.14 03:30:10.
