data_PCOD8166265
_publ_section_title
;
Structure prediction by ZEFSAII (Michael W. Deem and Ramdas Pophale) SiO2 
 PCOD8166265
Probable space group: I 21 21 21
;
_chemical_formula_sum "Si O2"
_cell_formula_units_Z 32
_cell_length_a 7.460545
_cell_length_b 5.652404
_cell_length_c 30.846426
_cell_angle_alpha 90.000000
_cell_angle_beta 90.000000
_cell_angle_gamma 90.000000
_cell_volume 1300.794229
_symmetry_space_group_name_H-M "I 21 21 21"
_symmetry_group_IT_number 24
_symmetry_cell_setting 'orthorhombic'
loop_
_space_group_symop_operation_xyz
x,y,z
-x,1/2-y,z
x,-y,1/2-z
1/2-x,y,-z
1/2+x,1/2+y,1/2+z
1/2-x,-y,1/2+z
1/2+x,1/2-y,-z
-x,1/2+y,1/2-z
loop_
_atom_site_type_symbol
_atom_site_label
_atom_site_fract_x
_atom_site_fract_y
_atom_site_fract_z
Si Si1 0.500000 0.250000 0.357709
Si Si2 0.500000 0.750000 0.469308
Si Si3 0.000000 0.250000 0.147097
Si Si4 0.000000 0.750000 0.019627
Si Si5 0.823303 0.409427 0.796664
Si Si6 0.731646 0.004031 0.583230
O O1 0.645582 0.367934 0.326997
O O2 0.598509 0.065853 0.387876
O O3 0.525140 0.500092 0.494742
O O4 0.312635 0.724196 0.442378
O O5 0.165264 0.224875 0.179447
O O6 0.058302 0.455725 0.113591
O O7 0.822714 0.789178 0.049542
O O8 0.758163 0.500000 0.750000
O O9 0.000000 0.250000 0.791329
#
# Coordination Sequence:
#
# PCOD8166265 Si02
#       6
#     4   4   4   4   8   8
#     4  12  25  48  79 106 154 212 252 324 405 468
#     4  12  29  52  77 112 164 220 266 338 415 474
#     4  12  27  48  79 120 154 200 266 328 391 476
#     4  12  29  50  79 116 160 218 274 338 407 484
#     4  12  26  49  79 114 159 202 255 324 400 473
#     4  12  27  48  78 113 158 206 271 331 399 478
#
# _framework density 24.600355
#
# number of rings (size 3 to 8) (size 9 to 14) (size 15 to 20)
#    0.000    0.000    3.750    5.250    0.000   15.000 
#    0.000    0.000    0.000    0.000    0.000    0.000 
#    0.000    0.000    0.000    0.000    0.000    0.000 
#
# Total GULP energy -198227.404231 kJ/mol
# GULP energy per Si atom -12389.212764 kJ/mol
# Density = 2.454436 g / cm^3
# Si number density = 24.600355 Si / 1000 Ang^3
#
#
#
# Elastic Constant Matrix: (Units=GPa)
#
#
# Indices 1 2 3 4 5 6 
#
# 1 103.9399 36.2125 51.5545 0.0000 0.0000 0.0000
# 2 36.2125 136.8407 74.0729 0.0009 0.0001 0.0000
# 3 51.5545 74.0729 167.8470 0.0009 0.0001 0.0000
# 4 0.0000 0.0009 0.0009 74.8545 0.0006 -0.0001
# 5 0.0000 0.0001 0.0001 0.0006 42.9181 0.0000
# 6 0.0000 0.0000 0.0000 -0.0001 0.0000 46.8679
#
#
#
# Elastic Compliance Matrix: (Units=1/GPa)
#
#
# Indices 1 2 3 4 5 6 
#
# 1 0.011579 -0.001496 -0.002896 0.000000 0.000000 0.000000
# 2 -0.001496 0.009795 -0.003863 0.000000 0.000000 0.000000
# 3 -0.002896 -0.003863 0.008552 0.000000 0.000000 0.000000
# 4 0.000000 0.000000 0.000000 0.013359 0.000000 0.000000
# 5 0.000000 0.000000 0.000000 0.000000 0.023300 0.000000
# 6 0.000000 0.000000 0.000000 0.000000 0.000000 0.021337
#
#
# Mechanical properties :
#
#
# Convention : Reuss Voigt Hill
#
# Bulk Modulus (GPa) = 74.54453 81.36750 77.95602
# Shear Modulus (GPa) = 45.91194 49.38060 47.64627
#
# Velocity S-wave (km/s) = 4.32477 4.48516 4.40570
# Velocity P-wave (km/s) = 7.43681 7.74402 7.59197
#
# Compressibility (1/GPa) = 0.01341480
#
# Stress axis : x y z
#
# Youngs Moduli (GPa) = 86.36509 102.09476 116.93060
#
# Poissons Ratio (x) = 0.15278 0.33863
# Poissons Ratio (y) = 0.12924 0.45169
# Poissons Ratio (z) = 0.25011 0.39438
#
# Static dielectric constant tensor:
#      x y z
#    x 2.601380 0.000020 0.000000 
#    y 0.000020 3.852630 0.000000 
#    z 0.000000 0.000000 4.899590 
# 
# 
# High freq. dielectric constant tensor:
#      x y z
#    x 1.988550 0.000000 0.000000 
#    y 0.000000 1.969970 0.000000 
#    z 0.000000 0.000000 2.004280 
# 
# From -- ./inp_files/38114.got.cif
#   From: 2010.03.12/outbox.cif.g09.slc.cpg/sg24_20_cif.got.tgz:38114.got - 2010.04.14 03:06:53.
