data_PCOD8166206
_publ_section_title
;
Structure prediction by ZEFSAII (Michael W. Deem and Ramdas Pophale) SiO2 
 PCOD8166206
Probable space group: I 21 21 21
;
_chemical_formula_sum "Si O2"
_cell_formula_units_Z 40
_cell_length_a 19.194746
_cell_length_b 19.032134
_cell_length_c 4.983653
_cell_angle_alpha 90.000000
_cell_angle_beta 90.000000
_cell_angle_gamma 90.000000
_cell_volume 1820.613053
_symmetry_space_group_name_H-M "I 21 21 21"
_symmetry_group_IT_number 24
_symmetry_cell_setting 'orthorhombic'
loop_
_space_group_symop_operation_xyz
x,y,z
-x,1/2-y,z
x,-y,1/2-z
1/2-x,y,-z
1/2+x,1/2+y,1/2+z
1/2-x,-y,1/2+z
1/2+x,1/2-y,-z
-x,1/2+y,1/2-z
loop_
_atom_site_type_symbol
_atom_site_label
_atom_site_fract_x
_atom_site_fract_y
_atom_site_fract_z
Si Si1 0.889206 0.135956 0.837734
Si Si2 0.521306 0.831818 0.833880
Si Si3 0.750000 0.546991 0.000000
Si Si4 0.375172 0.150288 0.507020
Si Si5 0.171409 0.775094 0.498444
Si Si6 0.201516 0.500000 0.750000
O O1 0.917947 0.154606 0.546167
O O2 0.832330 0.194128 0.919458
O O3 0.849055 0.062706 0.838882
O O4 0.952997 0.138038 0.049032
O O5 0.500000 0.750000 0.814209
O O6 0.453154 0.876360 0.926976
O O7 0.728769 0.500000 0.250000
O O8 0.818141 0.591690 0.074622
O O9 0.372351 0.175762 0.200488
O O10 0.359797 0.216749 0.701681
O O11 0.250000 0.802075 0.500000
O O12 0.250000 0.477585 0.500000
#
# Coordination Sequence:
#
# PCOD8166206 Si02
#       6
#     8   8   4   8   8   4
#     4  12  25  44  72 103 147 189 229 298 359 432
#     4  12  23  44  71 106 142 177 233 296 366 419
#     4  12  26  48  66  96 138 182 238 282 342 418
#     4  12  24  42  69  97 137 177 223 301 343 410
#     4  12  21  38  68 102 130 172 236 290 353 397
#     4  12  28  52  74 104 154 198 244 294 362 448
#
# _framework density 21.970621000000001
#
# number of rings (size 3 to 8) (size 9 to 14) (size 15 to 20)
#    0.000    0.000    6.000    4.800    0.000    1.600 
#    5.400    0.000    0.000    0.000    0.000    0.000 
#    0.000    0.000    0.000    0.000    0.000    0.000 
#
# Total GULP energy -248085.317196 kJ/mol
# GULP energy per Si atom -12404.265860 kJ/mol
# Density = 2.192061 g / cm^3
# Si number density = 21.970621 Si / 1000 Ang^3
#
#
#
# Elastic Constant Matrix: (Units=GPa)
#
#
# Indices 1 2 3 4 5 6 
#
# 1 114.4798 29.6732 26.2372 0.0000 0.0000 0.0000
# 2 29.6732 100.3801 23.8398 0.0000 0.0000 0.0000
# 3 26.2372 23.8398 105.2599 0.0000 0.0000 0.0000
# 4 0.0000 0.0000 0.0000 25.6545 0.0000 0.0000
# 5 0.0000 0.0000 0.0000 0.0000 47.9571 0.0000
# 6 0.0000 0.0000 0.0000 0.0000 0.0000 30.8399
#
#
#
# Elastic Compliance Matrix: (Units=1/GPa)
#
#
# Indices 1 2 3 4 5 6 
#
# 1 0.009803 -0.002449 -0.001889 0.000000 0.000000 0.000000
# 2 -0.002449 0.011140 -0.001913 0.000000 0.000000 0.000000
# 3 -0.001889 -0.001913 0.010404 0.000000 0.000000 0.000000
# 4 0.000000 0.000000 0.000000 0.038979 0.000000 0.000000
# 5 0.000000 0.000000 0.000000 0.000000 0.020852 0.000000
# 6 0.000000 0.000000 0.000000 0.000000 0.000000 0.032426
#
#
# Mechanical properties :
#
#
# Convention : Reuss Voigt Hill
#
# Bulk Modulus (GPa) = 53.06086 53.29112 53.17599
# Shear Modulus (GPa) = 35.11534 36.91494 36.01514
#
# Velocity S-wave (km/s) = 4.00219 4.10347 4.05315
# Velocity P-wave (km/s) = 6.74981 6.83809 6.79410
#
# Compressibility (1/GPa) = 0.01884628
#
# Stress axis : x y z
#
# Youngs Moduli (GPa) = 102.01071 89.76343 96.11437
#
# Poissons Ratio (x) = 0.21985 0.18154
# Poissons Ratio (y) = 0.24985 0.18383
# Poissons Ratio (z) = 0.19267 0.17168
#
# Static dielectric constant tensor:
#      x y z
#    x 4.374440 0.000000 0.000000 
#    y 0.000000 3.718560 0.000000 
#    z 0.000000 0.000000 4.141230 
# 
# 
# High freq. dielectric constant tensor:
#      x y z
#    x 1.881230 0.000000 0.000000 
#    y 0.000000 1.837620 0.000000 
#    z 0.000000 0.000000 1.884970 
# 
# From -- ./inp_files/4562.got.cif
#   From: 2010.03.12/outbox.cif.g09.slc.cpg/sg24_3_cif.got.tgz:4562.got - 2010.04.14 03:06:53.
