data_PCOD8166017
_publ_section_title
;
Structure prediction by ZEFSAII (Michael W. Deem and Ramdas Pophale) SiO2 
 PCOD8166017
Probable space group: I 21 21 21
;
_chemical_formula_sum "Si O2"
_cell_formula_units_Z 64
_cell_length_a 18.152717
_cell_length_b 8.939859
_cell_length_c 26.816268
_cell_angle_alpha 90.000000
_cell_angle_beta 90.000000
_cell_angle_gamma 90.000000
_cell_volume 4351.817191
_symmetry_space_group_name_H-M "I 21 21 21"
_symmetry_group_IT_number 24
_symmetry_cell_setting 'orthorhombic'
loop_
_space_group_symop_operation_xyz
x,y,z
-x,1/2-y,z
x,-y,1/2-z
1/2-x,y,-z
1/2+x,1/2+y,1/2+z
1/2-x,-y,1/2+z
1/2+x,1/2-y,-z
-x,1/2+y,1/2-z
loop_
_atom_site_type_symbol
_atom_site_label
_atom_site_fract_x
_atom_site_fract_y
_atom_site_fract_z
Si Si1 0.661900 0.675980 0.900822
Si Si2 0.697548 0.665148 0.047431
Si Si3 0.161900 0.175980 0.099178
Si Si4 0.075714 0.824831 0.194445
Si Si5 0.421850 0.676449 0.509156
Si Si6 0.924286 0.324831 0.194445
Si Si7 0.697548 0.665148 0.452569
Si Si8 0.421850 0.676449 0.990844
O O1 0.748612 0.718308 0.907396
O O2 0.650204 0.500000 0.911775
O O3 0.639557 0.719789 0.844503
O O4 0.610328 0.765955 0.938690
O O5 0.664431 0.500000 0.058368
O O6 0.750000 0.656715 0.000000
O O7 0.631356 0.780143 0.037298
O O8 0.110328 0.265956 0.061310
O O9 0.139557 0.219789 0.155497
O O10 0.248612 0.218308 0.092604
O O11 0.098992 0.770506 0.250000
O O12 0.000000 0.750000 0.177128
O O13 0.061548 0.000000 0.193888
O O14 0.500000 0.750000 0.498701
O O15 0.368644 0.719857 0.462702
O O16 0.430391 0.500000 0.511505
O O17 0.000000 0.250000 0.177128
O O18 0.750000 0.656715 0.500000
O O19 0.500000 0.750000 0.001299
#
# Coordination Sequence:
#
# PCOD8166017 Si02
#       8
#     8   8   8   8   8   8   8   8
#     4   9  17  29  43  58  79 107 135 164 198 233
#     4   8  15  28  42  56  77 103 130 161 197 234
#     4   9  17  29  43  58  79 107 135 164 198 233
#     4   9  17  28  41  58  80 106 136 167 196 226
#     4  11  20  28  40  58  80 105 134 165 196 234
#     4   9  17  28  41  58  80 106 136 167 196 226
#     4   8  15  28  42  56  77 103 130 161 197 234
#     4  11  20  28  40  58  80 105 134 165 196 234
#
# _framework density 14.7065
#
# number of rings (size 3 to 8) (size 9 to 14) (size 15 to 20)
#    0.000    2.750    0.000    4.500    0.000    7.500 
#    0.000    0.000    0.000    0.000    0.000    0.000 
#    0.000    1.000    0.000    1.750    0.000    2.500 
#
# Total GULP energy -396596.372151 kJ/mol
# GULP energy per Si atom -12393.636630 kJ/mol
# Density = 1.467303 g / cm^3
# Si number density = 14.706500 Si / 1000 Ang^3
#
#
#
# Elastic Constant Matrix: (Units=GPa)
#
#
# Indices 1 2 3 4 5 6 
#
# 1 99.2863 48.6652 56.0484 0.0000 0.0000 0.0000
# 2 48.6652 72.7010 30.5933 0.0000 0.0000 0.0000
# 3 56.0484 30.5933 85.7253 0.0000 0.0000 0.0000
# 4 0.0000 0.0000 0.0000 12.8523 0.0000 0.0000
# 5 0.0000 0.0000 0.0000 0.0000 26.7384 0.0000
# 6 0.0000 0.0000 0.0000 0.0000 0.0000 24.0205
#
#
#
# Elastic Compliance Matrix: (Units=1/GPa)
#
#
# Indices 1 2 3 4 5 6 
#
# 1 0.020266 -0.009402 -0.009895 0.000000 0.000000 0.000000
# 2 -0.009402 0.020548 -0.001186 0.000000 0.000000 0.000000
# 3 -0.009895 -0.001186 0.018558 0.000000 0.000000 0.000000
# 4 0.000000 0.000000 0.000000 0.077807 0.000000 0.000000
# 5 0.000000 0.000000 0.000000 0.000000 0.037399 0.000000
# 6 0.000000 0.000000 0.000000 0.000000 0.000000 0.041631
#
#
# Mechanical properties :
#
#
# Convention : Reuss Voigt Hill
#
# Bulk Modulus (GPa) = 54.32996 58.70293 56.51644
# Shear Modulus (GPa) = 18.98904 20.88262 19.93583
#
# Velocity S-wave (km/s) = 3.59723 3.77232 3.68581
# Velocity P-wave (km/s) = 7.36725 7.67964 7.52507
#
# Compressibility (1/GPa) = 0.01840605
#
# Stress axis : x y z
#
# Youngs Moduli (GPa) = 49.34351 48.66765 53.88577
#
# Poissons Ratio (x) = 0.45757 0.53319
# Poissons Ratio (y) = 0.46393 0.06390
# Poissons Ratio (z) = 0.48825 0.05771
#
# Static dielectric constant tensor:
#      x y z
#    x 3.086170 0.000000 0.000000 
#    y 0.000000 2.847970 0.000000 
#    z 0.000000 0.000000 3.054310 
# 
# 
# High freq. dielectric constant tensor:
#      x y z
#    x 1.550190 0.000000 0.000000 
#    y 0.000000 1.563400 0.000000 
#    z 0.000000 0.000000 1.533270 
# 
# From -- ./inp_files/36991.got.cif
#   From: 2010.03.12/outbox.cif.g09.slc.cpg/sg24_19_cif.got.tgz:36991.got - 2010.04.14 03:06:53.
