data_PCOD8166711
_publ_section_title
;
Structure prediction by ZEFSAII (Michael W. Deem and Ramdas Pophale) SiO2 
 PCOD8166711
Probable space group: P M M 2
;
_chemical_formula_sum "Si O2"
_cell_formula_units_Z 32
_cell_length_a 9.006402
_cell_length_b 14.197906
_cell_length_c 14.066392
_cell_angle_alpha 90.000000
_cell_angle_beta 90.000000
_cell_angle_gamma 90.000000
_cell_volume 1798.698367
_symmetry_space_group_name_H-M "P M M 2"
_symmetry_group_IT_number 25
_symmetry_cell_setting 'orthorhombic'
loop_
_space_group_symop_operation_xyz
x,y,z
-x,-y,z
-x,y,z
x,-y,z
loop_
_atom_site_type_symbol
_atom_site_label
_atom_site_fract_x
_atom_site_fract_y
_atom_site_fract_z
Si Si1 0.326673 0.607350 0.051570
Si Si2 0.669891 0.251136 0.214909
Si Si3 0.328241 0.107414 0.053184
Si Si4 0.824825 0.750854 0.919519
Si Si5 0.175235 0.759952 0.702127
Si Si6 0.824954 0.757717 0.412014
Si Si7 0.673967 0.109870 0.555924
Si Si8 0.174820 0.396118 0.558487
O O1 0.500000 0.615997 0.028559
O O2 0.273275 0.500000 0.059569
O O3 0.290722 0.658043 0.151144
O O4 0.240595 0.656452 0.965573
O O5 0.500000 0.255007 0.250428
O O6 0.699710 0.157136 0.154072
O O7 0.779756 0.250292 0.303012
O O8 0.500000 0.116769 0.024204
O O9 0.276855 0.000000 0.063071
O O10 0.233092 0.155480 0.970737
O O11 0.772984 0.755069 0.810637
O O12 0.000000 0.746642 0.928822
O O13 0.256623 0.846651 0.651425
O O14 0.223307 0.661960 0.652060
O O15 0.000000 0.776725 0.691740
O O16 0.745486 0.846108 0.461193
O O17 0.775112 0.661619 0.465023
O O18 0.000000 0.773448 0.420430
O O19 0.500000 0.130599 0.554649
O O20 0.710064 0.000000 0.555602
O O21 0.250337 0.500000 0.558844
O O22 0.000000 0.408719 0.557925
#
# Coordination Sequence:
#
# PCOD8166711 Si02
#       8
#     4   4   4   4   4   4   4   4
#     4   9  19  36  55  75 103 140 178 214 254 301
#     4   9  18  33  52  74 101 133 169 210 253 298
#     4   9  19  36  55  73  97 133 174 213 254 303
#     4  10  20  33  51  78 108 135 167 211 261 308
#     4   9  19  34  52  75 103 134 166 205 253 300
#     4  10  20  33  51  76 104 133 164 203 253 304
#     4  10  21  36  54  75  99 131 171 212 252 298
#     4   8  15  30  50  70  95 128 163 196 234 286
#
# _framework density 17.790642999999999
#
# number of rings (size 3 to 8) (size 9 to 14) (size 15 to 20)
#    0.000    2.750    0.000    2.625    0.000    6.500 
#    0.000    5.000    0.000    9.000    0.000    0.000 
#    0.000    0.000    0.000    0.000    0.000    0.000 
#
# Total GULP energy -396811.264466 kJ/mol
# GULP energy per Si atom -12400.352015 kJ/mol
# Density = 1.775015 g / cm^3
# Si number density = 17.790643 Si / 1000 Ang^3
#
#
#
# Elastic Constant Matrix: (Units=GPa)
#
#
# Indices 1 2 3 4 5 6 
#
# 1 58.3299 47.0761 49.7715 0.0000 0.0000 0.0000
# 2 47.0761 163.3894 71.0522 0.0000 0.0000 0.0000
# 3 49.7715 71.0522 142.5534 0.0000 0.0000 0.0000
# 4 0.0000 0.0000 0.0000 11.5542 0.0000 0.0000
# 5 0.0000 0.0000 0.0000 0.0000 28.8126 0.0000
# 6 0.0000 0.0000 0.0000 0.0000 0.0000 24.3922
#
#
#
# Elastic Compliance Matrix: (Units=1/GPa)
#
#
# Indices 1 2 3 4 5 6 
#
# 1 0.026970 -0.004693 -0.007077 0.000000 0.000000 0.000000
# 2 -0.004693 0.008631 -0.002663 0.000000 0.000000 0.000000
# 3 -0.007077 -0.002663 0.010813 0.000000 0.000000 0.000000
# 4 0.000000 0.000000 0.000000 0.086548 0.000000 0.000000
# 5 0.000000 0.000000 0.000000 0.000000 0.034707 0.000000
# 6 0.000000 0.000000 0.000000 0.000000 0.000000 0.040997
#
#
# Mechanical properties :
#
#
# Convention : Reuss Voigt Hill
#
# Bulk Modulus (GPa) = 56.98931 77.78581 67.38756
# Shear Modulus (GPa) = 20.54377 26.04334 23.29355
#
# Velocity S-wave (km/s) = 3.40185 3.83022 3.62237
# Velocity P-wave (km/s) = 6.89441 7.96106 7.44686
#
# Compressibility (1/GPa) = 0.01754715
#
# Stress axis : x y z
#
# Youngs Moduli (GPa) = 37.07756 115.86608 92.47842
#
# Poissons Ratio (x) = 0.54377 0.65451
# Poissons Ratio (y) = 0.17401 0.24629
# Poissons Ratio (z) = 0.26241 0.30857
#
# Static dielectric constant tensor:
#      x y z
#    x 3.163110 0.000000 0.000000 
#    y 0.000000 3.595480 0.000000 
#    z 0.000000 0.000000 3.288960 
# 
# 
# High freq. dielectric constant tensor:
#      x y z
#    x 1.678770 0.000000 0.000000 
#    y 0.000000 1.694070 0.000000 
#    z 0.000000 0.000000 1.688890 
# 
# From -- ./inp_files/5705.got.cif
#   From: 2010.03.12/outbox.cif.g09.slc.cpg/sg25_3_cif.got.tgz:5705.got - 2010.04.14 03:30:10.
