data_PCOD8166729
_publ_section_title
;
Structure prediction by ZEFSAII (Michael W. Deem and Ramdas Pophale) SiO2 
 PCOD8166729
Probable space group: P M M 2
;
_chemical_formula_sum "Si O2"
_cell_formula_units_Z 28
_cell_length_a 9.529180
_cell_length_b 9.157349
_cell_length_c 17.772529
_cell_angle_alpha 90.000000
_cell_angle_beta 90.000000
_cell_angle_gamma 90.000000
_cell_volume 1550.866904
_symmetry_space_group_name_H-M "P M M 2"
_symmetry_group_IT_number 25
_symmetry_cell_setting 'orthorhombic'
loop_
_space_group_symop_operation_xyz
x,y,z
-x,-y,z
-x,y,z
x,-y,z
loop_
_atom_site_type_symbol
_atom_site_label
_atom_site_fract_x
_atom_site_fract_y
_atom_site_fract_z
Si Si1 0.662302 0.168516 0.331130
Si Si2 0.163560 0.335359 0.037965
Si Si3 0.163617 0.332574 0.209133
Si Si4 0.341995 0.172213 0.917407
Si Si5 0.836550 0.827878 0.611532
Si Si6 0.343391 0.826654 0.750799
Si Si7 0.661780 0.328017 0.483805
O O1 0.500000 0.190843 0.311152
O O2 0.750471 0.223073 0.260642
O O3 0.704926 0.261989 0.403686
O O4 0.697652 0.000000 0.347370
O O5 0.214919 0.500000 0.024470
O O6 0.197502 0.288603 0.123305
O O7 0.000000 0.321317 0.022131
O O8 0.240618 0.231748 0.980425
O O9 0.208483 0.500000 0.224282
O O10 0.000000 0.312772 0.226422
O O11 0.500000 0.223427 0.935097
O O12 0.298611 0.229375 0.833922
O O13 0.330555 0.000000 0.919433
O O14 0.767916 0.770725 0.689348
O O15 0.762859 0.743148 0.544479
O O16 0.000000 0.787881 0.613225
O O17 0.812206 0.000000 0.600275
O O18 0.500000 0.768700 0.730627
O O19 0.346437 0.000000 0.751557
O O20 0.500000 0.290091 0.503018
O O21 0.687556 0.500000 0.481302
#
# Coordination Sequence:
#
# PCOD8166729 Si02
#       7
#     4   4   4   4   4   4   4
#     4  10  21  36  55  80 106 131 164 208 255 301
#     4   9  19  35  52  72 101 137 175 211 250 300
#     4   9  19  36  55  74 100 136 174 210 251 300
#     4   9  18  32  51  77 105 132 168 213 257 302
#     4  10  20  33  52  79 106 132 167 210 254 301
#     4   8  15  30  51  73 100 135 171 208 252 300
#     4  10  21  37  56  76 100 134 173 208 247 299
#
# _framework density 18.054417999999998
#
# number of rings (size 3 to 8) (size 9 to 14) (size 15 to 20)
#    0.000    2.714    0.000    3.000    0.000    5.714 
#    0.000    6.429    0.000    0.857    0.000    0.000 
#    0.000    0.000    0.000    0.000    0.000    0.000 
#
# Total GULP energy -347168.279170 kJ/mol
# GULP energy per Si atom -12398.867113 kJ/mol
# Density = 1.801333 g / cm^3
# Si number density = 18.054418 Si / 1000 Ang^3
#
#
#
# Elastic Constant Matrix: (Units=GPa)
#
#
# Indices 1 2 3 4 5 6 
#
# 1 87.0049 39.9933 75.6263 0.0000 0.0000 0.0000
# 2 39.9933 48.3273 44.0228 0.0000 0.0000 0.0000
# 3 75.6263 44.0228 131.2604 0.0000 0.0000 0.0000
# 4 0.0000 0.0000 0.0000 -123.3116 0.0000 0.0000
# 5 0.0000 0.0000 0.0000 0.0000 84.5344 0.0000
# 6 0.0000 0.0000 0.0000 0.0000 0.0000 29.1306
#
#
#
# Elastic Compliance Matrix: (Units=1/GPa)
#
#
# Indices 1 2 3 4 5 6 
#
# 1 0.026986 -0.011763 -0.011603 0.000000 0.000000 0.000000
# 2 -0.011763 0.034922 -0.004935 0.000000 0.000000 0.000000
# 3 -0.011603 -0.004935 0.015959 0.000000 0.000000 0.000000
# 4 0.000000 0.000000 0.000000 -0.008110 0.000000 0.000000
# 5 0.000000 0.000000 0.000000 0.000000 0.011829 0.000000
# 6 0.000000 0.000000 0.000000 0.000000 0.000000 0.034328
#
#
# Mechanical properties :
#
#
# Convention : Reuss Voigt Hill
#
# Bulk Modulus (GPa) = 47.02576 65.09748 56.06162
# Shear Modulus (GPa) = 27.83866 5.20070 16.51968
#
# Velocity S-wave (km/s) = 3.93100 1.69907 3.02817
# Velocity P-wave (km/s) = 6.83425 6.32326 6.58371
#
# Compressibility (1/GPa) = 0.02126494
#
# Stress axis : x y z
#
# Youngs Moduli (GPa) = 37.05578 28.63507 62.66114
#
# Poissons Ratio (x) = 0.33683 0.72707
# Poissons Ratio (y) = 0.43588 0.30924
# Poissons Ratio (z) = 0.42997 0.14132
#
# Static dielectric constant tensor:
#      x y z
#    x 3.125110 0.000000 0.000000 
#    y 0.000000 3.168430 0.000000 
#    z 0.000000 0.000000 3.503460 
# 
# 
# High freq. dielectric constant tensor:
#      x y z
#    x 1.696670 0.000000 0.000000 
#    y 0.000000 1.683040 0.000000 
#    z 0.000000 0.000000 1.710870 
# 
# From -- ./inp_files/6020.got.cif
#   From: 2010.03.12/outbox.cif.g09.slc.cpg/sg25_4_cif.got.tgz:6020.got - 2010.04.14 03:30:10.
