data_PCOD8166948
_publ_section_title
;
Structure prediction by ZEFSAII (Michael W. Deem and Ramdas Pophale) SiO2 
 PCOD8166948
Probable space group: P M M 2
;
_chemical_formula_sum "Si O2"
_cell_formula_units_Z 32
_cell_length_a 9.130712
_cell_length_b 14.730901
_cell_length_c 12.194550
_cell_angle_alpha 90.000000
_cell_angle_beta 90.000000
_cell_angle_gamma 90.000000
_cell_volume 1640.211053
_symmetry_space_group_name_H-M "P M M 2"
_symmetry_group_IT_number 25
_symmetry_cell_setting 'orthorhombic'
loop_
_space_group_symop_operation_xyz
x,y,z
-x,-y,z
-x,y,z
x,-y,z
loop_
_atom_site_type_symbol
_atom_site_label
_atom_site_fract_x
_atom_site_fract_y
_atom_site_fract_z
Si Si1 0.826735 0.260976 0.998010
Si Si2 0.830768 0.393745 0.383769
Si Si3 0.837923 0.607661 0.628008
Si Si4 0.326146 0.258881 0.230497
Si Si5 0.331808 0.607443 0.838621
Si Si6 0.171157 0.102377 0.837617
Si Si7 0.674316 0.899310 0.388043
Si Si8 0.338134 0.107810 0.626885
O O1 0.764345 0.346809 0.932715
O O2 0.784413 0.167095 0.937779
O O3 0.000000 0.272977 0.010428
O O4 0.752324 0.257754 0.115011
O O5 0.802690 0.500000 0.371158
O O6 0.789272 0.359907 0.506754
O O7 0.723566 0.346441 0.298051
O O8 0.000000 0.370142 0.358483
O O9 0.845153 0.500000 0.626179
O O10 0.723699 0.641752 0.719410
O O11 0.000000 0.645652 0.656819
O O12 0.500000 0.261411 0.214436
O O13 0.271862 0.169219 0.294790
O O14 0.500000 0.636576 0.851365
O O15 0.311380 0.500000 0.850997
O O16 0.239013 0.143895 0.726240
O O17 0.000000 0.101698 0.818382
O O18 0.228311 0.000000 0.862978
O O19 0.500000 0.902949 0.394013
O O20 0.729702 0.864972 0.508090
O O21 0.736042 0.000000 0.360562
O O22 0.500000 0.149586 0.642386
O O23 0.346196 0.000000 0.630597
#
# Coordination Sequence:
#
# PCOD8166948 Si02
#       8
#     4   4   4   4   4   4   4   4
#     4  11  24  40  56  75 104 145 187 224 267 323
#     4   9  19  37  59  81 109 146 181 214 260 321
#     4   8  15  31  56  84 112 142 176 212 258 322
#     4  11  23  37  55  80 107 138 182 233 274 310
#     4  10  21  37  58  84 112 140 174 222 273 316
#     4   9  19  36  56  79 108 139 173 218 268 314
#     4   8  16  33  55  79 109 142 173 210 262 321
#     4   8  14  28  53  82 109 138 172 209 256 319
#
# _framework density 19.509685000000001
#
# number of rings (size 3 to 8) (size 9 to 14) (size 15 to 20)
#    0.000    2.750    0.000    2.625    0.000    4.500 
#    0.000    5.000    0.000    2.625    0.000    0.000 
#    0.000    0.000    0.000    0.000    0.000    0.000 
#
# Total GULP energy -396708.717395 kJ/mol
# GULP energy per Si atom -12397.147419 kJ/mol
# Density = 1.946528 g / cm^3
# Si number density = 19.509685 Si / 1000 Ang^3
#
#
#
# Elastic Constant Matrix: (Units=GPa)
#
#
# Indices 1 2 3 4 5 6 
#
# 1 81.3314 43.3976 72.4052 0.0000 0.0000 0.0000
# 2 43.3976 70.4254 59.5095 0.0000 0.0000 0.0000
# 3 72.4052 59.5095 180.0567 0.0000 0.0000 0.0000
# 4 0.0000 0.0000 0.0000 36.4364 0.0000 0.0000
# 5 0.0000 0.0000 0.0000 0.0000 37.6128 0.0000
# 6 0.0000 0.0000 0.0000 0.0000 0.0000 19.6833
#
#
#
# Elastic Compliance Matrix: (Units=1/GPa)
#
#
# Indices 1 2 3 4 5 6 
#
# 1 0.022347 -0.008571 -0.006154 0.000000 0.000000 0.000000
# 2 -0.008571 0.022989 -0.004151 0.000000 0.000000 0.000000
# 3 -0.006154 -0.004151 0.009400 0.000000 0.000000 0.000000
# 4 0.000000 0.000000 0.000000 0.027445 0.000000 0.000000
# 5 0.000000 0.000000 0.000000 0.000000 0.026587 0.000000
# 6 0.000000 0.000000 0.000000 0.000000 0.000000 0.050804
#
#
# Mechanical properties :
#
#
# Convention : Reuss Voigt Hill
#
# Bulk Modulus (GPa) = 58.87697 75.82646 67.35171
# Shear Modulus (GPa) = 24.63233 29.17992 26.90612
#
# Velocity S-wave (km/s) = 3.55712 3.87158 3.71767
# Velocity P-wave (km/s) = 6.86401 7.67697 7.28185
#
# Compressibility (1/GPa) = 0.01698457
#
# Stress axis : x y z
#
# Youngs Moduli (GPa) = 44.74907 43.49929 106.37921
#
# Poissons Ratio (x) = 0.37283 0.65461
# Poissons Ratio (y) = 0.38354 0.44162
# Poissons Ratio (z) = 0.27536 0.18058
#
# Static dielectric constant tensor:
#      x y z
#    x 3.529220 0.000000 0.000000 
#    y 0.000000 3.537060 0.000000 
#    z 0.000000 0.000000 3.724650 
# 
# 
# High freq. dielectric constant tensor:
#      x y z
#    x 1.746900 0.000000 0.000000 
#    y 0.000000 1.753800 0.000000 
#    z 0.000000 0.000000 1.763630 
# 
# From -- ./inp_files/4296.got.cif
#   From: 2010.03.12/outbox.cif.g09.slc.cpg/sg25_3_cif.got.tgz:4296.got - 2010.04.14 03:30:10.
