data_PCOD8166465
_publ_section_title
;
Structure prediction by ZEFSAII (Michael W. Deem and Ramdas Pophale) SiO2 
 PCOD8166465
Probable space group: P M M 2
;
_chemical_formula_sum "Si O2"
_cell_formula_units_Z 32
_cell_length_a 35.817872
_cell_length_b 9.149708
_cell_length_c 5.205415
_cell_angle_alpha 90.000000
_cell_angle_beta 90.000000
_cell_angle_gamma 90.000000
_cell_volume 1705.934584
_symmetry_space_group_name_H-M "P M M 2"
_symmetry_group_IT_number 25
_symmetry_cell_setting 'orthorhombic'
loop_
_space_group_symop_operation_xyz
x,y,z
-x,-y,z
-x,y,z
x,-y,z
loop_
_atom_site_type_symbol
_atom_site_label
_atom_site_fract_x
_atom_site_fract_y
_atom_site_fract_z
Si Si1 0.163122 0.169293 0.599110
Si Si2 0.790109 0.830705 0.099071
Si Si3 0.042005 0.326064 0.121814
Si Si4 0.669036 0.326126 0.621149
Si Si5 0.457845 0.325727 0.126056
Si Si6 0.712301 0.673716 0.120648
Si Si7 0.584876 0.674361 0.626054
Si Si8 0.914691 0.326305 0.621345
O O1 0.181950 0.209703 0.329145
O O2 0.126679 0.265470 0.630619
O O3 0.151742 0.000000 0.611460
O O4 0.191060 0.209818 0.829154
O O5 0.753676 0.734482 0.130839
O O6 0.778720 0.000000 0.111141
O O7 0.040777 0.500000 0.124001
O O8 0.064037 0.267110 0.369874
O O9 0.000000 0.263055 0.125689
O O10 0.062790 0.268346 0.868304
O O11 0.667916 0.500000 0.623750
O O12 0.689674 0.268294 0.367164
O O13 0.626985 0.264024 0.625675
O O14 0.691150 0.266976 0.868765
O O15 0.500000 0.265011 0.125495
O O16 0.458140 0.500000 0.125941
O O17 0.436578 0.265760 0.376374
O O18 0.436422 0.265759 0.876327
O O19 0.714636 0.500000 0.119757
O O20 0.585272 0.500000 0.625812
O O21 0.912326 0.500000 0.620325
#
# Coordination Sequence:
#
# PCOD8166465 Si02
#       8
#     4   4   4   4   4   4   4   4
#     4  10  21  36  52  70  96 127 155 188 231 279
#     4  10  21  36  52  70  93 124 157 186 229 284
#     4   9  17  30  49  74 102 129 158 194 234 273
#     4   9  17  28  42  62  86 113 147 186 231 276
#     4   9  15  21  30  46  69 102 146 186 214 249
#     4  10  19  31  48  69  91 115 149 192 229 267
#     4   9  15  23  34  48  72 105 140 180 220 260
#     4  10  19  31  51  76  98 125 162 198 230 269
#
# _framework density 18.758046
#
# number of rings (size 3 to 8) (size 9 to 14) (size 15 to 20)
#    0.000    2.500    0.000    3.000    0.000    7.000 
#    0.000    0.000    0.000    2.250    0.000    0.000 
#    0.000    0.000    0.000    0.000    0.000   43.750 
#
# Total GULP energy -396845.843648 kJ/mol
# GULP energy per Si atom -12401.432614 kJ/mol
# Density = 1.871535 g / cm^3
# Si number density = 18.758046 Si / 1000 Ang^3
#
#
#
# Elastic Constant Matrix: (Units=GPa)
#
#
# Indices 1 2 3 4 5 6 
#
# 1 134.0292 22.8476 54.5570 0.0000 0.0000 0.0000
# 2 22.8476 12.4079 17.5106 0.0000 0.0000 0.0000
# 3 54.5570 17.5106 156.3309 0.0000 0.0000 0.0000
# 4 0.0000 0.0000 0.0000 7.7327 0.0000 0.0000
# 5 0.0000 0.0000 0.0000 0.0000 37.7871 0.0000
# 6 0.0000 0.0000 0.0000 0.0000 0.0000 -4.2242
#
#
#
# Elastic Compliance Matrix: (Units=1/GPa)
#
#
# Indices 1 2 3 4 5 6 
#
# 1 0.011341 -0.018170 -0.001923 0.000000 0.000000 0.000000
# 2 -0.018170 0.124835 -0.007642 0.000000 0.000000 0.000000
# 3 -0.001923 -0.007642 0.007924 0.000000 0.000000 0.000000
# 4 0.000000 0.000000 0.000000 0.129320 0.000000 0.000000
# 5 0.000000 0.000000 0.000000 0.000000 0.026464 0.000000
# 6 0.000000 0.000000 0.000000 0.000000 0.000000 -0.236732
#
#
# Mechanical properties :
#
#
# Convention : Reuss Voigt Hill
#
# Bulk Modulus (GPa) = 11.28268 54.73316 33.00792
# Shear Modulus (GPa) = 33.74622 22.11598 27.93110
#
# Velocity S-wave (km/s) = 4.24609 3.43740 3.86297
# Velocity P-wave (km/s) = 5.48334 6.70792 6.12630
#
# Compressibility (1/GPa) = 0.08863146
#
# Stress axis : x y z
#
# Youngs Moduli (GPa) = 88.17545 8.01056 126.20489
#
# Poissons Ratio (x) = 0.14555 0.24265
# Poissons Ratio (y) = 1.60212 0.96444
# Poissons Ratio (z) = 0.16953 0.06122
#
# Static dielectric constant tensor:
#      x y z
#    x 3.540420 0.000000 0.000000 
#    y 0.000000 2.792670 0.000000 
#    z 0.000000 0.000000 3.870960 
# 
# 
# High freq. dielectric constant tensor:
#      x y z
#    x 1.745540 0.000000 0.000000 
#    y 0.000000 1.658010 0.000000 
#    z 0.000000 0.000000 1.753090 
# 
# From -- ./inp_files/383.got.cif
#   From: 2010.03.12/outbox.cif.g09.slc.cpg/sg25_1_cif.got.tgz:383.got - 2010.04.14 03:30:10.
