data_PCOD8166685
_publ_section_title
;
Structure prediction by ZEFSAII (Michael W. Deem and Ramdas Pophale) SiO2 
 PCOD8166685
Probable space group: P M M 2
;
_chemical_formula_sum "Si O2"
_cell_formula_units_Z 32
_cell_length_a 9.260858
_cell_length_b 9.386176
_cell_length_c 20.641980
_cell_angle_alpha 90.000000
_cell_angle_beta 90.000000
_cell_angle_gamma 90.000000
_cell_volume 1794.284359
_symmetry_space_group_name_H-M "P M M 2"
_symmetry_group_IT_number 25
_symmetry_cell_setting 'orthorhombic'
loop_
_space_group_symop_operation_xyz
x,y,z
-x,-y,z
-x,y,z
x,-y,z
loop_
_atom_site_type_symbol
_atom_site_label
_atom_site_fract_x
_atom_site_fract_y
_atom_site_fract_z
Si Si1 0.340241 0.330969 0.041000
Si Si2 0.162187 0.670135 0.920557
Si Si3 0.332242 0.665995 0.186397
Si Si4 0.832716 0.165880 0.545445
Si Si5 0.336785 0.169447 0.420360
Si Si6 0.662929 0.330368 0.797287
Si Si7 0.832637 0.665535 0.671902
Si Si8 0.167377 0.832412 0.294862
O O1 0.500000 0.269384 0.026660
O O2 0.347213 0.500000 0.036504
O O3 0.290723 0.287801 0.113193
O O4 0.230591 0.270100 0.987292
O O5 0.162681 0.500000 0.920342
O O6 0.253534 0.729554 0.859983
O O7 0.000000 0.729280 0.915117
O O8 0.500000 0.699948 0.200251
O O9 0.300646 0.500000 0.197708
O O10 0.230359 0.756936 0.232094
O O11 0.741058 0.225595 0.485120
O O12 0.780848 0.249452 0.608861
O O13 0.000000 0.195287 0.530074
O O14 0.803301 0.000000 0.557577
O O15 0.500000 0.228520 0.418161
O O16 0.250725 0.226544 0.357956
O O17 0.334348 0.000000 0.420391
O O18 0.500000 0.271238 0.798148
O O19 0.664470 0.500000 0.798801
O O20 0.742076 0.275797 0.732632
O O21 0.802231 0.500000 0.659134
O O22 0.000000 0.693859 0.687244
O O23 0.000000 0.793617 0.302795
O O24 0.191045 0.000000 0.286577
#
# Coordination Sequence:
#
# PCOD8166685 Si02
#       8
#     4   4   4   4   4   4   4   4
#     4   8  14  25  40  59  86 118 149 183 224 268
#     4   9  15  22  35  57  84 114 149 186 221 260
#     4   9  18  32  49  70  97 127 157 191 234 282
#     4   9  17  30  48  68  89 114 145 181 221 266
#     4   9  17  30  49  70  90 115 150 191 230 267
#     4   9  16  25  38  57  83 115 148 182 220 260
#     4   9  17  29  44  63  89 118 145 176 217 264
#     4  10  20  33  50  72  96 123 157 195 233 276
#
# _framework density 17.834409999999998
#
# number of rings (size 3 to 8) (size 9 to 14) (size 15 to 20)
#    0.000    3.000    0.000    2.250    0.000    6.500 
#    0.000    1.875    0.000    2.250    0.000    0.875 
#    0.000    5.000    0.000    0.000    0.000    0.000 
#
# Total GULP energy -396750.020024 kJ/mol
# GULP energy per Si atom -12398.438126 kJ/mol
# Density = 1.779382 g / cm^3
# Si number density = 17.834410 Si / 1000 Ang^3
#
#
#
# Elastic Constant Matrix: (Units=GPa)
#
#
# Indices 1 2 3 4 5 6 
#
# 1 141.8071 27.7948 106.3388 0.0000 0.0000 0.0000
# 2 27.7948 20.0993 33.5648 0.0000 0.0000 0.0000
# 3 106.3388 33.5648 185.0424 0.0000 0.0000 0.0000
# 4 0.0000 0.0000 0.0000 -8.6667 0.0000 0.0000
# 5 0.0000 0.0000 0.0000 0.0000 41.7206 0.0000
# 6 0.0000 0.0000 0.0000 0.0000 0.0000 15.8206
#
#
#
# Elastic Compliance Matrix: (Units=1/GPa)
#
#
# Indices 1 2 3 4 5 6 
#
# 1 0.013239 -0.008038 -0.006150 0.000000 0.000000 0.000000
# 2 -0.008038 0.076252 -0.009212 0.000000 0.000000 0.000000
# 3 -0.006150 -0.009212 0.010610 0.000000 0.000000 0.000000
# 4 0.000000 0.000000 0.000000 -0.115384 0.000000 0.000000
# 5 0.000000 0.000000 0.000000 0.000000 0.023969 0.000000
# 6 0.000000 0.000000 0.000000 0.000000 0.000000 0.063209
#
#
# Mechanical properties :
#
#
# Convention : Reuss Voigt Hill
#
# Bulk Modulus (GPa) = 18.76154 75.81619 47.28886
# Shear Modulus (GPa) = 36.64038 21.72494 29.18266
#
# Velocity S-wave (km/s) = 4.53755 3.49398 4.04952
# Velocity P-wave (km/s) = 6.16402 7.67338 6.95974
#
# Compressibility (1/GPa) = 0.05330053
#
# Stress axis : x y z
#
# Youngs Moduli (GPa) = 75.53302 13.11438 94.25413
#
# Poissons Ratio (x) = 0.10541 0.57969
# Poissons Ratio (y) = 0.60710 0.86831
# Poissons Ratio (z) = 0.46455 0.12081
#
# Static dielectric constant tensor:
#      x y z
#    x 3.466340 0.000000 0.000000 
#    y 0.000000 2.728850 0.000000 
#    z 0.000000 0.000000 3.537800 
# 
# 
# High freq. dielectric constant tensor:
#      x y z
#    x 1.696910 0.000000 0.000000 
#    y 0.000000 1.624270 0.000000 
#    z 0.000000 0.000000 1.707050 
# 
# From -- ./inp_files/6274.got.cif
#   From: 2010.03.12/outbox.cif.g09.slc.cpg/sg25_4_cif.got.tgz:6274.got - 2010.04.14 03:30:10.
