data_PCOD8166974
_publ_section_title
;
Structure prediction by ZEFSAII (Michael W. Deem and Ramdas Pophale) SiO2 
 PCOD8166974
Probable space group: P M M 2
;
_chemical_formula_sum "Si O2"
_cell_formula_units_Z 24
_cell_length_a 8.821500
_cell_length_b 11.655726
_cell_length_c 12.508024
_cell_angle_alpha 90.000000
_cell_angle_beta 90.000000
_cell_angle_gamma 90.000000
_cell_volume 1286.087372
_symmetry_space_group_name_H-M "P M M 2"
_symmetry_group_IT_number 25
_symmetry_cell_setting 'orthorhombic'
loop_
_space_group_symop_operation_xyz
x,y,z
-x,-y,z
-x,y,z
x,-y,z
loop_
_atom_site_type_symbol
_atom_site_label
_atom_site_fract_x
_atom_site_fract_y
_atom_site_fract_z
Si Si1 0.824787 0.131536 0.601540
Si Si2 0.826041 0.865155 0.218582
Si Si3 0.677079 0.730344 0.030046
Si Si4 0.673982 0.500000 0.328788
Si Si5 0.178367 0.500000 0.099876
Si Si6 0.324259 0.745806 0.414058
Si Si7 0.825531 0.868030 0.848032
O O1 0.721283 0.217179 0.533238
O O2 0.795614 0.161775 0.724827
O O3 0.000000 0.150425 0.571928
O O4 0.778662 0.000000 0.578212
O O5 0.722892 0.812059 0.127104
O O6 0.776293 0.818905 0.333101
O O7 0.000000 0.830713 0.197621
O O8 0.803003 0.000000 0.217226
O O9 0.500000 0.707468 0.036318
O O10 0.760940 0.609961 0.037921
O O11 0.717840 0.788198 0.917807
O O12 0.500000 0.500000 0.290388
O O13 0.775102 0.500000 0.223493
O O14 0.710753 0.388997 0.400333
O O15 0.000000 0.500000 0.093938
O O16 0.500000 0.772599 0.393511
O O17 0.000000 0.845080 0.878849
O O18 0.784868 0.000000 0.871405
#
# Coordination Sequence:
#
# PCOD8166974 Si02
#       7
#     4   4   4   2   2   4   4
#     4   9  19  37  60  85 116 153 193 239 288 341
#     4  11  23  37  55  82 116 151 190 237 287 346
#     4  12  24  38  58  86 119 150 188 240 294 346
#     4  10  22  40  57  80 115 154 191 239 293 341
#     4  12  24  40  63  84 109 154 201 237 283 345
#     4  11  22  36  57  83 115 151 192 241 294 348
#     4   9  19  38  62  86 115 154 198 242 288 342
#
# _framework density 18.661252000000001
#
# number of rings (size 3 to 8) (size 9 to 14) (size 15 to 20)
#    0.000    1.500    1.667    5.250    0.000    7.333 
#    0.000    2.500    0.000    4.000    0.000    0.000 
#    0.000    0.000    0.000    0.000    0.000    0.000 
#
# Total GULP energy -297726.995060 kJ/mol
# GULP energy per Si atom -12405.291461 kJ/mol
# Density = 1.861878 g / cm^3
# Si number density = 18.661252 Si / 1000 Ang^3
#
#
#
# Elastic Constant Matrix: (Units=GPa)
#
#
# Indices 1 2 3 4 5 6 
#
# 1 111.3542 67.1333 44.8887 0.0000 0.0000 0.0000
# 2 67.1333 109.5149 58.4071 0.0000 0.0000 0.0000
# 3 44.8887 58.4071 100.3390 0.0000 0.0000 0.0000
# 4 0.0000 0.0000 0.0000 -42.9465 0.0000 0.0000
# 5 0.0000 0.0000 0.0000 0.0000 25.4749 0.0000
# 6 0.0000 0.0000 0.0000 0.0000 0.0000 -32.0571
#
#
#
# Elastic Compliance Matrix: (Units=1/GPa)
#
#
# Indices 1 2 3 4 5 6 
#
# 1 0.014491 -0.007868 -0.001903 0.000000 0.000000 0.000000
# 2 -0.007868 0.017515 -0.006675 0.000000 0.000000 0.000000
# 3 -0.001903 -0.006675 0.014703 0.000000 0.000000 0.000000
# 4 0.000000 0.000000 0.000000 -0.023285 0.000000 0.000000
# 5 0.000000 0.000000 0.000000 0.000000 0.039254 0.000000
# 6 0.000000 0.000000 0.000000 0.000000 0.000000 -0.031194
#
#
# Mechanical properties :
#
#
# Convention : Reuss Voigt Hill
#
# Bulk Modulus (GPa) = 72.37856 73.56291 72.97074
# Shear Modulus (GPa) = 72.48314 0.14617 36.31465
#
# Velocity S-wave (km/s) = 6.23906 0.28018 4.41613
# Velocity P-wave (km/s) = 9.52737 6.29368 8.07407
#
# Compressibility (1/GPa) = 0.01381625
#
# Stress axis : x y z
#
# Youngs Moduli (GPa) = 69.00822 57.09552 68.01333
#
# Poissons Ratio (x) = 0.44925 0.12941
# Poissons Ratio (y) = 0.54298 0.45400
# Poissons Ratio (z) = 0.13130 0.38112
#
# Static dielectric constant tensor:
#      x y z
#    x 3.473720 0.000000 0.000000 
#    y 0.000000 3.547250 0.000000 
#    z 0.000000 0.000000 3.388080 
# 
# 
# High freq. dielectric constant tensor:
#      x y z
#    x 1.730340 0.000000 0.000000 
#    y 0.000000 1.728140 0.000000 
#    z 0.000000 0.000000 1.724710 
# 
# From -- ./inp_files/3935.got.cif
#   From: 2010.03.12/outbox.cif.g09.slc.cpg/sg25_2_cif.got.tgz:3935.got - 2010.04.14 03:30:10.
