data_PCOD8166186
_publ_section_title
;
Structure prediction by ZEFSAII (Michael W. Deem and Ramdas Pophale) SiO2 
 PCOD8166186
Probable space group: I 21 21 21
;
_chemical_formula_sum "Si O2"
_cell_formula_units_Z 36
_cell_length_a 8.668852
_cell_length_b 8.677367
_cell_length_c 18.796325
_cell_angle_alpha 90.000000
_cell_angle_beta 90.000000
_cell_angle_gamma 90.000000
_cell_volume 1413.912389
_symmetry_space_group_name_H-M "I 21 21 21"
_symmetry_group_IT_number 24
_symmetry_cell_setting 'orthorhombic'
loop_
_space_group_symop_operation_xyz
x,y,z
-x,1/2-y,z
x,-y,1/2-z
1/2-x,y,-z
1/2+x,1/2+y,1/2+z
1/2-x,-y,1/2+z
1/2+x,1/2-y,-z
-x,1/2+y,1/2-z
loop_
_atom_site_type_symbol
_atom_site_label
_atom_site_fract_x
_atom_site_fract_y
_atom_site_fract_z
Si Si1 0.774457 0.000000 0.250000
Si Si2 0.000000 0.250000 0.294549
Si Si3 0.983840 0.077842 0.854779
Si Si4 0.490186 0.921988 0.523197
Si Si5 0.250000 0.641913 0.000000
Si Si6 0.258448 0.104011 0.607158
O O1 0.882755 0.150584 0.246543
O O2 0.666461 0.998532 0.179820
O O3 0.903373 0.362498 0.343955
O O4 0.000000 0.250000 0.822653
O O5 0.977554 0.083832 0.939348
O O6 0.133518 0.972280 0.839588
O O7 0.500000 0.750000 0.555641
O O8 0.625992 0.040689 0.544637
O O9 0.324760 0.984620 0.547972
O O10 0.182985 0.752556 0.936840
#
# Coordination Sequence:
#
# PCOD8166186 Si02
#       6
#     4   4   8   8   4   8
#     4  12  32  54  78 112 158 228 276 332 404 482
#     4  12  30  52  80 114 154 212 282 340 392 490
#     4  11  28  48  79 115 161 212 265 333 403 497
#     4  11  25  43  75 119 162 200 257 328 425 475
#     4  12  22  42  74 120 158 200 254 324 418 480
#     4  12  25  48  81 121 153 206 265 344 412 482
#
# _framework density 25.461266999999999
#
# number of rings (size 3 to 8) (size 9 to 14) (size 15 to 20)
#    0.000    0.444    4.444    1.333   12.444    1.778 
#    0.000    0.000    0.000    0.000    0.000    0.000 
#    0.000    0.000    0.000    0.000    0.000    0.000 
#
# Total GULP energy -223064.567081 kJ/mol
# GULP energy per Si atom -12392.475949 kJ/mol
# Density = 2.540332 g / cm^3
# Si number density = 25.461267 Si / 1000 Ang^3
#
#
#
# Elastic Constant Matrix: (Units=GPa)
#
#
# Indices 1 2 3 4 5 6 
#
# 1 176.0848 86.6435 53.8804 0.0000 0.0000 0.0000
# 2 86.6435 170.9869 35.2866 0.0000 0.0000 0.0000
# 3 53.8804 35.2866 72.8133 0.0000 0.0000 0.0000
# 4 0.0000 0.0000 0.0000 19.1574 0.0000 0.0000
# 5 0.0000 0.0000 0.0000 0.0000 52.3480 0.0000
# 6 0.0000 0.0000 0.0000 0.0000 0.0000 54.6732
#
#
#
# Elastic Compliance Matrix: (Units=1/GPa)
#
#
# Indices 1 2 3 4 5 6 
#
# 1 0.008896 -0.003499 -0.004887 0.000000 0.000000 0.000000
# 2 -0.003499 0.007875 -0.001227 0.000000 0.000000 0.000000
# 3 -0.004887 -0.001227 0.017945 0.000000 0.000000 0.000000
# 4 0.000000 0.000000 0.000000 0.052199 0.000000 0.000000
# 5 0.000000 0.000000 0.000000 0.000000 0.019103 0.000000
# 6 0.000000 0.000000 0.000000 0.000000 0.000000 0.018290
#
#
# Mechanical properties :
#
#
# Convention : Reuss Voigt Hill
#
# Bulk Modulus (GPa) = 64.56184 85.72288 75.14236
# Shear Modulus (GPa) = 33.62500 41.50735 37.56618
#
# Velocity S-wave (km/s) = 3.63799 4.04197 3.84529
# Velocity P-wave (km/s) = 6.56191 7.45147 7.02079
#
# Compressibility (1/GPa) = 0.01548903
#
# Stress axis : x y z
#
# Youngs Moduli (GPa) = 112.40381 126.98667 55.72657
#
# Poissons Ratio (x) = 0.44439 0.27235
# Poissons Ratio (y) = 0.39336 0.06836
# Poissons Ratio (z) = 0.54935 0.15578
#
# Static dielectric constant tensor:
#      x y z
#    x 4.632970 0.000000 0.000000 
#    y 0.000000 5.268030 0.000000 
#    z 0.000000 0.000000 4.287290 
# 
# 
# High freq. dielectric constant tensor:
#      x y z
#    x 2.022190 0.000000 0.000000 
#    y 0.000000 2.029250 0.000000 
#    z 0.000000 0.000000 1.997200 
# 
# From -- ./inp_files/32530.got.cif
#   From: 2010.03.12/outbox.cif.g09.slc.cpg/sg24_17_cif.got.tgz:32530.got - 2010.04.14 03:06:53.
