data_PCOD8166667
_publ_section_title
;
Structure prediction by ZEFSAII (Michael W. Deem and Ramdas Pophale) SiO2 
 PCOD8166667
Probable space group: P M M 2
;
_chemical_formula_sum "Si O2"
_cell_formula_units_Z 32
_cell_length_a 9.072454
_cell_length_b 9.509674
_cell_length_c 20.804084
_cell_angle_alpha 90.000000
_cell_angle_beta 90.000000
_cell_angle_gamma 90.000000
_cell_volume 1794.894814
_symmetry_space_group_name_H-M "P M M 2"
_symmetry_group_IT_number 25
_symmetry_cell_setting 'orthorhombic'
loop_
_space_group_symop_operation_xyz
x,y,z
-x,-y,z
-x,y,z
x,-y,z
loop_
_atom_site_type_symbol
_atom_site_label
_atom_site_fract_x
_atom_site_fract_y
_atom_site_fract_z
Si Si1 0.173021 0.163044 0.956220
Si Si2 0.666424 0.832513 0.577346
Si Si3 0.172576 0.837166 0.450265
Si Si4 0.824532 0.656599 0.331825
Si Si5 0.669879 0.665909 0.066184
Si Si6 0.163925 0.666963 0.191517
Si Si7 0.833416 0.167845 0.702687
Si Si8 0.666079 0.167160 0.827792
O O1 0.249123 0.218363 0.891207
O O2 0.000000 0.187157 0.949081
O O3 0.210906 0.000000 0.968896
O O4 0.233312 0.254428 0.014282
O O5 0.500000 0.775217 0.579153
O O6 0.745310 0.777204 0.512979
O O7 0.752527 0.773341 0.639298
O O8 0.669536 0.000000 0.578567
O O9 0.235869 0.756808 0.387994
O O10 0.000000 0.810484 0.460460
O O11 0.207947 0.000000 0.439483
O O12 0.760404 0.500000 0.343027
O O13 0.776748 0.717095 0.261632
O O14 0.000000 0.651866 0.333246
O O15 0.500000 0.708328 0.058363
O O16 0.694060 0.500000 0.057413
O O17 0.724177 0.717023 0.136334
O O18 0.153795 0.500000 0.193822
O O19 0.000000 0.728238 0.177325
O O20 0.749129 0.227207 0.765199
O O21 0.000000 0.225089 0.703450
O O22 0.832333 0.000000 0.702928
O O23 0.500000 0.226969 0.829150
O O24 0.664669 0.000000 0.824827
#
# Coordination Sequence:
#
# PCOD8166667 Si02
#       8
#     4   4   4   4   4   4   4   4
#     4  10  20  33  49  70  96 126 159 194 233 277
#     4   9  16  25  37  55  82 115 147 179 219 266
#     4   9  16  26  41  62  87 113 142 179 221 262
#     4   8  14  26  45  66  86 112 147 183 219 262
#     4  10  20  33  50  72  96 123 156 193 234 280
#     4   8  14  27  47  67  87 114 149 188 227 267
#     4   9  15  23  37  58  84 114 150 189 223 259
#     4   9  16  26  41  62  90 122 152 185 228 274
#
# _framework density 17.828341999999999
#
# number of rings (size 3 to 8) (size 9 to 14) (size 15 to 20)
#    0.000    3.000    0.000    2.625    0.000    6.000 
#    0.000    1.250    0.000    3.375    0.000    0.875 
#    0.000    5.000    0.000    0.000    0.000    0.000 
#
# Total GULP energy -396702.413977 kJ/mol
# GULP energy per Si atom -12396.950437 kJ/mol
# Density = 1.778776 g / cm^3
# Si number density = 17.828342 Si / 1000 Ang^3
#
#
#
# Elastic Constant Matrix: (Units=GPa)
#
#
# Indices 1 2 3 4 5 6 
#
# 1 110.1150 23.5525 73.8872 0.0000 0.0000 0.0000
# 2 23.5525 24.8818 36.6893 0.0000 0.0000 0.0000
# 3 73.8872 36.6893 184.8474 0.0000 0.0000 0.0000
# 4 0.0000 0.0000 0.0000 -2.6654 0.0000 0.0000
# 5 0.0000 0.0000 0.0000 0.0000 19.8733 0.0000
# 6 0.0000 0.0000 0.0000 0.0000 0.0000 12.8746
#
#
#
# Elastic Compliance Matrix: (Units=1/GPa)
#
#
# Indices 1 2 3 4 5 6 
#
# 1 0.013142 -0.006636 -0.003936 0.000000 0.000000 0.000000
# 2 -0.006636 0.060171 -0.009290 0.000000 0.000000 0.000000
# 3 -0.003936 -0.009290 0.008827 0.000000 0.000000 0.000000
# 4 0.000000 0.000000 0.000000 -0.375178 0.000000 0.000000
# 5 0.000000 0.000000 0.000000 0.000000 0.050319 0.000000
# 6 0.000000 0.000000 0.000000 0.000000 0.000000 0.077672
#
#
# Mechanical properties :
#
#
# Convention : Reuss Voigt Hill
#
# Bulk Modulus (GPa) = 23.57660 65.34469 44.46064
# Shear Modulus (GPa) = -44.97042 18.39752 -13.28645
#
# Velocity S-wave (km/s) = -5.02781 3.21584 -2.73288
# Velocity P-wave (km/s) = 4.52241 7.10778 3.87739
#
# Compressibility (1/GPa) = 0.04241493
#
# Stress axis : x y z
#
# Youngs Moduli (GPa) = 76.09323 16.61940 113.28742
#
# Poissons Ratio (x) = 0.11029 0.44589
# Poissons Ratio (y) = 0.50496 1.05248
# Poissons Ratio (z) = 0.29949 0.15440
#
# Static dielectric constant tensor:
#      x y z
#    x 3.338440 0.000000 0.000000 
#    y 0.000000 2.795840 0.000000 
#    z 0.000000 0.000000 3.691300 
# 
# 
# High freq. dielectric constant tensor:
#      x y z
#    x 1.686470 0.000000 0.000000 
#    y 0.000000 1.623160 0.000000 
#    z 0.000000 0.000000 1.710660 
# 
# From -- ./inp_files/6261.got.cif
#   From: 2010.03.12/outbox.cif.g09.slc.cpg/sg25_4_cif.got.tgz:6261.got - 2010.04.14 03:30:10.
