data_PCOD8166471
_publ_section_title
;
Structure prediction by ZEFSAII (Michael W. Deem and Ramdas Pophale) SiO2 
 PCOD8166471
Probable space group: P M M 2
;
_chemical_formula_sum "Si O2"
_cell_formula_units_Z 32
_cell_length_a 9.254412
_cell_length_b 20.379313
_cell_length_c 9.758108
_cell_angle_alpha 90.000000
_cell_angle_beta 90.000000
_cell_angle_gamma 90.000000
_cell_volume 1840.365105
_symmetry_space_group_name_H-M "P M M 2"
_symmetry_group_IT_number 25
_symmetry_cell_setting 'orthorhombic'
loop_
_space_group_symop_operation_xyz
x,y,z
-x,-y,z
-x,y,z
x,-y,z
loop_
_atom_site_type_symbol
_atom_site_label
_atom_site_fract_x
_atom_site_fract_y
_atom_site_fract_z
Si Si1 0.662535 0.427324 0.755640
Si Si2 0.670327 0.825113 0.747662
Si Si3 0.838657 0.306174 0.427023
Si Si4 0.333691 0.180742 0.431135
Si Si5 0.666134 0.075080 0.209291
Si Si6 0.167673 0.923087 0.938352
Si Si7 0.836834 0.695953 0.753508
Si Si8 0.662067 0.572123 0.429685
O O1 0.500000 0.414579 0.809649
O O2 0.715542 0.500000 0.802873
O O3 0.767757 0.370964 0.815055
O O4 0.662307 0.423815 0.592660
O O5 0.500000 0.823022 0.778314
O O6 0.704344 0.835390 0.587726
O O7 0.743624 0.886312 0.821475
O O8 0.741422 0.757697 0.802433
O O9 0.756081 0.242085 0.373477
O O10 0.836396 0.307579 0.590388
O O11 0.764176 0.371733 0.366921
O O12 0.000000 0.303890 0.368687
O O13 0.500000 0.200655 0.417002
O O14 0.293484 0.117316 0.342260
O O15 0.500000 0.085898 0.164576
O O16 0.695173 0.000000 0.250271
O O17 0.768402 0.097314 0.085371
O O18 0.000000 0.902952 0.932993
O O19 0.189657 0.000000 0.912287
O O20 0.000000 0.703131 0.809694
O O21 0.500000 0.583750 0.375047
O O22 0.717700 0.500000 0.383139
#
# Coordination Sequence:
#
# PCOD8166471 Si02
#       8
#     4   4   4   4   4   4   4   4
#     4   8  13  21  33  50  75 110 151 190 227 271
#     4  10  19  31  49  71  95 125 159 194 233 277
#     4   9  16  24  36  56  84 117 150 186 228 274
#     4   9  18  31  48  70  95 123 155 193 234 276
#     4   9  18  34  54  73  93 119 153 192 232 275
#     4  10  21  36  52  71  96 124 153 188 232 280
#     4   9  16  25  37  56  85 118 151 189 232 276
#     4   8  13  21  33  49  73 109 150 188 226 269
#
# _framework density 17.387853
#
# number of rings (size 3 to 8) (size 9 to 14) (size 15 to 20)
#    0.000    3.000    0.000    2.250    0.000    5.750 
#    0.000    3.750    0.000    1.500    0.000    0.000 
#    0.000    1.000    0.000    8.750    0.000   14.625 
#
# Total GULP energy -396703.641049 kJ/mol
# GULP energy per Si atom -12396.988783 kJ/mol
# Density = 1.734828 g / cm^3
# Si number density = 17.387853 Si / 1000 Ang^3
#
#
#
# Elastic Constant Matrix: (Units=GPa)
#
#
# Indices 1 2 3 4 5 6 
#
# 1 124.5276 78.8092 38.8202 0.0000 0.0000 0.0000
# 2 78.8092 128.2913 45.7885 0.0000 0.0000 0.0000
# 3 38.8202 45.7885 40.2074 0.0000 0.0000 0.0000
# 4 0.0000 0.0000 0.0000 1.7479 0.0000 0.0000
# 5 0.0000 0.0000 0.0000 0.0000 15.2929 0.0000
# 6 0.0000 0.0000 0.0000 0.0000 0.0000 30.7076
#
#
#
# Elastic Compliance Matrix: (Units=1/GPa)
#
#
# Indices 1 2 3 4 5 6 
#
# 1 0.014020 -0.006371 -0.006282 0.000000 0.000000 0.000000
# 2 -0.006371 0.016027 -0.012101 0.000000 0.000000 0.000000
# 3 -0.006282 -0.012101 0.044717 0.000000 0.000000 0.000000
# 4 0.000000 0.000000 0.000000 0.572118 0.000000 0.000000
# 5 0.000000 0.000000 0.000000 0.000000 0.065390 0.000000
# 6 0.000000 0.000000 0.000000 0.000000 0.000000 0.032565
#
#
# Mechanical properties :
#
#
# Convention : Reuss Voigt Hill
#
# Bulk Modulus (GPa) = 39.59215 68.87358 54.23287
# Shear Modulus (GPa) = 6.22848 18.19023 12.20935
#
# Velocity S-wave (km/s) = 1.89469 3.23793 2.65274
# Velocity P-wave (km/s) = 5.25413 7.32633 6.37499
#
# Compressibility (1/GPa) = 0.02525753
#
# Stress axis : x y z
#
# Youngs Moduli (GPa) = 71.32466 62.39366 22.36300
#
# Poissons Ratio (x) = 0.39749 0.14048
# Poissons Ratio (y) = 0.45439 0.27062
# Poissons Ratio (z) = 0.44804 0.75503
#
# Static dielectric constant tensor:
#      x y z
#    x 3.423800 0.000000 0.000000 
#    y 0.000000 3.468730 0.000000 
#    z 0.000000 0.000000 2.683920 
# 
# 
# High freq. dielectric constant tensor:
#      x y z
#    x 1.679190 0.000000 0.000000 
#    y 0.000000 1.685770 0.000000 
#    z 0.000000 0.000000 1.604360 
# 
# From -- ./inp_files/4428.got.cif
#   From: 2010.03.12/outbox.cif.g09.slc.cpg/sg25_3_cif.got.tgz:4428.got - 2010.04.14 03:30:10.
