data_PCOD8166281
_publ_section_title
;
Structure prediction by ZEFSAII (Michael W. Deem and Ramdas Pophale) SiO2 
 PCOD8166281
Probable space group: I 21 21 21
;
_chemical_formula_sum "Si O2"
_cell_formula_units_Z 32
_cell_length_a 5.271859
_cell_length_b 17.834111
_cell_length_c 13.275009
_cell_angle_alpha 90.000000
_cell_angle_beta 90.000000
_cell_angle_gamma 90.000000
_cell_volume 1248.101990
_symmetry_space_group_name_H-M "I 21 21 21"
_symmetry_group_IT_number 24
_symmetry_cell_setting 'orthorhombic'
loop_
_space_group_symop_operation_xyz
x,y,z
-x,1/2-y,z
x,-y,1/2-z
1/2-x,y,-z
1/2+x,1/2+y,1/2+z
1/2-x,-y,1/2+z
1/2+x,1/2-y,-z
-x,1/2+y,1/2-z
loop_
_atom_site_type_symbol
_atom_site_label
_atom_site_fract_x
_atom_site_fract_y
_atom_site_fract_z
Si Si1 0.750000 0.867465 0.000000
Si Si2 0.000000 0.250000 0.629926
Si Si3 0.625958 0.461693 0.599823
Si Si4 0.500000 0.750000 0.736941
Si Si5 0.997243 0.000000 0.750000
Si Si6 0.647391 0.104867 0.889247
O O1 0.643477 0.917643 0.904704
O O2 0.965018 0.819299 0.945528
O O3 0.252743 0.233632 0.695298
O O4 0.750000 0.431217 0.500000
O O5 0.813846 0.442526 0.691060
O O6 0.595441 0.551757 0.596711
O O7 0.563436 0.820151 0.666222
O O8 0.836770 0.053782 0.822449
O O9 0.750000 0.125979 0.000000
#
# Coordination Sequence:
#
# PCOD8166281 Si02
#       6
#     4   4   8   4   4   8
#     4  12  30  54  82 130 174 216 296 360 438 508
#     4  12  33  55  84 126 176 238 278 358 440 512
#     4  12  27  48  89 123 166 218 288 359 426 510
#     4  12  35  53  86 124 178 232 290 342 442 520
#     4  12  28  50  90 128 166 220 292 356 442 500
#     4  12  29  56  83 128 168 228 286 360 426 519
#
# _framework density 25.638933000000002
#
# number of rings (size 3 to 8) (size 9 to 14) (size 15 to 20)
#    0.000    0.000    3.750    1.500   19.250    2.000 
#    0.000    0.000    0.000    0.000    0.000    0.000 
#    0.000    0.000    0.000    0.000    0.000    0.000 
#
# Total GULP energy -198273.316324 kJ/mol
# GULP energy per Si atom -12392.082270 kJ/mol
# Density = 2.558058 g / cm^3
# Si number density = 25.638933 Si / 1000 Ang^3
#
#
#
# Elastic Constant Matrix: (Units=GPa)
#
#
# Indices 1 2 3 4 5 6 
#
# 1 145.2635 64.1090 72.9291 0.0000 0.0000 0.0000
# 2 64.1090 176.7299 76.8463 0.0000 0.0000 0.0000
# 3 72.9291 76.8463 181.7292 0.0002 0.0000 0.0001
# 4 0.0000 0.0000 0.0002 15.9370 0.0000 0.0000
# 5 0.0000 0.0000 0.0000 0.0000 49.7431 0.0000
# 6 0.0000 0.0000 0.0001 0.0000 0.0000 75.6062
#
#
#
# Elastic Compliance Matrix: (Units=1/GPa)
#
#
# Indices 1 2 3 4 5 6 
#
# 1 0.009232 -0.002129 -0.002804 0.000000 0.000000 0.000000
# 2 -0.002129 0.007424 -0.002285 0.000000 0.000000 0.000000
# 3 -0.002804 -0.002285 0.007594 0.000000 0.000000 0.000000
# 4 0.000000 0.000000 0.000000 0.062747 0.000000 0.000000
# 5 0.000000 0.000000 0.000000 0.000000 0.020103 0.000000
# 6 0.000000 0.000000 0.000000 0.000000 0.000000 0.013226
#
#
# Mechanical properties :
#
#
# Convention : Reuss Voigt Hill
#
# Bulk Modulus (GPa) = 101.90519 103.49907 102.70213
# Shear Modulus (GPa) = 36.22260 47.57982 41.90121
#
# Velocity S-wave (km/s) = 3.76280 4.31253 4.04701
# Velocity P-wave (km/s) = 7.66229 8.07792 7.87285
#
# Compressibility (1/GPa) = 0.00981304
#
# Stress axis : x y z
#
# Youngs Moduli (GPa) = 108.32230 134.69199 131.67823
#
# Poissons Ratio (x) = 0.28682 0.36926
# Poissons Ratio (y) = 0.23067 0.30087
# Poissons Ratio (z) = 0.30377 0.30776
#
# Static dielectric constant tensor:
#      x y z
#    x 5.266310 0.000000 0.000000 
#    y 0.000000 4.715020 0.000000 
#    z 0.000000 0.000000 4.730240 
# 
# 
# High freq. dielectric constant tensor:
#      x y z
#    x 2.042130 0.000000 0.000000 
#    y 0.000000 2.029060 0.000000 
#    z 0.000000 0.000000 2.043880 
# 
# From -- ./inp_files/23505.got.cif
#   From: 2010.03.12/outbox.cif.g09.slc.cpg/sg24_12_cif.got.tgz:23505.got - 2010.04.14 03:06:53.
