data_PCOD8166748
_publ_section_title
;
Structure prediction by ZEFSAII (Michael W. Deem and Ramdas Pophale) SiO2 
 PCOD8166748
Probable space group: P M M 2
;
_chemical_formula_sum "Si O2"
_cell_formula_units_Z 28
_cell_length_a 8.882382
_cell_length_b 15.347745
_cell_length_c 12.665207
_cell_angle_alpha 90.000000
_cell_angle_beta 90.000000
_cell_angle_gamma 90.000000
_cell_volume 1726.578441
_symmetry_space_group_name_H-M "P M M 2"
_symmetry_group_IT_number 25
_symmetry_cell_setting 'orthorhombic'
loop_
_space_group_symop_operation_xyz
x,y,z
-x,-y,z
-x,y,z
x,-y,z
loop_
_atom_site_type_symbol
_atom_site_label
_atom_site_fract_x
_atom_site_fract_y
_atom_site_fract_z
Si Si1 0.675828 0.399649 0.299470
Si Si2 0.830817 0.603437 0.509779
Si Si3 0.668276 0.908734 0.127723
Si Si4 0.319965 0.723665 0.113073
Si Si5 0.822311 0.271157 0.886896
Si Si6 0.324980 0.397574 0.722650
Si Si7 0.331299 0.904467 0.877045
O O1 0.500000 0.385998 0.319774
O O2 0.716728 0.500000 0.281058
O O3 0.761103 0.360201 0.400930
O O4 0.730353 0.350408 0.194413
O O5 0.829160 0.500000 0.504390
O O6 0.730216 0.634765 0.607883
O O7 0.000000 0.639461 0.523149
O O8 0.500000 0.913696 0.173358
O O9 0.740753 0.816486 0.162520
O O10 0.751916 0.000000 0.163105
O O11 0.663834 0.905144 0.002236
O O12 0.500000 0.727166 0.097414
O O13 0.246291 0.705382 0.000553
O O14 0.769587 0.347129 0.809761
O O15 0.771932 0.176572 0.840906
O O16 0.000000 0.271523 0.896049
O O17 0.500000 0.375046 0.734394
O O18 0.294240 0.500000 0.737858
O O19 0.500000 0.889613 0.832714
O O20 0.270957 0.000000 0.837440
#
# Coordination Sequence:
#
# PCOD8166748 Si02
#       7
#     4   4   4   4   4   4   4
#     4   9  17  29  45  64  86 114 148 184 221 263
#     4   9  17  30  48  68  88 109 139 184 233 273
#     4   7  10  19  37  58  78 104 141 183 219 246
#     4   9  17  29  43  61  88 121 156 186 214 260
#     4  11  21  30  43  67  99 127 151 185 231 280
#     4  10  20  34  51  67  86 117 156 193 227 269
#     4   8  14  27  46  64  85 117 155 190 222 262
#
# _framework density 16.217044000000001
#
# number of rings (size 3 to 8) (size 9 to 14) (size 15 to 20)
#    0.000    3.000    0.000    3.857    0.000    4.000 
#    0.000    1.429    0.000    0.000    0.000    1.000 
#    0.000    5.714    0.000    0.000    0.000    0.000 
#
# Total GULP energy -346872.928738 kJ/mol
# GULP energy per Si atom -12388.318883 kJ/mol
# Density = 1.618013 g / cm^3
# Si number density = 16.217044 Si / 1000 Ang^3
#
#
#
# Elastic Constant Matrix: (Units=GPa)
#
#
# Indices 1 2 3 4 5 6 
#
# 1 66.6431 34.1171 35.6514 0.0000 0.0000 0.0000
# 2 34.1171 86.6714 49.7593 0.0000 0.0000 0.0000
# 3 35.6514 49.7593 84.5054 0.0000 0.0000 0.0000
# 4 0.0000 0.0000 0.0000 1.0451 0.0000 0.0000
# 5 0.0000 0.0000 0.0000 0.0000 15.5567 0.0000
# 6 0.0000 0.0000 0.0000 0.0000 0.0000 16.1100
#
#
#
# Elastic Compliance Matrix: (Units=1/GPa)
#
#
# Indices 1 2 3 4 5 6 
#
# 1 0.020576 -0.004707 -0.005909 0.000000 0.000000 0.000000
# 2 -0.004707 0.018507 -0.008912 0.000000 0.000000 0.000000
# 3 -0.005909 -0.008912 0.019574 0.000000 0.000000 0.000000
# 4 0.000000 0.000000 0.000000 0.956868 0.000000 0.000000
# 5 0.000000 0.000000 0.000000 0.000000 0.064281 0.000000
# 6 0.000000 0.000000 0.000000 0.000000 0.000000 0.062073
#
#
# Mechanical properties :
#
#
# Convention : Reuss Voigt Hill
#
# Bulk Modulus (GPa) = 51.01639 52.98616 52.00128
# Shear Modulus (GPa) = 4.21064 14.42851 9.31957
#
# Velocity S-wave (km/s) = 1.61309 2.98604 2.39984
# Velocity P-wave (km/s) = 5.91576 6.68077 6.30987
#
# Compressibility (1/GPa) = 0.01960154
#
# Stress axis : x y z
#
# Youngs Moduli (GPa) = 48.59995 54.03368 51.08836
#
# Poissons Ratio (x) = 0.25434 0.30189
# Poissons Ratio (y) = 0.22876 0.45528
# Poissons Ratio (z) = 0.28718 0.48153
#
# Static dielectric constant tensor:
#      x y z
#    x 2.979950 0.000000 0.000000 
#    y 0.000000 3.574010 0.000000 
#    z 0.000000 0.000000 2.852770 
# 
# 
# High freq. dielectric constant tensor:
#      x y z
#    x 1.610470 0.000000 0.000000 
#    y 0.000000 1.622510 0.000000 
#    z 0.000000 0.000000 1.588270 
# 
# From -- ./inp_files/4336.got.cif
#   From: 2010.03.12/outbox.cif.g09.slc.cpg/sg25_3_cif.got.tgz:4336.got - 2010.04.14 03:30:10.
