data_PCOD8166845
_publ_section_title
;
Structure prediction by ZEFSAII (Michael W. Deem and Ramdas Pophale) SiO2 
 PCOD8166845
Probable space group: P M M 2
;
_chemical_formula_sum "Si O2"
_cell_formula_units_Z 32
_cell_length_a 15.053242
_cell_length_b 17.118702
_cell_length_c 6.732502
_cell_angle_alpha 90.000000
_cell_angle_beta 90.000000
_cell_angle_gamma 90.000000
_cell_volume 1734.911663
_symmetry_space_group_name_H-M "P M M 2"
_symmetry_group_IT_number 25
_symmetry_cell_setting 'orthorhombic'
loop_
_space_group_symop_operation_xyz
x,y,z
-x,-y,z
-x,y,z
x,-y,z
loop_
_atom_site_type_symbol
_atom_site_label
_atom_site_fract_x
_atom_site_fract_y
_atom_site_fract_z
Si Si1 0.600509 0.200770 0.531740
Si Si2 0.322027 0.697303 0.866982
Si Si3 0.822027 0.197303 0.079954
Si Si4 0.100973 0.845458 0.681274
Si Si5 0.747307 0.410570 0.529997
Si Si6 0.247308 0.089430 0.416938
Si Si7 0.600973 0.654542 0.265661
Si Si8 0.100509 0.700770 0.415196
O O1 0.500000 0.169030 0.526705
O O2 0.615034 0.248005 0.734898
O O3 0.666609 0.127990 0.518797
O O4 0.620202 0.258285 0.347320
O O5 0.274776 0.631135 0.736611
O O6 0.250000 0.750000 0.973468
O O7 0.382011 0.653707 0.030430
O O8 0.774776 0.131135 0.210324
O O9 0.884967 0.251994 0.212039
O O10 0.882011 0.153707 0.916505
O O11 0.165139 0.905921 0.569707
O O12 0.120202 0.758285 0.599617
O O13 0.000000 0.870976 0.637103
O O14 0.769569 0.500000 0.575283
O O15 0.665139 0.405921 0.377228
O O16 0.833391 0.372010 0.428138
O O17 0.269569 0.000000 0.371652
O O18 0.500000 0.629023 0.309832
O O19 0.000000 0.669030 0.420232
#
# Coordination Sequence:
#
# PCOD8166845 Si02
#       8
#     4   4   4   4   4   4   4   4
#     4  10  20  36  60  86 110 146 194 234 275 339
#     4  11  18  37  62  85 108 146 200 236 276 331
#     4  11  18  37  62  85 108 146 200 236 276 331
#     4  10  20  37  61  84 110 147 190 237 282 333
#     4  11  23  37  55  84 121 152 184 235 292 343
#     4  11  23  37  55  84 121 152 184 235 292 343
#     4  10  20  37  61  84 110 147 190 237 282 333
#     4  10  20  36  60  86 110 146 194 234 275 339
#
# _framework density 18.444744
#
# number of rings (size 3 to 8) (size 9 to 14) (size 15 to 20)
#    0.000    1.500    5.000    2.250    0.000    3.000 
#    0.000    0.000    0.000    0.000    0.000    0.000 
#    0.000    0.000    0.000    0.000    0.000    0.000 
#
# Total GULP energy -396922.218318 kJ/mol
# GULP energy per Si atom -12403.819322 kJ/mol
# Density = 1.840276 g / cm^3
# Si number density = 18.444744 Si / 1000 Ang^3
#
#
#
# Elastic Constant Matrix: (Units=GPa)
#
#
# Indices 1 2 3 4 5 6 
#
# 1 102.9260 40.5497 31.6401 0.0000 0.0000 0.0000
# 2 40.5497 96.8059 32.4368 0.0000 0.0000 0.0000
# 3 31.6401 32.4368 118.3729 0.0000 0.0000 0.0000
# 4 0.0000 0.0000 0.0000 15.8962 0.0000 0.0000
# 5 0.0000 0.0000 0.0000 0.0000 29.1973 0.0000
# 6 0.0000 0.0000 0.0000 0.0000 0.0000 7.7630
#
#
#
# Elastic Compliance Matrix: (Units=1/GPa)
#
#
# Indices 1 2 3 4 5 6 
#
# 1 0.012061 -0.004374 -0.002025 0.000000 0.000000 0.000000
# 2 -0.004374 0.012960 -0.002382 0.000000 0.000000 0.000000
# 3 -0.002025 -0.002382 0.009642 0.000000 0.000000 0.000000
# 4 0.000000 0.000000 0.000000 0.062908 0.000000 0.000000
# 5 0.000000 0.000000 0.000000 0.000000 0.034250 0.000000
# 6 0.000000 0.000000 0.000000 0.000000 0.000000 0.128816
#
#
# Mechanical properties :
#
#
# Convention : Reuss Voigt Hill
#
# Bulk Modulus (GPa) = 58.47642 58.59533 58.53588
# Shear Modulus (GPa) = 17.61178 24.80318 21.20748
#
# Velocity S-wave (km/s) = 3.09340 3.67103 3.39453
# Velocity P-wave (km/s) = 6.67317 7.05731 6.86793
#
# Compressibility (1/GPa) = 0.01710091
#
# Stress axis : x y z
#
# Youngs Moduli (GPa) = 82.90908 77.15932 103.71198
#
# Poissons Ratio (x) = 0.33746 0.21006
# Poissons Ratio (y) = 0.36261 0.24708
# Poissons Ratio (z) = 0.16793 0.18382
#
# Static dielectric constant tensor:
#      x y z
#    x 3.450840 0.000000 0.000000 
#    y 0.000000 3.037120 0.000000 
#    z 0.000000 0.000000 3.709500 
# 
# 
# High freq. dielectric constant tensor:
#      x y z
#    x 1.725980 0.000000 0.000000 
#    y 0.000000 1.682570 0.000000 
#    z 0.000000 0.000000 1.725860 
# 
# From -- ./inp_files/973.got.cif
#   From: 2010.03.12/outbox.cif.g09.slc.cpg/sg25_1_cif.got.tgz:973.got - 2010.04.14 03:30:10.
