data_PCOD8166276
_publ_section_title
;
Structure prediction by ZEFSAII (Michael W. Deem and Ramdas Pophale) SiO2 
 PCOD8166276
Probable space group: I 21 21 21
;
_chemical_formula_sum "Si O2"
_cell_formula_units_Z 28
_cell_length_a 25.399256
_cell_length_b 5.042290
_cell_length_c 8.439888
_cell_angle_alpha 90.000000
_cell_angle_beta 90.000000
_cell_angle_gamma 90.000000
_cell_volume 1080.899955
_symmetry_space_group_name_H-M "I 21 21 21"
_symmetry_group_IT_number 24
_symmetry_cell_setting 'orthorhombic'
loop_
_space_group_symop_operation_xyz
x,y,z
-x,1/2-y,z
x,-y,1/2-z
1/2-x,y,-z
1/2+x,1/2+y,1/2+z
1/2-x,-y,1/2+z
1/2+x,1/2-y,-z
-x,1/2+y,1/2-z
loop_
_atom_site_type_symbol
_atom_site_label
_atom_site_fract_x
_atom_site_fract_y
_atom_site_fract_z
Si Si1 0.644807 0.254496 0.854766
Si Si2 0.590342 0.912591 0.077061
Si Si3 0.500000 0.250000 0.636023
Si Si4 0.200402 0.104454 0.579549
O O1 0.623731 0.500000 0.750000
O O2 0.662355 0.000000 0.750000
O O3 0.692921 0.351929 0.963071
O O4 0.596612 0.175972 0.970090
O O5 0.647700 0.777679 0.090896
O O6 0.569515 0.000000 0.250000
O O7 0.549662 0.725187 0.984271
O O8 0.495549 0.500000 0.750000
O O9 0.250000 0.262073 0.500000
O O10 0.216987 0.000000 0.750000
#
# Coordination Sequence:
#
# PCOD8166276 Si02
#       4
#     8   8   4   8
#     4  12  26  49  83 117 165 215 269 340 404 484
#     4  12  29  56  85 122 171 216 280 340 418 496
#     4  12  34  54  90 126 160 216 278 348 422 490
#     4  12  28  51  83 127 168 223 279 339 410 492
#
# _framework density 25.904339
#
# number of rings (size 3 to 8) (size 9 to 14) (size 15 to 20)
#    0.000    0.000    5.714    1.714    8.000    3.429 
#    5.143    0.000    0.000    0.000    0.000    0.000 
#    0.000    0.000    0.000    0.000    0.000    0.000 
#
# Total GULP energy -173518.140796 kJ/mol
# GULP energy per Si atom -12394.152914 kJ/mol
# Density = 2.584538 g / cm^3
# Si number density = 25.904339 Si / 1000 Ang^3
#
#
#
# Elastic Constant Matrix: (Units=GPa)
#
#
# Indices 1 2 3 4 5 6 
#
# 1 129.3727 15.8458 55.1488 0.0000 0.0000 0.0000
# 2 15.8458 130.2561 64.2237 0.0000 0.0000 0.0000
# 3 55.1488 64.2237 229.7841 0.0000 0.0000 0.0000
# 4 0.0000 0.0000 0.0000 31.3161 0.0000 0.0000
# 5 0.0000 0.0000 0.0000 0.0000 59.4859 0.0000
# 6 0.0000 0.0000 0.0000 0.0000 0.0000 36.9962
#
#
#
# Elastic Compliance Matrix: (Units=1/GPa)
#
#
# Indices 1 2 3 4 5 6 
#
# 1 0.008611 -0.000033 -0.002057 0.000000 0.000000 0.000000
# 2 -0.000033 0.008904 -0.002481 0.000000 0.000000 0.000000
# 3 -0.002057 -0.002481 0.005539 0.000000 0.000000 0.000000
# 4 0.000000 0.000000 0.000000 0.031932 0.000000 0.000000
# 5 0.000000 0.000000 0.000000 0.000000 0.016811 0.000000
# 6 0.000000 0.000000 0.000000 0.000000 0.000000 0.027030
#
#
# Mechanical properties :
#
#
# Convention : Reuss Voigt Hill
#
# Bulk Modulus (GPa) = 71.88234 84.42770 78.15502
# Shear Modulus (GPa) = 44.40231 49.17261 46.78746
#
# Velocity S-wave (km/s) = 4.14465 4.36160 4.25451
# Velocity P-wave (km/s) = 7.12134 7.61759 7.37364
#
# Compressibility (1/GPa) = 0.01391162
#
# Stress axis : x y z
#
# Youngs Moduli (GPa) = 116.13515 112.30429 180.53657
#
# Poissons Ratio (x) = 0.00372 0.37142
# Poissons Ratio (y) = 0.00385 0.44787
# Poissons Ratio (z) = 0.23893 0.27860
#
# Static dielectric constant tensor:
#      x y z
#    x 4.637190 0.000000 0.000000 
#    y 0.000000 4.925700 0.000000 
#    z 0.000000 0.000000 5.396040 
# 
# 
# High freq. dielectric constant tensor:
#      x y z
#    x 2.028830 0.000000 0.000000 
#    y 0.000000 2.026800 0.000000 
#    z 0.000000 0.000000 2.072200 
# 
# From -- ./inp_files/16566.got.cif
#   From: 2010.03.12/outbox.cif.g09.slc.cpg/sg24_9_cif.got.tgz:16566.got - 2010.04.14 03:06:53.
