data_PCOD8166860
_publ_section_title
;
Structure prediction by ZEFSAII (Michael W. Deem and Ramdas Pophale) SiO2 
 PCOD8166860
Probable space group: P M M 2
;
_chemical_formula_sum "Si O2"
_cell_formula_units_Z 32
_cell_length_a 14.336813
_cell_length_b 8.688412
_cell_length_c 14.369459
_cell_angle_alpha 90.000000
_cell_angle_beta 90.000000
_cell_angle_gamma 90.000000
_cell_volume 1789.919275
_symmetry_space_group_name_H-M "P M M 2"
_symmetry_group_IT_number 25
_symmetry_cell_setting 'orthorhombic'
loop_
_space_group_symop_operation_xyz
x,y,z
-x,-y,z
-x,y,z
x,-y,z
loop_
_atom_site_type_symbol
_atom_site_label
_atom_site_fract_x
_atom_site_fract_y
_atom_site_fract_z
Si Si1 0.603533 0.818040 0.683380
Si Si2 0.750039 0.817091 0.331070
Si Si3 0.244519 0.183015 0.827076
Si Si4 0.603746 0.816598 0.183380
Si Si5 0.103544 0.816773 0.183380
Si Si6 0.892631 0.681477 0.683380
Si Si7 0.755481 0.183015 0.539684
Si Si8 0.249961 0.817091 0.035690
O O1 0.500000 0.742708 0.683380
O O2 0.660696 0.764873 0.774714
O O3 0.660697 0.764872 0.592046
O O4 0.593629 0.000000 0.683379
O O5 0.658192 0.759403 0.275749
O O6 0.841959 0.760251 0.275695
O O7 0.750894 0.749363 0.435203
O O8 0.748848 0.000000 0.335471
O O9 0.154553 0.251704 0.776187
O O10 0.234464 0.000000 0.825639
O O11 0.249106 0.250638 0.931557
O O12 0.500000 0.745303 0.183380
O O13 0.658192 0.759403 0.091012
O O14 0.599692 0.000000 0.183380
O O15 0.158041 0.760251 0.091065
O O16 0.000000 0.744623 0.183380
O O17 0.098984 0.000000 0.183380
O O18 0.881125 0.500000 0.683380
O O19 0.845448 0.748297 0.590573
O O20 0.000000 0.732791 0.683380
O O21 0.765535 0.000000 0.541121
O O22 0.251153 0.000000 0.031289
#
# Coordination Sequence:
#
# PCOD8166860 Si02
#       8
#     4   4   4   4   4   4   4   4
#     4   8  14  24  38  59  86 111 137 174 216 250
#     4   8  14  23  35  56  85 113 143 175 207 249
#     4   9  17  29  46  67  89 115 149 186 219 256
#     4   8  13  21  34  57  93 128 148 170 212 260
#     4   8  13  21  32  49  77 107 130 161 208 250
#     4  10  21  35  48  63  86 115 145 182 232 284
#     4   9  17  29  46  67  89 115 149 186 219 256
#     4   8  14  23  35  56  85 113 143 175 207 249
#
# _framework density 17.8779
#
# number of rings (size 3 to 8) (size 9 to 14) (size 15 to 20)
#    0.000    3.500    0.000    2.625    0.000    3.000 
#    0.000    7.500    0.000    6.000    0.000    3.500 
#    0.000   10.000    0.000    0.000    0.000    0.000 
#
# Total GULP energy -396574.976845 kJ/mol
# GULP energy per Si atom -12392.968026 kJ/mol
# Density = 1.783721 g / cm^3
# Si number density = 17.877900 Si / 1000 Ang^3
#
#
#
# Elastic Constant Matrix: (Units=GPa)
#
#
# Indices 1 2 3 4 5 6 
#
# 1 193.6668 16.5202 102.4311 0.0000 0.0000 0.0000
# 2 16.5202 13.2139 13.3479 0.0000 0.0000 0.0000
# 3 102.4311 13.3479 200.7225 0.0000 0.0000 0.0000
# 4 0.0000 0.0000 0.0000 2.0850 0.0000 0.0000
# 5 0.0000 0.0000 0.0000 0.0000 14.5198 0.0000
# 6 0.0000 0.0000 0.0000 0.0000 0.0000 6.5945
#
#
#
# Elastic Compliance Matrix: (Units=1/GPa)
#
#
# Indices 1 2 3 4 5 6 
#
# 1 0.007477 -0.005889 -0.003424 0.000000 0.000000 0.000000
# 2 -0.005889 0.085765 -0.002698 0.000000 0.000000 0.000000
# 3 -0.003424 -0.002698 0.006909 0.000000 0.000000 0.000000
# 4 0.000000 0.000000 0.000000 0.479619 0.000000 0.000000
# 5 0.000000 0.000000 0.000000 0.000000 0.068871 0.000000
# 6 0.000000 0.000000 0.000000 0.000000 0.000000 0.151641
#
#
# Mechanical properties :
#
#
# Convention : Reuss Voigt Hill
#
# Bulk Modulus (GPa) = 13.13559 74.68905 43.91232
# Shear Modulus (GPa) = 5.88456 22.99347 14.43902
#
# Velocity S-wave (km/s) = 1.81623 3.59017 2.84499
# Velocity P-wave (km/s) = 3.42952 7.68464 5.95043
#
# Compressibility (1/GPa) = 0.07612902
#
# Stress axis : x y z
#
# Youngs Moduli (GPa) = 133.74821 11.65971 144.74578
#
# Poissons Ratio (x) = 0.06866 0.49559
# Poissons Ratio (y) = 0.78763 0.39055
# Poissons Ratio (z) = 0.45794 0.03146
#
# Static dielectric constant tensor:
#      x y z
#    x 3.643190 0.000000 0.000000 
#    y 0.000000 2.628410 0.000000 
#    z 0.000000 0.000000 3.656240 
# 
# 
# High freq. dielectric constant tensor:
#      x y z
#    x 1.698460 0.000000 0.000000 
#    y 0.000000 1.623470 0.000000 
#    z 0.000000 0.000000 1.699120 
# 
# From -- ./inp_files/5939.got.cif
#   From: 2010.03.12/outbox.cif.g09.slc.cpg/sg25_3_cif.got.tgz:5939.got - 2010.04.14 03:30:10.
