data_PCOD8166487
_publ_section_title
;
Structure prediction by ZEFSAII (Michael W. Deem and Ramdas Pophale) SiO2 
 PCOD8166487
Probable space group: P M M 2
;
_chemical_formula_sum "Si O2"
_cell_formula_units_Z 32
_cell_length_a 17.673063
_cell_length_b 9.284663
_cell_length_c 11.114994
_cell_angle_alpha 90.000000
_cell_angle_beta 90.000000
_cell_angle_gamma 90.000000
_cell_volume 1823.841961
_symmetry_space_group_name_H-M "P M M 2"
_symmetry_group_IT_number 25
_symmetry_cell_setting 'orthorhombic'
loop_
_space_group_symop_operation_xyz
x,y,z
-x,-y,z
-x,y,z
x,-y,z
loop_
_atom_site_type_symbol
_atom_site_label
_atom_site_fract_x
_atom_site_fract_y
_atom_site_fract_z
Si Si1 0.219276 0.826833 0.848740
Si Si2 0.301939 0.662050 0.648681
Si Si3 0.917546 0.837124 0.694737
Si Si4 0.176296 0.749189 0.475517
Si Si5 0.412680 0.833507 0.489515
Si Si6 0.217606 0.671958 0.099535
Si Si7 0.917611 0.662327 0.257517
Si Si8 0.295443 0.158019 0.294285
O O1 0.283558 0.764358 0.761480
O O2 0.138105 0.772508 0.796566
O O3 0.225840 0.000000 0.854073
O O4 0.231215 0.756019 0.977357
O O5 0.320147 0.500000 0.692424
O O6 0.232065 0.650119 0.554767
O O7 0.376158 0.730354 0.589029
O O8 0.878369 0.836660 0.564221
O O9 0.000000 0.757010 0.694399
O O10 0.932124 0.000000 0.730242
O O11 0.121487 0.659567 0.388258
O O12 0.228571 0.851864 0.394074
O O13 0.500000 0.792542 0.477104
O O14 0.374067 0.804703 0.360149
O O15 0.400867 0.000000 0.527654
O O16 0.221442 0.500000 0.081767
O O17 0.137771 0.727790 0.155611
O O18 0.282412 0.719802 0.193843
O O19 0.931943 0.500000 0.219707
O O20 0.000000 0.742502 0.259003
O O21 0.299406 0.000000 0.233216
#
# Coordination Sequence:
#
# PCOD8166487 Si02
#       8
#     4   4   4   4   4   4   4   4
#     4  10  20  34  51  68  91 127 169 210 251 296
#     4  10  19  31  50  76 103 130 163 202 241 284
#     4   9  17  28  43  65  92 122 159 206 256 300
#     4   9  16  27  45  67  96 127 161 198 241 293
#     4   9  18  33  54  81 111 137 158 184 225 281
#     4  10  20  33  49  68  92 124 165 211 251 288
#     4   9  17  28  42  62  90 124 160 200 248 298
#     4   9  17  30  50  74  99 128 161 194 231 281
#
# _framework density 17.545380000000002
#
# number of rings (size 3 to 8) (size 9 to 14) (size 15 to 20)
#    0.000    2.625    0.000    2.250    0.000    6.750 
#    0.000    0.000    0.000   15.000    0.000    1.750 
#    0.000    0.000    0.000    0.000    0.000    0.000 
#
# Total GULP energy -396514.022767 kJ/mol
# GULP energy per Si atom -12391.063211 kJ/mol
# Density = 1.750545 g / cm^3
# Si number density = 17.545380 Si / 1000 Ang^3
#
#
#
# Elastic Constant Matrix: (Units=GPa)
#
#
# Indices 1 2 3 4 5 6 
#
# 1 123.2038 40.8424 51.7880 0.0000 0.0000 0.0000
# 2 40.8424 86.1703 45.2923 0.0000 0.0000 0.0000
# 3 51.7880 45.2923 112.1659 0.0000 0.0000 0.0000
# 4 0.0000 0.0000 0.0000 27.8890 0.0000 0.0000
# 5 0.0000 0.0000 0.0000 0.0000 12.3661 0.0000
# 6 0.0000 0.0000 0.0000 0.0000 0.0000 17.8176
#
#
#
# Elastic Compliance Matrix: (Units=1/GPa)
#
#
# Indices 1 2 3 4 5 6 
#
# 1 0.010702 -0.003142 -0.003672 0.000000 0.000000 0.000000
# 2 -0.003142 0.015654 -0.004870 0.000000 0.000000 0.000000
# 3 -0.003672 -0.004870 0.012578 0.000000 0.000000 0.000000
# 4 0.000000 0.000000 0.000000 0.035856 0.000000 0.000000
# 5 0.000000 0.000000 0.000000 0.000000 0.080866 0.000000
# 6 0.000000 0.000000 0.000000 0.000000 0.000000 0.056124
#
#
# Mechanical properties :
#
#
# Convention : Reuss Voigt Hill
#
# Bulk Modulus (GPa) = 64.25137 66.37617 65.31377
# Shear Modulus (GPa) = 20.80404 23.85570 22.32987
#
# Velocity S-wave (km/s) = 3.44717 3.69135 3.57135
# Velocity P-wave (km/s) = 7.24870 7.48875 7.36970
#
# Compressibility (1/GPa) = 0.01556387
#
# Stress axis : x y z
#
# Youngs Moduli (GPa) = 93.44100 63.88082 79.50661
#
# Poissons Ratio (x) = 0.20072 0.29198
# Poissons Ratio (y) = 0.29361 0.38722
# Poissons Ratio (z) = 0.34315 0.31112
#
# Static dielectric constant tensor:
#      x y z
#    x 3.405400 0.000000 0.000000 
#    y 0.000000 3.061430 0.000000 
#    z 0.000000 0.000000 3.154780 
# 
# 
# High freq. dielectric constant tensor:
#      x y z
#    x 1.667040 0.000000 0.000000 
#    y 0.000000 1.664260 0.000000 
#    z 0.000000 0.000000 1.667210 
# 
# From -- ./inp_files/4438.got.cif
#   From: 2010.03.12/outbox.cif.g09.slc.cpg/sg25_3_cif.got.tgz:4438.got - 2010.04.14 03:30:10.
