data_PCOD8166886
_publ_section_title
;
Structure prediction by ZEFSAII (Michael W. Deem and Ramdas Pophale) SiO2 
 PCOD8166886
Probable space group: P M M 2
;
_chemical_formula_sum "Si O2"
_cell_formula_units_Z 32
_cell_length_a 9.372972
_cell_length_b 14.939880
_cell_length_c 12.207746
_cell_angle_alpha 90.000000
_cell_angle_beta 90.000000
_cell_angle_gamma 90.000000
_cell_volume 1709.463819
_symmetry_space_group_name_H-M "P M M 2"
_symmetry_group_IT_number 25
_symmetry_cell_setting 'orthorhombic'
loop_
_space_group_symop_operation_xyz
x,y,z
-x,-y,z
-x,y,z
x,-y,z
loop_
_atom_site_type_symbol
_atom_site_label
_atom_site_fract_x
_atom_site_fract_y
_atom_site_fract_z
Si Si1 0.832330 0.896693 0.764570
Si Si2 0.332575 0.243870 0.622992
Si Si3 0.664731 0.397356 0.788895
Si Si4 0.332206 0.102065 0.213814
Si Si5 0.668568 0.748658 0.377856
Si Si6 0.333326 0.603222 0.207615
Si Si7 0.839264 0.606134 0.997620
Si Si8 0.842550 0.893949 0.007705
O O1 0.745226 0.839007 0.678490
O O2 0.000000 0.883170 0.745709
O O3 0.789605 0.000000 0.747055
O O4 0.789951 0.863561 0.887228
O O5 0.500000 0.222506 0.622785
O O6 0.300105 0.337319 0.683488
O O7 0.268915 0.253193 0.500364
O O8 0.500000 0.389205 0.824151
O O9 0.702916 0.500000 0.759196
O O10 0.759579 0.360078 0.888795
O O11 0.500000 0.110426 0.197503
O O12 0.277533 0.162496 0.314519
O O13 0.263926 0.139872 0.101685
O O14 0.285543 0.000000 0.238118
O O15 0.500000 0.750341 0.385765
O O16 0.716969 0.659798 0.312889
O O17 0.500000 0.617427 0.181552
O O18 0.298755 0.500000 0.233074
O O19 0.245459 0.640315 0.103920
O O20 0.839466 0.500000 0.998065
O O21 0.000000 0.644695 0.998797
O O22 0.000000 0.854534 0.031784
O O23 0.850694 0.000000 0.006938
#
# Coordination Sequence:
#
# PCOD8166886 Si02
#       8
#     4   4   4   4   4   4   4   4
#     4   9  19  36  55  75 103 136 165 201 254 308
#     4  10  21  35  52  75 100 131 175 218 250 290
#     4   9  18  33  52  74 102 134 167 207 255 304
#     4   9  17  30  49  71  96 126 156 191 238 287
#     4   9  19  34  49  70  99 128 164 205 242 286
#     4   9  17  31  52  74  98 130 163 199 247 299
#     4   9  17  30  50  76 103 129 161 203 251 304
#     4   8  15  30  51  73  97 124 155 193 239 292
#
# _framework density 18.71932
#
# number of rings (size 3 to 8) (size 9 to 14) (size 15 to 20)
#    0.000    3.000    0.000    1.125    0.000    4.750 
#    0.000   10.625    0.000    1.500    0.000    3.500 
#    0.000    0.000    0.000    0.000    0.000    0.000 
#
# Total GULP energy -396716.258987 kJ/mol
# GULP energy per Si atom -12397.383093 kJ/mol
# Density = 1.867671 g / cm^3
# Si number density = 18.719320 Si / 1000 Ang^3
#
#
#
# Elastic Constant Matrix: (Units=GPa)
#
#
# Indices 1 2 3 4 5 6 
#
# 1 60.9579 37.5770 63.4783 0.0000 0.0000 0.0000
# 2 37.5770 94.7555 75.1515 0.0000 0.0000 0.0000
# 3 63.4783 75.1515 192.5930 0.0000 0.0000 0.0000
# 4 0.0000 0.0000 0.0000 26.3978 0.0000 0.0000
# 5 0.0000 0.0000 0.0000 0.0000 10.1182 0.0000
# 6 0.0000 0.0000 0.0000 0.0000 0.0000 15.0720
#
#
#
# Elastic Compliance Matrix: (Units=1/GPa)
#
#
# Indices 1 2 3 4 5 6 
#
# 1 0.026646 -0.005216 -0.006747 0.000000 0.000000 0.000000
# 2 -0.005216 0.016304 -0.004643 0.000000 0.000000 0.000000
# 3 -0.006747 -0.004643 0.009228 0.000000 0.000000 0.000000
# 4 0.000000 0.000000 0.000000 0.037882 0.000000 0.000000
# 5 0.000000 0.000000 0.000000 0.000000 0.098832 0.000000
# 6 0.000000 0.000000 0.000000 0.000000 0.000000 0.066348
#
#
# Mechanical properties :
#
#
# Convention : Reuss Voigt Hill
#
# Bulk Modulus (GPa) = 52.72472 77.85778 65.29125
# Shear Modulus (GPa) = 16.96210 21.79091 19.37651
#
# Velocity S-wave (km/s) = 3.01346 3.41557 3.22080
# Velocity P-wave (km/s) = 6.35099 7.56554 6.98471
#
# Compressibility (1/GPa) = 0.01896643
#
# Stress axis : x y z
#
# Youngs Moduli (GPa) = 37.52871 61.33378 108.36646
#
# Poissons Ratio (x) = 0.31990 0.73119
# Poissons Ratio (y) = 0.19574 0.50314
# Poissons Ratio (z) = 0.25322 0.28477
#
# Static dielectric constant tensor:
#      x y z
#    x 3.370780 0.000000 0.000000 
#    y 0.000000 3.420790 0.000000 
#    z 0.000000 0.000000 3.668190 
# 
# 
# High freq. dielectric constant tensor:
#      x y z
#    x 1.705340 0.000000 0.000000 
#    y 0.000000 1.726190 0.000000 
#    z 0.000000 0.000000 1.725180 
# 
# From -- ./inp_files/4226.got.cif
#   From: 2010.03.12/outbox.cif.g09.slc.cpg/sg25_3_cif.got.tgz:4226.got - 2010.04.14 03:30:10.
