data_PCOD8166569
_publ_section_title
;
Structure prediction by ZEFSAII (Michael W. Deem and Ramdas Pophale) SiO2 
 PCOD8166569
Probable space group: P M M 2
;
_chemical_formula_sum "Si O2"
_cell_formula_units_Z 28
_cell_length_a 20.117530
_cell_length_b 13.149994
_cell_length_c 5.155886
_cell_angle_alpha 90.000000
_cell_angle_beta 90.000000
_cell_angle_gamma 90.000000
_cell_volume 1363.965918
_symmetry_space_group_name_H-M "P M M 2"
_symmetry_group_IT_number 25
_symmetry_cell_setting 'orthorhombic'
loop_
_space_group_symop_operation_xyz
x,y,z
-x,-y,z
-x,y,z
x,-y,z
loop_
_atom_site_type_symbol
_atom_site_label
_atom_site_fract_x
_atom_site_fract_y
_atom_site_fract_z
Si Si1 0.423296 0.285618 0.537550
Si Si2 0.326724 0.112704 0.597707
Si Si3 0.924065 0.617230 0.116761
Si Si4 0.813986 0.886007 0.333829
Si Si5 0.749275 0.248707 0.949332
Si Si6 0.635246 0.381574 0.055952
Si Si7 0.862703 0.289178 0.619571
O O1 0.500000 0.261223 0.584536
O O2 0.385642 0.179804 0.474903
O O3 0.415004 0.358489 0.289796
O O4 0.393679 0.340777 0.787118
O O5 0.262675 0.107682 0.415657
O O6 0.354614 0.000000 0.652477
O O7 0.303754 0.163162 0.866240
O O8 0.910455 0.500000 0.044887
O O9 0.878697 0.645215 0.363833
O O10 0.000000 0.635901 0.200289
O O11 0.911046 0.683569 0.857902
O O12 0.810884 0.808084 0.092151
O O13 0.863582 0.832343 0.542625
O O14 0.840508 0.000000 0.269576
O O15 0.707687 0.331020 0.114637
O O16 0.785776 0.308099 0.710336
O O17 0.646245 0.500000 0.030086
#
# Coordination Sequence:
#
# PCOD8166569 Si02
#       7
#     4   4   4   4   4   4   4
#     4  11  23  40  59  82 114 154 207 254 300 369
#     4   9  19  35  59  88 119 153 194 247 310 366
#     4  11  24  43  66  92 127 172 212 249 299 357
#     4  10  19  37  65  93 124 161 200 248 311 377
#     4  10  20  38  61  94 126 159 197 255 315 368
#     4  11  24  40  59  83 117 157 200 252 311 364
#     4  11  22  40  63  98 128 159 206 257 301 364
#
# _framework density 20.528371
#
# number of rings (size 3 to 8) (size 9 to 14) (size 15 to 20)
#    0.000    1.571    2.857    2.143    0.000    4.857 
#    0.000    0.000    0.000    4.286    0.000    0.000 
#    0.000    0.000    0.000    0.000    0.000    0.000 
#
# Total GULP energy -346964.321824 kJ/mol
# GULP energy per Si atom -12391.582922 kJ/mol
# Density = 2.048165 g / cm^3
# Si number density = 20.528371 Si / 1000 Ang^3
#
#
#
# Elastic Constant Matrix: (Units=GPa)
#
#
# Indices 1 2 3 4 5 6 
#
# 1 66.2750 63.1223 27.3816 0.0000 0.0000 0.0000
# 2 63.1223 136.0393 55.0057 0.0000 0.0000 0.0000
# 3 27.3816 55.0057 109.4281 0.0000 0.0000 0.0000
# 4 0.0000 0.0000 0.0000 25.8901 0.0000 0.0000
# 5 0.0000 0.0000 0.0000 0.0000 17.7350 0.0000
# 6 0.0000 0.0000 0.0000 0.0000 0.0000 23.8345
#
#
#
# Elastic Compliance Matrix: (Units=1/GPa)
#
#
# Indices 1 2 3 4 5 6 
#
# 1 0.027066 -0.012325 -0.000577 0.000000 0.000000 0.000000
# 2 -0.012325 0.014839 -0.004375 0.000000 0.000000 0.000000
# 3 -0.000577 -0.004375 0.011482 0.000000 0.000000 0.000000
# 4 0.000000 0.000000 0.000000 0.038625 0.000000 0.000000
# 5 0.000000 0.000000 0.000000 0.000000 0.056386 0.000000
# 6 0.000000 0.000000 0.000000 0.000000 0.000000 0.041956
#
#
# Mechanical properties :
#
#
# Convention : Reuss Voigt Hill
#
# Bulk Modulus (GPa) = 53.10051 66.97350 60.03701
# Shear Modulus (GPa) = 21.62772 24.57411 23.10092
#
# Velocity S-wave (km/s) = 3.24937 3.46364 3.35821
# Velocity P-wave (km/s) = 6.32463 6.97792 6.65929
#
# Compressibility (1/GPa) = 0.01883221
#
# Stress axis : x y z
#
# Youngs Moduli (GPa) = 36.94666 67.39164 87.09386
#
# Poissons Ratio (x) = 0.83062 0.05026
# Poissons Ratio (y) = 0.45538 0.38102
# Poissons Ratio (z) = 0.02132 0.29482
#
# Static dielectric constant tensor:
#      x y z
#    x 3.599470 0.000000 0.000000 
#    y 0.000000 3.910970 0.000000 
#    z 0.000000 0.000000 3.808070 
# 
# 
# High freq. dielectric constant tensor:
#      x y z
#    x 1.777710 0.000000 0.000000 
#    y 0.000000 1.802090 0.000000 
#    z 0.000000 0.000000 1.810710 
# 
# From -- ./inp_files/1227.got.cif
#   From: 2010.03.12/outbox.cif.g09.slc.cpg/sg25_1_cif.got.tgz:1227.got - 2010.04.14 03:30:10.
