data_PCOD8166803
_publ_section_title
;
Structure prediction by ZEFSAII (Michael W. Deem and Ramdas Pophale) SiO2 
 PCOD8166803
Probable space group: P M M 2
;
_chemical_formula_sum "Si O2"
_cell_formula_units_Z 24
_cell_length_a 7.877478
_cell_length_b 9.604033
_cell_length_c 16.903096
_cell_angle_alpha 90.000000
_cell_angle_beta 90.000000
_cell_angle_gamma 90.000000
_cell_volume 1278.813171
_symmetry_space_group_name_H-M "P M M 2"
_symmetry_group_IT_number 25
_symmetry_cell_setting 'orthorhombic'
loop_
_space_group_symop_operation_xyz
x,y,z
-x,-y,z
-x,y,z
x,-y,z
loop_
_atom_site_type_symbol
_atom_site_label
_atom_site_fract_x
_atom_site_fract_y
_atom_site_fract_z
Si Si1 0.797997 0.154366 0.106550
Si Si2 0.193641 0.341023 0.793992
Si Si3 0.000000 0.837404 0.543097
Si Si4 0.000000 0.662672 0.385340
Si Si5 0.303202 0.840455 0.935327
Si Si6 0.190525 0.350818 0.238665
Si Si7 0.309999 0.159343 0.653838
O O1 0.719325 0.240488 0.180718
O O2 0.000000 0.151835 0.106827
O O3 0.723716 0.000000 0.116903
O O4 0.730896 0.216002 0.023767
O O5 0.260598 0.500000 0.801961
O O6 0.204057 0.262470 0.877413
O O7 0.303712 0.258355 0.729819
O O8 0.000000 0.340504 0.765282
O O9 0.169821 0.793634 0.590103
O O10 0.000000 0.756935 0.461409
O O11 0.000000 0.000000 0.523921
O O12 0.831464 0.696349 0.331224
O O13 0.000000 0.500000 0.409187
O O14 0.500000 0.832935 0.914205
O O15 0.236169 0.000000 0.926663
O O16 0.287094 0.500000 0.234486
O O17 0.000000 0.372017 0.204952
O O18 0.500000 0.172065 0.617280
O O19 0.273555 0.000000 0.680608
#
# Coordination Sequence:
#
# PCOD8166803 Si02
#       7
#     4   4   2   2   4   4   4
#     4   9  16  27  46  71  95 123 167 216 257 302
#     4  11  23  37  54  78 106 138 180 227 271 321
#     4  10  20  34  56  85 110 137 176 221 268 323
#     4   8  16  30  50  77 106 135 170 213 260 317
#     4  10  21  35  50  71 103 143 182 221 269 321
#     4   7  13  26  44  69  97 126 161 204 254 304
#     4  10  21  38  59  82 110 144 181 222 271 326
#
# _framework density 18.767401
#
# number of rings (size 3 to 8) (size 9 to 14) (size 15 to 20)
#    0.500    2.167    0.833    1.500    0.000    6.333 
#    0.000    1.667    0.000    1.000    0.000    7.000 
#    0.000    0.000    0.000    0.000    0.000    0.000 
#
# Total GULP energy -297368.884241 kJ/mol
# GULP energy per Si atom -12390.370177 kJ/mol
# Density = 1.872469 g / cm^3
# Si number density = 18.767401 Si / 1000 Ang^3
#
#
#
# Elastic Constant Matrix: (Units=GPa)
#
#
# Indices 1 2 3 4 5 6 
#
# 1 61.1134 22.9274 28.9732 0.0000 0.0000 0.0000
# 2 22.9274 100.6676 80.1990 0.0000 0.0000 0.0000
# 3 28.9732 80.1990 144.3311 0.0000 0.0000 0.0000
# 4 0.0000 0.0000 0.0000 23.2590 0.0000 0.0000
# 5 0.0000 0.0000 0.0000 0.0000 9.2842 0.0000
# 6 0.0000 0.0000 0.0000 0.0000 0.0000 11.3893
#
#
#
# Elastic Compliance Matrix: (Units=1/GPa)
#
#
# Indices 1 2 3 4 5 6 
#
# 1 0.018360 -0.002234 -0.002444 0.000000 0.000000 0.000000
# 2 -0.002234 0.018096 -0.009607 0.000000 0.000000 0.000000
# 3 -0.002444 -0.009607 0.012757 0.000000 0.000000 0.000000
# 4 0.000000 0.000000 0.000000 0.042994 0.000000 0.000000
# 5 0.000000 0.000000 0.000000 0.000000 0.107710 0.000000
# 6 0.000000 0.000000 0.000000 0.000000 0.000000 0.087802
#
#
# Mechanical properties :
#
#
# Convention : Reuss Voigt Hill
#
# Bulk Modulus (GPa) = 48.44299 63.36794 55.90546
# Shear Modulus (GPa) = 15.47172 20.38733 17.92953
#
# Velocity S-wave (km/s) = 2.87434 3.29951 3.09423
# Velocity P-wave (km/s) = 6.07323 6.95369 6.52832
#
# Compressibility (1/GPa) = 0.02064282
#
# Stress axis : x y z
#
# Youngs Moduli (GPa) = 54.46631 55.26105 78.38746
#
# Poissons Ratio (x) = 0.12348 0.19158
# Poissons Ratio (y) = 0.12170 0.75304
# Poissons Ratio (z) = 0.13311 0.53087
#
# Static dielectric constant tensor:
#      x y z
#    x 3.181640 0.000000 0.000000 
#    y 0.000000 3.638790 0.000000 
#    z 0.000000 0.000000 3.292710 
# 
# 
# High freq. dielectric constant tensor:
#      x y z
#    x 1.703340 0.000000 0.000000 
#    y 0.000000 1.727150 0.000000 
#    z 0.000000 0.000000 1.718050 
# 
# From -- ./inp_files/5992.got.cif
#   From: 2010.03.12/outbox.cif.g09.slc.cpg/sg25_3_cif.got.tgz:5992.got - 2010.04.14 03:30:10.
