data_PCOD8166976
_publ_section_title
;
Structure prediction by ZEFSAII (Michael W. Deem and Ramdas Pophale) SiO2 
 PCOD8166976
Probable space group: P M M 2
;
_chemical_formula_sum "Si O2"
_cell_formula_units_Z 32
_cell_length_a 8.675134
_cell_length_b 15.400879
_cell_length_c 11.942877
_cell_angle_alpha 90.000000
_cell_angle_beta 90.000000
_cell_angle_gamma 90.000000
_cell_volume 1595.624368
_symmetry_space_group_name_H-M "P M M 2"
_symmetry_group_IT_number 25
_symmetry_cell_setting 'orthorhombic'
loop_
_space_group_symop_operation_xyz
x,y,z
-x,-y,z
-x,y,z
x,-y,z
loop_
_atom_site_type_symbol
_atom_site_label
_atom_site_fract_x
_atom_site_fract_y
_atom_site_fract_z
Si Si1 0.320020 0.901071 0.286770
Si Si2 0.182782 0.404224 0.286281
Si Si3 0.679995 0.247435 0.675711
Si Si4 0.180028 0.335694 0.046177
Si Si5 0.322963 0.596598 0.833467
Si Si6 0.818701 0.752843 0.433224
Si Si7 0.680723 0.150619 0.041320
Si Si8 0.823389 0.097820 0.818113
O O1 0.500000 0.880760 0.292907
O O2 0.236117 0.840924 0.375732
O O3 0.259371 0.882176 0.161657
O O4 0.282713 0.000000 0.319126
O O5 0.248599 0.500000 0.317060
O O6 0.232940 0.381684 0.160189
O O7 0.252157 0.331883 0.370493
O O8 0.000000 0.405665 0.294750
O O9 0.500000 0.248876 0.648773
O O10 0.732846 0.333065 0.742842
O O11 0.772200 0.247222 0.561298
O O12 0.717669 0.161399 0.745681
O O13 0.283522 0.251474 0.027193
O O14 0.000000 0.310950 0.049010
O O15 0.216270 0.399162 0.943287
O O16 0.500000 0.614958 0.867053
O O17 0.303974 0.500000 0.781941
O O18 0.000000 0.749762 0.423068
O O19 0.500000 0.133210 0.026442
O O20 0.770793 0.097514 0.946927
O O21 0.000000 0.129074 0.809872
O O22 0.805257 0.000000 0.771397
#
# Coordination Sequence:
#
# PCOD8166976 Si02
#       8
#     4   4   4   4   4   4   4   4
#     4  10  22  40  62  88 120 158 198 240 292 358
#     4   9  19  36  58  87 122 157 194 239 294 353
#     4  11  24  42  63  86 117 160 202 247 300 357
#     4  11  20  34  60  91 124 160 198 241 295 356
#     4  10  22  40  61  88 122 158 198 246 300 357
#     4  11  23  40  62  87 117 155 201 254 300 345
#     4  11  21  36  61  91 125 161 196 239 297 360
#     4  11  24  41  63  92 123 155 196 247 299 355
#
# _framework density 20.054846000000001
#
# number of rings (size 3 to 8) (size 9 to 14) (size 15 to 20)
#    0.000    1.500    2.500    2.625    0.000    4.500 
#    0.000    0.000    0.000    3.375    0.000    0.000 
#    0.000    0.000    0.000    0.000    0.000    0.000 
#
# Total GULP energy -396912.835565 kJ/mol
# GULP energy per Si atom -12403.526111 kJ/mol
# Density = 2.000920 g / cm^3
# Si number density = 20.054846 Si / 1000 Ang^3
#
#
#
# Elastic Constant Matrix: (Units=GPa)
#
#
# Indices 1 2 3 4 5 6 
#
# 1 30.8225 29.6570 14.8525 0.0000 0.0000 0.0000
# 2 29.6570 137.7339 61.0900 0.0000 0.0000 0.0000
# 3 14.8525 61.0900 127.1665 0.0000 0.0000 0.0000
# 4 0.0000 0.0000 0.0000 11.8094 0.0000 0.0000
# 5 0.0000 0.0000 0.0000 0.0000 32.8714 0.0000
# 6 0.0000 0.0000 0.0000 0.0000 0.0000 26.0178
#
#
#
# Elastic Compliance Matrix: (Units=1/GPa)
#
#
# Indices 1 2 3 4 5 6 
#
# 1 0.040970 -0.008513 -0.000695 0.000000 0.000000 0.000000
# 2 -0.008513 0.010995 -0.004288 0.000000 0.000000 0.000000
# 3 -0.000695 -0.004288 0.010005 0.000000 0.000000 0.000000
# 4 0.000000 0.000000 0.000000 0.084678 0.000000 0.000000
# 5 0.000000 0.000000 0.000000 0.000000 0.030422 0.000000
# 6 0.000000 0.000000 0.000000 0.000000 0.000000 0.038435
#
#
# Mechanical properties :
#
#
# Convention : Reuss Voigt Hill
#
# Bulk Modulus (GPa) = 28.58987 56.32467 42.45727
# Shear Modulus (GPa) = 19.67284 26.81460 23.24372
#
# Velocity S-wave (km/s) = 3.13541 3.66055 3.40811
# Velocity P-wave (km/s) = 5.23398 6.78325 6.05834
#
# Compressibility (1/GPa) = 0.03497742
#
# Stress axis : x y z
#
# Youngs Moduli (GPa) = 24.40783 90.94839 99.95278
#
# Poissons Ratio (x) = 0.77428 0.06951
# Poissons Ratio (y) = 0.20779 0.42857
# Poissons Ratio (z) = 0.01697 0.38996
#
# Static dielectric constant tensor:
#      x y z
#    x 3.488640 0.000000 0.000000 
#    y 0.000000 3.854360 0.000000 
#    z 0.000000 0.000000 3.621710 
# 
# 
# High freq. dielectric constant tensor:
#      x y z
#    x 1.771800 0.000000 0.000000 
#    y 0.000000 1.797490 0.000000 
#    z 0.000000 0.000000 1.779360 
# 
# From -- ./inp_files/4188.got.cif
#   From: 2010.03.12/outbox.cif.g09.slc.cpg/sg25_3_cif.got.tgz:4188.got - 2010.04.14 03:30:10.
