data_PCOD8166730
_publ_section_title
;
Structure prediction by ZEFSAII (Michael W. Deem and Ramdas Pophale) SiO2 
 PCOD8166730
Probable space group: P M M 2
;
_chemical_formula_sum "Si O2"
_cell_formula_units_Z 20
_cell_length_a 9.404361
_cell_length_b 9.120171
_cell_length_c 12.789924
_cell_angle_alpha 90.000000
_cell_angle_beta 90.000000
_cell_angle_gamma 90.000000
_cell_volume 1096.983858
_symmetry_space_group_name_H-M "P M M 2"
_symmetry_group_IT_number 25
_symmetry_cell_setting 'orthorhombic'
loop_
_space_group_symop_operation_xyz
x,y,z
-x,-y,z
-x,y,z
x,-y,z
loop_
_atom_site_type_symbol
_atom_site_label
_atom_site_fract_x
_atom_site_fract_y
_atom_site_fract_z
Si Si1 0.664824 0.170175 0.372630
Si Si2 0.168367 0.832292 0.762527
Si Si3 0.335525 0.671914 0.582805
Si Si4 0.831403 0.338000 0.962986
Si Si5 0.165847 0.330111 0.196096
O O1 0.500000 0.201429 0.351590
O O2 0.717220 0.255218 0.475445
O O3 0.749775 0.226053 0.273235
O O4 0.696780 0.000000 0.390307
O O5 0.242248 0.734540 0.675854
O O6 0.221496 0.777155 0.876259
O O7 0.000000 0.813624 0.750856
O O8 0.215893 0.000000 0.749780
O O9 0.500000 0.709791 0.604233
O O10 0.308852 0.500000 0.574036
O O11 0.770872 0.500000 0.935699
O O12 0.000000 0.346413 0.964418
O O13 0.781147 0.290276 0.078757
O O14 0.198282 0.500000 0.220550
O O15 0.000000 0.296517 0.209471
#
# Coordination Sequence:
#
# PCOD8166730 Si02
#       5
#     4   4   4   4   4
#     4  10  21  36  53  74 102 135 169 207 254 304
#     4  10  20  33  52  79 107 134 166 205 251 302
#     4  10  21  37  56  75  97 131 173 212 253 301
#     4   8  15  30  51  74 102 135 169 206 248 293
#     4   9  18  33  54  79 104 132 169 210 250 295
#
# _framework density 18.231808999999998
#
# number of rings (size 3 to 8) (size 9 to 14) (size 15 to 20)
#    0.000    2.600    0.000    3.000    0.000    5.600 
#    0.000    3.000    0.000    1.200    0.000    0.000 
#    0.000    0.000    0.000    0.000    0.000    0.000 
#
# Total GULP energy -247999.825473 kJ/mol
# GULP energy per Si atom -12399.991274 kJ/mol
# Density = 1.819031 g / cm^3
# Si number density = 18.231809 Si / 1000 Ang^3
#
#
#
# Elastic Constant Matrix: (Units=GPa)
#
#
# Indices 1 2 3 4 5 6 
#
# 1 36.6057 38.1369 43.6170 0.0000 0.0000 0.0000
# 2 38.1369 106.4735 71.9733 0.0000 0.0000 0.0000
# 3 43.6170 71.9733 145.1428 0.0000 0.0000 0.0000
# 4 0.0000 0.0000 0.0000 19.8170 0.0000 0.0000
# 5 0.0000 0.0000 0.0000 0.0000 142.7707 0.0000
# 6 0.0000 0.0000 0.0000 0.0000 0.0000 28.0439
#
#
#
# Elastic Compliance Matrix: (Units=1/GPa)
#
#
# Indices 1 2 3 4 5 6 
#
# 1 0.050895 -0.011870 -0.009409 0.000000 0.000000 0.000000
# 2 -0.011870 0.016896 -0.004811 0.000000 0.000000 0.000000
# 3 -0.009409 -0.004811 0.012103 0.000000 0.000000 0.000000
# 4 0.000000 0.000000 0.000000 0.050462 0.000000 0.000000
# 5 0.000000 0.000000 0.000000 0.000000 0.007004 0.000000
# 6 0.000000 0.000000 0.000000 0.000000 0.000000 0.035658
#
#
# Mechanical properties :
#
#
# Convention : Reuss Voigt Hill
#
# Bulk Modulus (GPa) = 36.08202 66.18628 51.13415
# Shear Modulus (GPa) = 21.32780 47.09264 34.21022
#
# Velocity S-wave (km/s) = 3.42396 5.08783 4.33645
# Velocity P-wave (km/s) = 5.95525 8.41998 7.29250
#
# Compressibility (1/GPa) = 0.02771463
#
# Stress axis : x y z
#
# Youngs Moduli (GPa) = 19.64826 59.18603 82.62435
#
# Poissons Ratio (x) = 0.70253 0.77738
# Poissons Ratio (y) = 0.23322 0.39753
# Poissons Ratio (z) = 0.18486 0.28476
#
# Static dielectric constant tensor:
#      x y z
#    x 3.057130 0.000000 0.000000 
#    y 0.000000 3.665970 0.000000 
#    z 0.000000 0.000000 3.599990 
# 
# 
# High freq. dielectric constant tensor:
#      x y z
#    x 1.676830 0.000000 0.000000 
#    y 0.000000 1.714550 0.000000 
#    z 0.000000 0.000000 1.720770 
# 
# From -- ./inp_files/3767.got.cif
#   From: 2010.03.12/outbox.cif.g09.slc.cpg/sg25_2_cif.got.tgz:3767.got - 2010.04.14 03:30:10.
