data_PCOD8166222
_publ_section_title
;
Structure prediction by ZEFSAII (Michael W. Deem and Ramdas Pophale) SiO2 
 PCOD8166222
Probable space group: I 21 21 21
;
_chemical_formula_sum "Si O2"
_cell_formula_units_Z 52
_cell_length_a 7.586248
_cell_length_b 19.600363
_cell_length_c 17.724861
_cell_angle_alpha 90.000000
_cell_angle_beta 90.000000
_cell_angle_gamma 90.000000
_cell_volume 2635.566561
_symmetry_space_group_name_H-M "I 21 21 21"
_symmetry_group_IT_number 24
_symmetry_cell_setting 'orthorhombic'
loop_
_space_group_symop_operation_xyz
x,y,z
-x,1/2-y,z
x,-y,1/2-z
1/2-x,y,-z
1/2+x,1/2+y,1/2+z
1/2-x,-y,1/2+z
1/2+x,1/2-y,-z
-x,1/2+y,1/2-z
loop_
_atom_site_type_symbol
_atom_site_label
_atom_site_fract_x
_atom_site_fract_y
_atom_site_fract_z
Si Si1 0.000000 0.750000 0.188011
Si Si2 0.549072 0.520408 0.590024
Si Si3 0.741143 0.936736 0.307369
Si Si4 0.349251 0.703879 0.228181
Si Si5 0.047547 0.018682 0.915445
Si Si6 0.052774 0.136388 0.418683
Si Si7 0.964499 0.361050 0.587470
O O1 0.182180 0.756044 0.233343
O O2 0.949261 0.816461 0.139058
O O3 0.425488 0.563270 0.646393
O O4 0.511161 0.536815 0.502639
O O5 0.752473 0.536702 0.607942
O O6 0.510190 0.440876 0.603647
O O7 0.714148 0.864873 0.267522
O O8 0.580888 0.936720 0.365623
O O9 0.734504 0.000000 0.250000
O O10 0.500000 0.750000 0.269222
O O11 0.425201 0.685532 0.144662
O O12 0.003434 0.940537 0.896401
O O13 0.978385 0.154079 0.501537
O O14 0.257447 0.154022 0.408091
#
# Coordination Sequence:
#
# PCOD8166222 Si02
#       7
#     4   8   8   8   8   8   8
#     4  12  24  36  54  80 116 176 210 244 294 362
#     4   9  20  39  61  94 123 149 205 267 309 369
#     4  12  23  37  62  93 124 170 207 254 316 372
#     4  12  26  41  55  83 133 167 214 247 304 373
#     4   9  19  39  65  92 121 154 201 265 319 358
#     4   9  19  33  59  84 118 161 204 244 299 355
#     4   9  18  37  56  85 123 160 198 248 296 365
#
# _framework density 19.730104000000001
#
# number of rings (size 3 to 8) (size 9 to 14) (size 15 to 20)
#    0.000    1.846    3.077    3.231    1.077    2.462 
#    0.000    0.000    0.000    0.000   16.000    0.000 
#    0.000    0.000    0.000    0.000    0.000    0.000 
#
# Total GULP energy -322218.327083 kJ/mol
# GULP energy per Si atom -12393.012580 kJ/mol
# Density = 1.968520 g / cm^3
# Si number density = 19.730104 Si / 1000 Ang^3
#
#
#
# Elastic Constant Matrix: (Units=GPa)
#
#
# Indices 1 2 3 4 5 6 
#
# 1 131.3213 44.0795 57.0402 0.0000 0.0000 0.0000
# 2 44.0795 83.9273 42.8130 0.0000 0.0000 0.0000
# 3 57.0402 42.8130 70.5427 -0.0001 0.0000 0.0000
# 4 0.0000 0.0000 -0.0001 28.0924 0.0000 0.0000
# 5 0.0000 0.0000 0.0000 0.0000 29.5028 0.0000
# 6 0.0000 0.0000 0.0000 0.0000 0.0000 31.6223
#
#
#
# Elastic Compliance Matrix: (Units=1/GPa)
#
#
# Indices 1 2 3 4 5 6 
#
# 1 0.011954 -0.001952 -0.008481 0.000000 0.000000 0.000000
# 2 -0.001952 0.017577 -0.009089 0.000000 0.000000 0.000000
# 3 -0.008481 -0.009089 0.026550 0.000000 0.000000 0.000000
# 4 0.000000 0.000000 0.000000 0.035597 0.000000 0.000000
# 5 0.000000 0.000000 0.000000 0.000000 0.033895 0.000000
# 6 0.000000 0.000000 0.000000 0.000000 0.000000 0.031623
#
#
# Mechanical properties :
#
#
# Convention : Reuss Voigt Hill
#
# Bulk Modulus (GPa) = 58.69912 63.73964 61.21938
# Shear Modulus (GPa) = 24.76237 27.30076 26.03157
#
# Velocity S-wave (km/s) = 3.54652 3.72386 3.63627
# Velocity P-wave (km/s) = 6.82540 7.13200 6.98038
#
# Compressibility (1/GPa) = 0.01703603
#
# Stress axis : x y z
#
# Youngs Moduli (GPa) = 83.65427 56.89313 37.66481
#
# Poissons Ratio (x) = 0.11105 0.31944
# Poissons Ratio (y) = 0.16328 0.34234
# Poissons Ratio (z) = 0.70949 0.51711
#
# Static dielectric constant tensor:
#      x y z
#    x 3.755250 0.000000 0.000000 
#    y 0.000000 3.363480 0.000000 
#    z 0.000000 0.000000 3.435310 
# 
# 
# High freq. dielectric constant tensor:
#      x y z
#    x 1.790410 0.000000 0.000000 
#    y 0.000000 1.743910 0.000000 
#    z 0.000000 0.000000 1.746130 
# 
# From -- ./inp_files/29642.got.cif
#   From: 2010.03.12/outbox.cif.g09.slc.cpg/sg24_15_cif.got.tgz:29642.got - 2010.04.14 03:06:53.
