data_PCOD8166841
_publ_section_title
;
Structure prediction by ZEFSAII (Michael W. Deem and Ramdas Pophale) SiO2 
 PCOD8166841
Probable space group: P M M 2
;
_chemical_formula_sum "Si O2"
_cell_formula_units_Z 32
_cell_length_a 8.576053
_cell_length_b 15.532300
_cell_length_c 12.015051
_cell_angle_alpha 90.000000
_cell_angle_beta 90.000000
_cell_angle_gamma 90.000000
_cell_volume 1600.474817
_symmetry_space_group_name_H-M "P M M 2"
_symmetry_group_IT_number 25
_symmetry_cell_setting 'orthorhombic'
loop_
_space_group_symop_operation_xyz
x,y,z
-x,-y,z
-x,y,z
x,-y,z
loop_
_atom_site_type_symbol
_atom_site_label
_atom_site_fract_x
_atom_site_fract_y
_atom_site_fract_z
Si Si1 0.179165 0.904435 0.040570
Si Si2 0.183887 0.094920 0.489993
Si Si3 0.814788 0.404951 0.490858
Si Si4 0.814000 0.750715 0.638849
Si Si5 0.182711 0.336935 0.253333
Si Si6 0.815193 0.253924 0.890901
Si Si7 0.680126 0.152803 0.260910
Si Si8 0.679236 0.596590 0.037147
O O1 0.280369 0.902676 0.152314
O O2 0.000000 0.885210 0.071961
O O3 0.197001 0.000000 0.987462
O O4 0.238771 0.833303 0.952822
O O5 0.254263 0.165664 0.574742
O O6 0.221020 0.119046 0.363950
O O7 0.000000 0.093873 0.503098
O O8 0.251952 0.000000 0.518510
O O9 0.749940 0.500000 0.521536
O O10 0.748739 0.335106 0.578117
O O11 0.759435 0.381409 0.366632
O O12 0.000000 0.405409 0.494603
O O13 0.753257 0.752310 0.764827
O O14 0.000000 0.751449 0.634119
O O15 0.278178 0.250470 0.233248
O O16 0.219971 0.398271 0.149809
O O17 0.000000 0.315567 0.257914
O O18 0.000000 0.264823 0.894869
O O19 0.739135 0.337459 0.944978
O O20 0.500000 0.142645 0.290634
O O21 0.500000 0.616977 0.065148
O O22 0.699298 0.500000 0.989373
#
# Coordination Sequence:
#
# PCOD8166841 Si02
#       8
#     4   4   4   4   4   4   4   4
#     4  10  21  37  57  83 115 150 191 239 289 341
#     4  10  20  36  59  85 115 151 189 233 286 342
#     4   9  17  30  53  84 114 141 173 224 282 329
#     4   9  18  34  55  84 115 144 188 239 283 326
#     4  11  20  35  60  86 114 147 189 236 285 343
#     4  10  21  37  60  85 112 152 198 242 284 335
#     4  12  23  35  56  85 117 151 188 232 288 351
#     4  11  24  40  58  84 120 156 189 232 288 346
#
# _framework density 19.994067000000001
#
# number of rings (size 3 to 8) (size 9 to 14) (size 15 to 20)
#    0.000    1.750    2.500    2.625    0.000    4.500 
#    0.000    4.375    0.000    0.000    0.000    1.750 
#    0.000    0.000    0.000    0.000    0.000    0.000 
#
# Total GULP energy -396834.873974 kJ/mol
# GULP energy per Si atom -12401.089812 kJ/mol
# Density = 1.994856 g / cm^3
# Si number density = 19.994067 Si / 1000 Ang^3
#
#
#
# Elastic Constant Matrix: (Units=GPa)
#
#
# Indices 1 2 3 4 5 6 
#
# 1 21.1018 16.3649 10.0736 0.0000 0.0000 0.0000
# 2 16.3649 170.7801 78.1686 0.0000 0.0000 0.0000
# 3 10.0736 78.1686 157.7157 0.0000 0.0000 0.0000
# 4 0.0000 0.0000 0.0000 16.3203 0.0000 0.0000
# 5 0.0000 0.0000 0.0000 0.0000 3.5469 0.0000
# 6 0.0000 0.0000 0.0000 0.0000 0.0000 16.0181
#
#
#
# Elastic Compliance Matrix: (Units=1/GPa)
#
#
# Indices 1 2 3 4 5 6 
#
# 1 0.051337 -0.004422 -0.001088 0.000000 0.000000 0.000000
# 2 -0.004422 0.007954 -0.003660 0.000000 0.000000 0.000000
# 3 -0.001088 -0.003660 0.008224 0.000000 0.000000 0.000000
# 4 0.000000 0.000000 0.000000 0.061274 0.000000 0.000000
# 5 0.000000 0.000000 0.000000 0.000000 0.281938 0.000000
# 6 0.000000 0.000000 0.000000 0.000000 0.000000 0.062429
#
#
# Mechanical properties :
#
#
# Convention : Reuss Voigt Hill
#
# Bulk Modulus (GPa) = 20.33448 62.09018 41.21233
# Shear Modulus (GPa) = 9.84469 23.50976 16.67723
#
# Velocity S-wave (km/s) = 2.22137 3.43277 2.89123
# Velocity P-wave (km/s) = 4.09532 6.84351 5.63938
#
# Compressibility (1/GPa) = 0.04917756
#
# Stress axis : x y z
#
# Youngs Moduli (GPa) = 19.47895 125.71609 121.59522
#
# Poissons Ratio (x) = 0.55586 0.13224
# Poissons Ratio (y) = 0.08613 0.44504
# Poissons Ratio (z) = 0.02118 0.46013
#
# Static dielectric constant tensor:
#      x y z
#    x 3.269200 0.000000 0.000000 
#    y 0.000000 3.989600 0.000000 
#    z 0.000000 0.000000 3.653710 
# 
# 
# High freq. dielectric constant tensor:
#      x y z
#    x 1.743980 0.000000 0.000000 
#    y 0.000000 1.799030 0.000000 
#    z 0.000000 0.000000 1.774530 
# 
# From -- ./inp_files/4216.got.cif
#   From: 2010.03.12/outbox.cif.g09.slc.cpg/sg25_3_cif.got.tgz:4216.got - 2010.04.14 03:30:10.
