data_PCOD8167109
_publ_section_title
;
Structure prediction by ZEFSAII (Michael W. Deem and Ramdas Pophale) SiO2 
 PCOD8167109
Probable space group: P M C 21
;
_chemical_formula_sum "Si O2"
_cell_formula_units_Z 32
_cell_length_a 9.394737
_cell_length_b 10.775646
_cell_length_c 16.852121
_cell_angle_alpha 90.000000
_cell_angle_beta 90.000000
_cell_angle_gamma 90.000000
_cell_volume 1706.013687
_symmetry_space_group_name_H-M "P M C 21"
_symmetry_group_IT_number 26
_symmetry_cell_setting 'orthorhombic'
loop_
_space_group_symop_operation_xyz
x,y,z
-x,-y,1/2+z
-x,y,z
x,-y,1/2+z
loop_
_atom_site_type_symbol
_atom_site_label
_atom_site_fract_x
_atom_site_fract_y
_atom_site_fract_z
Si Si1 0.660689 0.575151 0.381270
Si Si2 0.843480 0.165564 0.258426
Si Si3 0.337457 0.288134 0.033612
Si Si4 0.171691 0.321728 0.410428
Si Si5 0.666697 0.952502 0.627815
Si Si6 0.340856 0.390744 0.708329
Si Si7 0.332527 0.217442 0.563616
Si Si8 0.845655 0.595289 0.653654
O O1 0.500000 0.522613 0.393990
O O2 0.692422 0.688575 0.441356
O O3 0.766612 0.458084 0.390382
O O4 0.670477 0.652741 0.299332
O O5 0.784589 0.222335 0.341441
O O6 0.740983 0.065809 0.214534
O O7 0.859533 0.274869 0.196104
O O8 0.000000 0.105586 0.272451
O O9 0.500000 0.310343 0.057552
O O10 0.290126 0.152671 0.063640
O O11 0.246647 0.396238 0.074433
O O12 0.238294 0.271409 0.492300
O O13 0.000000 0.331520 0.416281
O O14 0.500000 0.954194 0.646704
O O15 0.714288 0.077514 0.583566
O O16 0.500000 0.437145 0.688368
O O17 0.294403 0.288879 0.644774
O O18 0.232710 0.503736 0.712234
O O19 0.500000 0.226969 0.542006
O O20 0.000000 0.542337 0.630578
#
# Coordination Sequence:
#
# PCOD8167109 Si02
#       8
#     4   4   4   4   4   4   4   4
#     4  10  20  34  54  80 109 142 177 223 278 331
#     4   9  19  35  55  79 108 140 178 226 270 320
#     4   9  18  33  53  78 105 136 177 222 269 322
#     4  11  22  37  57  83 113 145 183 228 277 332
#     4   9  19  37  58  80 107 142 186 227 269 324
#     4  10  20  34  52  75 110 145 175 218 274 328
#     4  10  22  39  55  81 114 147 187 230 272 325
#     4  10  18  31  52  78 106 137 173 216 269 322
#
# _framework density 18.757178
#
# number of rings (size 3 to 8) (size 9 to 14) (size 15 to 20)
#    0.000    2.250    1.250    1.500    0.000    6.000 
#    2.250    0.000    0.000    0.000    0.000    0.000 
#    0.000    0.000    0.000    0.000    0.000    0.000 
#
# Total GULP energy -396476.372090 kJ/mol
# GULP energy per Si atom -12389.886628 kJ/mol
# Density = 1.871449 g / cm^3
# Si number density = 18.757178 Si / 1000 Ang^3
#
#
#
# Elastic Constant Matrix: (Units=GPa)
#
#
# Indices 1 2 3 4 5 6 
#
# 1 77.3510 34.4981 50.2073 0.0000 0.0000 0.0000
# 2 34.4981 66.2164 49.5988 0.0000 0.0000 0.0000
# 3 50.2073 49.5988 144.1951 0.0000 0.0000 0.0000
# 4 0.0000 0.0000 0.0000 28.8537 0.0000 0.0000
# 5 0.0000 0.0000 0.0000 0.0000 93.3109 0.0000
# 6 0.0000 0.0000 0.0000 0.0000 0.0000 14.7234
#
#
#
# Elastic Compliance Matrix: (Units=1/GPa)
#
#
# Indices 1 2 3 4 5 6 
#
# 1 0.018577 -0.006511 -0.004229 0.000000 0.000000 0.000000
# 2 -0.006511 0.022625 -0.005515 0.000000 0.000000 0.000000
# 3 -0.004229 -0.005515 0.010305 0.000000 0.000000 0.000000
# 4 0.000000 0.000000 0.000000 0.034658 0.000000 0.000000
# 5 0.000000 0.000000 0.000000 0.000000 0.010717 0.000000
# 6 0.000000 0.000000 0.000000 0.000000 0.000000 0.067919
#
#
# Mechanical properties :
#
#
# Convention : Reuss Voigt Hill
#
# Bulk Modulus (GPa) = 52.64064 61.81897 57.22981
# Shear Modulus (GPa) = 24.55288 37.60817 31.08052
#
# Velocity S-wave (km/s) = 3.62192 4.48258 4.07503
# Velocity P-wave (km/s) = 6.75398 7.73437 7.26074
#
# Compressibility (1/GPa) = 0.01899673
#
# Stress axis : x y z
#
# Youngs Moduli (GPa) = 53.83119 44.19819 97.04417
#
# Poissons Ratio (x) = 0.28776 0.41037
# Poissons Ratio (y) = 0.35048 0.53524
# Poissons Ratio (z) = 0.22763 0.24377
#
# Static dielectric constant tensor:
#      x y z
#    x 3.698750 0.000000 0.000000 
#    y 0.000000 3.280420 0.000000 
#    z 0.000000 0.000000 3.627820 
# 
# 
# High freq. dielectric constant tensor:
#      x y z
#    x 1.728470 0.000000 0.000000 
#    y 0.000000 1.702940 0.000000 
#    z 0.000000 0.000000 1.737980 
# 
# From -- ./inp_files/5060.got.cif
#   From: 2010.03.12/outbox.cif.g09.slc.cpg/sg26_3_cif.got.tgz:5060.got - 2010.04.14 03:33:09.
