data_PCOD8167743
_publ_section_title
;
Structure prediction by ZEFSAII (Michael W. Deem and Ramdas Pophale) SiO2 
 PCOD8167743
Probable space group: P M C 21
;
_chemical_formula_sum "Si O2"
_cell_formula_units_Z 32
_cell_length_a 8.562958
_cell_length_b 15.156811
_cell_length_c 11.921081
_cell_angle_alpha 90.000000
_cell_angle_beta 90.000000
_cell_angle_gamma 90.000000
_cell_volume 1547.202961
_symmetry_space_group_name_H-M "P M C 21"
_symmetry_group_IT_number 26
_symmetry_cell_setting 'orthorhombic'
loop_
_space_group_symop_operation_xyz
x,y,z
-x,-y,1/2+z
-x,y,z
x,-y,1/2+z
loop_
_atom_site_type_symbol
_atom_site_label
_atom_site_fract_x
_atom_site_fract_y
_atom_site_fract_z
Si Si1 0.324155 0.168788 0.496870
Si Si2 0.317746 0.751707 0.627873
Si Si3 0.820185 0.895354 0.218529
Si Si4 0.320318 0.590686 0.230619
Si Si5 0.180406 0.405198 0.268359
Si Si6 0.818240 0.739155 0.382982
Si Si7 0.321820 0.077078 0.269393
Si Si8 0.177432 0.653352 0.009104
O O1 0.500000 0.207206 0.496446
O O2 0.291079 0.123136 0.614533
O O3 0.305218 0.097001 0.400398
O O4 0.200821 0.245790 0.472529
O O5 0.500000 0.752735 0.599905
O O6 0.283049 0.666041 0.702760
O O7 0.223143 0.748679 0.512779
O O8 0.267770 0.839311 0.695322
O O9 0.773099 0.829827 0.319865
O O10 0.000000 0.880841 0.184945
O O11 0.794258 0.996245 0.251423
O O12 0.500000 0.565420 0.246959
O O13 0.217837 0.502784 0.227119
O O14 0.272532 0.656692 0.329752
O O15 0.295272 0.635664 0.110372
O O16 0.217686 0.405711 0.401177
O O17 0.000000 0.382825 0.245497
O O18 0.000000 0.718394 0.370512
O O19 0.500000 0.051270 0.239397
O O20 0.000000 0.638580 0.049751
#
# Coordination Sequence:
#
# PCOD8167743 Si02
#       8
#     4   4   4   4   4   4   4   4
#     4  11  22  41  68  95 127 165 210 267 324 379
#     4  11  24  44  67  95 130 170 217 267 320 384
#     4  11  25  42  65  95 129 169 215 265 316 381
#     4  12  26  43  68  97 129 171 217 267 319 381
#     4  11  25  44  68  96 131 172 212 264 323 384
#     4  11  25  45  65  93 132 172 215 266 323 384
#     4  10  24  43  65  95 130 168 211 263 320 380
#     4  11  23  42  68  96 128 167 213 265 323 383
#
# _framework density 20.682483999999999
#
# number of rings (size 3 to 8) (size 9 to 14) (size 15 to 20)
#    0.000    1.000    2.500    3.375    3.500    5.000 
#    0.000    0.000    0.000    0.000    0.000    0.000 
#    0.000    0.000    0.000    0.000    0.000    0.000 
#
# Total GULP energy -396978.189033 kJ/mol
# GULP energy per Si atom -12405.568407 kJ/mol
# Density = 2.063541 g / cm^3
# Si number density = 20.682484 Si / 1000 Ang^3
#
#
#
# Elastic Constant Matrix: (Units=GPa)
#
#
# Indices 1 2 3 4 5 6 
#
# 1 53.9840 19.0390 35.7492 0.0000 0.0000 0.0000
# 2 19.0390 107.2548 19.0147 0.0000 0.0000 0.0000
# 3 35.7492 19.0147 101.4732 0.0000 0.0000 0.0000
# 4 0.0000 0.0000 0.0000 19.6146 0.0000 0.0000
# 5 0.0000 0.0000 0.0000 0.0000 32.6015 0.0000
# 6 0.0000 0.0000 0.0000 0.0000 0.0000 34.8971
#
#
#
# Elastic Compliance Matrix: (Units=1/GPa)
#
#
# Indices 1 2 3 4 5 6 
#
# 1 0.025050 -0.002981 -0.008266 0.000000 0.000000 0.000000
# 2 -0.002981 0.009999 -0.000823 0.000000 0.000000 0.000000
# 3 -0.008266 -0.000823 0.012921 0.000000 0.000000 0.000000
# 4 0.000000 0.000000 0.000000 0.050982 0.000000 0.000000
# 5 0.000000 0.000000 0.000000 0.000000 0.030673 0.000000
# 6 0.000000 0.000000 0.000000 0.000000 0.000000 0.028656
#
#
# Mechanical properties :
#
#
# Convention : Reuss Voigt Hill
#
# Bulk Modulus (GPa) = 41.96755 45.59088 43.77921
# Shear Modulus (GPa) = 26.26524 30.01657 28.14091
#
# Velocity S-wave (km/s) = 3.56747 3.81373 3.69265
# Velocity P-wave (km/s) = 6.10774 6.44079 6.27648
#
# Compressibility (1/GPa) = 0.02382794
#
# Stress axis : x y z
#
# Youngs Moduli (GPa) = 39.92087 100.01258 77.39108
#
# Poissons Ratio (x) = 0.29815 0.63975
# Poissons Ratio (y) = 0.11901 0.06372
# Poissons Ratio (z) = 0.33000 0.08235
#
# Static dielectric constant tensor:
#      x y z
#    x 3.695800 0.000000 0.000000 
#    y 0.000000 3.727430 0.000000 
#    z 0.000000 0.000000 3.830300 
# 
# 
# High freq. dielectric constant tensor:
#      x y z
#    x 1.815230 0.000000 0.000000 
#    y 0.000000 1.813590 0.000000 
#    z 0.000000 0.000000 1.820190 
# 
# From -- ./inp_files/3010.got.cif
#   From: 2010.03.12/outbox.cif.g09.slc.cpg/sg26_2_cif.got.tgz:3010.got - 2010.04.14 03:33:09.
