data_PCOD8167921
_publ_section_title
;
Structure prediction by ZEFSAII (Michael W. Deem and Ramdas Pophale) SiO2 
 PCOD8167921
Probable space group: P C C 2
;
_chemical_formula_sum "Si O2"
_cell_formula_units_Z 32
_cell_length_a 12.934842
_cell_length_b 9.028697
_cell_length_c 12.216766
_cell_angle_alpha 90.000000
_cell_angle_beta 90.000000
_cell_angle_gamma 90.000000
_cell_volume 1426.732197
_symmetry_space_group_name_H-M "P C C 2"
_symmetry_group_IT_number 27
_symmetry_cell_setting 'orthorhombic'
loop_
_space_group_symop_operation_xyz
x,y,z
-x,-y,z
-x,y,1/2+z
x,-y,1/2+z
loop_
_atom_site_type_symbol
_atom_site_label
_atom_site_fract_x
_atom_site_fract_y
_atom_site_fract_z
Si Si1 0.903596 0.395664 0.601700
Si Si2 0.217847 0.973389 0.307405
Si Si3 0.338422 0.216998 0.652500
Si Si4 0.411098 0.109045 0.436034
Si Si5 0.280735 0.461202 0.483241
Si Si6 0.859509 0.282982 0.825921
Si Si7 0.046356 0.158397 0.949987
Si Si8 0.451230 0.641106 0.349667
O O1 0.814389 0.438012 0.517074
O O2 0.868677 0.400571 0.727741
O O3 0.931566 0.228165 0.568338
O O4 0.000000 0.500000 0.584029
O O5 0.313485 0.042451 0.373980
O O6 0.155053 0.119619 0.274128
O O7 0.242914 0.880055 0.197874
O O8 0.151023 0.860483 0.380388
O O9 0.394944 0.109105 0.566885
O O10 0.311536 0.370808 0.592740
O O11 0.404415 0.249457 0.760821
O O12 0.450929 0.275825 0.406872
O O13 0.500000 0.000000 0.402486
O O14 0.239551 0.337062 0.397255
O O15 0.368547 0.574896 0.438017
O O16 0.966514 0.272877 0.892445
O O17 0.000000 0.000000 0.975069
O O18 0.500000 0.500000 0.287776
#
# Coordination Sequence:
#
# PCOD8167921 Si02
#       8
#     4   4   4   4   4   4   4   4
#     4  12  27  42  75 101 144 191 238 296 373 430
#     4  11  25  48  72 105 144 188 242 305 361 437
#     4  12  27  45  79  99 148 193 236 303 375 426
#     4  12  27  48  70 108 144 185 249 306 357 441
#     4  12  26  48  69 110 144 190 245 307 364 447
#     4  11  25  46  68 107 144 185 248 304 353 449
#     4  10  25  47  73 102 145 189 243 302 363 437
#     4  12  26  48  72 105 146 190 244 300 370 439
#
# _framework density 22.428877
#
# number of rings (size 3 to 8) (size 9 to 14) (size 15 to 20)
#    0.000    0.500    5.000    1.500    8.750    1.500 
#    0.000    0.000    0.000    0.000    0.000    0.000 
#    0.000    0.000    0.000    0.000    0.000    0.000 
#
# Total GULP energy -396615.208966 kJ/mol
# GULP energy per Si atom -12394.225280 kJ/mol
# Density = 2.237783 g / cm^3
# Si number density = 22.428877 Si / 1000 Ang^3
#
#
#
# Elastic Constant Matrix: (Units=GPa)
#
#
# Indices 1 2 3 4 5 6 
#
# 1 103.8322 21.5755 28.4305 0.0000 0.0000 0.0000
# 2 21.5755 70.7423 32.3749 0.0000 0.0000 0.0000
# 3 28.4305 32.3749 101.6483 0.0000 0.0000 0.0000
# 4 0.0000 0.0000 0.0000 0.5759 0.0000 0.0000
# 5 0.0000 0.0000 0.0000 0.0000 59.8527 0.0000
# 6 0.0000 0.0000 0.0000 0.0000 0.0000 42.4495
#
#
#
# Elastic Compliance Matrix: (Units=1/GPa)
#
#
# Indices 1 2 3 4 5 6 
#
# 1 0.010720 -0.002221 -0.002291 0.000000 0.000000 0.000000
# 2 -0.002221 0.017008 -0.004796 0.000000 0.000000 0.000000
# 3 -0.002291 -0.004796 0.012006 0.000000 0.000000 0.000000
# 4 0.000000 0.000000 0.000000 1.736411 0.000000 0.000000
# 5 0.000000 0.000000 0.000000 0.000000 0.016708 0.000000
# 6 0.000000 0.000000 0.000000 0.000000 0.000000 0.023557
#
#
# Mechanical properties :
#
#
# Convention : Reuss Voigt Hill
#
# Bulk Modulus (GPa) = 47.35210 48.99830 48.17520
# Shear Modulus (GPa) = 2.71435 33.49841 18.10638
#
# Velocity S-wave (km/s) = 1.10129 3.86883 2.84435
# Velocity P-wave (km/s) = 4.77232 6.46920 5.68444
#
# Compressibility (1/GPa) = 0.02111839
#
# Stress axis : x y z
#
# Youngs Moduli (GPa) = 93.28633 58.79596 83.29124
#
# Poissons Ratio (x) = 0.13058 0.19081
# Poissons Ratio (y) = 0.20718 0.39945
# Poissons Ratio (z) = 0.21371 0.28198
#
# Static dielectric constant tensor:
#      x y z
#    x 2.864420 0.000000 0.000000 
#    y 0.000000 4.256470 0.000000 
#    z 0.000000 0.000000 3.848500 
# 
# 
# High freq. dielectric constant tensor:
#      x y z
#    x 1.896410 0.000000 0.000000 
#    y 0.000000 1.902010 0.000000 
#    z 0.000000 0.000000 1.875020 
# 
# From -- ./inp_files/2776.got.cif
#   From: 2010.03.12/outbox.cif.g09.slc.cpg/sg27_2_cif.got.tgz:2776.got - 2010.04.14 03:36:05.
