data_PCOD8167402
_publ_section_title
;
Structure prediction by ZEFSAII (Michael W. Deem and Ramdas Pophale) SiO2 
 PCOD8167402
Probable space group: P M C 21
;
_chemical_formula_sum "Si O2"
_cell_formula_units_Z 20
_cell_length_a 14.867779
_cell_length_b 5.210323
_cell_length_c 13.379917
_cell_angle_alpha 90.000000
_cell_angle_beta 90.000000
_cell_angle_gamma 90.000000
_cell_volume 1036.487726
_symmetry_space_group_name_H-M "P M C 21"
_symmetry_group_IT_number 26
_symmetry_cell_setting 'orthorhombic'
loop_
_space_group_symop_operation_xyz
x,y,z
-x,-y,1/2+z
-x,y,z
x,-y,1/2+z
loop_
_atom_site_type_symbol
_atom_site_label
_atom_site_fract_x
_atom_site_fract_y
_atom_site_fract_z
Si Si1 0.172958 0.364138 0.596480
Si Si2 0.225592 0.702083 0.876143
Si Si3 0.670449 0.397047 0.734441
Si Si4 0.102970 0.863028 0.700274
Si Si5 0.599288 0.888890 0.812405
O O1 0.171797 0.348591 0.476737
O O2 0.277253 0.361353 0.630343
O O3 0.124701 0.626110 0.627596
O O4 0.119462 0.123890 0.640253
O O5 0.253367 0.432677 0.822304
O O6 0.163492 0.862256 0.799669
O O7 0.319756 0.861642 0.893741
O O8 0.610008 0.656236 0.731880
O O9 0.607045 0.155543 0.753717
O O10 0.000000 0.848972 0.734197
O O11 0.500000 0.875244 0.862517
#
# Coordination Sequence:
#
# PCOD8167402 Si02
#       5
#     4   4   4   4   4
#     4  11  21  40  64  84 118 161 196 240 305 350
#     4   9  23  38  65  81 124 157 191 246 299 348
#     4   9  19  37  57  85 116 156 189 243 283 348
#     4  11  24  40  59  91 119 151 203 248 292 358
#     4  10  19  37  61  85 119 157 191 241 291 342
#
# _framework density 19.295936000000001
#
# number of rings (size 3 to 8) (size 9 to 14) (size 15 to 20)
#    1.200    0.800    2.000    1.200    2.800    1.600 
#    0.000    2.000    0.000    0.000    0.000    0.000 
#    0.000    0.000    0.000    0.000    0.000    0.000 
#
# Total GULP energy -247801.908785 kJ/mol
# GULP energy per Si atom -12390.095439 kJ/mol
# Density = 1.925202 g / cm^3
# Si number density = 19.295936 Si / 1000 Ang^3
#
#
#
# Elastic Constant Matrix: (Units=GPa)
#
#
# Indices 1 2 3 4 5 6 
#
# 1 122.1615 11.8238 20.7066 0.0000 0.0000 0.0000
# 2 11.8238 105.6864 3.9284 0.0000 0.0000 0.0000
# 3 20.7066 3.9284 89.7191 0.0000 0.0000 0.0000
# 4 0.0000 0.0000 0.0000 15.6046 0.0000 0.0000
# 5 0.0000 0.0000 0.0000 0.0000 8.3166 0.0000
# 6 0.0000 0.0000 0.0000 0.0000 0.0000 20.2287
#
#
#
# Elastic Compliance Matrix: (Units=1/GPa)
#
#
# Indices 1 2 3 4 5 6 
#
# 1 0.008602 -0.000890 -0.001946 0.000000 0.000000 0.000000
# 2 -0.000890 0.009569 -0.000214 0.000000 0.000000 0.000000
# 3 -0.001946 -0.000214 0.011604 0.000000 0.000000 0.000000
# 4 0.000000 0.000000 0.000000 0.064084 0.000000 0.000000
# 5 0.000000 0.000000 0.000000 0.000000 0.120241 0.000000
# 6 0.000000 0.000000 0.000000 0.000000 0.000000 0.049435
#
#
# Mechanical properties :
#
#
# Convention : Reuss Voigt Hill
#
# Bulk Modulus (GPa) = 42.23682 43.38719 42.81201
# Shear Modulus (GPa) = 18.01625 27.57053 22.79339
#
# Velocity S-wave (km/s) = 3.05893 3.78408 3.44067
# Velocity P-wave (km/s) = 5.86623 6.45185 6.16599
#
# Compressibility (1/GPa) = 0.02367602
#
# Stress axis : x y z
#
# Youngs Moduli (GPa) = 116.25296 104.49908 86.17388
#
# Poissons Ratio (x) = 0.09301 0.16772
# Poissons Ratio (y) = 0.10347 0.01841
# Poissons Ratio (z) = 0.22626 0.02232
#
# Static dielectric constant tensor:
#      x y z
#    x 3.459740 0.000000 0.000000 
#    y 0.000000 3.555090 0.000000 
#    z 0.000000 0.000000 3.090190 
# 
# 
# High freq. dielectric constant tensor:
#      x y z
#    x 1.751150 0.000000 0.000000 
#    y 0.000000 1.764610 0.000000 
#    z 0.000000 0.000000 1.706700 
# 
# From -- ./inp_files/3468.got.cif
#   From: 2010.03.12/outbox.cif.g09.slc.cpg/sg26_2_cif.got.tgz:3468.got - 2010.04.14 03:33:09.
