data_PCOD8167134
_publ_section_title
;
Structure prediction by ZEFSAII (Michael W. Deem and Ramdas Pophale) SiO2 
 PCOD8167134
Probable space group: P M C 21
;
_chemical_formula_sum "Si O2"
_cell_formula_units_Z 32
_cell_length_a 9.121989
_cell_length_b 16.313458
_cell_length_c 11.054055
_cell_angle_alpha 90.000000
_cell_angle_beta 90.000000
_cell_angle_gamma 90.000000
_cell_volume 1644.967017
_symmetry_space_group_name_H-M "P M C 21"
_symmetry_group_IT_number 26
_symmetry_cell_setting 'orthorhombic'
loop_
_space_group_symop_operation_xyz
x,y,z
-x,-y,1/2+z
-x,y,z
x,-y,1/2+z
loop_
_atom_site_type_symbol
_atom_site_label
_atom_site_fract_x
_atom_site_fract_y
_atom_site_fract_z
Si Si1 0.671918 0.164027 0.790300
Si Si2 0.172755 0.746392 0.489577
Si Si3 0.334138 0.837490 0.939985
Si Si4 0.672062 0.975175 0.117004
Si Si5 0.831192 0.460291 0.654249
Si Si6 0.825010 0.436212 0.926353
Si Si7 0.830561 0.726976 0.099226
Si Si8 0.333900 0.152662 0.158215
O O1 0.500000 0.175807 0.809973
O O2 0.756024 0.178759 0.914856
O O3 0.709989 0.073258 0.741404
O O4 0.729270 0.232987 0.699724
O O5 0.225409 0.658045 0.441721
O O6 0.235062 0.768310 0.622297
O O7 0.000000 0.751666 0.486491
O O8 0.500000 0.819543 0.987286
O O9 0.332968 0.853480 0.800581
O O10 0.272672 0.919510 0.005472
O O11 0.228285 0.760611 0.970737
O O12 0.500000 0.988899 0.109019
O O13 0.739443 0.066552 0.113249
O O14 0.766319 0.468898 0.793337
O O15 0.761144 0.516493 0.545974
O O16 0.809182 0.369570 0.604815
O O17 0.000000 0.484927 0.664283
O O18 0.000000 0.442520 0.924592
O O19 0.000000 0.750644 0.120248
O O20 0.500000 0.165236 0.110414
#
# Coordination Sequence:
#
# PCOD8167134 Si02
#       8
#     4   4   4   4   4   4   4   4
#     4  10  19  34  59  82 104 142 188 226 267 330
#     4  11  22  36  54  82 116 146 180 233 288 336
#     4   9  19  35  53  78 110 143 185 231 273 329
#     4   8  17  33  56  80 100 136 190 232 261 314
#     4   9  17  31  53  81 109 144 187 233 279 332
#     4   9  18  33  53  79 112 145 187 234 280 338
#     4  10  18  32  56  83 109 138 178 228 281 329
#     4  10  21  36  56  79 108 146 189 233 273 328
#
# _framework density 19.453277
#
# number of rings (size 3 to 8) (size 9 to 14) (size 15 to 20)
#    0.000    2.500    1.250    1.875    1.750    1.500 
#    0.000    5.625    0.000    3.000    0.000    0.000 
#    0.000    0.000    0.000    0.000    0.000    0.000 
#
# Total GULP energy -396434.195461 kJ/mol
# GULP energy per Si atom -12388.568608 kJ/mol
# Density = 1.940900 g / cm^3
# Si number density = 19.453277 Si / 1000 Ang^3
#
#
#
# Elastic Constant Matrix: (Units=GPa)
#
#
# Indices 1 2 3 4 5 6 
#
# 1 40.8335 30.0332 28.0357 0.0000 0.0000 0.0000
# 2 30.0332 87.9817 58.8169 0.0000 0.0000 0.0000
# 3 28.0357 58.8169 111.0961 0.0000 0.0000 0.0000
# 4 0.0000 0.0000 0.0000 27.2164 0.0000 0.0000
# 5 0.0000 0.0000 0.0000 0.0000 25.9321 0.0000
# 6 0.0000 0.0000 0.0000 0.0000 0.0000 18.6453
#
#
#
# Elastic Compliance Matrix: (Units=1/GPa)
#
#
# Indices 1 2 3 4 5 6 
#
# 1 0.033671 -0.008998 -0.003733 0.000000 0.000000 0.000000
# 2 -0.008998 0.019997 -0.008316 0.000000 0.000000 0.000000
# 3 -0.003733 -0.008316 0.014346 0.000000 0.000000 0.000000
# 4 0.000000 0.000000 0.000000 0.036743 0.000000 0.000000
# 5 0.000000 0.000000 0.000000 0.000000 0.038562 0.000000
# 6 0.000000 0.000000 0.000000 0.000000 0.000000 0.053633
#
#
# Mechanical properties :
#
#
# Convention : Reuss Voigt Hill
#
# Bulk Modulus (GPa) = 38.58160 52.63144 45.60652
# Shear Modulus (GPa) = 20.18680 22.56047 21.37363
#
# Velocity S-wave (km/s) = 3.22484 3.40917 3.31829
# Velocity P-wave (km/s) = 5.80880 6.52768 6.17870
#
# Compressibility (1/GPa) = 0.02591909
#
# Stress axis : x y z
#
# Youngs Moduli (GPa) = 29.69906 50.00738 69.70535
#
# Poissons Ratio (x) = 0.44997 0.26023
# Poissons Ratio (y) = 0.26724 0.57968
# Poissons Ratio (z) = 0.11087 0.41587
#
# Static dielectric constant tensor:
#      x y z
#    x 3.331710 0.000000 0.000000 
#    y 0.000000 3.674330 0.000000 
#    z 0.000000 0.000000 3.984830 
# 
# 
# High freq. dielectric constant tensor:
#      x y z
#    x 1.712710 0.000000 0.000000 
#    y 0.000000 1.754300 0.000000 
#    z 0.000000 0.000000 1.770590 
# 
# From -- ./inp_files/3021.got.cif
#   From: 2010.03.12/outbox.cif.g09.slc.cpg/sg26_2_cif.got.tgz:3021.got - 2010.04.14 03:33:09.
