data_PCOD8167957
_publ_section_title
;
Structure prediction by ZEFSAII (Michael W. Deem and Ramdas Pophale) SiO2 
 PCOD8167957
Probable space group: P C C 2
;
_chemical_formula_sum "Si O2"
_cell_formula_units_Z 18
_cell_length_a 5.600024
_cell_length_b 5.262308
_cell_length_c 23.707585
_cell_angle_alpha 90.000000
_cell_angle_beta 90.000000
_cell_angle_gamma 90.000000
_cell_volume 698.640034
_symmetry_space_group_name_H-M "P C C 2"
_symmetry_group_IT_number 27
_symmetry_cell_setting 'orthorhombic'
loop_
_space_group_symop_operation_xyz
x,y,z
-x,-y,z
-x,y,1/2+z
x,-y,1/2+z
loop_
_atom_site_type_symbol
_atom_site_label
_atom_site_fract_x
_atom_site_fract_y
_atom_site_fract_z
Si Si1 0.642522 0.241972 0.382120
Si Si2 0.741152 0.641798 0.642546
Si Si3 0.500000 0.000000 0.566044
Si Si4 0.856515 0.247075 0.263322
Si Si5 0.136573 0.253481 0.995766
O O1 0.500000 0.500000 0.378449
O O2 0.720056 0.165765 0.319493
O O3 0.850052 0.284836 0.427872
O O4 0.500000 0.000000 0.405972
O O5 0.500000 0.500000 0.622649
O O6 0.695685 0.696788 0.708820
O O7 0.000000 0.500000 0.634176
O O8 0.721449 0.897475 0.604937
O O9 0.605559 0.226085 0.526104
O O10 0.000000 0.500000 0.279718
O O11 0.000000 0.000000 0.244092
O O12 0.000000 0.500000 0.020684
O O13 0.000000 0.000000 0.011744
#
# Coordination Sequence:
#
# PCOD8167957 Si02
#       5
#     4   4   2   4   4
#     4  12  24  45  78 115 159 204 262 336 415 495
#     4  11  30  52  82 119 166 217 279 341 417 492
#     4  12  32  50  80 116 164 222 286 350 402 506
#     4  11  25  47  77 116 159 204 263 334 414 495
#     4  12  29  51  79 114 161 214 272 340 416 489
#
# _framework density 25.764341000000002
#
# number of rings (size 3 to 8) (size 9 to 14) (size 15 to 20)
#    0.000    0.444    1.111    4.667   14.000    0.000 
#    0.000    0.000    0.000    0.000    0.000    0.000 
#    0.000    0.000    0.000    0.000    0.000    0.000 
#
# Total GULP energy -223086.297968 kJ/mol
# GULP energy per Si atom -12393.683220 kJ/mol
# Density = 2.570570 g / cm^3
# Si number density = 25.764341 Si / 1000 Ang^3
#
#
#
# Elastic Constant Matrix: (Units=GPa)
#
#
# Indices 1 2 3 4 5 6 
#
# 1 121.0993 47.9972 44.5590 0.0000 0.0000 0.0000
# 2 47.9972 122.4387 33.8116 0.0000 0.0000 0.0000
# 3 44.5590 33.8116 169.7639 0.0000 0.0000 0.0000
# 4 0.0000 0.0000 0.0000 32.2809 0.0000 0.0000
# 5 0.0000 0.0000 0.0000 0.0000 -5.4714 0.0000
# 6 0.0000 0.0000 0.0000 0.0000 0.0000 47.5364
#
#
#
# Elastic Compliance Matrix: (Units=1/GPa)
#
#
# Indices 1 2 3 4 5 6 
#
# 1 0.010398 -0.003516 -0.002029 0.000000 0.000000 0.000000
# 2 -0.003516 0.009831 -0.001035 0.000000 0.000000 0.000000
# 3 -0.002029 -0.001035 0.006629 0.000000 0.000000 0.000000
# 4 0.000000 0.000000 0.000000 0.030978 0.000000 0.000000
# 5 0.000000 0.000000 0.000000 0.000000 -0.182767 0.000000
# 6 0.000000 0.000000 0.000000 0.000000 0.000000 0.021037
#
#
# Mechanical properties :
#
#
# Convention : Reuss Voigt Hill
#
# Bulk Modulus (GPa) = 73.00072 74.00418 73.50245
# Shear Modulus (GPa) = -58.02622 33.99809 -12.01406
#
# Velocity S-wave (km/s) = -4.75087 3.63654 -2.16175
# Velocity P-wave (km/s) = 1.30341 6.81311 4.72861
#
# Compressibility (1/GPa) = 0.01369850
#
# Stress axis : x y z
#
# Youngs Moduli (GPa) = 96.17531 101.71436 150.84588
#
# Poissons Ratio (x) = 0.35760 0.30606
# Poissons Ratio (y) = 0.33812 0.15617
# Poissons Ratio (z) = 0.19513 0.10531
#
# Static dielectric constant tensor:
#      x y z
#    x 4.543060 0.000000 0.000000 
#    y 0.000000 4.704470 0.000000 
#    z 0.000000 0.000000 5.265990 
# 
# 
# High freq. dielectric constant tensor:
#      x y z
#    x 2.008480 0.000000 0.000000 
#    y 0.000000 2.044300 0.000000 
#    z 0.000000 0.000000 2.063170 
# 
# From -- ./inp_files/4912.got.cif
#   From: 2010.03.12/outbox.cif.g09.slc.cpg/sg27_3_cif.got.tgz:4912.got - 2010.04.14 03:36:05.
