data_PCOD8167798
_publ_section_title
;
Structure prediction by ZEFSAII (Michael W. Deem and Ramdas Pophale) SiO2 
 PCOD8167798
Probable space group: P C C 2
;
_chemical_formula_sum "Si O2"
_cell_formula_units_Z 24
_cell_length_a 5.270718
_cell_length_b 8.658323
_cell_length_c 24.446293
_cell_angle_alpha 90.000000
_cell_angle_beta 90.000000
_cell_angle_gamma 90.000000
_cell_volume 1115.620733
_symmetry_space_group_name_H-M "P C C 2"
_symmetry_group_IT_number 27
_symmetry_cell_setting 'orthorhombic'
loop_
_space_group_symop_operation_xyz
x,y,z
-x,-y,z
-x,y,1/2+z
x,-y,1/2+z
loop_
_atom_site_type_symbol
_atom_site_label
_atom_site_fract_x
_atom_site_fract_y
_atom_site_fract_z
Si Si1 0.252432 0.329560 0.153030
Si Si2 0.248467 0.902925 0.319971
Si Si3 0.088151 0.329369 0.273533
Si Si4 0.754401 0.321860 0.106599
Si Si5 0.750340 0.601190 0.486165
Si Si6 0.572462 0.321215 0.875467
O O1 0.254220 0.332017 0.218583
O O2 0.501113 0.241161 0.130489
O O3 0.248433 0.500430 0.126851
O O4 0.001594 0.239735 0.132384
O O5 0.327675 0.791635 0.371133
O O6 0.151894 0.789207 0.270442
O O7 0.500000 0.000000 0.301239
O O8 0.000000 0.000000 0.338258
O O9 0.257576 0.271864 0.323993
O O10 0.000000 0.500000 0.287218
O O11 0.775500 0.300632 0.041452
O O12 0.500000 0.500000 0.493516
O O13 0.714849 0.710830 0.433049
O O14 0.000000 0.500000 0.476673
O O15 0.500000 0.500000 0.872059
#
# Coordination Sequence:
#
# PCOD8167798 Si02
#       6
#     4   4   4   4   4   4
#     4  10  20  30  55  84 130 165 201 257 328 383
#     4  12  27  46  63  90 137 180 219 260 331 416
#     4  12  23  39  66 100 133 164 222 278 332 383
#     4  10  17  33  49  85 131 168 197 255 334 384
#     4  11  20  34  55  87 134 165 208 264 335 378
#     4  11  25  38  67  99 132 166 218 284 331 380
#
# _framework density 21.512684
#
# number of rings (size 3 to 8) (size 9 to 14) (size 15 to 20)
#    0.000    1.000    8.333    0.500    7.000    0.000 
#    0.000    0.000    0.000    0.000    0.000    7.000 
#    0.000    0.000    0.000    0.000    0.000    0.000 
#
# Total GULP energy -297313.604006 kJ/mol
# GULP energy per Si atom -12388.066834 kJ/mol
# Density = 2.146372 g / cm^3
# Si number density = 21.512684 Si / 1000 Ang^3
#
#
#
# Elastic Constant Matrix: (Units=GPa)
#
#
# Indices 1 2 3 4 5 6 
#
# 1 185.4899 35.9754 56.1816 0.0000 0.0000 0.0000
# 2 35.9754 78.6191 16.6948 0.0000 0.0000 0.0000
# 3 56.1816 16.6948 178.6647 0.0000 0.0000 0.0000
# 4 0.0000 0.0000 0.0000 0.7746 0.0000 0.0000
# 5 0.0000 0.0000 0.0000 0.0000 36.8996 0.0000
# 6 0.0000 0.0000 0.0000 0.0000 0.0000 27.4801
#
#
#
# Elastic Compliance Matrix: (Units=1/GPa)
#
#
# Indices 1 2 3 4 5 6 
#
# 1 0.006428 -0.002563 -0.001782 0.000000 0.000000 0.000000
# 2 -0.002563 0.013999 -0.000502 0.000000 0.000000 0.000000
# 3 -0.001782 -0.000502 0.006204 0.000000 0.000000 0.000000
# 4 0.000000 0.000000 0.000000 1.291044 0.000000 0.000000
# 5 0.000000 0.000000 0.000000 0.000000 0.027101 0.000000
# 6 0.000000 0.000000 0.000000 0.000000 0.000000 0.036390
#
#
# Mechanical properties :
#
#
# Convention : Reuss Voigt Hill
#
# Bulk Modulus (GPa) = 59.04121 73.38637 66.21379
# Shear Modulus (GPa) = 3.58037 35.29230 19.43633
#
# Velocity S-wave (km/s) = 1.29148 4.05475 3.00906
# Velocity P-wave (km/s) = 5.45237 7.49055 6.55121
#
# Compressibility (1/GPa) = 0.01693732
#
# Stress axis : x y z
#
# Youngs Moduli (GPa) = 155.57224 71.43377 161.17896
#
# Poissons Ratio (x) = 0.18308 0.28718
# Poissons Ratio (y) = 0.39873 0.08094
# Poissons Ratio (z) = 0.27719 0.03587
#
# Static dielectric constant tensor:
#      x y z
#    x 5.853910 0.000000 0.000000 
#    y 0.000000 3.519540 0.000000 
#    z 0.000000 0.000000 4.098300 
# 
# 
# High freq. dielectric constant tensor:
#      x y z
#    x 1.879990 0.000000 0.000000 
#    y 0.000000 1.780950 0.000000 
#    z 0.000000 0.000000 1.837860 
# 
# From -- ./inp_files/4975.got.cif
#   From: 2010.03.12/outbox.cif.g09.slc.cpg/sg27_3_cif.got.tgz:4975.got - 2010.04.14 03:36:05.
