data_PCOD8167747
_publ_section_title
;
Structure prediction by ZEFSAII (Michael W. Deem and Ramdas Pophale) SiO2 
 PCOD8167747
Probable space group: P M C 21
;
_chemical_formula_sum "Si O2"
_cell_formula_units_Z 20
_cell_length_a 14.229860
_cell_length_b 5.023203
_cell_length_c 10.807450
_cell_angle_alpha 90.000000
_cell_angle_beta 90.000000
_cell_angle_gamma 90.000000
_cell_volume 772.510857
_symmetry_space_group_name_H-M "P M C 21"
_symmetry_group_IT_number 26
_symmetry_cell_setting 'orthorhombic'
loop_
_space_group_symop_operation_xyz
x,y,z
-x,-y,1/2+z
-x,y,z
x,-y,1/2+z
loop_
_atom_site_type_symbol
_atom_site_label
_atom_site_fract_x
_atom_site_fract_y
_atom_site_fract_z
Si Si1 0.343801 0.773145 0.280410
Si Si2 0.808845 0.523093 0.116247
Si Si3 0.000000 0.284519 0.196399
Si Si4 0.798547 0.043638 0.958098
Si Si5 0.000000 0.966526 0.438048
Si Si6 0.500000 0.974131 0.104411
Si Si7 0.500000 0.470771 0.942709
O O1 0.266021 0.589068 0.220083
O O2 0.284982 0.990133 0.359324
O O3 0.405988 0.932140 0.182460
O O4 0.407372 0.579998 0.363114
O O5 0.909779 0.468408 0.174921
O O6 0.763652 0.258729 0.057050
O O7 0.820168 0.757846 0.016382
O O8 0.000000 0.038004 0.093058
O O9 0.000000 0.219116 0.343608
O O10 0.898446 0.162622 0.903039
O O11 0.500000 0.778003 0.985679
O O12 0.500000 0.279370 0.062145
#
# Coordination Sequence:
#
# PCOD8167747 Si02
#       7
#     4   4   2   4   2   2   2
#     4  11  26  44  79 104 145 200 245 318 383 469
#     4  11  26  46  70 109 149 197 251 315 373 455
#     4  10  25  51  76 114 162 212 260 318 386 458
#     4  11  26  45  70 109 150 194 255 310 377 450
#     4  10  25  47  76 110 158 210 252 318 374 462
#     4  11  26  49  72 104 150 185 251 310 394 458
#     4  11  26  49  70 108 144 189 247 316 386 466
#
# _framework density 25.889603999999999
#
# number of rings (size 3 to 8) (size 9 to 14) (size 15 to 20)
#    0.000    1.200    0.000    3.000    8.400    7.200 
#    0.000    0.000    0.000    0.000    0.000    0.000 
#    0.000    0.000    0.000    0.000    0.000    0.000 
#
# Total GULP energy -247783.427150 kJ/mol
# GULP energy per Si atom -12389.171358 kJ/mol
# Density = 2.583068 g / cm^3
# Si number density = 25.889604 Si / 1000 Ang^3
#
#
#
# Elastic Constant Matrix: (Units=GPa)
#
#
# Indices 1 2 3 4 5 6 
#
# 1 205.3775 16.0401 78.5093 0.0000 0.0000 0.0000
# 2 16.0401 78.7098 34.6427 0.0000 0.0000 0.0000
# 3 78.5093 34.6427 119.1541 0.0000 0.0000 0.0000
# 4 0.0000 0.0000 0.0000 43.0591 0.0000 0.0000
# 5 0.0000 0.0000 0.0000 0.0000 44.8573 0.0000
# 6 0.0000 0.0000 0.0000 0.0000 0.0000 33.6140
#
#
#
# Elastic Compliance Matrix: (Units=1/GPa)
#
#
# Indices 1 2 3 4 5 6 
#
# 1 0.006537 0.000646 -0.004495 0.000000 0.000000 0.000000
# 2 0.000646 0.014633 -0.004680 0.000000 0.000000 0.000000
# 3 -0.004495 -0.004680 0.012715 0.000000 0.000000 0.000000
# 4 0.000000 0.000000 0.000000 0.023224 0.000000 0.000000
# 5 0.000000 0.000000 0.000000 0.000000 0.022293 0.000000
# 6 0.000000 0.000000 0.000000 0.000000 0.000000 0.029750
#
#
# Mechanical properties :
#
#
# Convention : Reuss Voigt Hill
#
# Bulk Modulus (GPa) = 59.42826 73.51398 66.47112
# Shear Modulus (GPa) = 37.93104 42.57603 40.25353
#
# Velocity S-wave (km/s) = 3.83182 4.05967 3.94739
# Velocity P-wave (km/s) = 6.52545 7.10151 6.81956
#
# Compressibility (1/GPa) = 0.01682701
#
# Stress axis : x y z
#
# Youngs Moduli (GPa) = 152.97780 68.33817 78.64790
#
# Poissons Ratio (x) = -0.04416 0.35352
# Poissons Ratio (y) = -0.09886 0.36809
# Poissons Ratio (z) = 0.68763 0.31984
#
# Static dielectric constant tensor:
#      x y z
#    x 5.110280 0.000000 0.000000 
#    y 0.000000 4.285790 0.000000 
#    z 0.000000 0.000000 4.979950 
# 
# 
# High freq. dielectric constant tensor:
#      x y z
#    x 2.072810 0.000000 0.000000 
#    y 0.000000 2.010780 0.000000 
#    z 0.000000 0.000000 2.040940 
# 
# From -- ./inp_files/3458.got.cif
#   From: 2010.03.12/outbox.cif.g09.slc.cpg/sg26_2_cif.got.tgz:3458.got - 2010.04.14 03:33:09.
