data_PCOD8167994
_publ_section_title
;
Structure prediction by ZEFSAII (Michael W. Deem and Ramdas Pophale) SiO2 
 PCOD8167994
Probable space group: P M A 2
;
_chemical_formula_sum "Si O2"
_cell_formula_units_Z 28
_cell_length_a 8.662769
_cell_length_b 9.135412
_cell_length_c 18.197245
_cell_angle_alpha 90.000000
_cell_angle_beta 90.000000
_cell_angle_gamma 90.000000
_cell_volume 1440.092917
_symmetry_space_group_name_H-M "P M A 2"
_symmetry_group_IT_number 28
_symmetry_cell_setting 'orthorhombic'
loop_
_space_group_symop_operation_xyz
x,y,z
-x,-y,z
1/2-x,y,z
1/2+x,-y,z
loop_
_atom_site_type_symbol
_atom_site_label
_atom_site_fract_x
_atom_site_fract_y
_atom_site_fract_z
Si Si1 0.567012 0.838149 0.439020
Si Si2 0.567493 0.340517 0.023663
Si Si3 0.070823 0.160761 0.894309
Si Si4 0.428100 0.158228 0.731790
Si Si5 0.067511 0.837484 0.588722
Si Si6 0.068256 0.840238 0.162930
Si Si7 0.933156 0.339959 0.305398
O O1 0.750000 0.848378 0.439620
O O2 0.507002 0.767019 0.515739
O O3 0.510432 0.732132 0.375802
O O4 0.500000 0.000000 0.426825
O O5 0.500000 0.500000 0.034706
O O6 0.750000 0.351469 0.024394
O O7 0.505241 0.240582 0.090364
O O8 0.513339 0.273485 0.947117
O O9 0.250000 0.148656 0.915061
O O10 0.050006 0.230180 0.812238
O O11 0.000000 0.000000 0.902890
O O12 0.250000 0.145033 0.709847
O O13 0.515216 0.244173 0.664718
O O14 0.500000 0.000000 0.740946
O O15 0.250000 0.837266 0.580548
O O16 0.000000 0.000000 0.595364
O O17 0.250000 0.853853 0.159594
O O18 0.015383 0.751294 0.234383
O O19 0.000000 0.000000 0.167493
O O20 0.750000 0.344682 0.315539
O O21 0.000000 0.500000 0.294794
#
# Coordination Sequence:
#
# PCOD8167994 Si02
#       7
#     4   4   4   4   4   4   4
#     4  11  21  35  55  81 112 147 187 232 279 328
#     4  11  23  39  58  82 112 148 187 228 276 330
#     4  10  20  34  54  81 112 147 187 232 279 329
#     4   9  16  27  45  72 106 141 179 225 277 327
#     4  10  17  27  46  74 107 142 181 227 278 328
#     4  10  23  40  61  87 114 144 181 226 274 325
#     4  11  23  40  59  83 113 147 186 226 274 329
#
# _framework density 19.443190999999999
#
# number of rings (size 3 to 8) (size 9 to 14) (size 15 to 20)
#    0.000    1.714    0.000    7.286    0.000    6.286 
#    0.000    0.000    0.000    0.857    0.000    2.000 
#    0.000    0.000    0.000    0.000    0.000    0.000 
#
# Total GULP energy -347132.889791 kJ/mol
# GULP energy per Si atom -12397.603207 kJ/mol
# Density = 1.939894 g / cm^3
# Si number density = 19.443191 Si / 1000 Ang^3
#
#
#
# Elastic Constant Matrix: (Units=GPa)
#
#
# Indices 1 2 3 4 5 6 
#
# 1 128.2061 46.1814 67.3923 0.0000 0.0000 0.0000
# 2 46.1814 108.8354 69.5930 0.0000 0.0000 0.0000
# 3 67.3923 69.5930 177.7577 0.0000 0.0000 0.0000
# 4 0.0000 0.0000 0.0000 5.9945 0.0000 0.0000
# 5 0.0000 0.0000 0.0000 0.0000 32.0760 0.0000
# 6 0.0000 0.0000 0.0000 0.0000 0.0000 29.8755
#
#
#
# Elastic Compliance Matrix: (Units=1/GPa)
#
#
# Indices 1 2 3 4 5 6 
#
# 1 0.010219 -0.002480 -0.002904 0.000000 0.000000 0.000000
# 2 -0.002480 0.012858 -0.004094 0.000000 0.000000 0.000000
# 3 -0.002904 -0.004094 0.008329 0.000000 0.000000 0.000000
# 4 0.000000 0.000000 0.000000 0.166820 0.000000 0.000000
# 5 0.000000 0.000000 0.000000 0.000000 0.031176 0.000000
# 6 0.000000 0.000000 0.000000 0.000000 0.000000 0.033472
#
#
# Mechanical properties :
#
#
# Convention : Reuss Voigt Hill
#
# Bulk Modulus (GPa) = 80.30570 86.79248 83.54909
# Shear Modulus (GPa) = 17.48369 29.03137 23.25753
#
# Velocity S-wave (km/s) = 3.00195 3.86831 3.46233
# Velocity P-wave (km/s) = 7.30808 8.04286 7.68426
#
# Compressibility (1/GPa) = 0.01245242
#
# Stress axis : x y z
#
# Youngs Moduli (GPa) = 97.85248 77.77161 120.05855
#
# Poissons Ratio (x) = 0.19285 0.34861
# Poissons Ratio (y) = 0.24264 0.49151
# Poissons Ratio (z) = 0.28413 0.31839
#
# Static dielectric constant tensor:
#      x y z
#    x 3.673120 0.000000 0.000000 
#    y 0.000000 3.140560 0.000000 
#    z 0.000000 0.000000 4.531370 
# 
# 
# High freq. dielectric constant tensor:
#      x y z
#    x 1.773090 0.000000 0.000000 
#    y 0.000000 1.714860 0.000000 
#    z 0.000000 0.000000 1.789240 
# 
# From -- ./inp_files/6847.got.cif
#   From: 2010.03.12/outbox.cif.g09.slc.cpg/sg28_4_cif.got.tgz:6847.got - 2010.04.14 03:39:34.
