data_PCOD8167789
_publ_section_title
;
Structure prediction by ZEFSAII (Michael W. Deem and Ramdas Pophale) SiO2 
 PCOD8167789
Probable space group: P C C 2
;
_chemical_formula_sum "Si O2"
_cell_formula_units_Z 24
_cell_length_a 27.539581
_cell_length_b 7.210231
_cell_length_c 5.307511
_cell_angle_alpha 90.000000
_cell_angle_beta 90.000000
_cell_angle_gamma 90.000000
_cell_volume 1053.895160
_symmetry_space_group_name_H-M "P C C 2"
_symmetry_group_IT_number 27
_symmetry_cell_setting 'orthorhombic'
loop_
_space_group_symop_operation_xyz
x,y,z
-x,-y,z
-x,y,1/2+z
x,-y,1/2+z
loop_
_atom_site_type_symbol
_atom_site_label
_atom_site_fract_x
_atom_site_fract_y
_atom_site_fract_z
Si Si1 0.324643 0.206882 0.017800
Si Si2 0.226789 0.618144 0.580299
Si Si3 0.634610 0.206472 0.017705
Si Si4 0.118681 0.379727 0.063573
Si Si5 0.979470 0.792550 0.043318
Si Si6 0.520358 0.205593 0.013599
O O1 0.266478 0.219478 0.047989
O O2 0.351203 0.307585 0.255398
O O3 0.341841 0.309650 0.759544
O O4 0.341713 0.996294 0.987033
O O5 0.234027 0.470714 0.355775
O O6 0.172918 0.707052 0.560426
O O7 0.577437 0.197051 0.054783
O O8 0.110855 0.494094 0.318801
O O9 0.079210 0.213893 0.056045
O O10 0.001961 0.690285 0.288914
O O11 0.000000 0.000000 0.030161
O O12 0.505246 0.308125 0.752017
O O13 0.500000 0.000000 0.972070
#
# Coordination Sequence:
#
# PCOD8167789 Si02
#       6
#     4   4   4   4   4   4
#     4  10  18  32  49  70 103 133 163 211 261 309
#     4  10  21  37  55  76 102 136 180 220 253 296
#     4  10  19  30  47  76 106 130 163 207 264 324
#     4  10  21  37  58  81 105 139 184 227 264 310
#     4  10  21  37  55  82 116 145 174 219 270 319
#     4  10  16  25  41  65 102 131 157 199 251 318
#
# _framework density 22.772666000000001
#
# number of rings (size 3 to 8) (size 9 to 14) (size 15 to 20)
#    0.000    2.000    0.000    7.000    0.000    2.000 
#    0.000    6.667    0.000    0.000    0.000    0.000 
#    0.000  162.667    0.000    0.000    0.000    0.000 
#
# Total GULP energy -297359.266289 kJ/mol
# GULP energy per Si atom -12389.969429 kJ/mol
# Density = 2.272083 g / cm^3
# Si number density = 22.772666 Si / 1000 Ang^3
#
#
#
# Elastic Constant Matrix: (Units=GPa)
#
#
# Indices 1 2 3 4 5 6 
#
# 1 190.2083 27.8435 25.6968 0.0000 0.0000 0.0000
# 2 27.8435 28.9773 -7.1812 0.0000 0.0000 0.0000
# 3 25.6968 -7.1812 221.9934 0.0000 0.0000 0.0000
# 4 0.0000 0.0000 0.0000 6.2986 0.0000 0.0000
# 5 0.0000 0.0000 0.0000 0.0000 46.0247 0.0000
# 6 0.0000 0.0000 0.0000 0.0000 0.0000 25.5522
#
#
#
# Elastic Compliance Matrix: (Units=1/GPa)
#
#
# Indices 1 2 3 4 5 6 
#
# 1 0.006304 -0.006289 -0.000933 0.000000 0.000000 0.000000
# 2 -0.006289 0.041062 0.002056 0.000000 0.000000 0.000000
# 3 -0.000933 0.002056 0.004679 0.000000 0.000000 0.000000
# 4 0.000000 0.000000 0.000000 0.158765 0.000000 0.000000
# 5 0.000000 0.000000 0.000000 0.000000 0.021727 0.000000
# 6 0.000000 0.000000 0.000000 0.000000 0.000000 0.039136
#
#
# Mechanical properties :
#
#
# Convention : Reuss Voigt Hill
#
# Bulk Modulus (GPa) = 23.97278 59.32193 41.64736
# Shear Modulus (GPa) = 16.89710 41.89642 29.39676
#
# Velocity S-wave (km/s) = 2.72691 4.29390 3.59678
# Velocity P-wave (km/s) = 4.52377 7.11967 5.96465
#
# Compressibility (1/GPa) = 0.04171397
#
# Stress axis : x y z
#
# Youngs Moduli (GPa) = 158.62911 24.35352 213.71308
#
# Poissons Ratio (x) = 0.15315 0.19943
# Poissons Ratio (y) = 0.99755 -0.43944
# Poissons Ratio (z) = 0.14802 -0.05008
#
# Static dielectric constant tensor:
#      x y z
#    x 4.277370 0.000000 0.000000 
#    y 0.000000 2.964850 0.000000 
#    z 0.000000 0.000000 6.765800 
# 
# 
# High freq. dielectric constant tensor:
#      x y z
#    x 1.910440 0.000000 0.000000 
#    y 0.000000 1.830010 0.000000 
#    z 0.000000 0.000000 1.950820 
# 
# From -- ./inp_files/176.got.cif
#   From: 2010.03.12/outbox.cif.g09.slc.cpg/sg27_1_cif.got.tgz:176.got - 2010.04.14 03:36:05.
