data_PCOD8167999
_publ_section_title
;
Structure prediction by ZEFSAII (Michael W. Deem and Ramdas Pophale) SiO2 
 PCOD8167999
Probable space group: P M A 2
;
_chemical_formula_sum "Si O2"
_cell_formula_units_Z 32
_cell_length_a 16.935235
_cell_length_b 8.392800
_cell_length_c 11.981868
_cell_angle_alpha 90.000000
_cell_angle_beta 90.000000
_cell_angle_gamma 90.000000
_cell_volume 1703.031309
_symmetry_space_group_name_H-M "P M A 2"
_symmetry_group_IT_number 28
_symmetry_cell_setting 'orthorhombic'
loop_
_space_group_symop_operation_xyz
x,y,z
-x,-y,z
1/2-x,y,z
1/2+x,-y,z
loop_
_atom_site_type_symbol
_atom_site_label
_atom_site_fract_x
_atom_site_fract_y
_atom_site_fract_z
Si Si1 0.432603 0.878786 0.154370
Si Si2 0.157573 0.309111 0.602167
Si Si3 0.524414 0.680433 0.986084
Si Si4 0.160407 0.312684 0.353052
Si Si5 0.073550 0.615222 0.588028
Si Si6 0.842015 0.827791 0.127443
Si Si7 0.924200 0.385694 0.339283
Si Si8 0.981562 0.818172 0.745040
O O1 0.414966 0.757178 0.253503
O O2 0.500000 0.000000 0.194889
O O3 0.356026 0.982094 0.117491
O O4 0.457974 0.788309 0.042907
O O5 0.250000 0.265802 0.620442
O O6 0.125664 0.271812 0.475659
O O7 0.147870 0.501405 0.620970
O O8 0.102321 0.201837 0.681311
O O9 0.500000 0.500000 0.010218
O O10 0.525577 0.713202 0.855412
O O11 0.610380 0.723147 0.037008
O O12 0.250000 0.263273 0.357477
O O13 0.122525 0.215195 0.250562
O O14 0.151421 0.500132 0.326515
O O15 0.078001 0.688554 0.463637
O O16 0.057773 0.758272 0.674353
O O17 0.000000 0.500000 0.597019
O O18 0.750000 0.786411 0.112325
O O19 0.000000 0.500000 0.318204
O O20 0.000000 0.000000 0.775136
#
# Coordination Sequence:
#
# PCOD8167999 Si02
#       8
#     4   4   4   4   4   4   4   4
#     4  10  20  32  50  76 106 138 170 213 264 312
#     4   9  18  35  57  78 105 142 179 213 252 304
#     4  11  22  39  59  75  98 137 182 221 259 308
#     4   9  18  33  52  76 107 140 172 209 255 304
#     4   8  17  32  51  76 105 137 176 217 255 301
#     4  10  21  36  54  79 111 140 169 212 265 315
#     4  10  17  29  51  77 103 136 178 215 247 298
#     4  11  22  36  55  79 107 136 170 218 270 314
#
# _framework density 18.790023999999999
#
# number of rings (size 3 to 8) (size 9 to 14) (size 15 to 20)
#    0.000    2.250    0.000    5.625    0.000    2.500 
#    0.000    1.250    0.000    3.000    0.000    0.000 
#    0.000    0.000    0.000    0.000    0.000    0.000 
#
# Total GULP energy -396529.364988 kJ/mol
# GULP energy per Si atom -12391.542656 kJ/mol
# Density = 1.874726 g / cm^3
# Si number density = 18.790024 Si / 1000 Ang^3
#
#
#
# Elastic Constant Matrix: (Units=GPa)
#
#
# Indices 1 2 3 4 5 6 
#
# 1 65.0956 32.5166 36.3501 0.0000 0.0000 0.0000
# 2 32.5166 93.9869 41.9680 0.0000 0.0000 0.0000
# 3 36.3501 41.9680 112.8779 0.0000 0.0000 0.0000
# 4 0.0000 0.0000 0.0000 23.0801 0.0000 0.0000
# 5 0.0000 0.0000 0.0000 0.0000 15.0902 0.0000
# 6 0.0000 0.0000 0.0000 0.0000 0.0000 21.9897
#
#
#
# Elastic Compliance Matrix: (Units=1/GPa)
#
#
# Indices 1 2 3 4 5 6 
#
# 1 0.020499 -0.004969 -0.004754 0.000000 0.000000 0.000000
# 2 -0.004969 0.013962 -0.003591 0.000000 0.000000 0.000000
# 3 -0.004754 -0.003591 0.011725 0.000000 0.000000 0.000000
# 4 0.000000 0.000000 0.000000 0.043327 0.000000 0.000000
# 5 0.000000 0.000000 0.000000 0.000000 0.066268 0.000000
# 6 0.000000 0.000000 0.000000 0.000000 0.000000 0.045476
#
#
# Mechanical properties :
#
#
# Convention : Reuss Voigt Hill
#
# Bulk Modulus (GPa) = 51.12871 54.84776 52.98824
# Shear Modulus (GPa) = 21.33058 22.77370 22.05214
#
# Velocity S-wave (km/s) = 3.37294 3.48517 3.42951
# Velocity P-wave (km/s) = 6.51449 6.74154 6.62899
#
# Compressibility (1/GPa) = 0.01955848
#
# Stress axis : x y z
#
# Youngs Moduli (GPa) = 48.78338 71.62042 85.28727
#
# Poissons Ratio (x) = 0.35590 0.40543
# Poissons Ratio (y) = 0.24242 0.30627
# Poissons Ratio (z) = 0.23190 0.25719
#
# Static dielectric constant tensor:
#      x y z
#    x 3.537100 0.000000 0.000000 
#    y 0.000000 3.648620 0.000000 
#    z 0.000000 0.000000 3.653720 
# 
# 
# High freq. dielectric constant tensor:
#      x y z
#    x 1.713350 0.000000 0.000000 
#    y 0.000000 1.719270 0.000000 
#    z 0.000000 0.000000 1.735890 
# 
# From -- ./inp_files/5758.got.cif
#   From: 2010.03.12/outbox.cif.g09.slc.cpg/sg28_3_cif.got.tgz:5758.got - 2010.04.14 03:39:34.
