data_PCOD8167845
_publ_section_title
;
Structure prediction by ZEFSAII (Michael W. Deem and Ramdas Pophale) SiO2 
 PCOD8167845
Probable space group: P C C 2
;
_chemical_formula_sum "Si O2"
_cell_formula_units_Z 22
_cell_length_a 5.342101
_cell_length_b 5.411084
_cell_length_c 29.335436
_cell_angle_alpha 90.000000
_cell_angle_beta 90.000000
_cell_angle_gamma 90.000000
_cell_volume 847.986460
_symmetry_space_group_name_H-M "P C C 2"
_symmetry_group_IT_number 27
_symmetry_cell_setting 'orthorhombic'
loop_
_space_group_symop_operation_xyz
x,y,z
-x,-y,z
-x,y,1/2+z
x,-y,1/2+z
loop_
_atom_site_type_symbol
_atom_site_label
_atom_site_fract_x
_atom_site_fract_y
_atom_site_fract_z
Si Si1 0.852500 0.740376 0.225750
Si Si2 0.250914 0.363402 0.516132
Si Si3 0.366051 0.248535 0.132522
Si Si4 0.250445 0.160337 0.420596
Si Si5 0.748968 0.842483 0.321826
Si Si6 0.000000 0.000000 0.074337
O O1 0.639689 0.763212 0.187620
O O2 0.745515 0.673037 0.276370
O O3 0.000000 0.500000 0.208905
O O4 0.000000 0.000000 0.226956
O O5 0.500000 0.500000 0.534032
O O6 0.259066 0.356020 0.461153
O O7 0.224294 0.097591 0.540963
O O8 0.000000 0.500000 0.531501
O O9 0.500000 0.500000 0.116179
O O10 0.096383 0.223052 0.107536
O O11 0.500000 0.000000 0.115342
O O12 0.250796 0.299491 0.370837
O O13 0.500000 0.000000 0.424888
O O14 0.000000 0.000000 0.425986
O O15 0.500000 0.000000 0.318758
O O16 0.000000 0.000000 0.320392
#
# Coordination Sequence:
#
# PCOD8167845 Si02
#       6
#     4   4   4   4   4   2
#     4  11  23  46  74 112 155 200 254 321 388 469
#     4  12  29  48  78 113 153 204 264 329 403 476
#     4  12  29  50  82 113 155 209 264 331 405 477
#     4  10  20  43  72 107 153 199 249 317 387 467
#     4   9  20  39  72 108 151 200 250 308 385 466
#     4  12  32  52  74 110 162 200 282 334 416 472
#
# _framework density 25.943811
#
# number of rings (size 3 to 8) (size 9 to 14) (size 15 to 20)
#    0.000    1.091    1.818    2.727    5.091    2.182 
#    0.000    4.545    0.000    0.000    0.000    0.000 
#    0.000    0.000    0.000    0.000    0.000    0.000 
#
# Total GULP energy -272561.590553 kJ/mol
# GULP energy per Si atom -12389.163207 kJ/mol
# Density = 2.588476 g / cm^3
# Si number density = 25.943811 Si / 1000 Ang^3
#
#
#
# Elastic Constant Matrix: (Units=GPa)
#
#
# Indices 1 2 3 4 5 6 
#
# 1 165.8074 44.3680 33.3848 0.0000 0.0000 0.0000
# 2 44.3680 130.4018 35.4394 0.0000 0.0000 0.0000
# 3 33.3848 35.4394 202.4026 0.0000 0.0000 0.0000
# 4 0.0000 0.0000 0.0000 -25.6548 0.0000 0.0000
# 5 0.0000 0.0000 0.0000 0.0000 1332.8674 0.0000
# 6 0.0000 0.0000 0.0000 0.0000 0.0000 44.0609
#
#
#
# Elastic Compliance Matrix: (Units=1/GPa)
#
#
# Indices 1 2 3 4 5 6 
#
# 1 0.006741 -0.002091 -0.000746 0.000000 0.000000 0.000000
# 2 -0.002091 0.008700 -0.001179 0.000000 0.000000 0.000000
# 3 -0.000746 -0.001179 0.005270 0.000000 0.000000 0.000000
# 4 0.000000 0.000000 0.000000 -0.038979 0.000000 0.000000
# 5 0.000000 0.000000 0.000000 0.000000 0.000750 0.000000
# 6 0.000000 0.000000 0.000000 0.000000 0.000000 0.022696
#
#
# Mechanical properties :
#
#
# Convention : Reuss Voigt Hill
#
# Bulk Modulus (GPa) = 78.85876 80.55514 79.70695
# Shear Modulus (GPa) = 286.77649 295.94933 291.36291
#
# Velocity S-wave (km/s) = 10.52509 10.69209 10.60892
# Velocity P-wave (km/s) = 13.34786 13.54788 13.44824
#
# Compressibility (1/GPa) = 0.01268090
#
# Stress axis : x y z
#
# Youngs Moduli (GPa) = 148.35210 114.93902 189.75332
#
# Poissons Ratio (x) = 0.24031 0.14151
# Poissons Ratio (y) = 0.31017 0.22362
# Poissons Ratio (z) = 0.11063 0.13546
#
# Static dielectric constant tensor:
#      x y z
#    x -7.552650 0.000000 0.000000 
#    y 0.000000 4.308910 0.000000 
#    z 0.000000 0.000000 5.497400 
# 
# 
# High freq. dielectric constant tensor:
#      x y z
#    x 2.043780 0.000000 0.000000 
#    y 0.000000 2.001160 0.000000 
#    z 0.000000 0.000000 2.081930 
# 
# From -- ./inp_files/5299.got.cif
#   From: 2010.03.12/outbox.cif.g09.slc.cpg/sg27_3_cif.got.tgz:5299.got - 2010.04.14 03:36:05.
