data_PCOD8167001
_publ_section_title
;
Structure prediction by ZEFSAII (Michael W. Deem and Ramdas Pophale) SiO2 
 PCOD8167001
Probable space group: P M M 2
;
_chemical_formula_sum "Si O2"
_cell_formula_units_Z 32
_cell_length_a 9.272003
_cell_length_b 9.595097
_cell_length_c 21.028807
_cell_angle_alpha 90.000000
_cell_angle_beta 90.000000
_cell_angle_gamma 90.000000
_cell_volume 1870.843968
_symmetry_space_group_name_H-M "P M M 2"
_symmetry_group_IT_number 25
_symmetry_cell_setting 'orthorhombic'
loop_
_space_group_symop_operation_xyz
x,y,z
-x,-y,z
-x,y,z
x,-y,z
loop_
_atom_site_type_symbol
_atom_site_label
_atom_site_fract_x
_atom_site_fract_y
_atom_site_fract_z
Si Si1 0.336161 0.665541 0.480770
Si Si2 0.832230 0.161697 0.239337
Si Si3 0.337015 0.834188 0.115296
Si Si4 0.327582 0.343219 0.753249
Si Si5 0.339687 0.334472 0.617255
Si Si6 0.831433 0.339367 0.359595
Si Si7 0.332168 0.162291 0.870558
Si Si8 0.163155 0.834050 0.994379
O O1 0.500000 0.719660 0.474174
O O2 0.332773 0.500000 0.477338
O O3 0.267233 0.712407 0.549779
O O4 0.243409 0.725127 0.422397
O O5 0.741754 0.216085 0.179225
O O6 0.778834 0.250297 0.299483
O O7 0.000000 0.187603 0.224358
O O8 0.801785 0.000000 0.253687
O O9 0.500000 0.775577 0.113978
O O10 0.338042 0.000000 0.112212
O O11 0.249478 0.773958 0.055010
O O12 0.500000 0.340743 0.749158
O O13 0.273343 0.500000 0.767796
O O14 0.265199 0.288287 0.684301
O O15 0.272094 0.242640 0.808853
O O16 0.500000 0.271585 0.614974
O O17 0.348605 0.500000 0.619847
O O18 0.788408 0.500000 0.347692
O O19 0.000000 0.322266 0.370447
O O20 0.500000 0.194060 0.883264
O O21 0.243181 0.217760 0.930894
O O22 0.305405 0.000000 0.858429
O O23 0.000000 0.776005 0.995325
O O24 0.162805 0.000000 0.996745
#
# Coordination Sequence:
#
# PCOD8167001 Si02
#       8
#     4   4   4   4   4   4   4   4
#     4   8  13  22  38  59  80 103 134 170 203 236
#     4   9  17  29  44  61  82 109 137 162 194 241
#     4   9  16  26  42  64  86 105 130 169 208 234
#     4   8  13  22  38  59  81 106 135 165 199 241
#     4   7  10  18  34  56  78 100 131 168 200 233
#     4   9  17  28  42  61  84 108 134 166 202 237
#     4   9  16  25  39  61  85 105 129 166 206 237
#     4   9  16  26  41  60  82 109 138 165 196 238
#
# _framework density 17.104579000000001
#
# number of rings (size 3 to 8) (size 9 to 14) (size 15 to 20)
#    0.000    3.500    0.000    2.250    0.000    3.500 
#    0.000    0.000    0.000    2.625    0.000    3.500 
#    0.000    0.000    0.000    0.000    0.000    0.000 
#
# Total GULP energy -396450.114663 kJ/mol
# GULP energy per Si atom -12389.066083 kJ/mol
# Density = 1.706565 g / cm^3
# Si number density = 17.104579 Si / 1000 Ang^3
#
#
#
# Elastic Constant Matrix: (Units=GPa)
#
#
# Indices 1 2 3 4 5 6 
#
# 1 68.0766 19.1463 72.7958 0.0000 0.0000 0.0000
# 2 19.1463 28.0340 45.7998 0.0000 0.0000 0.0000
# 3 72.7958 45.7998 216.6207 0.0000 0.0000 0.0000
# 4 0.0000 0.0000 0.0000 25.2446 0.0000 0.0000
# 5 0.0000 0.0000 0.0000 0.0000 13.7829 0.0000
# 6 0.0000 0.0000 0.0000 0.0000 0.0000 8.7303
#
#
#
# Elastic Compliance Matrix: (Units=1/GPa)
#
#
# Indices 1 2 3 4 5 6 
#
# 1 0.023340 -0.004776 -0.006834 0.000000 0.000000 0.000000
# 2 -0.004776 0.055471 -0.010123 0.000000 0.000000 0.000000
# 3 -0.006834 -0.010123 0.009053 0.000000 0.000000 0.000000
# 4 0.000000 0.000000 0.000000 0.039612 0.000000 0.000000
# 5 0.000000 0.000000 0.000000 0.000000 0.072554 0.000000
# 6 0.000000 0.000000 0.000000 0.000000 0.000000 0.114544
#
#
# Mechanical properties :
#
#
# Convention : Reuss Voigt Hill
#
# Bulk Modulus (GPa) = 22.52325 65.35725 43.94025
# Shear Modulus (GPa) = 13.41056 21.21751 17.31404
#
# Velocity S-wave (km/s) = 2.80310 3.52583 3.18503
# Velocity P-wave (km/s) = 4.86549 7.40734 6.26665
#
# Compressibility (1/GPa) = 0.04439857
#
# Stress axis : x y z
#
# Youngs Moduli (GPa) = 42.84500 18.02728 110.45879
#
# Poissons Ratio (x) = 0.08610 0.75483
# Poissons Ratio (y) = 0.20464 1.11820
# Poissons Ratio (z) = 0.29279 0.18249
#
# Static dielectric constant tensor:
#      x y z
#    x 3.031350 0.000000 0.000000 
#    y 0.000000 2.711080 0.000000 
#    z 0.000000 0.000000 3.735780 
# 
# 
# High freq. dielectric constant tensor:
#      x y z
#    x 1.630320 0.000000 0.000000 
#    y 0.000000 1.596950 0.000000 
#    z 0.000000 0.000000 1.686320 
# 
# From -- ./inp_files/6312.got.cif
#   From: 2010.03.12/outbox.cif.g09.slc.cpg/sg25_4_cif.got.tgz:6312.got - 2010.04.14 03:30:10.
