data_PCOD8167664
_publ_section_title
;
Structure prediction by ZEFSAII (Michael W. Deem and Ramdas Pophale) SiO2 
 PCOD8167664
Probable space group: P M C 21
;
_chemical_formula_sum "Si O2"
_cell_formula_units_Z 32
_cell_length_a 8.926387
_cell_length_b 14.138882
_cell_length_c 12.416722
_cell_angle_alpha 90.000000
_cell_angle_beta 90.000000
_cell_angle_gamma 90.000000
_cell_volume 1567.103712
_symmetry_space_group_name_H-M "P M C 21"
_symmetry_group_IT_number 26
_symmetry_cell_setting 'orthorhombic'
loop_
_space_group_symop_operation_xyz
x,y,z
-x,-y,1/2+z
-x,y,z
x,-y,1/2+z
loop_
_atom_site_type_symbol
_atom_site_label
_atom_site_fract_x
_atom_site_fract_y
_atom_site_fract_z
Si Si1 0.165377 0.191589 0.730860
Si Si2 0.176876 0.346672 0.382449
Si Si3 0.824151 0.974115 0.377472
Si Si4 0.673200 0.658687 0.104891
Si Si5 0.672810 0.525840 0.306398
Si Si6 0.676508 0.155774 0.300728
Si Si7 0.824403 0.157272 0.076155
Si Si8 0.165082 0.673376 0.434476
O O1 0.218337 0.088406 0.771577
O O2 0.279953 0.236362 0.645093
O O3 0.154309 0.255911 0.835376
O O4 0.000000 0.185057 0.677109
O O5 0.229924 0.371573 0.502751
O O6 0.230877 0.430329 0.303445
O O7 0.247197 0.249682 0.343804
O O8 0.000000 0.338561 0.377415
O O9 0.780604 0.919178 0.486064
O O10 0.000000 0.997703 0.375424
O O11 0.728529 0.069541 0.376067
O O12 0.500000 0.662116 0.072684
O O13 0.706212 0.581497 0.196554
O O14 0.500000 0.499571 0.319263
O O15 0.718452 0.589710 0.409796
O O16 0.500000 0.167770 0.307904
O O17 0.726109 0.134113 0.179440
O O18 0.000000 0.150895 0.104341
O O19 0.784188 0.264072 0.036962
O O20 0.000000 0.628878 0.454505
#
# Coordination Sequence:
#
# PCOD8167664 Si02
#       8
#     4   4   4   4   4   4   4   4
#     4   8  15  31  57  87 116 148 190 235 277 330
#     4  12  26  43  62  82 112 155 200 243 284 338
#     4   9  19  38  63  88 116 154 199 242 283 339
#     4  10  21  38  61  89 121 153 187 235 295 349
#     4  10  21  38  61  89 120 152 188 236 292 348
#     4  12  26  41  58  84 120 155 191 241 296 348
#     4   9  19  38  63  88 116 153 196 239 285 340
#     4   8  15  31  57  87 115 146 189 235 276 330
#
# _framework density 20.419834000000002
#
# number of rings (size 3 to 8) (size 9 to 14) (size 15 to 20)
#    0.000    2.250    0.000    4.500    0.000    5.000 
#    0.000    3.750    0.000    0.000    0.000    0.000 
#    0.000    0.000    0.000    0.000    0.000    0.000 
#
# Total GULP energy -396805.335960 kJ/mol
# GULP energy per Si atom -12400.166749 kJ/mol
# Density = 2.037336 g / cm^3
# Si number density = 20.419834 Si / 1000 Ang^3
#
#
#
# Elastic Constant Matrix: (Units=GPa)
#
#
# Indices 1 2 3 4 5 6 
#
# 1 140.0062 72.7722 53.0374 0.0000 0.0000 0.0000
# 2 72.7722 135.2778 41.0060 0.0000 0.0000 0.0000
# 3 53.0374 41.0060 79.3394 0.0000 0.0000 0.0000
# 4 0.0000 0.0000 0.0000 24.9708 0.0000 0.0000
# 5 0.0000 0.0000 0.0000 0.0000 32.1691 0.0000
# 6 0.0000 0.0000 0.0000 0.0000 0.0000 32.9664
#
#
#
# Elastic Compliance Matrix: (Units=1/GPa)
#
#
# Indices 1 2 3 4 5 6 
#
# 1 0.011559 -0.004596 -0.005351 0.000000 0.000000 0.000000
# 2 -0.004596 0.010593 -0.002403 0.000000 0.000000 0.000000
# 3 -0.005351 -0.002403 0.017423 0.000000 0.000000 0.000000
# 4 0.000000 0.000000 0.000000 0.040047 0.000000 0.000000
# 5 0.000000 0.000000 0.000000 0.000000 0.031086 0.000000
# 6 0.000000 0.000000 0.000000 0.000000 0.000000 0.030334
#
#
# Mechanical properties :
#
#
# Convention : Reuss Voigt Hill
#
# Bulk Modulus (GPa) = 67.22724 76.47275 71.84999
# Shear Modulus (GPa) = 29.29136 30.54179 29.91658
#
# Velocity S-wave (km/s) = 3.79153 3.87161 3.83178
# Velocity P-wave (km/s) = 7.22230 7.58402 7.40537
#
# Compressibility (1/GPa) = 0.01487492
#
# Stress axis : x y z
#
# Youngs Moduli (GPa) = 86.51604 94.40436 57.39464
#
# Poissons Ratio (x) = 0.43386 0.30715
# Poissons Ratio (y) = 0.39760 0.13790
# Poissons Ratio (z) = 0.46299 0.22682
#
# Static dielectric constant tensor:
#      x y z
#    x 3.717470 0.000000 0.000000 
#    y 0.000000 3.824440 0.000000 
#    z 0.000000 0.000000 3.664140 
# 
# 
# High freq. dielectric constant tensor:
#      x y z
#    x 1.791540 0.000000 0.000000 
#    y 0.000000 1.801890 0.000000 
#    z 0.000000 0.000000 1.788240 
# 
# From -- ./inp_files/3073.got.cif
#   From: 2010.03.12/outbox.cif.g09.slc.cpg/sg26_2_cif.got.tgz:3073.got - 2010.04.14 03:33:09.
