data_PCOD8167386
_publ_section_title
;
Structure prediction by ZEFSAII (Michael W. Deem and Ramdas Pophale) SiO2 
 PCOD8167386
Probable space group: P M C 21
;
_chemical_formula_sum "Si O2"
_cell_formula_units_Z 20
_cell_length_a 25.495747
_cell_length_b 7.754082
_cell_length_c 5.008521
_cell_angle_alpha 90.000000
_cell_angle_beta 90.000000
_cell_angle_gamma 90.000000
_cell_volume 990.165133
_symmetry_space_group_name_H-M "P M C 21"
_symmetry_group_IT_number 26
_symmetry_cell_setting 'orthorhombic'
loop_
_space_group_symop_operation_xyz
x,y,z
-x,-y,1/2+z
-x,y,z
x,-y,1/2+z
loop_
_atom_site_type_symbol
_atom_site_label
_atom_site_fract_x
_atom_site_fract_y
_atom_site_fract_z
Si Si1 0.500000 0.113610 0.490000
Si Si2 0.707715 0.386380 0.437605
Si Si3 0.795981 0.885086 0.937100
Si Si4 0.000000 0.390772 0.328905
Si Si5 0.587640 0.612934 0.892680
Si Si6 0.887600 0.381719 0.434081
O O1 0.447795 0.222411 0.442720
O O2 0.500000 0.049153 0.793342
O O3 0.720525 0.536720 0.227071
O O4 0.742791 0.219784 0.386444
O O5 0.647638 0.325331 0.415509
O O6 0.845601 0.765095 0.881498
O O7 0.797478 0.953662 0.238165
O O8 0.945525 0.292847 0.399373
O O9 0.000000 0.437045 0.015518
O O10 0.575101 0.539089 0.600950
O O11 0.880415 0.539132 0.227417
#
# Coordination Sequence:
#
# PCOD8167386 Si02
#       6
#     2   4   4   2   4   4
#     4  12  24  36  56  86 118 146 176 218 274 324
#     4  10  21  39  61  81 103 143 189 225 263 315
#     4  12  24  36  53  82 115 143 173 220 277 324
#     4   8  16  30  54  80  98 130 182 228 258 298
#     4  10  21  39  61  81 107 144 187 225 263 315
#     4  10  19  36  58  78 104 141 184 222 260 318
#
# _framework density 20.198651999999999
#
# number of rings (size 3 to 8) (size 9 to 14) (size 15 to 20)
#    0.000    1.600    0.000    5.400    0.000    1.600 
#    0.000    1.000    0.000    0.000    0.000    0.000 
#    0.000    0.000    0.000    0.000    0.000    0.000 
#
# Total GULP energy -248063.688224 kJ/mol
# GULP energy per Si atom -12403.184411 kJ/mol
# Density = 2.015268 g / cm^3
# Si number density = 20.198652 Si / 1000 Ang^3
#
#
#
# Elastic Constant Matrix: (Units=GPa)
#
#
# Indices 1 2 3 4 5 6 
#
# 1 139.3185 64.0135 24.1296 0.0000 0.0000 0.0000
# 2 64.0135 70.3642 6.3088 0.0000 0.0000 0.0000
# 3 24.1296 6.3088 75.1037 0.0000 0.0000 0.0000
# 4 0.0000 0.0000 0.0000 24.9759 0.0000 0.0000
# 5 0.0000 0.0000 0.0000 0.0000 25.5323 0.0000
# 6 0.0000 0.0000 0.0000 0.0000 0.0000 -1.3398
#
#
#
# Elastic Compliance Matrix: (Units=1/GPa)
#
#
# Indices 1 2 3 4 5 6 
#
# 1 0.013064 -0.011596 -0.003223 0.000000 0.000000 0.000000
# 2 -0.011596 0.024613 0.001658 0.000000 0.000000 0.000000
# 3 -0.003223 0.001658 0.014211 0.000000 0.000000 0.000000
# 4 0.000000 0.000000 0.000000 0.040039 0.000000 0.000000
# 5 0.000000 0.000000 0.000000 0.000000 0.039166 0.000000
# 6 0.000000 0.000000 0.000000 0.000000 0.000000 -0.746378
#
#
# Mechanical properties :
#
#
# Convention : Reuss Voigt Hill
#
# Bulk Modulus (GPa) = 39.11498 52.63223 45.87361
# Shear Modulus (GPa) = -8.61414 22.52263 6.95424
#
# Velocity S-wave (km/s) = -2.06736 3.34287 1.85753
# Velocity P-wave (km/s) = 3.70251 6.40418 5.23078
#
# Compressibility (1/GPa) = 0.02556565
#
# Stress axis : x y z
#
# Youngs Moduli (GPa) = 76.54522 40.62959 70.36705
#
# Poissons Ratio (x) = 0.47114 0.22681
# Poissons Ratio (y) = 0.88762 -0.11668
# Poissons Ratio (z) = 0.24672 -0.06737
#
# Static dielectric constant tensor:
#      x y z
#    x 4.004470 0.000000 0.000000 
#    y 0.000000 3.200430 0.000000 
#    z 0.000000 0.000000 3.861610 
# 
# 
# High freq. dielectric constant tensor:
#      x y z
#    x 1.811560 0.000000 0.000000 
#    y 0.000000 1.751660 0.000000 
#    z 0.000000 0.000000 1.810830 
# 
# From -- ./inp_files/997.got.cif
#   From: 2010.03.12/outbox.cif.g09.slc.cpg/sg26_1_cif.got.tgz:997.got - 2010.04.14 03:33:09.
