data_PCOD8167984
_publ_section_title
;
Structure prediction by ZEFSAII (Michael W. Deem and Ramdas Pophale) SiO2 
 PCOD8167984
Probable space group: P M A 2
;
_chemical_formula_sum "Si O2"
_cell_formula_units_Z 32
_cell_length_a 8.953592
_cell_length_b 17.755180
_cell_length_c 11.460898
_cell_angle_alpha 90.000000
_cell_angle_beta 90.000000
_cell_angle_gamma 90.000000
_cell_volume 1821.969184
_symmetry_space_group_name_H-M "P M A 2"
_symmetry_group_IT_number 28
_symmetry_cell_setting 'orthorhombic'
loop_
_space_group_symop_operation_xyz
x,y,z
-x,-y,z
1/2-x,y,z
1/2+x,-y,z
loop_
_atom_site_type_symbol
_atom_site_label
_atom_site_fract_x
_atom_site_fract_y
_atom_site_fract_z
Si Si1 0.580347 0.925313 0.315450
Si Si2 0.414654 0.206027 0.857552
Si Si3 0.426856 0.234573 0.412323
Si Si4 0.076822 0.729574 0.652513
Si Si5 0.421449 0.156065 0.092906
Si Si6 0.924999 0.426120 0.775694
Si Si7 0.581754 0.636926 0.990920
Si Si8 0.574499 0.295933 0.196593
O O1 0.750000 0.936763 0.351014
O O2 0.519499 0.850100 0.379486
O O3 0.559303 0.917502 0.174456
O O4 0.500000 0.000000 0.361268
O O5 0.250000 0.194606 0.801745
O O6 0.535320 0.210337 0.754319
O O7 0.418031 0.280455 0.935913
O O8 0.449798 0.140089 0.953945
O O9 0.250000 0.242301 0.399498
O O10 0.476027 0.253012 0.542344
O O11 0.503890 0.295338 0.326341
O O12 0.250000 0.739052 0.621850
O O13 0.037000 0.645694 0.695467
O O14 0.250000 0.186803 0.110000
O O15 0.541734 0.215854 0.137769
O O16 0.750000 0.438072 0.786236
O O17 0.000000 0.500000 0.717365
O O18 0.991836 0.417883 0.905184
O O19 0.750000 0.606346 0.006205
O O20 0.500472 0.638826 0.117052
O O21 0.750000 0.310796 0.204859
#
# Coordination Sequence:
#
# PCOD8167984 Si02
#       8
#     4   4   4   4   4   4   4   4
#     4   9  18  31  48  71  97 125 159 202 250 302
#     4   8  14  26  45  66  90 121 153 187 230 281
#     4  10  20  34  50  69  96 132 172 207 247 300
#     4  10  20  32  48  73 100 126 166 214 250 287
#     4   8  15  28  44  65  93 123 154 186 229 287
#     4  10  20  33  50  74 102 130 163 204 250 300
#     4   9  16  28  46  68  95 125 155 188 233 286
#     4  10  17  26  44  70  96 120 151 194 240 281
#
# _framework density 17.563413000000001
#
# number of rings (size 3 to 8) (size 9 to 14) (size 15 to 20)
#    0.000    2.750    0.000    4.125    0.000    7.000 
#    0.000    0.000    0.000    1.500    0.000    5.250 
#    0.000    0.000    0.000    0.000    0.000    0.000 
#
# Total GULP energy -396544.670783 kJ/mol
# GULP energy per Si atom -12392.020962 kJ/mol
# Density = 1.752344 g / cm^3
# Si number density = 17.563413 Si / 1000 Ang^3
#
#
#
# Elastic Constant Matrix: (Units=GPa)
#
#
# Indices 1 2 3 4 5 6 
#
# 1 94.9383 30.2678 47.5903 0.0000 0.0000 0.0000
# 2 30.2678 53.6891 31.0706 0.0000 0.0000 0.0000
# 3 47.5903 31.0706 110.2483 0.0000 0.0000 0.0000
# 4 0.0000 0.0000 0.0000 14.6795 0.0000 0.0000
# 5 0.0000 0.0000 0.0000 0.0000 30.6948 0.0000
# 6 0.0000 0.0000 0.0000 0.0000 0.0000 22.5150
#
#
#
# Elastic Compliance Matrix: (Units=1/GPa)
#
#
# Indices 1 2 3 4 5 6 
#
# 1 0.014690 -0.005511 -0.004788 0.000000 0.000000 0.000000
# 2 -0.005511 0.024323 -0.004476 0.000000 0.000000 0.000000
# 3 -0.004788 -0.004476 0.012399 0.000000 0.000000 0.000000
# 4 0.000000 0.000000 0.000000 0.068122 0.000000 0.000000
# 5 0.000000 0.000000 0.000000 0.000000 0.032579 0.000000
# 6 0.000000 0.000000 0.000000 0.000000 0.000000 0.044415
#
#
# Mechanical properties :
#
#
# Convention : Reuss Voigt Hill
#
# Bulk Modulus (GPa) = 45.74150 52.97034 49.35592
# Shear Modulus (GPa) = 21.42568 23.57433 22.50001
#
# Velocity S-wave (km/s) = 3.49650 3.66764 3.58309
# Velocity P-wave (km/s) = 6.51159 6.93977 6.72909
#
# Compressibility (1/GPa) = 0.02186199
#
# Stress axis : x y z
#
# Youngs Moduli (GPa) = 68.07207 41.11364 80.65324
#
# Poissons Ratio (x) = 0.22657 0.38618
# Poissons Ratio (y) = 0.37513 0.36100
# Poissons Ratio (z) = 0.32594 0.18402
#
# Static dielectric constant tensor:
#      x y z
#    x 3.259420 0.000000 0.000000 
#    y 0.000000 3.014640 0.000000 
#    z 0.000000 0.000000 3.370540 
# 
# 
# High freq. dielectric constant tensor:
#      x y z
#    x 1.686680 0.000000 0.000000 
#    y 0.000000 1.631220 0.000000 
#    z 0.000000 0.000000 1.673260 
# 
# From -- ./inp_files/5164.got.cif
#   From: 2010.03.12/outbox.cif.g09.slc.cpg/sg28_3_cif.got.tgz:5164.got - 2010.04.14 03:39:34.
