data_PCOD8167632
_publ_section_title
;
Structure prediction by ZEFSAII (Michael W. Deem and Ramdas Pophale) SiO2 
 PCOD8167632
Probable space group: P M C 21
;
_chemical_formula_sum "Si O2"
_cell_formula_units_Z 32
_cell_length_a 8.933068
_cell_length_b 12.040387
_cell_length_c 15.138564
_cell_angle_alpha 90.000000
_cell_angle_beta 90.000000
_cell_angle_gamma 90.000000
_cell_volume 1628.267548
_symmetry_space_group_name_H-M "P M C 21"
_symmetry_group_IT_number 26
_symmetry_cell_setting 'orthorhombic'
loop_
_space_group_symop_operation_xyz
x,y,z
-x,-y,1/2+z
-x,y,z
x,-y,1/2+z
loop_
_atom_site_type_symbol
_atom_site_label
_atom_site_fract_x
_atom_site_fract_y
_atom_site_fract_z
Si Si1 0.177230 0.361481 0.545220
Si Si2 0.823119 0.110440 0.533263
Si Si3 0.175461 0.477189 0.886918
Si Si4 0.668684 0.254400 0.150567
Si Si5 0.330163 0.738487 0.447337
Si Si6 0.678250 0.496363 0.198023
Si Si7 0.169889 0.947121 0.382000
Si Si8 0.169172 0.959754 0.689602
O O1 0.240082 0.235949 0.535212
O O2 0.221310 0.425531 0.455110
O O3 0.253278 0.413726 0.631521
O O4 0.000000 0.366056 0.560015
O O5 0.000000 0.119461 0.543116
O O6 0.776527 0.050806 0.441908
O O7 0.756133 0.037740 0.614372
O O8 0.216887 0.361830 0.932509
O O9 0.269183 0.484541 0.797497
O O10 0.000000 0.480675 0.864848
O O11 0.500000 0.254269 0.185386
O O12 0.738576 0.375215 0.169294
O O13 0.753407 0.158698 0.203115
O O14 0.680039 0.224989 0.048216
O O15 0.500000 0.704736 0.421464
O O16 0.279420 0.843482 0.390917
O O17 0.500000 0.505299 0.191761
O O18 0.000000 0.914104 0.408713
O O19 0.179909 0.976959 0.280655
O O20 0.000000 0.934243 0.661602
#
# Coordination Sequence:
#
# PCOD8167632 Si02
#       8
#     4   4   4   4   4   4   4   4
#     4  10  22  40  62  88 121 160 203 252 302 360
#     4   9  19  37  56  83 122 154 189 243 296 342
#     4  11  24  40  63  92 120 157 206 255 300 359
#     4  10  22  40  61  85 120 158 198 247 298 357
#     4  11  22  40  63  87 120 158 200 249 301 360
#     4  11  24  42  62  88 123 161 199 250 309 365
#     4  10  21  37  60  90 119 154 198 244 297 353
#     4  10  21  36  61  89 117 154 197 244 295 352
#
# _framework density 19.652791000000001
#
# number of rings (size 3 to 8) (size 9 to 14) (size 15 to 20)
#    0.000    1.750    2.500    1.125    3.500    2.500 
#    0.000    1.250    0.000    0.000    0.000    0.000 
#    0.000    0.000    0.000    0.000    0.000    0.000 
#
# Total GULP energy -396849.675216 kJ/mol
# GULP energy per Si atom -12401.552351 kJ/mol
# Density = 1.960806 g / cm^3
# Si number density = 19.652791 Si / 1000 Ang^3
#
#
#
# Elastic Constant Matrix: (Units=GPa)
#
#
# Indices 1 2 3 4 5 6 
#
# 1 41.1514 24.8627 21.8867 0.0000 0.0000 0.0000
# 2 24.8627 124.3305 16.6520 0.0000 0.0000 0.0000
# 3 21.8867 16.6520 78.8042 0.0000 0.0000 0.0000
# 4 0.0000 0.0000 0.0000 25.4856 0.0000 0.0000
# 5 0.0000 0.0000 0.0000 0.0000 18.1928 0.0000
# 6 0.0000 0.0000 0.0000 0.0000 0.0000 29.0122
#
#
#
# Elastic Compliance Matrix: (Units=1/GPa)
#
#
# Indices 1 2 3 4 5 6 
#
# 1 0.031563 -0.005287 -0.007649 0.000000 0.000000 0.000000
# 2 -0.005287 0.009163 -0.000468 0.000000 0.000000 0.000000
# 3 -0.007649 -0.000468 0.014913 0.000000 0.000000 0.000000
# 4 0.000000 0.000000 0.000000 0.039238 0.000000 0.000000
# 5 0.000000 0.000000 0.000000 0.000000 0.054967 0.000000
# 6 0.000000 0.000000 0.000000 0.000000 0.000000 0.034468
#
#
# Mechanical properties :
#
#
# Convention : Reuss Voigt Hill
#
# Bulk Modulus (GPa) = 34.68482 41.23210 37.95846
# Shear Modulus (GPa) = 22.65209 26.59710 24.62460
#
# Velocity S-wave (km/s) = 3.39870 3.68278 3.54359
# Velocity P-wave (km/s) = 5.75228 6.25377 6.00826
#
# Compressibility (1/GPa) = 0.02883105
#
# Stress axis : x y z
#
# Youngs Moduli (GPa) = 31.68256 109.13403 67.05602
#
# Poissons Ratio (x) = 0.57703 0.51291
# Poissons Ratio (y) = 0.16752 0.03137
# Poissons Ratio (z) = 0.24234 0.05105
#
# Static dielectric constant tensor:
#      x y z
#    x 3.461400 0.000000 0.000000 
#    y 0.000000 3.729420 0.000000 
#    z 0.000000 0.000000 3.543790 
# 
# 
# High freq. dielectric constant tensor:
#      x y z
#    x 1.747020 0.000000 0.000000 
#    y 0.000000 1.778250 0.000000 
#    z 0.000000 0.000000 1.772820 
# 
# From -- ./inp_files/4121.got.cif
#   From: 2010.03.12/outbox.cif.g09.slc.cpg/sg26_3_cif.got.tgz:4121.got - 2010.04.14 03:33:09.
