data_PCOD8167720
_publ_section_title
;
Structure prediction by ZEFSAII (Michael W. Deem and Ramdas Pophale) SiO2 
 PCOD8167720
Probable space group: P M C 21
;
_chemical_formula_sum "Si O2"
_cell_formula_units_Z 20
_cell_length_a 10.186388
_cell_length_b 7.586695
_cell_length_c 11.816344
_cell_angle_alpha 90.000000
_cell_angle_beta 90.000000
_cell_angle_gamma 90.000000
_cell_volume 913.179104
_symmetry_space_group_name_H-M "P M C 21"
_symmetry_group_IT_number 26
_symmetry_cell_setting 'orthorhombic'
loop_
_space_group_symop_operation_xyz
x,y,z
-x,-y,1/2+z
-x,y,z
x,-y,1/2+z
loop_
_atom_site_type_symbol
_atom_site_label
_atom_site_fract_x
_atom_site_fract_y
_atom_site_fract_z
Si Si1 0.255847 0.729198 0.223670
Si Si2 0.146630 0.401637 0.497677
Si Si3 0.350698 0.638454 0.807430
Si Si4 0.646463 0.071346 0.123910
Si Si5 0.146716 0.197256 0.959915
O O1 0.339588 0.560191 0.261348
O O2 0.166237 0.799927 0.325411
O O3 0.354120 0.883862 0.186743
O O4 0.159858 0.682434 0.120830
O O5 0.253464 0.322606 0.411539
O O6 0.168362 0.609501 0.511042
O O7 0.000000 0.362477 0.450698
O O8 0.500000 0.668771 0.849350
O O9 0.312395 0.774628 0.709764
O O10 0.500000 0.106408 0.076472
O O11 0.748525 0.068542 0.019619
O O12 0.000000 0.127021 0.985420
#
# Coordination Sequence:
#
# PCOD8167720 Si02
#       5
#     4   4   4   4   4
#     4  11  23  43  67  98 129 175 214 270 323 385
#     4  10  22  42  69  96 129 171 217 267 324 388
#     4  10  23  43  65  94 131 171 216 269 326 382
#     4  11  25  43  65  96 131 170 220 269 320 386
#     4  10  23  43  68  98 132 171 217 269 323 385
#
# _framework density 21.901510999999999
#
# number of rings (size 3 to 8) (size 9 to 14) (size 15 to 20)
#    0.000    1.600    2.000    1.200    2.800    8.800 
#    0.000    0.000    0.000    0.000    0.000    0.000 
#    0.000    0.000    0.000    0.000    0.000    0.000 
#
# Total GULP energy -248068.589133 kJ/mol
# GULP energy per Si atom -12403.429457 kJ/mol
# Density = 2.185166 g / cm^3
# Si number density = 21.901511 Si / 1000 Ang^3
#
#
#
# Elastic Constant Matrix: (Units=GPa)
#
#
# Indices 1 2 3 4 5 6 
#
# 1 145.4395 21.3665 77.5414 0.0000 0.0000 0.0000
# 2 21.3665 71.4832 45.3484 0.0000 0.0000 0.0000
# 3 77.5414 45.3484 142.2899 0.0000 0.0000 0.0000
# 4 0.0000 0.0000 0.0000 25.3277 0.0000 0.0000
# 5 0.0000 0.0000 0.0000 0.0000 28.0859 0.0000
# 6 0.0000 0.0000 0.0000 0.0000 0.0000 16.4863
#
#
#
# Elastic Compliance Matrix: (Units=1/GPa)
#
#
# Indices 1 2 3 4 5 6 
#
# 1 0.009710 0.000570 -0.005473 0.000000 0.000000 0.000000
# 2 0.000570 0.017568 -0.005909 0.000000 0.000000 0.000000
# 3 -0.005473 -0.005909 0.011894 0.000000 0.000000 0.000000
# 4 0.000000 0.000000 0.000000 0.039482 0.000000 0.000000
# 5 0.000000 0.000000 0.000000 0.000000 0.035605 0.000000
# 6 0.000000 0.000000 0.000000 0.000000 0.000000 0.060656
#
#
# Mechanical properties :
#
#
# Convention : Reuss Voigt Hill
#
# Bulk Modulus (GPa) = 56.99244 71.96947 64.48096
# Shear Modulus (GPa) = 24.70480 28.31042 26.50761
#
# Velocity S-wave (km/s) = 3.36221 3.59921 3.48272
# Velocity P-wave (km/s) = 6.41492 7.08550 6.75853
#
# Compressibility (1/GPa) = 0.01754619
#
# Stress axis : x y z
#
# Youngs Moduli (GPa) = 102.98673 56.92191 84.07710
#
# Poissons Ratio (x) = -0.03243 0.46016
# Poissons Ratio (y) = -0.05868 0.49685
# Poissons Ratio (z) = 0.56365 0.33638
#
# Static dielectric constant tensor:
#      x y z
#    x 3.797370 0.000000 0.000000 
#    y 0.000000 3.951900 0.000000 
#    z 0.000000 0.000000 3.813630 
# 
# 
# High freq. dielectric constant tensor:
#      x y z
#    x 1.861720 0.000000 0.000000 
#    y 0.000000 1.864150 0.000000 
#    z 0.000000 0.000000 1.857650 
# 
# From -- ./inp_files/2712.got.cif
#   From: 2010.03.12/outbox.cif.g09.slc.cpg/sg26_2_cif.got.tgz:2712.got - 2010.04.14 03:33:09.
