data_PCOD8167575
_publ_section_title
;
Structure prediction by ZEFSAII (Michael W. Deem and Ramdas Pophale) SiO2 
 PCOD8167575
Probable space group: P M C 21
;
_chemical_formula_sum "Si O2"
_cell_formula_units_Z 24
_cell_length_a 8.932993
_cell_length_b 13.811603
_cell_length_c 9.924893
_cell_angle_alpha 90.000000
_cell_angle_beta 90.000000
_cell_angle_gamma 90.000000
_cell_volume 1224.522906
_symmetry_space_group_name_H-M "P M C 21"
_symmetry_group_IT_number 26
_symmetry_cell_setting 'orthorhombic'
loop_
_space_group_symop_operation_xyz
x,y,z
-x,-y,1/2+z
-x,y,z
x,-y,1/2+z
loop_
_atom_site_type_symbol
_atom_site_label
_atom_site_fract_x
_atom_site_fract_y
_atom_site_fract_z
Si Si1 0.326277 0.082781 0.821860
Si Si2 0.823856 0.282728 0.205057
Si Si3 0.324822 0.083950 0.129042
Si Si4 0.175930 0.423917 0.963770
Si Si5 0.672173 0.707158 0.252823
Si Si6 0.671812 0.628767 0.961070
O O1 0.500000 0.090743 0.786713
O O2 0.256367 0.188432 0.791230
O O3 0.258585 0.000676 0.724161
O O4 0.297562 0.051411 0.975352
O O5 0.769120 0.179105 0.156784
O O6 0.744195 0.309620 0.342870
O O7 0.000000 0.280689 0.228782
O O8 0.778110 0.360281 0.092147
O O9 0.500000 0.104842 0.156807
O O10 0.236306 0.376261 0.827458
O O11 0.245552 0.528432 0.984306
O O12 0.000000 0.435697 0.948650
O O13 0.500000 0.700156 0.300605
O O14 0.687406 0.693758 0.093721
O O15 0.500000 0.607223 0.925730
#
# Coordination Sequence:
#
# PCOD8167575 Si02
#       6
#     4   4   4   4   4   4
#     4   9  19  35  61  92 118 149 194 249 300 347
#     4  11  24  41  60  87 125 163 201 242 295 359
#     4  10  20  37  63  89 119 155 197 249 301 351
#     4  11  23  40  61  85 120 160 201 245 299 359
#     4  10  21  39  62  90 120 154 201 249 297 355
#     4  11  24  38  61  91 120 155 202 250 296 353
#
# _framework density 19.59947
#
# number of rings (size 3 to 8) (size 9 to 14) (size 15 to 20)
#    0.000    1.667    1.667    2.500    2.333    6.000 
#    0.000    1.667    0.000    0.000    0.000    0.000 
#    0.000    0.000    0.000    0.000    0.000    0.000 
#
# Total GULP energy -297712.871996 kJ/mol
# GULP energy per Si atom -12404.703000 kJ/mol
# Density = 1.955486 g / cm^3
# Si number density = 19.599470 Si / 1000 Ang^3
#
#
#
# Elastic Constant Matrix: (Units=GPa)
#
#
# Indices 1 2 3 4 5 6 
#
# 1 54.3964 20.6670 37.9583 0.0000 0.0000 0.0000
# 2 20.6670 62.0735 27.4631 0.0000 0.0000 0.0000
# 3 37.9583 27.4631 111.7659 0.0000 0.0000 0.0000
# 4 0.0000 0.0000 0.0000 41.5822 0.0000 0.0000
# 5 0.0000 0.0000 0.0000 0.0000 22.5899 0.0000
# 6 0.0000 0.0000 0.0000 0.0000 0.0000 3.6728
#
#
#
# Elastic Compliance Matrix: (Units=1/GPa)
#
#
# Indices 1 2 3 4 5 6 
#
# 1 0.025523 -0.005231 -0.007383 0.000000 0.000000 0.000000
# 2 -0.005231 0.019147 -0.002928 0.000000 0.000000 0.000000
# 3 -0.007383 -0.002928 0.012174 0.000000 0.000000 0.000000
# 4 0.000000 0.000000 0.000000 0.024049 0.000000 0.000000
# 5 0.000000 0.000000 0.000000 0.000000 0.044268 0.000000
# 6 0.000000 0.000000 0.000000 0.000000 0.000000 0.272273
#
#
# Mechanical properties :
#
#
# Convention : Reuss Voigt Hill
#
# Bulk Modulus (GPa) = 38.82028 44.49029 41.65528
# Shear Modulus (GPa) = 11.43892 23.04547 17.24219
#
# Velocity S-wave (km/s) = 2.41847 3.43274 2.96924
# Velocity P-wave (km/s) = 5.25818 6.20167 5.74931
#
# Compressibility (1/GPa) = 0.02575973
#
# Stress axis : x y z
#
# Youngs Moduli (GPa) = 39.18052 52.22699 82.14139
#
# Poissons Ratio (x) = 0.27322 0.60643
# Poissons Ratio (y) = 0.20497 0.24052
# Poissons Ratio (z) = 0.28926 0.15293
#
# Static dielectric constant tensor:
#      x y z
#    x 3.463690 0.000000 0.000000 
#    y 0.000000 3.807970 0.000000 
#    z 0.000000 0.000000 3.921380 
# 
# 
# High freq. dielectric constant tensor:
#      x y z
#    x 1.745740 0.000000 0.000000 
#    y 0.000000 1.775110 0.000000 
#    z 0.000000 0.000000 1.778720 
# 
# From -- ./inp_files/1430.got.cif
#   From: 2010.03.12/outbox.cif.g09.slc.cpg/sg26_1_cif.got.tgz:1430.got - 2010.04.14 03:33:09.
