data_PCOD8167439
_publ_section_title
;
Structure prediction by ZEFSAII (Michael W. Deem and Ramdas Pophale) SiO2 
 PCOD8167439
Probable space group: P M C 21
;
_chemical_formula_sum "Si O2"
_cell_formula_units_Z 28
_cell_length_a 11.387676
_cell_length_b 11.973446
_cell_length_c 11.435699
_cell_angle_alpha 90.000000
_cell_angle_beta 90.000000
_cell_angle_gamma 90.000000
_cell_volume 1559.254398
_symmetry_space_group_name_H-M "P M C 21"
_symmetry_group_IT_number 26
_symmetry_cell_setting 'orthorhombic'
loop_
_space_group_symop_operation_xyz
x,y,z
-x,-y,1/2+z
-x,y,z
x,-y,1/2+z
loop_
_atom_site_type_symbol
_atom_site_label
_atom_site_fract_x
_atom_site_fract_y
_atom_site_fract_z
Si Si1 0.750218 0.303120 0.278090
Si Si2 0.500000 0.421184 0.537339
Si Si3 0.862228 0.236649 0.942544
Si Si4 0.500000 0.410569 0.263481
Si Si5 0.135960 0.559660 0.585437
Si Si6 0.137473 0.896660 0.668946
Si Si7 0.252831 0.667085 0.040672
Si Si8 0.861187 0.846382 0.196782
O O1 0.614799 0.332810 0.250340
O O2 0.843074 0.374210 0.204393
O O3 0.777621 0.172522 0.255478
O O4 0.786923 0.332440 0.407989
O O5 0.500000 0.466714 0.397957
O O6 0.500000 0.509552 0.646776
O O7 0.607795 0.337509 0.553864
O O8 0.808812 0.198861 0.819318
O O9 0.000000 0.248018 0.929234
O O10 0.814361 0.359359 0.981397
O O11 0.832867 0.141557 0.037202
O O12 0.203229 0.444571 0.598383
O O13 0.000000 0.533841 0.568670
O O14 0.000000 0.876619 0.699170
O O15 0.172088 0.024976 0.682649
O O16 0.204169 0.778917 0.096961
O O17 0.000000 0.827643 0.185834
#
# Coordination Sequence:
#
# PCOD8167439 Si02
#       8
#     4   2   4   2   4   4   4   4
#     4  10  21  37  58  81 109 147 189 235 281 335
#     4  10  22  40  59  82 114 152 193 241 283 338
#     4   8  17  33  50  75 111 145 179 222 272 333
#     4  10  20  40  63  84 110 152 199 235 285 340
#     4  10  20  33  53  81 114 146 179 227 287 342
#     4   9  19  36  56  80 112 150 187 229 283 338
#     4  11  23  36  56  83 111 148 189 233 284 337
#     4  10  21  34  55  83 113 149 187 228 281 344
#
# _framework density 17.9573
#
# number of rings (size 3 to 8) (size 9 to 14) (size 15 to 20)
#    0.000    2.286    1.429    1.714    4.000    2.286 
#    0.000    0.714    0.000    0.000    0.000    0.000 
#    0.000    0.000    0.000    0.000    0.000    0.000 
#
# Total GULP energy -346984.245739 kJ/mol
# GULP energy per Si atom -12392.294491 kJ/mol
# Density = 1.791643 g / cm^3
# Si number density = 17.957300 Si / 1000 Ang^3
#
#
#
# Elastic Constant Matrix: (Units=GPa)
#
#
# Indices 1 2 3 4 5 6 
#
# 1 57.4813 38.0065 20.4899 0.0000 0.0000 0.0000
# 2 38.0065 111.0405 28.0258 0.0000 0.0000 0.0000
# 3 20.4899 28.0258 70.9003 0.0000 0.0000 0.0000
# 4 0.0000 0.0000 0.0000 22.1203 0.0000 0.0000
# 5 0.0000 0.0000 0.0000 0.0000 24.5225 0.0000
# 6 0.0000 0.0000 0.0000 0.0000 0.0000 19.5563
#
#
#
# Elastic Compliance Matrix: (Units=1/GPa)
#
#
# Indices 1 2 3 4 5 6 
#
# 1 0.023468 -0.007021 -0.004007 0.000000 0.000000 0.000000
# 2 -0.007021 0.012104 -0.002756 0.000000 0.000000 0.000000
# 3 -0.004007 -0.002756 0.016351 0.000000 0.000000 0.000000
# 4 0.000000 0.000000 0.000000 0.045207 0.000000 0.000000
# 5 0.000000 0.000000 0.000000 0.000000 0.040779 0.000000
# 6 0.000000 0.000000 0.000000 0.000000 0.000000 0.051134
#
#
# Mechanical properties :
#
#
# Convention : Reuss Voigt Hill
#
# Bulk Modulus (GPa) = 41.05664 45.82960 43.44312
# Shear Modulus (GPa) = 22.24896 23.43315 22.84105
#
# Velocity S-wave (km/s) = 3.52375 3.61631 3.57033
# Velocity P-wave (km/s) = 6.28243 6.55849 6.42194
#
# Compressibility (1/GPa) = 0.02435660
#
# Stress axis : x y z
#
# Youngs Moduli (GPa) = 42.61206 82.61478 61.15656
#
# Poissons Ratio (x) = 0.58005 0.24503
# Poissons Ratio (y) = 0.29918 0.16852
# Poissons Ratio (z) = 0.17073 0.22765
#
# Static dielectric constant tensor:
#      x y z
#    x 3.188410 0.000000 0.000000 
#    y 0.000000 3.346450 0.000000 
#    z 0.000000 0.000000 3.701530 
# 
# 
# High freq. dielectric constant tensor:
#      x y z
#    x 1.674510 0.000000 0.000000 
#    y 0.000000 1.690170 0.000000 
#    z 0.000000 0.000000 1.706780 
# 
# From -- ./inp_files/3338.got.cif
#   From: 2010.03.12/outbox.cif.g09.slc.cpg/sg26_2_cif.got.tgz:3338.got - 2010.04.14 03:33:09.
