data_PCOD8167693
_publ_section_title
;
Structure prediction by ZEFSAII (Michael W. Deem and Ramdas Pophale) SiO2 
 PCOD8167693
Probable space group: P M C 21
;
_chemical_formula_sum "Si O2"
_cell_formula_units_Z 32
_cell_length_a 13.449836
_cell_length_b 8.454466
_cell_length_c 13.503644
_cell_angle_alpha 90.000000
_cell_angle_beta 90.000000
_cell_angle_gamma 90.000000
_cell_volume 1535.515309
_symmetry_space_group_name_H-M "P M C 21"
_symmetry_group_IT_number 26
_symmetry_cell_setting 'orthorhombic'
loop_
_space_group_symop_operation_xyz
x,y,z
-x,-y,1/2+z
-x,y,z
x,-y,1/2+z
loop_
_atom_site_type_symbol
_atom_site_label
_atom_site_fract_x
_atom_site_fract_y
_atom_site_fract_z
Si Si1 0.386745 0.957789 0.353220
Si Si2 0.883320 0.114412 0.370874
Si Si3 0.767188 0.069351 0.019651
Si Si4 0.229248 0.430944 0.427861
Si Si5 0.883700 0.590267 0.269505
Si Si6 0.612149 0.320366 0.287788
Si Si7 0.762356 0.607072 0.622539
Si Si8 0.782632 0.905649 0.218658
O O1 0.500000 0.894780 0.355867
O O2 0.338191 0.935972 0.461610
O O3 0.320093 0.859116 0.274894
O O4 0.381750 0.137302 0.316385
O O5 0.832913 0.271012 0.413335
O O6 0.000000 0.140110 0.358783
O O7 0.858871 0.973521 0.447526
O O8 0.834252 0.062469 0.266410
O O9 0.795135 0.238941 0.062788
O O10 0.757420 0.939590 0.105471
O O11 0.166415 0.573196 0.377639
O O12 0.335275 0.420614 0.373785
O O13 0.250739 0.465672 0.542946
O O14 0.846424 0.445393 0.200608
O O15 0.857655 0.758991 0.222795
O O16 0.000000 0.573821 0.280768
O O17 0.500000 0.380432 0.280813
O O18 0.660945 0.354330 0.180842
#
# Coordination Sequence:
#
# PCOD8167693 Si02
#       8
#     4   4   4   4   4   4   4   4
#     4  10  21  40  67  94 124 164 211 265 322 376
#     4  11  23  39  63  92 125 166 214 266 314 372
#     4  11  22  39  62  92 122 165 216 265 315 375
#     4  11  21  41  63  92 131 167 207 263 320 383
#     4  11  25  41  63  93 129 171 210 261 323 381
#     4  10  21  42  66  92 128 169 211 263 323 381
#     4  11  24  41  64  92 133 171 209 264 323 384
#     4  11  21  41  64  91 128 163 216 267 316 376
#
# _framework density 20.839908999999999
#
# number of rings (size 3 to 8) (size 9 to 14) (size 15 to 20)
#    0.000    1.250    3.750    3.750    0.000    5.000 
#    0.000    5.000    0.000    0.000    0.000    0.000 
#    0.000    0.000    0.000    0.000    0.000    0.000 
#
# Total GULP energy -396837.905045 kJ/mol
# GULP energy per Si atom -12401.184533 kJ/mol
# Density = 2.079248 g / cm^3
# Si number density = 20.839909 Si / 1000 Ang^3
#
#
#
# Elastic Constant Matrix: (Units=GPa)
#
#
# Indices 1 2 3 4 5 6 
#
# 1 115.9243 3.3791 20.7122 0.0000 0.0000 0.0000
# 2 3.3791 47.5044 -10.2932 0.0000 0.0000 0.0000
# 3 20.7122 -10.2932 88.2380 0.0000 0.0000 0.0000
# 4 0.0000 0.0000 0.0000 34.8201 0.0000 0.0000
# 5 0.0000 0.0000 0.0000 0.0000 17.1647 0.0000
# 6 0.0000 0.0000 0.0000 0.0000 0.0000 26.1418
#
#
#
# Elastic Compliance Matrix: (Units=1/GPa)
#
#
# Indices 1 2 3 4 5 6 
#
# 1 0.009063 -0.001134 -0.002260 0.000000 0.000000 0.000000
# 2 -0.001134 0.021739 0.002802 0.000000 0.000000 0.000000
# 3 -0.002260 0.002802 0.012190 0.000000 0.000000 0.000000
# 4 0.000000 0.000000 0.000000 0.028719 0.000000 0.000000
# 5 0.000000 0.000000 0.000000 0.000000 0.058259 0.000000
# 6 0.000000 0.000000 0.000000 0.000000 0.000000 0.038253
#
#
# Mechanical properties :
#
#
# Convention : Reuss Voigt Hill
#
# Bulk Modulus (GPa) = 23.91883 31.02923 27.47403
# Shear Modulus (GPa) = 27.27128 31.48320 29.37724
#
# Velocity S-wave (km/s) = 3.62139 3.89101 3.75862
# Velocity P-wave (km/s) = 5.38408 5.92522 5.66112
#
# Compressibility (1/GPa) = 0.04180806
#
# Stress axis : x y z
#
# Youngs Moduli (GPa) = 110.33715 46.00133 82.03256
#
# Poissons Ratio (x) = 0.05218 0.18537
# Poissons Ratio (y) = 0.12516 -0.22986
# Poissons Ratio (z) = 0.24933 -0.12890
#
# Static dielectric constant tensor:
#      x y z
#    x 3.801090 0.000000 0.000000 
#    y 0.000000 3.773500 0.000000 
#    z 0.000000 0.000000 3.967810 
# 
# 
# High freq. dielectric constant tensor:
#      x y z
#    x 1.805580 0.000000 0.000000 
#    y 0.000000 1.818050 0.000000 
#    z 0.000000 0.000000 1.825910 
# 
# From -- ./inp_files/4665.got.cif
#   From: 2010.03.12/outbox.cif.g09.slc.cpg/sg26_3_cif.got.tgz:4665.got - 2010.04.14 03:33:09.
