data_PCOD8167305
_publ_section_title
;
Structure prediction by ZEFSAII (Michael W. Deem and Ramdas Pophale) SiO2 
 PCOD8167305
Probable space group: P M C 21
;
_chemical_formula_sum "Si O2"
_cell_formula_units_Z 24
_cell_length_a 8.439948
_cell_length_b 26.872793
_cell_length_c 5.178595
_cell_angle_alpha 90.000000
_cell_angle_beta 90.000000
_cell_angle_gamma 90.000000
_cell_volume 1174.531112
_symmetry_space_group_name_H-M "P M C 21"
_symmetry_group_IT_number 26
_symmetry_cell_setting 'orthorhombic'
loop_
_space_group_symop_operation_xyz
x,y,z
-x,-y,1/2+z
-x,y,z
x,-y,1/2+z
loop_
_atom_site_type_symbol
_atom_site_label
_atom_site_fract_x
_atom_site_fract_y
_atom_site_fract_z
Si Si1 0.311407 0.528199 0.385630
Si Si2 0.188775 0.805498 0.885452
Si Si3 0.813890 0.860350 0.385113
Si Si4 0.685201 0.969223 0.365599
Si Si5 0.685867 0.641345 0.405364
Si Si6 0.185773 0.307845 0.405308
O O1 0.500000 0.526577 0.390549
O O2 0.243115 0.499266 0.633637
O O3 0.252093 0.584856 0.388148
O O4 0.259581 0.833055 0.634633
O O5 0.246607 0.748729 0.887794
O O6 0.000000 0.807925 0.889382
O O7 0.260242 0.834406 0.132296
O O8 0.779084 0.918417 0.392009
O O9 0.000000 0.852108 0.385488
O O10 0.500000 0.957222 0.374584
O O11 0.735734 0.004938 0.599465
O O12 0.500000 0.644777 0.348004
O O13 0.720616 0.660608 0.692674
O O14 0.778894 0.673044 0.192688
O O15 0.000000 0.311676 0.348103
#
# Coordination Sequence:
#
# PCOD8167305 Si02
#       6
#     4   4   4   4   4   4
#     4   9  17  31  53  79 107 144 187 229 279 337
#     4   9  19  35  55  78 105 140 179 220 265 321
#     4  10  19  34  56  79 101 130 177 227 262 300
#     4  10  21  36  52  73 105 140 169 203 258 324
#     4  11  22  37  59  88 117 144 189 248 287 323
#     4  11  22  39  61  83 115 158 193 223 283 359
#
# _framework density 20.433686999999999
#
# number of rings (size 3 to 8) (size 9 to 14) (size 15 to 20)
#    0.000    2.000    0.000    4.000    0.000    6.000 
#    0.000    5.000    0.000   10.000    0.000    0.000 
#    0.000    0.000    0.000    0.000    0.000    0.000 
#
# Total GULP energy -297686.767690 kJ/mol
# GULP energy per Si atom -12403.615320 kJ/mol
# Density = 2.038718 g / cm^3
# Si number density = 20.433687 Si / 1000 Ang^3
#
#
#
# Elastic Constant Matrix: (Units=GPa)
#
#
# Indices 1 2 3 4 5 6 
#
# 1 20.2525 17.3712 12.7758 0.0000 0.0000 0.0000
# 2 17.3712 127.7199 43.9300 0.0000 0.0000 0.0000
# 3 12.7758 43.9300 143.4155 0.0000 0.0000 0.0000
# 4 0.0000 0.0000 0.0000 47.1771 0.0000 0.0000
# 5 0.0000 0.0000 0.0000 0.0000 18.6159 0.0000
# 6 0.0000 0.0000 0.0000 0.0000 0.0000 25.9050
#
#
#
# Elastic Compliance Matrix: (Units=1/GPa)
#
#
# Indices 1 2 3 4 5 6 
#
# 1 0.057047 -0.006719 -0.003024 0.000000 0.000000 0.000000
# 2 -0.006719 0.009543 -0.002325 0.000000 0.000000 0.000000
# 3 -0.003024 -0.002325 0.007954 0.000000 0.000000 0.000000
# 4 0.000000 0.000000 0.000000 0.021197 0.000000 0.000000
# 5 0.000000 0.000000 0.000000 0.000000 0.053717 0.000000
# 6 0.000000 0.000000 0.000000 0.000000 0.000000 0.038603
#
#
# Mechanical properties :
#
#
# Convention : Reuss Voigt Hill
#
# Bulk Modulus (GPa) = 19.83745 48.83799 34.33772
# Shear Modulus (GPa) = 21.83414 32.82701 27.33058
#
# Velocity S-wave (km/s) = 3.27239 4.01248 3.66119
# Velocity P-wave (km/s) = 4.89973 6.73938 5.89180
#
# Compressibility (1/GPa) = 0.05040971
#
# Stress axis : x y z
#
# Youngs Moduli (GPa) = 17.52933 104.78838 125.72014
#
# Poissons Ratio (x) = 0.70407 0.38015
# Poissons Ratio (y) = 0.11778 0.29225
# Poissons Ratio (z) = 0.05301 0.24359
#
# Static dielectric constant tensor:
#      x y z
#    x 3.238150 0.000000 0.000000 
#    y 0.000000 3.794490 0.000000 
#    z 0.000000 0.000000 4.049010 
# 
# 
# High freq. dielectric constant tensor:
#      x y z
#    x 1.758160 0.000000 0.000000 
#    y 0.000000 1.814880 0.000000 
#    z 0.000000 0.000000 1.820260 
# 
# From -- ./inp_files/187.got.cif
#   From: 2010.03.12/outbox.cif.g09.slc.cpg/sg26_1_cif.got.tgz:187.got - 2010.04.14 03:33:09.
