data_PCOD8167792
_publ_section_title
;
Structure prediction by ZEFSAII (Michael W. Deem and Ramdas Pophale) SiO2 
 PCOD8167792
Probable space group: P C C 2
;
_chemical_formula_sum "Si O2"
_cell_formula_units_Z 32
_cell_length_a 23.962594
_cell_length_b 13.393525
_cell_length_c 5.307724
_cell_angle_alpha 90.000000
_cell_angle_beta 90.000000
_cell_angle_gamma 90.000000
_cell_volume 1703.480058
_symmetry_space_group_name_H-M "P C C 2"
_symmetry_group_IT_number 27
_symmetry_cell_setting 'orthorhombic'
loop_
_space_group_symop_operation_xyz
x,y,z
-x,-y,z
-x,y,1/2+z
x,-y,1/2+z
loop_
_atom_site_type_symbol
_atom_site_label
_atom_site_fract_x
_atom_site_fract_y
_atom_site_fract_z
Si Si1 0.476554 0.109150 0.525710
Si Si2 0.247744 0.970816 0.496021
Si Si3 0.308067 0.223678 0.996000
Si Si4 0.253786 0.561722 0.496567
Si Si5 0.035971 0.731192 0.496553
Si Si6 0.876017 0.439369 0.496815
Si Si7 0.062401 0.041628 0.996433
Si Si8 0.651672 0.867763 0.496065
O O1 0.504899 0.165654 0.285557
O O2 0.410835 0.093102 0.494843
O O3 0.500000 0.000000 0.576171
O O4 0.255931 0.852486 0.495765
O O5 0.213155 0.000079 0.246078
O O6 0.305925 0.037018 0.496229
O O7 0.342118 0.202201 0.741373
O O8 0.288435 0.336954 0.996756
O O9 0.342244 0.201724 0.249967
O O10 0.269632 0.500048 0.246492
O O11 0.188785 0.589728 0.496595
O O12 0.089150 0.660926 0.496280
O O13 0.062348 0.840100 0.496516
O O14 0.999957 0.712087 0.246678
O O15 0.892064 0.500221 0.247156
O O16 0.093462 0.000032 0.746398
O O17 0.000000 0.000000 0.996274
#
# Coordination Sequence:
#
# PCOD8167792 Si02
#       8
#     4   4   4   4   4   4   4   4
#     4  10  21  27  43  67 113 161 183 197 241 306
#     4   8  16  25  44  66 100 135 162 196 256 301
#     4  10  19  31  55  75  97 136 180 222 268 313
#     4  10  21  40  61  78 103 133 176 231 294 333
#     4  12  21  32  56  83 108 147 184 218 257 322
#     4  10  23  40  55  78 111 143 168 219 286 341
#     4  10  16  30  48  73 102 134 179 212 257 272
#     4  10  19  31  47  78 112 146 173 211 260 307
#
# _framework density 18.785074000000002
#
# number of rings (size 3 to 8) (size 9 to 14) (size 15 to 20)
#    0.000    2.000    2.500    2.250   10.500    1.500 
#    0.000    0.000    0.000    4.500    0.000    0.000 
#    0.000   35.000    0.000    0.000    0.000    0.000 
#
# Total GULP energy -396521.057346 kJ/mol
# GULP energy per Si atom -12391.283042 kJ/mol
# Density = 1.874232 g / cm^3
# Si number density = 18.785074 Si / 1000 Ang^3
#
#
#
# Elastic Constant Matrix: (Units=GPa)
#
#
# Indices 1 2 3 4 5 6 
#
# 1 44.9538 42.2880 18.5087 0.0000 0.0000 0.0000
# 2 42.2880 126.9830 43.6725 0.0000 0.0000 0.0000
# 3 18.5087 43.6725 196.1398 0.0000 0.0000 0.0000
# 4 0.0000 0.0000 0.0000 21.1553 0.0000 0.0000
# 5 0.0000 0.0000 0.0000 0.0000 -88.6685 0.0000
# 6 0.0000 0.0000 0.0000 0.0000 0.0000 46.5369
#
#
#
# Elastic Compliance Matrix: (Units=1/GPa)
#
#
# Indices 1 2 3 4 5 6 
#
# 1 0.032484 -0.010573 -0.000711 0.000000 0.000000 0.000000
# 2 -0.010573 0.011970 -0.001667 0.000000 0.000000 0.000000
# 3 -0.000711 -0.001667 0.005537 0.000000 0.000000 0.000000
# 4 0.000000 0.000000 0.000000 0.047270 0.000000 0.000000
# 5 0.000000 0.000000 0.000000 0.000000 -0.011278 0.000000
# 6 0.000000 0.000000 0.000000 0.000000 0.000000 0.021488
#
#
# Mechanical properties :
#
#
# Convention : Reuss Voigt Hill
#
# Bulk Modulus (GPa) = 41.51636 64.11279 52.81458
# Shear Modulus (GPa) = 35.35991 13.37857 24.36924
#
# Velocity S-wave (km/s) = 4.34330 2.67159 3.60567
# Velocity P-wave (km/s) = 6.87758 6.61213 6.74616
#
# Compressibility (1/GPa) = 0.02408689
#
# Stress axis : x y z
#
# Youngs Moduli (GPa) = 30.78426 83.54452 180.61055
#
# Poissons Ratio (x) = 0.88334 0.12843
# Poissons Ratio (y) = 0.32549 0.30115
# Poissons Ratio (z) = 0.02189 0.13930
#
# Static dielectric constant tensor:
#      x y z
#    x 2.994250 0.000000 0.000000 
#    y 0.000000 3.193940 0.000000 
#    z 0.000000 0.000000 4.716830 
# 
# 
# High freq. dielectric constant tensor:
#      x y z
#    x 1.691820 0.000000 0.000000 
#    y 0.000000 1.704010 0.000000 
#    z 0.000000 0.000000 1.776300 
# 
# From -- ./inp_files/670.got.cif
#   From: 2010.03.12/outbox.cif.g09.slc.cpg/sg27_1_cif.got.tgz:670.got - 2010.04.14 03:36:05.
