data_PCOD8167621
_publ_section_title
;
Structure prediction by ZEFSAII (Michael W. Deem and Ramdas Pophale) SiO2 
 PCOD8167621
Probable space group: P M C 21
;
_chemical_formula_sum "Si O2"
_cell_formula_units_Z 32
_cell_length_a 8.823509
_cell_length_b 11.226725
_cell_length_c 15.926320
_cell_angle_alpha 90.000000
_cell_angle_beta 90.000000
_cell_angle_gamma 90.000000
_cell_volume 1577.647070
_symmetry_space_group_name_H-M "P M C 21"
_symmetry_group_IT_number 26
_symmetry_cell_setting 'orthorhombic'
loop_
_space_group_symop_operation_xyz
x,y,z
-x,-y,1/2+z
-x,y,z
x,-y,1/2+z
loop_
_atom_site_type_symbol
_atom_site_label
_atom_site_fract_x
_atom_site_fract_y
_atom_site_fract_z
Si Si1 0.823790 0.773290 0.153350
Si Si2 0.179630 0.579127 0.493810
Si Si3 0.332161 0.073674 0.525701
Si Si4 0.176396 0.149523 0.972690
Si Si5 0.667859 0.180282 0.344151
Si Si6 0.825439 0.040659 0.794119
Si Si7 0.178615 0.426412 0.332357
Si Si8 0.678795 0.476565 0.663523
O O1 0.780124 0.828376 0.064205
O O2 0.779637 0.873602 0.219350
O O3 0.722229 0.660323 0.173570
O O4 0.000000 0.736888 0.155738
O O5 0.232696 0.715804 0.486513
O O6 0.234273 0.509620 0.409709
O O7 0.253132 0.525349 0.576949
O O8 0.000000 0.567350 0.502359
O O9 0.500000 0.077217 0.566788
O O10 0.341483 0.108465 0.429675
O O11 0.265189 0.940027 0.534875
O O12 0.213001 0.113921 0.877681
O O13 0.000000 0.137964 0.993927
O O14 0.500000 0.222237 0.315437
O O15 0.779259 0.291371 0.354136
O O16 0.734000 0.082265 0.279914
O O17 0.000000 0.004375 0.792278
O O18 0.258827 0.456103 0.244847
O O19 0.000000 0.440158 0.319689
O O20 0.500000 0.492020 0.659803
#
# Coordination Sequence:
#
# PCOD8167621 Si02
#       8
#     4   4   4   4   4   4   4   4
#     4  11  22  38  60  84 112 148 192 239 288 345
#     4  10  22  41  65  90 119 160 206 250 295 349
#     4  10  21  36  56  85 118 150 186 233 290 350
#     4   9  18  36  60  84 111 146 191 238 287 343
#     4  10  21  37  57  84 117 151 190 237 292 350
#     4   9  19  36  59  85 111 144 188 237 287 344
#     4  11  23  41  65  89 118 160 206 250 295 349
#     4  12  26  41  60  89 124 159 197 246 302 362
#
# _framework density 20.283370999999999
#
# number of rings (size 3 to 8) (size 9 to 14) (size 15 to 20)
#    0.000    1.750    0.000    4.125    0.000    9.000 
#    0.000    3.750    0.000    0.000    0.000    0.000 
#    0.000    0.000    0.000    0.000    0.000    0.000 
#
# Total GULP energy -396809.981853 kJ/mol
# GULP energy per Si atom -12400.311933 kJ/mol
# Density = 2.023720 g / cm^3
# Si number density = 20.283371 Si / 1000 Ang^3
#
#
#
# Elastic Constant Matrix: (Units=GPa)
#
#
# Indices 1 2 3 4 5 6 
#
# 1 68.6251 40.4208 38.7742 0.0000 0.0000 0.0000
# 2 40.4208 113.5053 24.4593 0.0000 0.0000 0.0000
# 3 38.7742 24.4593 71.2120 0.0000 0.0000 0.0000
# 4 0.0000 0.0000 0.0000 16.5871 0.0000 0.0000
# 5 0.0000 0.0000 0.0000 0.0000 23.5742 0.0000
# 6 0.0000 0.0000 0.0000 0.0000 0.0000 24.0930
#
#
#
# Elastic Compliance Matrix: (Units=1/GPa)
#
#
# Indices 1 2 3 4 5 6 
#
# 1 0.024677 -0.006363 -0.011251 0.000000 0.000000 0.000000
# 2 -0.006363 0.011155 -0.000367 0.000000 0.000000 0.000000
# 3 -0.011251 -0.000367 0.020294 0.000000 0.000000 0.000000
# 4 0.000000 0.000000 0.000000 0.060288 0.000000 0.000000
# 5 0.000000 0.000000 0.000000 0.000000 0.042419 0.000000
# 6 0.000000 0.000000 0.000000 0.000000 0.000000 0.041506
#
#
# Mechanical properties :
#
#
# Convention : Reuss Voigt Hill
#
# Bulk Modulus (GPa) = 49.59084 51.18345 50.38715
# Shear Modulus (GPa) = 20.57425 22.83008 21.70217
#
# Velocity S-wave (km/s) = 3.18833 3.35857 3.27456
# Velocity P-wave (km/s) = 6.16895 6.35051 6.26039
#
# Compressibility (1/GPa) = 0.02016501
#
# Stress axis : x y z
#
# Youngs Moduli (GPa) = 40.52394 89.64380 49.27474
#
# Poissons Ratio (x) = 0.57043 0.55437
# Poissons Ratio (y) = 0.25787 0.01807
# Poissons Ratio (z) = 0.45592 0.03288
#
# Static dielectric constant tensor:
#      x y z
#    x 3.822770 0.000000 0.000000 
#    y 0.000000 3.842880 0.000000 
#    z 0.000000 0.000000 3.648030 
# 
# 
# High freq. dielectric constant tensor:
#      x y z
#    x 1.793150 0.000000 0.000000 
#    y 0.000000 1.806480 0.000000 
#    z 0.000000 0.000000 1.788060 
# 
# From -- ./inp_files/4309.got.cif
#   From: 2010.03.12/outbox.cif.g09.slc.cpg/sg26_3_cif.got.tgz:4309.got - 2010.04.14 03:33:09.
