data_PCOD8167279
_publ_section_title
;
Structure prediction by ZEFSAII (Michael W. Deem and Ramdas Pophale) SiO2 
 PCOD8167279
Probable space group: P M C 21
;
_chemical_formula_sum "Si O2"
_cell_formula_units_Z 32
_cell_length_a 9.171404
_cell_length_b 11.488886
_cell_length_c 16.100002
_cell_angle_alpha 90.000000
_cell_angle_beta 90.000000
_cell_angle_gamma 90.000000
_cell_volume 1696.444572
_symmetry_space_group_name_H-M "P M C 21"
_symmetry_group_IT_number 26
_symmetry_cell_setting 'orthorhombic'
loop_
_space_group_symop_operation_xyz
x,y,z
-x,-y,1/2+z
-x,y,z
x,-y,1/2+z
loop_
_atom_site_type_symbol
_atom_site_label
_atom_site_fract_x
_atom_site_fract_y
_atom_site_fract_z
Si Si1 0.829398 0.061935 0.114130
Si Si2 0.672626 0.309372 0.402066
Si Si3 0.673636 0.570925 0.385746
Si Si4 0.831409 0.864733 0.799982
Si Si5 0.660818 0.067000 0.851172
Si Si6 0.327113 0.822224 0.069412
Si Si7 0.661634 0.229360 0.004656
Si Si8 0.672385 0.727184 0.241017
O O1 0.795324 0.082994 0.210360
O O2 0.000000 0.047444 0.096385
O O3 0.749041 0.946996 0.080420
O O4 0.772736 0.181723 0.073088
O O5 0.500000 0.305331 0.391794
O O6 0.730672 0.441876 0.404835
O O7 0.746179 0.254166 0.320267
O O8 0.723045 0.241426 0.485122
O O9 0.500000 0.575436 0.384846
O O10 0.727208 0.654952 0.460637
O O11 0.732772 0.617181 0.295153
O O12 0.000000 0.841489 0.814691
O O13 0.770628 0.960147 0.864552
O O14 0.500000 0.021355 0.823469
O O15 0.644794 0.128183 0.938305
O O16 0.729221 0.153925 0.782909
O O17 0.500000 0.844433 0.070052
O O18 0.281236 0.732768 0.144235
O O19 0.500000 0.254268 0.042883
O O20 0.500000 0.725223 0.250153
#
# Coordination Sequence:
#
# PCOD8167279 Si02
#       8
#     4   4   4   4   4   4   4   4
#     4  11  23  36  51  77 111 142 178 221 266 322
#     4  10  21  36  55  82 111 140 178 223 269 322
#     4   8  16  34  55  80 110 136 174 220 262 314
#     4  11  23  36  50  72 108 146 178 216 263 318
#     4   9  16  30  54  79 102 132 170 213 266 320
#     4  10  19  33  56  83 108 137 178 224 271 323
#     4   9  18  33  56  82 105 133 171 219 267 316
#     4   8  14  28  53  79 105 136 169 214 264 309
#
# _framework density 18.86298
#
# number of rings (size 3 to 8) (size 9 to 14) (size 15 to 20)
#    0.000    2.500    1.250    3.000    0.000    5.500 
#    2.250    0.625    0.000    1.500    0.000    0.000 
#    0.000    0.000    0.000    0.000    0.000    0.000 
#
# Total GULP energy -396548.287771 kJ/mol
# GULP energy per Si atom -12392.133993 kJ/mol
# Density = 1.882005 g / cm^3
# Si number density = 18.862980 Si / 1000 Ang^3
#
#
#
# Elastic Constant Matrix: (Units=GPa)
#
#
# Indices 1 2 3 4 5 6 
#
# 1 46.4034 42.1552 34.6863 0.0000 0.0000 0.0000
# 2 42.1552 142.5138 50.8561 0.0000 0.0000 0.0000
# 3 34.6863 50.8561 63.3458 0.0000 0.0000 0.0000
# 4 0.0000 0.0000 0.0000 27.8845 0.0000 0.0000
# 5 0.0000 0.0000 0.0000 0.0000 20.1591 0.0000
# 6 0.0000 0.0000 0.0000 0.0000 0.0000 3.7987
#
#
#
# Elastic Compliance Matrix: (Units=1/GPa)
#
#
# Indices 1 2 3 4 5 6 
#
# 1 0.039375 -0.005540 -0.017112 0.000000 0.000000 0.000000
# 2 -0.005540 0.010614 -0.005487 0.000000 0.000000 0.000000
# 3 -0.017112 -0.005487 0.029562 0.000000 0.000000 0.000000
# 4 0.000000 0.000000 0.000000 0.035862 0.000000 0.000000
# 5 0.000000 0.000000 0.000000 0.000000 0.049605 0.000000
# 6 0.000000 0.000000 0.000000 0.000000 0.000000 0.263250
#
#
# Mechanical properties :
#
#
# Convention : Reuss Voigt Hill
#
# Bulk Modulus (GPa) = 42.97332 56.40645 49.68989
# Shear Modulus (GPa) = 10.15630 18.67283 14.41457
#
# Velocity S-wave (km/s) = 2.32292 3.14971 2.76737
# Velocity P-wave (km/s) = 5.47959 6.57235 6.05069
#
# Compressibility (1/GPa) = 0.02327025
#
# Stress axis : x y z
#
# Youngs Moduli (GPa) = 25.39697 94.21623 33.82702
#
# Poissons Ratio (x) = 0.52199 0.57886
# Poissons Ratio (y) = 0.14071 0.18562
# Poissons Ratio (z) = 0.43461 0.51701
#
# Static dielectric constant tensor:
#      x y z
#    x 3.156540 0.000000 0.000000 
#    y 0.000000 3.628050 0.000000 
#    z 0.000000 0.000000 3.676300 
# 
# 
# High freq. dielectric constant tensor:
#      x y z
#    x 1.695170 0.000000 0.000000 
#    y 0.000000 1.727730 0.000000 
#    z 0.000000 0.000000 1.734150 
# 
# From -- ./inp_files/4199.got.cif
#   From: 2010.03.12/outbox.cif.g09.slc.cpg/sg26_3_cif.got.tgz:4199.got - 2010.04.14 03:33:09.
