data_PCOD8167799
_publ_section_title
;
Structure prediction by ZEFSAII (Michael W. Deem and Ramdas Pophale) SiO2 
 PCOD8167799
Probable space group: P C C 2
;
_chemical_formula_sum "Si O2"
_cell_formula_units_Z 24
_cell_length_a 8.331999
_cell_length_b 9.924712
_cell_length_c 13.599498
_cell_angle_alpha 90.000000
_cell_angle_beta 90.000000
_cell_angle_gamma 90.000000
_cell_volume 1124.579079
_symmetry_space_group_name_H-M "P C C 2"
_symmetry_group_IT_number 27
_symmetry_cell_setting 'orthorhombic'
loop_
_space_group_symop_operation_xyz
x,y,z
-x,-y,z
-x,y,1/2+z
x,-y,1/2+z
loop_
_atom_site_type_symbol
_atom_site_label
_atom_site_fract_x
_atom_site_fract_y
_atom_site_fract_z
Si Si1 0.609264 0.369407 0.750000
Si Si2 0.821427 0.539619 0.426099
Si Si3 0.608766 0.877721 0.738259
Si Si4 0.713630 0.228034 0.039916
Si Si5 0.314296 0.966825 0.441056
Si Si6 0.346806 0.698775 0.532882
O O1 0.500000 0.500000 0.738218
O O2 0.745563 0.389909 0.830782
O O3 0.504547 0.239842 0.782000
O O4 0.692874 0.341404 0.644744
O O5 0.830791 0.647319 0.516035
O O6 0.715534 0.412029 0.456762
O O7 0.000000 0.500000 0.397437
O O8 0.722032 0.816812 0.653715
O O9 0.719432 0.933100 0.826562
O O10 0.500000 0.000000 0.694397
O O11 0.536486 0.284348 0.014957
O O12 0.776344 0.102333 0.974176
O O13 0.260790 0.841093 0.508739
O O14 0.500000 0.000000 0.457476
#
# Coordination Sequence:
#
# PCOD8167799 Si02
#       6
#     4   4   4   4   4   4
#     4  11  21  35  58  83 110 146 191 239 285 340
#     4  12  25  38  53  79 117 157 193 235 285 340
#     4  10  18  30  57  93 117 139 182 242 295 336
#     4  10  19  35  58  86 114 146 190 236 284 340
#     4   9  17  31  57  90 118 140 178 239 291 338
#     4  10  20  37  60  85 110 144 190 239 289 340
#
# _framework density 21.341318999999999
#
# number of rings (size 3 to 8) (size 9 to 14) (size 15 to 20)
#    0.000    1.667    0.000   10.000    0.000    0.667 
#    0.000    0.833    0.000    0.000    0.000   35.000 
#    0.000    0.000    0.000    0.000    0.000    0.000 
#
# Total GULP energy -297580.018435 kJ/mol
# GULP energy per Si atom -12399.167435 kJ/mol
# Density = 2.129274 g / cm^3
# Si number density = 21.341319 Si / 1000 Ang^3
#
#
#
# Elastic Constant Matrix: (Units=GPa)
#
#
# Indices 1 2 3 4 5 6 
#
# 1 35.1748 28.7971 42.6983 0.0000 0.0000 0.0000
# 2 28.7971 151.8701 55.5192 0.0000 0.0000 0.0000
# 3 42.6983 55.5192 147.2886 0.0000 0.0000 0.0000
# 4 0.0000 0.0000 0.0000 44.1486 0.0000 0.0000
# 5 0.0000 0.0000 0.0000 0.0000 10.9678 0.0000
# 6 0.0000 0.0000 0.0000 0.0000 0.0000 12.6810
#
#
#
# Elastic Compliance Matrix: (Units=1/GPa)
#
#
# Indices 1 2 3 4 5 6 
#
# 1 0.046372 -0.004498 -0.011748 0.000000 0.000000 0.000000
# 2 -0.004498 0.008073 -0.001739 0.000000 0.000000 0.000000
# 3 -0.011748 -0.001739 0.010850 0.000000 0.000000 0.000000
# 4 0.000000 0.000000 0.000000 0.022651 0.000000 0.000000
# 5 0.000000 0.000000 0.000000 0.000000 0.091176 0.000000
# 6 0.000000 0.000000 0.000000 0.000000 0.000000 0.078858
#
#
# Mechanical properties :
#
#
# Convention : Reuss Voigt Hill
#
# Bulk Modulus (GPa) = 34.09924 65.37364 49.73644
# Shear Modulus (GPa) = 16.46219 27.38075 21.92147
#
# Velocity S-wave (km/s) = 2.78038 3.58577 3.20845
# Velocity P-wave (km/s) = 5.13031 6.91684 6.08945
#
# Compressibility (1/GPa) = 0.02932617
#
# Stress axis : x y z
#
# Youngs Moduli (GPa) = 21.56451 123.86487 92.16180
#
# Poissons Ratio (x) = 0.55720 1.08267
# Poissons Ratio (y) = 0.09701 0.16028
# Poissons Ratio (z) = 0.25333 0.21541
#
# Static dielectric constant tensor:
#      x y z
#    x 3.066800 0.000000 0.000000 
#    y 0.000000 4.468010 0.000000 
#    z 0.000000 0.000000 3.964810 
# 
# 
# High freq. dielectric constant tensor:
#      x y z
#    x 1.750220 0.000000 0.000000 
#    y 0.000000 1.873540 0.000000 
#    z 0.000000 0.000000 1.851870 
# 
# From -- ./inp_files/3329.got.cif
#   From: 2010.03.12/outbox.cif.g09.slc.cpg/sg27_2_cif.got.tgz:3329.got - 2010.04.14 03:36:05.
