data_PCOD8167973
_publ_section_title
;
Structure prediction by ZEFSAII (Michael W. Deem and Ramdas Pophale) SiO2 
 PCOD8167973
Probable space group: P M A 2
;
_chemical_formula_sum "Si O2"
_cell_formula_units_Z 32
_cell_length_a 8.925043
_cell_length_b 15.324089
_cell_length_c 15.295466
_cell_angle_alpha 90.000000
_cell_angle_beta 90.000000
_cell_angle_gamma 90.000000
_cell_volume 2091.932638
_symmetry_space_group_name_H-M "P M A 2"
_symmetry_group_IT_number 28
_symmetry_cell_setting 'orthorhombic'
loop_
_space_group_symop_operation_xyz
x,y,z
-x,-y,z
1/2-x,y,z
1/2+x,-y,z
loop_
_atom_site_type_symbol
_atom_site_label
_atom_site_fract_x
_atom_site_fract_y
_atom_site_fract_z
Si Si1 0.572980 0.760643 0.728850
Si Si2 0.423769 0.092819 0.598993
Si Si3 0.427276 0.093611 0.065034
Si Si4 0.570888 0.096306 0.238808
Si Si5 0.581866 0.414525 0.934844
Si Si6 0.581317 0.414656 0.726634
Si Si7 0.575373 0.906597 0.406203
Si Si8 0.924322 0.759500 0.927689
O O1 0.750000 0.751322 0.720078
O O2 0.510695 0.839590 0.669726
O O3 0.501873 0.671534 0.692655
O O4 0.523183 0.778901 0.828627
O O5 0.250000 0.076254 0.615912
O O6 0.448178 0.135612 0.502176
O O7 0.500000 0.000000 0.611903
O O8 0.250000 0.082520 0.080199
O O9 0.503956 0.138629 0.150404
O O10 0.500000 0.000000 0.044434
O O11 0.464754 0.155721 0.983851
O O12 0.750000 0.095467 0.236515
O O13 0.509962 0.145079 0.327049
O O14 0.500000 0.000000 0.241372
O O15 0.500000 0.500000 0.973624
O O16 0.750000 0.415590 0.970730
O O17 0.576065 0.417385 0.830783
O O18 0.505009 0.325463 0.967722
O O19 0.500000 0.500000 0.687867
O O20 0.750000 0.413713 0.691267
O O21 0.750000 0.915379 0.382231
O O22 0.500000 0.000000 0.414213
O O23 0.750000 0.737818 0.930293
#
# Coordination Sequence:
#
# PCOD8167973 Si02
#       8
#     4   4   4   4   4   4   4   4
#     4   9  17  30  43  58  82 112 143 174 204 239
#     4   9  18  29  42  59  82 112 143 173 206 240
#     4  10  19  30  42  58  81 111 143 175 207 242
#     4  10  17  26  41  59  77 100 130 168 211 251
#     4   9  16  26  42  61  81 103 132 169 210 250
#     4   9  16  26  41  61  80 103 133 169 211 250
#     4   9  15  25  40  58  78 101 130 166 207 249
#     4   9  18  30  43  58  81 112 144 174 205 239
#
# _framework density 15.296860000000001
#
# number of rings (size 3 to 8) (size 9 to 14) (size 15 to 20)
#    0.000    2.750    0.000    4.125    0.000    5.500 
#    0.000    0.000    0.000    0.000    0.000    0.000 
#    0.000    1.000    0.000    4.750    0.000    4.375 
#
# Total GULP energy -396571.924101 kJ/mol
# GULP energy per Si atom -12392.872628 kJ/mol
# Density = 1.526204 g / cm^3
# Si number density = 15.296860 Si / 1000 Ang^3
#
#
#
# Elastic Constant Matrix: (Units=GPa)
#
#
# Indices 1 2 3 4 5 6 
#
# 1 90.6862 46.9901 42.0237 0.0000 0.0000 0.0000
# 2 46.9901 96.5689 51.7296 0.0000 0.0000 0.0000
# 3 42.0237 51.7296 82.6129 0.0000 0.0000 0.0000
# 4 0.0000 0.0000 0.0000 1.4107 0.0000 0.0000
# 5 0.0000 0.0000 0.0000 0.0000 17.6023 0.0000
# 6 0.0000 0.0000 0.0000 0.0000 0.0000 24.3270
#
#
#
# Elastic Compliance Matrix: (Units=1/GPa)
#
#
# Indices 1 2 3 4 5 6 
#
# 1 0.015962 -0.005143 -0.004900 0.000000 0.000000 0.000000
# 2 -0.005143 0.017239 -0.008178 0.000000 0.000000 0.000000
# 3 -0.004900 -0.008178 0.019718 0.000000 0.000000 0.000000
# 4 0.000000 0.000000 0.000000 0.708879 0.000000 0.000000
# 5 0.000000 0.000000 0.000000 0.000000 0.056811 0.000000
# 6 0.000000 0.000000 0.000000 0.000000 0.000000 0.041107
#
#
# Mechanical properties :
#
#
# Convention : Reuss Voigt Hill
#
# Bulk Modulus (GPa) = 60.68760 61.26163 60.97461
# Shear Modulus (GPa) = 5.54540 17.27631 11.41085
#
# Velocity S-wave (km/s) = 1.90606 3.36430 2.73419
# Velocity P-wave (km/s) = 6.67858 7.43148 7.06506
#
# Compressibility (1/GPa) = 0.01647783
#
# Stress axis : x y z
#
# Youngs Moduli (GPa) = 62.64822 58.00932 50.71509
#
# Poissons Ratio (x) = 0.29832 0.24848
# Poissons Ratio (y) = 0.32217 0.41477
# Poissons Ratio (z) = 0.30695 0.47442
#
# Static dielectric constant tensor:
#      x y z
#    x 3.119630 0.000000 0.000000 
#    y 0.000000 2.771030 0.000000 
#    z 0.000000 0.000000 3.446750 
# 
# 
# High freq. dielectric constant tensor:
#      x y z
#    x 1.600270 0.000000 0.000000 
#    y 0.000000 1.553370 0.000000 
#    z 0.000000 0.000000 1.564700 
# 
# From -- ./inp_files/6932.got.cif
#   From: 2010.03.12/outbox.cif.g09.slc.cpg/sg28_4_cif.got.tgz:6932.got - 2010.04.14 03:39:34.
