data_PCOD8167388
_publ_section_title
;
Structure prediction by ZEFSAII (Michael W. Deem and Ramdas Pophale) SiO2 
 PCOD8167388
Probable space group: P M C 21
;
_chemical_formula_sum "Si O2"
_cell_formula_units_Z 20
_cell_length_a 25.708053
_cell_length_b 7.225082
_cell_length_c 4.982467
_cell_angle_alpha 90.000000
_cell_angle_beta 90.000000
_cell_angle_gamma 90.000000
_cell_volume 925.457327
_symmetry_space_group_name_H-M "P M C 21"
_symmetry_group_IT_number 26
_symmetry_cell_setting 'orthorhombic'
loop_
_space_group_symop_operation_xyz
x,y,z
-x,-y,1/2+z
-x,y,z
x,-y,1/2+z
loop_
_atom_site_type_symbol
_atom_site_label
_atom_site_fract_x
_atom_site_fract_y
_atom_site_fract_z
Si Si1 0.000000 0.617259 0.953380
Si Si2 0.597118 0.122137 0.581817
Si Si3 0.500000 0.378995 0.581537
Si Si4 0.305730 0.623911 0.991804
Si Si5 0.111701 0.628136 0.058612
Si Si6 0.791199 0.124094 0.484100
O O1 0.054025 0.721418 0.025891
O O2 0.000000 0.569044 0.637966
O O3 0.551065 0.262416 0.516895
O O4 0.652135 0.218399 0.539253
O O5 0.592621 0.946281 0.386619
O O6 0.500000 0.557356 0.389531
O O7 0.312819 0.452729 0.192638
O O8 0.249183 0.711194 0.035394
O O9 0.119649 0.459584 0.851183
O O10 0.151391 0.794522 0.016472
O O11 0.782698 0.955107 0.687556
#
# Coordination Sequence:
#
# PCOD8167388 Si02
#       6
#     2   4   2   4   4   4
#     4   8  16  30  54  80 106 140 188 234 276 330
#     4  12  24  42  64  92 124 157 193 243 298 342
#     4  12  24  42  64  92 124 162 204 240 278 342
#     4  12  24  42  64  88 115 154 198 240 285 346
#     4  10  19  36  58  82 109 148 192 234 279 340
#     4  12  24  39  57  85 118 151 187 237 292 343
#
# _framework density 21.610938000000001
#
# number of rings (size 3 to 8) (size 9 to 14) (size 15 to 20)
#    0.000    0.800    0.000    9.000    0.000    0.000 
#    0.000    1.000    0.000    0.000    0.000    0.000 
#    0.000    0.000    0.000    0.000    0.000    0.000 
#
# Total GULP energy -248126.312509 kJ/mol
# GULP energy per Si atom -12406.315625 kJ/mol
# Density = 2.156175 g / cm^3
# Si number density = 21.610938 Si / 1000 Ang^3
#
#
#
# Elastic Constant Matrix: (Units=GPa)
#
#
# Indices 1 2 3 4 5 6 
#
# 1 127.8091 35.6047 22.2702 0.0000 0.0000 0.0000
# 2 35.6047 68.1925 15.2513 0.0000 0.0000 0.0000
# 3 22.2702 15.2513 80.2203 0.0000 0.0000 0.0000
# 4 0.0000 0.0000 0.0000 46.2743 0.0000 0.0000
# 5 0.0000 0.0000 0.0000 0.0000 28.4096 0.0000
# 6 0.0000 0.0000 0.0000 0.0000 0.0000 118.3522
#
#
#
# Elastic Compliance Matrix: (Units=1/GPa)
#
#
# Indices 1 2 3 4 5 6 
#
# 1 0.009385 -0.004509 -0.001748 0.000000 0.000000 0.000000
# 2 -0.004509 0.017482 -0.002072 0.000000 0.000000 0.000000
# 3 -0.001748 -0.002072 0.013345 0.000000 0.000000 0.000000
# 4 0.000000 0.000000 0.000000 0.021610 0.000000 0.000000
# 5 0.000000 0.000000 0.000000 0.000000 0.035199 0.000000
# 6 0.000000 0.000000 0.000000 0.000000 0.000000 0.008449
#
#
# Mechanical properties :
#
#
# Convention : Reuss Voigt Hill
#
# Bulk Modulus (GPa) = 42.45622 46.94159 44.69890
# Shear Modulus (GPa) = 38.46741 52.14695 45.30718
#
# Velocity S-wave (km/s) = 4.22358 4.91755 4.58371
# Velocity P-wave (km/s) = 6.59342 7.34924 6.98157
#
# Compressibility (1/GPa) = 0.02355368
#
# Stress axis : x y z
#
# Youngs Moduli (GPa) = 106.55424 57.20162 74.93516
#
# Poissons Ratio (x) = 0.25793 0.13099
# Poissons Ratio (y) = 0.48046 0.15526
# Poissons Ratio (z) = 0.18627 0.11851
#
# Static dielectric constant tensor:
#      x y z
#    x 4.200650 0.000000 0.000000 
#    y 0.000000 3.535830 0.000000 
#    z 0.000000 0.000000 4.054160 
# 
# 
# High freq. dielectric constant tensor:
#      x y z
#    x 1.872730 0.000000 0.000000 
#    y 0.000000 1.824410 0.000000 
#    z 0.000000 0.000000 1.867450 
# 
# From -- ./inp_files/1006.got.cif
#   From: 2010.03.12/outbox.cif.g09.slc.cpg/sg26_1_cif.got.tgz:1006.got - 2010.04.14 03:33:09.
