data_PCOD8167092
_publ_section_title
;
Structure prediction by ZEFSAII (Michael W. Deem and Ramdas Pophale) SiO2 
 PCOD8167092
Probable space group: P M C 21
;
_chemical_formula_sum "Si O2"
_cell_formula_units_Z 32
_cell_length_a 9.218019
_cell_length_b 11.388903
_cell_length_c 17.956846
_cell_angle_alpha 90.000000
_cell_angle_beta 90.000000
_cell_angle_gamma 90.000000
_cell_volume 1885.165795
_symmetry_space_group_name_H-M "P M C 21"
_symmetry_group_IT_number 26
_symmetry_cell_setting 'orthorhombic'
loop_
_space_group_symop_operation_xyz
x,y,z
-x,-y,1/2+z
-x,y,z
x,-y,1/2+z
loop_
_atom_site_type_symbol
_atom_site_label
_atom_site_fract_x
_atom_site_fract_y
_atom_site_fract_z
Si Si1 0.158638 0.470676 0.604530
Si Si2 0.161542 0.654993 0.947246
Si Si3 0.671350 0.223077 0.813432
Si Si4 0.340302 0.662259 0.544197
Si Si5 0.173649 0.229067 0.664670
Si Si6 0.340075 0.538102 0.386281
Si Si7 0.326986 0.858329 0.020159
Si Si8 0.671422 0.114661 0.965755
O O1 0.150320 0.419271 0.522003
O O2 0.253740 0.588979 0.606864
O O3 0.219377 0.366479 0.657036
O O4 0.000000 0.508250 0.632178
O O5 0.230014 0.572130 0.882865
O O6 0.000000 0.695324 0.922533
O O7 0.265259 0.766686 0.959943
O O8 0.500000 0.208872 0.797716
O O9 0.764110 0.181795 0.742416
O O10 0.711429 0.358355 0.831414
O O11 0.724164 0.140520 0.881580
O O12 0.500000 0.681353 0.578030
O O13 0.349035 0.587365 0.469348
O O14 0.265645 0.788110 0.524182
O O15 0.249935 0.155252 0.599566
O O16 0.000000 0.213323 0.658904
O O17 0.500000 0.493816 0.362697
O O18 0.500000 0.842441 0.027874
O O19 0.282141 0.985947 0.990256
O O20 0.500000 0.133991 0.966407
#
# Coordination Sequence:
#
# PCOD8167092 Si02
#       8
#     4   4   4   4   4   4   4   4
#     4   8  15  26  39  59  88 116 140 173 219 268
#     4   9  16  26  41  64  93 118 144 183 227 269
#     4   9  17  31  50  71  94 120 154 196 242 291
#     4   8  13  24  43  65  87 109 138 179 223 266
#     4  10  20  32  45  67  98 125 154 195 241 289
#     4   8  14  25  43  66  89 113 143 179 222 276
#     4  10  18  30  49  69  92 126 165 200 237 279
#     4   8  16  30  48  71  95 119 154 201 241 276
#
# _framework density 16.974633999999998
#
# number of rings (size 3 to 8) (size 9 to 14) (size 15 to 20)
#    0.000    3.250    0.000    3.375    0.000    4.000 
#    0.000    4.375    0.000    1.500    0.000    3.500 
#    0.000    0.000    0.000    0.000    0.000    0.000 
#
# Total GULP energy -396522.754440 kJ/mol
# GULP energy per Si atom -12391.336076 kJ/mol
# Density = 1.693600 g / cm^3
# Si number density = 16.974634 Si / 1000 Ang^3
#
#
#
# Elastic Constant Matrix: (Units=GPa)
#
#
# Indices 1 2 3 4 5 6 
#
# 1 84.7727 54.7638 36.7388 0.0000 0.0000 0.0000
# 2 54.7638 115.3687 46.0050 0.0000 0.0000 0.0000
# 3 36.7388 46.0050 63.8971 0.0000 0.0000 0.0000
# 4 0.0000 0.0000 0.0000 16.7246 0.0000 0.0000
# 5 0.0000 0.0000 0.0000 0.0000 17.8992 0.0000
# 6 0.0000 0.0000 0.0000 0.0000 0.0000 12.4642
#
#
#
# Elastic Compliance Matrix: (Units=1/GPa)
#
#
# Indices 1 2 3 4 5 6 
#
# 1 0.018552 -0.006386 -0.006069 0.000000 0.000000 0.000000
# 2 -0.006386 0.014357 -0.006665 0.000000 0.000000 0.000000
# 3 -0.006069 -0.006665 0.023938 0.000000 0.000000 0.000000
# 4 0.000000 0.000000 0.000000 0.059792 0.000000 0.000000
# 5 0.000000 0.000000 0.000000 0.000000 0.055868 0.000000
# 6 0.000000 0.000000 0.000000 0.000000 0.000000 0.080230
#
#
# Mechanical properties :
#
#
# Convention : Reuss Voigt Hill
#
# Bulk Modulus (GPa) = 53.74269 59.89485 56.81877
# Shear Modulus (GPa) = 16.82482 17.85299 17.33891
#
# Velocity S-wave (km/s) = 3.15171 3.24658 3.19950
# Velocity P-wave (km/s) = 6.70624 7.02960 6.86982
#
# Compressibility (1/GPa) = 0.01860718
#
# Stress axis : x y z
#
# Youngs Moduli (GPa) = 53.90280 69.65179 41.77436
#
# Poissons Ratio (x) = 0.44482 0.25351
# Poissons Ratio (y) = 0.34424 0.27843
# Poissons Ratio (z) = 0.32712 0.46423
#
# Static dielectric constant tensor:
#      x y z
#    x 3.302090 0.000000 0.000000 
#    y 0.000000 3.232760 0.000000 
#    z 0.000000 0.000000 2.886830 
# 
# 
# High freq. dielectric constant tensor:
#      x y z
#    x 1.649520 0.000000 0.000000 
#    y 0.000000 1.642150 0.000000 
#    z 0.000000 0.000000 1.615300 
# 
# From -- ./inp_files/5003.got.cif
#   From: 2010.03.12/outbox.cif.g09.slc.cpg/sg26_3_cif.got.tgz:5003.got - 2010.04.14 03:33:09.
