data_PCOD8167824
_publ_section_title
;
Structure prediction by ZEFSAII (Michael W. Deem and Ramdas Pophale) SiO2 
 PCOD8167824
Probable space group: P C C 2
;
_chemical_formula_sum "Si O2"
_cell_formula_units_Z 32
_cell_length_a 11.707133
_cell_length_b 8.493284
_cell_length_c 16.552597
_cell_angle_alpha 90.000000
_cell_angle_beta 90.000000
_cell_angle_gamma 90.000000
_cell_volume 1645.857914
_symmetry_space_group_name_H-M "P C C 2"
_symmetry_group_IT_number 27
_symmetry_cell_setting 'orthorhombic'
loop_
_space_group_symop_operation_xyz
x,y,z
-x,-y,z
-x,y,1/2+z
x,-y,1/2+z
loop_
_atom_site_type_symbol
_atom_site_label
_atom_site_fract_x
_atom_site_fract_y
_atom_site_fract_z
Si Si1 0.354899 0.833825 0.382880
Si Si2 0.990147 0.175169 0.775939
Si Si3 0.811756 0.610558 0.791244
Si Si4 0.618092 0.191473 0.853226
Si Si5 0.796059 0.601534 0.441996
Si Si6 0.230309 0.697269 0.529673
Si Si7 0.752722 0.306628 0.714531
Si Si8 0.999545 0.176422 0.464406
O O1 0.281583 0.738307 0.317879
O O2 0.485813 0.787350 0.371707
O O3 0.315983 0.797598 0.474142
O O4 0.334966 0.017416 0.368843
O O5 0.083610 0.301703 0.744677
O O6 0.864135 0.236618 0.759219
O O7 0.024626 0.165642 0.869682
O O8 0.000000 0.000000 0.737380
O O9 0.850805 0.506603 0.869860
O O10 0.756199 0.495481 0.724599
O O11 0.684019 0.311822 0.910397
O O12 0.642584 0.234508 0.759647
O O13 0.753437 0.488758 0.514071
O O14 0.883700 0.728274 0.478518
O O15 0.257036 0.740965 0.621700
O O16 0.098906 0.732926 0.511160
O O17 0.000000 0.000000 0.500839
#
# Coordination Sequence:
#
# PCOD8167824 Si02
#       8
#     4   4   4   4   4   4   4   4
#     4  10  21  41  66  88 110 158 207 239 289 362
#     4  11  20  34  59  88 121 160 200 234 286 360
#     4  10  20  34  57  85 117 161 195 233 286 360
#     4  10  21  41  66  88 110 158 207 239 289 362
#     4  10  20  34  57  85 117 161 195 233 286 360
#     4  11  24  38  59  92 125 151 193 252 298 338
#     4  11  24  38  59  92 125 151 193 252 298 338
#     4  11  20  34  59  88 121 160 200 234 286 360
#
# _framework density 19.442747000000001
#
# number of rings (size 3 to 8) (size 9 to 14) (size 15 to 20)
#    0.000    1.500    5.000    2.250    0.000    7.000 
#    0.000    8.750    0.000    0.000    0.000    0.000 
#    0.000    0.000    0.000    0.000    0.000    0.000 
#
# Total GULP energy -396771.510512 kJ/mol
# GULP energy per Si atom -12399.109703 kJ/mol
# Density = 1.939849 g / cm^3
# Si number density = 19.442747 Si / 1000 Ang^3
#
#
#
# Elastic Constant Matrix: (Units=GPa)
#
#
# Indices 1 2 3 4 5 6 
#
# 1 78.0854 33.6308 25.2980 0.0000 0.0000 0.0000
# 2 33.6308 112.8648 14.2057 0.0000 0.0000 0.0000
# 3 25.2980 14.2057 86.3444 0.0000 0.0000 0.0000
# 4 0.0000 0.0000 0.0000 12.4276 0.0000 0.0000
# 5 0.0000 0.0000 0.0000 0.0000 15.7368 0.0000
# 6 0.0000 0.0000 0.0000 0.0000 0.0000 31.3227
#
#
#
# Elastic Compliance Matrix: (Units=1/GPa)
#
#
# Indices 1 2 3 4 5 6 
#
# 1 0.015919 -0.004244 -0.003966 0.000000 0.000000 0.000000
# 2 -0.004244 0.010179 -0.000431 0.000000 0.000000 0.000000
# 3 -0.003966 -0.000431 0.012814 0.000000 0.000000 0.000000
# 4 0.000000 0.000000 0.000000 0.080466 0.000000 0.000000
# 5 0.000000 0.000000 0.000000 0.000000 0.063545 0.000000
# 6 0.000000 0.000000 0.000000 0.000000 0.000000 0.031926
#
#
# Mechanical properties :
#
#
# Convention : Reuss Voigt Hill
#
# Bulk Modulus (GPa) = 46.23197 47.06263 46.64730
# Shear Modulus (GPa) = 20.89050 25.50807 23.19929
#
# Velocity S-wave (km/s) = 3.28146 3.62603 3.45804
# Velocity P-wave (km/s) = 6.17960 6.46445 6.32362
#
# Compressibility (1/GPa) = 0.02163005
#
# Stress axis : x y z
#
# Youngs Moduli (GPa) = 62.81647 98.24008 78.03698
#
# Poissons Ratio (x) = 0.41697 0.30949
# Poissons Ratio (y) = 0.26662 0.03365
# Poissons Ratio (z) = 0.24912 0.04236
#
# Static dielectric constant tensor:
#      x y z
#    x 3.390520 0.000000 0.000000 
#    y 0.000000 4.096910 0.000000 
#    z 0.000000 0.000000 3.241830 
# 
# 
# High freq. dielectric constant tensor:
#      x y z
#    x 1.748980 0.000000 0.000000 
#    y 0.000000 1.782410 0.000000 
#    z 0.000000 0.000000 1.719290 
# 
# From -- ./inp_files/4460.got.cif
#   From: 2010.03.12/outbox.cif.g09.slc.cpg/sg27_3_cif.got.tgz:4460.got - 2010.04.14 03:36:05.
