data_PCOD8167049
_publ_section_title
;
Structure prediction by ZEFSAII (Michael W. Deem and Ramdas Pophale) SiO2 
 PCOD8167049
Probable space group: P M C 21
;
_chemical_formula_sum "Si O2"
_cell_formula_units_Z 32
_cell_length_a 17.449003
_cell_length_b 10.743965
_cell_length_c 9.590032
_cell_angle_alpha 90.000000
_cell_angle_beta 90.000000
_cell_angle_gamma 90.000000
_cell_volume 1797.857468
_symmetry_space_group_name_H-M "P M C 21"
_symmetry_group_IT_number 26
_symmetry_cell_setting 'orthorhombic'
loop_
_space_group_symop_operation_xyz
x,y,z
-x,-y,1/2+z
-x,y,z
x,-y,1/2+z
loop_
_atom_site_type_symbol
_atom_site_label
_atom_site_fract_x
_atom_site_fract_y
_atom_site_fract_z
Si Si1 0.660307 0.169079 0.216180
Si Si2 0.315658 0.499794 0.000329
Si Si3 0.586541 0.590301 0.755865
Si Si4 0.137748 0.082662 0.111356
Si Si5 0.747444 0.241307 0.961594
Si Si6 0.720080 0.921442 0.196803
Si Si7 0.915493 0.128340 0.412090
Si Si8 0.240812 0.752604 0.960024
O O1 0.588444 0.256969 0.258347
O O2 0.732759 0.225221 0.302057
O O3 0.650287 0.018426 0.236433
O O4 0.677306 0.189596 0.053480
O O5 0.387431 0.533827 0.902642
O O6 0.261888 0.389101 0.942878
O O7 0.257495 0.614784 0.015317
O O8 0.352888 0.463908 0.146751
O O9 0.500000 0.547356 0.724838
O O10 0.084640 0.115345 0.243399
O O11 0.207434 0.010099 0.181973
O O12 0.170777 0.204840 0.030904
O O13 0.094483 0.002650 0.993152
O O14 0.736864 0.180043 0.812084
O O15 0.708189 0.849245 0.051679
O O16 0.850402 0.222947 0.468445
O O17 0.000000 0.180778 0.450140
#
# Coordination Sequence:
#
# PCOD8167049 Si02
#       8
#     4   4   4   4   4   4   4   4
#     4   9  17  30  51  74  99 129 170 212 262 310
#     4  10  21  34  54  81 104 142 182 215 248 310
#     4  10  20  35  54  78 108 138 170 215 264 310
#     4  10  18  32  49  77 105 134 169 220 265 315
#     4  10  17  30  52  76  99 131 175 219 251 299
#     4  10  16  29  51  74 101 128 168 221 262 299
#     4  11  20  32  52  77 108 140 174 219 274 316
#     4  10  19  32  50  77 101 136 180 219 256 305
#
# _framework density 17.798963000000001
#
# number of rings (size 3 to 8) (size 9 to 14) (size 15 to 20)
#    0.000    2.000    3.750    3.000    0.000    0.000 
#    0.000    0.000    0.000   16.500    0.000    0.000 
#    0.000    0.000    0.000    0.000    0.000    0.000 
#
# Total GULP energy -396481.202500 kJ/mol
# GULP energy per Si atom -12390.037578 kJ/mol
# Density = 1.775845 g / cm^3
# Si number density = 17.798963 Si / 1000 Ang^3
#
#
#
# Elastic Constant Matrix: (Units=GPa)
#
#
# Indices 1 2 3 4 5 6 
#
# 1 78.0455 47.3398 21.9950 0.0000 0.0000 0.0000
# 2 47.3398 117.2665 17.8423 0.0000 0.0000 0.0000
# 3 21.9950 17.8423 63.6416 0.0000 0.0000 0.0000
# 4 0.0000 0.0000 0.0000 24.1156 0.0000 0.0000
# 5 0.0000 0.0000 0.0000 0.0000 15.0393 0.0000
# 6 0.0000 0.0000 0.0000 0.0000 0.0000 17.7104
#
#
#
# Elastic Compliance Matrix: (Units=1/GPa)
#
#
# Indices 1 2 3 4 5 6 
#
# 1 0.018069 -0.006627 -0.004387 0.000000 0.000000 0.000000
# 2 -0.006627 0.011338 -0.000888 0.000000 0.000000 0.000000
# 3 -0.004387 -0.000888 0.017478 0.000000 0.000000 0.000000
# 4 0.000000 0.000000 0.000000 0.041467 0.000000 0.000000
# 5 0.000000 0.000000 0.000000 0.000000 0.066492 0.000000
# 6 0.000000 0.000000 0.000000 0.000000 0.000000 0.056464
#
#
# Mechanical properties :
#
#
# Convention : Reuss Voigt Hill
#
# Bulk Modulus (GPa) = 43.32589 48.14531 45.73560
# Shear Modulus (GPa) = 20.59254 22.82483 21.70868
#
# Velocity S-wave (km/s) = 3.40509 3.58490 3.49615
# Velocity P-wave (km/s) = 6.31301 6.65159 6.48451
#
# Compressibility (1/GPa) = 0.02308089
#
# Stress axis : x y z
#
# Youngs Moduli (GPa) = 55.34339 88.19911 57.21419
#
# Poissons Ratio (x) = 0.58448 0.25099
# Poissons Ratio (y) = 0.36675 0.05083
# Poissons Ratio (z) = 0.24279 0.07835
#
# Static dielectric constant tensor:
#      x y z
#    x 3.010230 0.000000 0.000000 
#    y 0.000000 3.562290 0.000000 
#    z 0.000000 0.000000 3.382590 
# 
# 
# High freq. dielectric constant tensor:
#      x y z
#    x 1.645430 0.000000 0.000000 
#    y 0.000000 1.682540 0.000000 
#    z 0.000000 0.000000 1.705480 
# 
# From -- ./inp_files/2450.got.cif
#   From: 2010.03.12/outbox.cif.g09.slc.cpg/sg26_2_cif.got.tgz:2450.got - 2010.04.14 03:33:09.
