data_PCOD8167842
_publ_section_title
;
Structure prediction by ZEFSAII (Michael W. Deem and Ramdas Pophale) SiO2 
 PCOD8167842
Probable space group: P C C 2
;
_chemical_formula_sum "Si O2"
_cell_formula_units_Z 30
_cell_length_a 7.159475
_cell_length_b 12.247015
_cell_length_c 17.198720
_cell_angle_alpha 90.000000
_cell_angle_beta 90.000000
_cell_angle_gamma 90.000000
_cell_volume 1508.021568
_symmetry_space_group_name_H-M "P C C 2"
_symmetry_group_IT_number 27
_symmetry_cell_setting 'orthorhombic'
loop_
_space_group_symop_operation_xyz
x,y,z
-x,-y,z
-x,y,1/2+z
x,-y,1/2+z
loop_
_atom_site_type_symbol
_atom_site_label
_atom_site_fract_x
_atom_site_fract_y
_atom_site_fract_z
Si Si1 0.543619 0.379056 0.428500
Si Si2 0.900208 0.610716 0.177410
Si Si3 0.674986 0.080676 0.862555
Si Si4 0.000000 0.000000 0.758001
Si Si5 0.445422 0.709779 0.770684
Si Si6 0.198096 0.797938 0.178546
Si Si7 0.745847 0.219720 0.002042
Si Si8 0.076933 0.614892 0.498715
O O1 0.500000 0.500000 0.459355
O O2 0.514468 0.374637 0.335898
O O3 0.428323 0.294955 0.480461
O O4 0.756861 0.348342 0.443388
O O5 0.706426 0.643502 0.219426
O O6 0.851301 0.598182 0.086701
O O7 0.000000 0.500000 0.209157
O O8 0.053426 0.701831 0.189818
O O9 0.645387 0.191948 0.816825
O O10 0.834548 0.023244 0.815878
O O11 0.500000 0.000000 0.866957
O O12 0.742404 0.110554 0.949640
O O13 0.084587 0.095258 0.704775
O O14 0.614482 0.763442 0.723093
O O15 0.264481 0.818511 0.090762
O O16 0.931290 0.288674 0.987765
O O17 0.000000 0.500000 0.466950
#
# Coordination Sequence:
#
# PCOD8167842 Si02
#       8
#     4   4   4   2   4   4   4   4
#     4  11  23  38  61  95 133 176 209 261 323 393
#     4  10  23  41  65  97 136 172 218 269 326 399
#     4  11  24  45  65  92 128 169 214 274 335 385
#     4  12  24  44  70  92 130 174 218 280 334 382
#     4  11  24  41  61  97 131 170 217 268 331 394
#     4  11  24  44  69  98 128 175 222 277 326 391
#     4  10  24  43  66  96 128 167 225 266 322 397
#     4  10  20  40  64  91 130 174 211 265 320 386
#
# _framework density 19.893615
#
# number of rings (size 3 to 8) (size 9 to 14) (size 15 to 20)
#    0.000    1.333    4.000    0.800    3.733    0.533 
#    2.400    1.333    0.000    0.000    0.000    0.000 
#    0.000    0.000    0.000    0.000    0.000    0.000 
#
# Total GULP energy -371890.824308 kJ/mol
# GULP energy per Si atom -12396.360810 kJ/mol
# Density = 1.984834 g / cm^3
# Si number density = 19.893615 Si / 1000 Ang^3
#
#
#
# Elastic Constant Matrix: (Units=GPa)
#
#
# Indices 1 2 3 4 5 6 
#
# 1 101.0655 29.5775 64.9678 0.0000 0.0000 0.0000
# 2 29.5775 106.5958 51.4940 0.0000 0.0000 0.0000
# 3 64.9678 51.4940 114.7975 0.0000 0.0000 0.0000
# 4 0.0000 0.0000 0.0000 32.7696 0.0000 0.0000
# 5 0.0000 0.0000 0.0000 0.0000 50.7151 0.0000
# 6 0.0000 0.0000 0.0000 0.0000 0.0000 19.9973
#
#
#
# Elastic Compliance Matrix: (Units=1/GPa)
#
#
# Indices 1 2 3 4 5 6 
#
# 1 0.015553 -0.000081 -0.008766 0.000000 0.000000 0.000000
# 2 -0.000081 0.011977 -0.005326 0.000000 0.000000 0.000000
# 3 -0.008766 -0.005326 0.016061 0.000000 0.000000 0.000000
# 4 0.000000 0.000000 0.000000 0.030516 0.000000 0.000000
# 5 0.000000 0.000000 0.000000 0.000000 0.019718 0.000000
# 6 0.000000 0.000000 0.000000 0.000000 0.000000 0.050007
#
#
# Mechanical properties :
#
#
# Convention : Reuss Voigt Hill
#
# Bulk Modulus (GPa) = 65.59730 68.28194 66.93962
# Shear Modulus (GPa) = 28.20719 32.45770 30.33245
#
# Velocity S-wave (km/s) = 3.76959 4.04364 3.90902
# Velocity P-wave (km/s) = 7.21055 7.49663 7.35498
#
# Compressibility (1/GPa) = 0.01524453
#
# Stress axis : x y z
#
# Youngs Moduli (GPa) = 64.29577 83.49457 62.26246
#
# Poissons Ratio (x) = 0.00677 0.54577
# Poissons Ratio (y) = 0.00521 0.33164
# Poissons Ratio (z) = 0.56360 0.44473
#
# Static dielectric constant tensor:
#      x y z
#    x 3.604460 0.000000 0.000000 
#    y 0.000000 3.651410 0.000000 
#    z 0.000000 0.000000 3.909540 
# 
# 
# High freq. dielectric constant tensor:
#      x y z
#    x 1.789850 0.000000 0.000000 
#    y 0.000000 1.782100 0.000000 
#    z 0.000000 0.000000 1.782320 
# 
# From -- ./inp_files/4704.got.cif
#   From: 2010.03.12/outbox.cif.g09.slc.cpg/sg27_3_cif.got.tgz:4704.got - 2010.04.14 03:36:05.
