data_PCOD8167706
_publ_section_title
;
Structure prediction by ZEFSAII (Michael W. Deem and Ramdas Pophale) SiO2 
 PCOD8167706
Probable space group: P M C 21
;
_chemical_formula_sum "Si O2"
_cell_formula_units_Z 24
_cell_length_a 9.288046
_cell_length_b 10.896638
_cell_length_c 12.573937
_cell_angle_alpha 90.000000
_cell_angle_beta 90.000000
_cell_angle_gamma 90.000000
_cell_volume 1272.588988
_symmetry_space_group_name_H-M "P M C 21"
_symmetry_group_IT_number 26
_symmetry_cell_setting 'orthorhombic'
loop_
_space_group_symop_operation_xyz
x,y,z
-x,-y,1/2+z
-x,y,z
x,-y,1/2+z
loop_
_atom_site_type_symbol
_atom_site_label
_atom_site_fract_x
_atom_site_fract_y
_atom_site_fract_z
Si Si1 0.331927 0.780432 0.212100
Si Si2 0.338134 0.264494 0.283642
Si Si3 0.167433 0.876779 0.408368
Si Si4 0.166408 0.307618 0.091328
Si Si5 0.667648 0.890852 0.983489
Si Si6 0.662453 0.507099 0.185213
O O1 0.500000 0.790222 0.240866
O O2 0.243441 0.861107 0.295258
O O3 0.276533 0.639685 0.217549
O O4 0.297360 0.831570 0.096215
O O5 0.500000 0.218522 0.258582
O O6 0.236885 0.222329 0.184863
O O7 0.284739 0.208266 0.394391
O O8 0.334266 0.414656 0.287586
O O9 0.191333 0.754268 0.477481
O O10 0.000000 0.904284 0.390330
O O11 0.237401 0.988745 0.471389
O O12 0.242232 0.442424 0.092138
O O13 0.000000 0.323939 0.118187
O O14 0.500000 0.925160 0.973015
O O15 0.500000 0.523473 0.140967
#
# Coordination Sequence:
#
# PCOD8167706 Si02
#       6
#     4   4   4   4   4   4
#     4  10  22  39  61  89 115 147 192 242 290 339
#     4   8  17  35  58  84 113 146 186 233 283 335
#     4  11  25  40  56  82 120 159 193 234 285 345
#     4   9  19  36  57  82 114 152 190 227 277 340
#     4  10  22  39  60  85 114 149 195 242 284 338
#     4   8  17  35  60  88 116 145 184 236 287 337
#
# _framework density 18.859192
#
# number of rings (size 3 to 8) (size 9 to 14) (size 15 to 20)
#    1.000    1.667    0.000    0.500    2.333    6.000 
#    0.000    3.333    0.000    0.000    0.000    0.000 
#    0.000    0.000    0.000    0.000    0.000    0.000 
#
# Total GULP energy -297431.517282 kJ/mol
# GULP energy per Si atom -12392.979887 kJ/mol
# Density = 1.881627 g / cm^3
# Si number density = 18.859192 Si / 1000 Ang^3
#
#
#
# Elastic Constant Matrix: (Units=GPa)
#
#
# Indices 1 2 3 4 5 6 
#
# 1 84.3281 39.0094 47.2073 0.0000 0.0000 0.0000
# 2 39.0094 83.4702 23.0677 0.0000 0.0000 0.0000
# 3 47.2073 23.0677 93.9190 0.0000 0.0000 0.0000
# 4 0.0000 0.0000 0.0000 29.4631 0.0000 0.0000
# 5 0.0000 0.0000 0.0000 0.0000 25.8197 0.0000
# 6 0.0000 0.0000 0.0000 0.0000 0.0000 19.9980
#
#
#
# Elastic Compliance Matrix: (Units=1/GPa)
#
#
# Indices 1 2 3 4 5 6 
#
# 1 0.019631 -0.006917 -0.008168 0.000000 0.000000 0.000000
# 2 -0.006917 0.015290 -0.000279 0.000000 0.000000 0.000000
# 3 -0.008168 -0.000279 0.014822 0.000000 0.000000 0.000000
# 4 0.000000 0.000000 0.000000 0.033941 0.000000 0.000000
# 5 0.000000 0.000000 0.000000 0.000000 0.038730 0.000000
# 6 0.000000 0.000000 0.000000 0.000000 0.000000 0.050005
#
#
# Mechanical properties :
#
#
# Convention : Reuss Voigt Hill
#
# Bulk Modulus (GPa) = 52.59150 53.36513 52.97831
# Shear Modulus (GPa) = 23.86812 25.21834 24.54323
#
# Velocity S-wave (km/s) = 3.56138 3.66073 3.61140
# Velocity P-wave (km/s) = 6.69763 6.79897 6.74849
#
# Compressibility (1/GPa) = 0.01901448
#
# Stress axis : x y z
#
# Youngs Moduli (GPa) = 50.94024 65.40244 67.46897
#
# Poissons Ratio (x) = 0.45239 0.55111
# Poissons Ratio (y) = 0.35235 0.01880
# Poissons Ratio (z) = 0.41610 0.01823
#
# Static dielectric constant tensor:
#      x y z
#    x 3.393520 0.000000 0.000000 
#    y 0.000000 3.413210 0.000000 
#    z 0.000000 0.000000 3.256250 
# 
# 
# High freq. dielectric constant tensor:
#      x y z
#    x 1.727490 0.000000 0.000000 
#    y 0.000000 1.728340 0.000000 
#    z 0.000000 0.000000 1.719660 
# 
# From -- ./inp_files/2813.got.cif
#   From: 2010.03.12/outbox.cif.g09.slc.cpg/sg26_2_cif.got.tgz:2813.got - 2010.04.14 03:33:09.
