data_PCOD8167377
_publ_section_title
;
Structure prediction by ZEFSAII (Michael W. Deem and Ramdas Pophale) SiO2 
 PCOD8167377
Probable space group: P M C 21
;
_chemical_formula_sum "Si O2"
_cell_formula_units_Z 32
_cell_length_a 8.707995
_cell_length_b 11.329263
_cell_length_c 16.536561
_cell_angle_alpha 90.000000
_cell_angle_beta 90.000000
_cell_angle_gamma 90.000000
_cell_volume 1631.417163
_symmetry_space_group_name_H-M "P M C 21"
_symmetry_group_IT_number 26
_symmetry_cell_setting 'orthorhombic'
loop_
_space_group_symop_operation_xyz
x,y,z
-x,-y,1/2+z
-x,y,z
x,-y,1/2+z
loop_
_atom_site_type_symbol
_atom_site_label
_atom_site_fract_x
_atom_site_fract_y
_atom_site_fract_z
Si Si1 0.683501 0.936768 0.966090
Si Si2 0.823082 0.197216 0.318374
Si Si3 0.182164 0.188009 0.003345
Si Si4 0.680127 0.438428 0.705872
Si Si5 0.682753 0.298643 0.164327
Si Si6 0.832834 0.602808 0.938765
Si Si7 0.830085 0.641446 0.364549
Si Si8 0.675141 0.275523 0.570151
O O1 0.500000 0.935143 0.960572
O O2 0.748348 0.900896 0.877750
O O3 0.747034 0.845712 0.035088
O O4 0.743794 0.060202 0.997716
O O5 0.739845 0.203948 0.231426
O O6 0.802753 0.327978 0.355264
O O7 0.000000 0.162114 0.304987
O O8 0.252715 0.260537 0.077597
O O9 0.000000 0.180470 0.014957
O O10 0.225596 0.247892 0.917474
O O11 0.500000 0.444690 0.690575
O O12 0.746068 0.569107 0.685710
O O13 0.710930 0.393542 0.795738
O O14 0.753851 0.335467 0.648689
O O15 0.500000 0.295449 0.162299
O O16 0.837050 0.464544 0.927404
O O17 0.000000 0.644451 0.973293
O O18 0.694236 0.628112 0.999495
O O19 0.000000 0.663651 0.327212
O O20 0.500000 0.250626 0.589929
#
# Coordination Sequence:
#
# PCOD8167377 Si02
#       8
#     4   4   4   4   4   4   4   4
#     4  10  21  40  62  83 115 155 201 249 296 351
#     4  10  19  35  61  88 117 151 193 241 289 351
#     4  11  24  41  60  84 118 160 205 250 298 351
#     4  10  21  36  57  88 121 150 187 238 295 358
#     4  11  22  37  60  91 122 153 195 243 299 360
#     4   9  17  31  54  83 112 144 182 227 284 343
#     4  10  21  37  56  82 117 153 190 237 291 352
#     4   9  19  35  56  83 112 146 187 235 286 340
#
# _framework density 19.614847999999999
#
# number of rings (size 3 to 8) (size 9 to 14) (size 15 to 20)
#    0.000    2.000    1.250    2.250    0.000    3.500 
#    2.250    0.000    0.000    0.000    0.000    0.000 
#    0.000    0.000    0.000    0.000    0.000    0.000 
#
# Total GULP energy -396566.910627 kJ/mol
# GULP energy per Si atom -12392.715957 kJ/mol
# Density = 1.957020 g / cm^3
# Si number density = 19.614848 Si / 1000 Ang^3
#
#
#
# Elastic Constant Matrix: (Units=GPa)
#
#
# Indices 1 2 3 4 5 6 
#
# 1 63.3994 33.1455 33.1411 0.0000 0.0000 0.0000
# 2 33.1455 104.3981 63.4613 0.0000 0.0000 0.0000
# 3 33.1411 63.4613 106.0159 0.0000 0.0000 0.0000
# 4 0.0000 0.0000 0.0000 28.1498 0.0000 0.0000
# 5 0.0000 0.0000 0.0000 0.0000 30.6741 0.0000
# 6 0.0000 0.0000 0.0000 0.0000 0.0000 23.9295
#
#
#
# Elastic Compliance Matrix: (Units=1/GPa)
#
#
# Indices 1 2 3 4 5 6 
#
# 1 0.019852 -0.003978 -0.003825 0.000000 0.000000 0.000000
# 2 -0.003978 0.015855 -0.008247 0.000000 0.000000 0.000000
# 3 -0.003825 -0.008247 0.015565 0.000000 0.000000 0.000000
# 4 0.000000 0.000000 0.000000 0.035524 0.000000 0.000000
# 5 0.000000 0.000000 0.000000 0.000000 0.032601 0.000000
# 6 0.000000 0.000000 0.000000 0.000000 0.000000 0.041789
#
#
# Mechanical properties :
#
#
# Convention : Reuss Voigt Hill
#
# Bulk Modulus (GPa) = 52.15874 59.25659 55.70767
# Shear Modulus (GPa) = 25.04042 26.15503 25.59772
#
# Velocity S-wave (km/s) = 3.57684 3.65558 3.61642
# Velocity P-wave (km/s) = 6.61117 6.93493 6.77499
#
# Compressibility (1/GPa) = 0.01917224
#
# Stress axis : x y z
#
# Youngs Moduli (GPa) = 50.37285 63.07136 64.24651
#
# Poissons Ratio (x) = 0.25089 0.24572
# Poissons Ratio (y) = 0.20038 0.52986
# Poissons Ratio (z) = 0.19266 0.52017
#
# Static dielectric constant tensor:
#      x y z
#    x 3.547420 0.000000 0.000000 
#    y 0.000000 3.621600 0.000000 
#    z 0.000000 0.000000 3.534890 
# 
# 
# High freq. dielectric constant tensor:
#      x y z
#    x 1.759770 0.000000 0.000000 
#    y 0.000000 1.758610 0.000000 
#    z 0.000000 0.000000 1.761390 
# 
# From -- ./inp_files/4238.got.cif
#   From: 2010.03.12/outbox.cif.g09.slc.cpg/sg26_3_cif.got.tgz:4238.got - 2010.04.14 03:33:09.
