data_PCOD8167550
_publ_section_title
;
Structure prediction by ZEFSAII (Michael W. Deem and Ramdas Pophale) SiO2 
 PCOD8167550
Probable space group: P M C 21
;
_chemical_formula_sum "Si O2"
_cell_formula_units_Z 32
_cell_length_a 8.726713
_cell_length_b 12.246530
_cell_length_c 14.302322
_cell_angle_alpha 90.000000
_cell_angle_beta 90.000000
_cell_angle_gamma 90.000000
_cell_volume 1528.517078
_symmetry_space_group_name_H-M "P M C 21"
_symmetry_group_IT_number 26
_symmetry_cell_setting 'orthorhombic'
loop_
_space_group_symop_operation_xyz
x,y,z
-x,-y,1/2+z
-x,y,z
x,-y,1/2+z
loop_
_atom_site_type_symbol
_atom_site_label
_atom_site_fract_x
_atom_site_fract_y
_atom_site_fract_z
Si Si1 0.678243 0.907711 0.174080
Si Si2 0.821032 0.135335 0.195851
Si Si3 0.678326 0.587732 0.009433
Si Si4 0.824586 0.187226 0.985424
Si Si5 0.169026 0.050779 0.486874
Si Si6 0.181041 0.675470 0.200414
Si Si7 0.170902 0.742748 0.868489
Si Si8 0.678417 0.615739 0.388639
O O1 0.500000 0.894708 0.194309
O O2 0.707983 0.911065 0.063029
O O3 0.758519 0.798794 0.214169
O O4 0.737099 0.020791 0.219477
O O5 0.778922 0.179098 0.093831
O O6 0.771099 0.237012 0.262636
O O7 0.000000 0.112804 0.207747
O O8 0.500000 0.586644 0.033993
O O9 0.766514 0.617855 0.104200
O O10 0.708643 0.675259 0.928037
O O11 0.734805 0.473210 0.965116
O O12 0.000000 0.226656 0.971220
O O13 0.794377 0.067330 0.942329
O O14 0.710265 0.266949 0.932835
O O15 0.164063 0.133473 0.402958
O O16 0.000000 0.043268 0.536617
O O17 0.235554 0.603007 0.289041
O O18 0.000000 0.679475 0.198134
O O19 0.000000 0.689542 0.874092
O O20 0.500000 0.600391 0.368200
#
# Coordination Sequence:
#
# PCOD8167550 Si02
#       8
#     4   4   4   4   4   4   4   4
#     4  11  21  35  58  91 128 164 206 254 314 377
#     4   9  20  37  59  91 131 170 210 259 313 369
#     4  11  25  45  66  92 130 167 206 261 317 371
#     4   9  19  37  59  89 128 167 210 259 310 366
#     4   9  18  34  57  88 124 163 205 255 309 361
#     4  12  25  43  68  93 121 161 211 262 308 369
#     4  10  20  36  62  93 125 166 213 257 305 368
#     4  11  26  45  65  93 127 164 209 261 318 373
#
# _framework density 20.935324000000001
#
# number of rings (size 3 to 8) (size 9 to 14) (size 15 to 20)
#    0.000    1.750    1.250    3.750    1.750    5.500 
#    0.000    2.500    0.000    0.000    0.000    0.000 
#    0.000    0.000    0.000    0.000    0.000    0.000 
#
# Total GULP energy -396702.793306 kJ/mol
# GULP energy per Si atom -12396.962291 kJ/mol
# Density = 2.088767 g / cm^3
# Si number density = 20.935324 Si / 1000 Ang^3
#
#
#
# Elastic Constant Matrix: (Units=GPa)
#
#
# Indices 1 2 3 4 5 6 
#
# 1 103.1412 35.3680 37.7864 0.0000 0.0000 0.0000
# 2 35.3680 86.5880 34.5869 0.0000 0.0000 0.0000
# 3 37.7864 34.5869 76.2501 0.0000 0.0000 0.0000
# 4 0.0000 0.0000 0.0000 25.8180 0.0000 0.0000
# 5 0.0000 0.0000 0.0000 0.0000 30.5818 0.0000
# 6 0.0000 0.0000 0.0000 0.0000 0.0000 32.0242
#
#
#
# Elastic Compliance Matrix: (Units=1/GPa)
#
#
# Indices 1 2 3 4 5 6 
#
# 1 0.012542 -0.003225 -0.004753 0.000000 0.000000 0.000000
# 2 -0.003225 0.014934 -0.005176 0.000000 0.000000 0.000000
# 3 -0.004753 -0.005176 0.017818 0.000000 0.000000 0.000000
# 4 0.000000 0.000000 0.000000 0.038733 0.000000 0.000000
# 5 0.000000 0.000000 0.000000 0.000000 0.032699 0.000000
# 6 0.000000 0.000000 0.000000 0.000000 0.000000 0.031226
#
#
# Mechanical properties :
#
#
# Convention : Reuss Voigt Hill
#
# Bulk Modulus (GPa) = 52.66711 53.49575 53.08143
# Shear Modulus (GPa) = 27.68739 28.23400 27.96070
#
# Velocity S-wave (km/s) = 3.64059 3.67635 3.65852
# Velocity P-wave (km/s) = 6.54855 6.60523 6.57695
#
# Compressibility (1/GPa) = 0.01898718
#
# Stress axis : x y z
#
# Youngs Moduli (GPa) = 79.72945 66.96344 56.12378
#
# Poissons Ratio (x) = 0.21593 0.26675
# Poissons Ratio (y) = 0.25710 0.29049
# Poissons Ratio (z) = 0.37894 0.34659
#
# Static dielectric constant tensor:
#      x y z
#    x 3.654950 0.000000 0.000000 
#    y 0.000000 3.885080 0.000000 
#    z 0.000000 0.000000 3.930010 
# 
# 
# High freq. dielectric constant tensor:
#      x y z
#    x 1.809400 0.000000 0.000000 
#    y 0.000000 1.816210 0.000000 
#    z 0.000000 0.000000 1.825370 
# 
# From -- ./inp_files/4297.got.cif
#   From: 2010.03.12/outbox.cif.g09.slc.cpg/sg26_3_cif.got.tgz:4297.got - 2010.04.14 03:33:09.
