data_PCOD8167321
_publ_section_title
;
Structure prediction by ZEFSAII (Michael W. Deem and Ramdas Pophale) SiO2 
 PCOD8167321
Probable space group: P M C 21
;
_chemical_formula_sum "Si O2"
_cell_formula_units_Z 32
_cell_length_a 8.997577
_cell_length_b 15.984464
_cell_length_c 10.971604
_cell_angle_alpha 90.000000
_cell_angle_beta 90.000000
_cell_angle_gamma 90.000000
_cell_volume 1577.951948
_symmetry_space_group_name_H-M "P M C 21"
_symmetry_group_IT_number 26
_symmetry_cell_setting 'orthorhombic'
loop_
_space_group_symop_operation_xyz
x,y,z
-x,-y,1/2+z
-x,y,z
x,-y,1/2+z
loop_
_atom_site_type_symbol
_atom_site_label
_atom_site_fract_x
_atom_site_fract_y
_atom_site_fract_z
Si Si1 0.331459 0.652635 0.266490
Si Si2 0.166572 0.765033 0.823895
Si Si3 0.324914 0.659762 0.002251
Si Si4 0.166737 0.352429 0.111049
Si Si5 0.323196 0.028246 0.995708
Si Si6 0.324778 0.524068 0.459993
Si Si7 0.822283 0.052499 0.254475
Si Si8 0.666599 0.781034 0.461334
O O1 0.500000 0.622814 0.245601
O O2 0.251679 0.656741 0.136463
O O3 0.256194 0.581675 0.352253
O O4 0.325299 0.745099 0.324186
O O5 0.178759 0.678388 0.749347
O O6 0.217836 0.848144 0.751244
O O7 0.000000 0.780913 0.869599
O O8 0.266944 0.744458 0.940211
O O9 0.500000 0.669156 0.006969
O O10 0.277169 0.571841 0.939710
O O11 0.000000 0.374090 0.072801
O O12 0.263934 0.435553 0.086511
O O13 0.217419 0.270496 0.038884
O O14 0.500000 0.008263 0.000862
O O15 0.252247 0.011534 0.131832
O O16 0.289103 0.122956 0.958894
O O17 0.245780 0.977981 0.884448
O O18 0.500000 0.533556 0.468985
O O19 0.000000 0.035639 0.251299
O O20 0.500000 0.768297 0.514768
#
# Coordination Sequence:
#
# PCOD8167321 Si02
#       8
#     4   4   4   4   4   4   4   4
#     4   8  16  33  51  77 112 143 184 238 294 353
#     4  10  23  40  57  82 119 157 198 245 296 361
#     4  10  21  34  56  83 112 154 198 246 304 362
#     4  10  19  34  57  82 110 147 192 237 283 346
#     4  11  23  40  65  98 127 162 214 271 321 380
#     4   9  19  34  54  81 112 149 193 244 297 352
#     4  11  24  44  66  91 129 173 212 260 328 397
#     4   9  18  35  60  84 113 147 185 241 299 349
#
# _framework density 20.279451000000002
#
# number of rings (size 3 to 8) (size 9 to 14) (size 15 to 20)
#    0.000    2.250    1.250    1.875    1.750    4.000 
#    0.000    3.750    0.000    0.000    0.000    0.000 
#    0.000    0.000    0.000    0.000    0.000    0.000 
#
# Total GULP energy -396441.637037 kJ/mol
# GULP energy per Si atom -12388.801157 kJ/mol
# Density = 2.023329 g / cm^3
# Si number density = 20.279451 Si / 1000 Ang^3
#
#
#
# Elastic Constant Matrix: (Units=GPa)
#
#
# Indices 1 2 3 4 5 6 
#
# 1 63.4197 27.4474 44.4272 0.0000 0.0000 0.0000
# 2 27.4474 61.1203 28.4318 0.0000 0.0000 0.0000
# 3 44.4272 28.4318 112.3686 0.0000 0.0000 0.0000
# 4 0.0000 0.0000 0.0000 30.2024 0.0000 0.0000
# 5 0.0000 0.0000 0.0000 0.0000 28.3647 0.0000
# 6 0.0000 0.0000 0.0000 0.0000 0.0000 24.4453
#
#
#
# Elastic Compliance Matrix: (Units=1/GPa)
#
#
# Indices 1 2 3 4 5 6 
#
# 1 0.024400 -0.007333 -0.007792 0.000000 0.000000 0.000000
# 2 -0.007333 0.020747 -0.002350 0.000000 0.000000 0.000000
# 3 -0.007792 -0.002350 0.012575 0.000000 0.000000 0.000000
# 4 0.000000 0.000000 0.000000 0.033110 0.000000 0.000000
# 5 0.000000 0.000000 0.000000 0.000000 0.035255 0.000000
# 6 0.000000 0.000000 0.000000 0.000000 0.000000 0.040908
#
#
# Mechanical properties :
#
#
# Convention : Reuss Voigt Hill
#
# Bulk Modulus (GPa) = 43.91312 48.61347 46.26329
# Shear Modulus (GPa) = 23.86242 25.70932 24.78587
#
# Velocity S-wave (km/s) = 3.43400 3.56441 3.49981
# Velocity P-wave (km/s) = 6.11753 6.40030 6.26051
#
# Compressibility (1/GPa) = 0.02277224
#
# Stress axis : x y z
#
# Youngs Moduli (GPa) = 40.98414 48.19859 79.52575
#
# Poissons Ratio (x) = 0.35343 0.61963
# Poissons Ratio (y) = 0.30053 0.18692
# Poissons Ratio (z) = 0.31933 0.11329
#
# Static dielectric constant tensor:
#      x y z
#    x 3.530700 0.000000 0.000000 
#    y 0.000000 3.772190 0.000000 
#    z 0.000000 0.000000 3.873190 
# 
# 
# High freq. dielectric constant tensor:
#      x y z
#    x 1.773710 0.000000 0.000000 
#    y 0.000000 1.788490 0.000000 
#    z 0.000000 0.000000 1.792790 
# 
# From -- ./inp_files/2996.got.cif
#   From: 2010.03.12/outbox.cif.g09.slc.cpg/sg26_2_cif.got.tgz:2996.got - 2010.04.14 03:33:09.
