data_PCOD8167659
_publ_section_title
;
Structure prediction by ZEFSAII (Michael W. Deem and Ramdas Pophale) SiO2 
 PCOD8167659
Probable space group: P M C 21
;
_chemical_formula_sum "Si O2"
_cell_formula_units_Z 22
_cell_length_a 23.301138
_cell_length_b 7.808084
_cell_length_c 5.245774
_cell_angle_alpha 90.000000
_cell_angle_beta 90.000000
_cell_angle_gamma 90.000000
_cell_volume 954.401658
_symmetry_space_group_name_H-M "P M C 21"
_symmetry_group_IT_number 26
_symmetry_cell_setting 'orthorhombic'
loop_
_space_group_symop_operation_xyz
x,y,z
-x,-y,1/2+z
-x,y,z
x,-y,1/2+z
loop_
_atom_site_type_symbol
_atom_site_label
_atom_site_fract_x
_atom_site_fract_y
_atom_site_fract_z
Si Si1 0.781172 0.910653 0.567420
Si Si2 0.603731 0.882367 0.571931
Si Si3 0.093170 0.949566 0.106299
Si Si4 0.066252 0.404562 0.730939
Si Si5 0.295429 0.614851 0.572925
Si Si6 0.500000 0.381570 0.071722
O O1 0.849597 0.938040 0.559225
O O2 0.753912 0.997963 0.315785
O O3 0.767251 0.706455 0.571732
O O4 0.662854 0.778281 0.571218
O O5 0.555034 0.738960 0.571539
O O6 0.598354 0.000442 0.322396
O O7 0.107240 0.751740 0.154988
O O8 0.057388 0.027636 0.344328
O O9 0.080019 0.549802 0.522808
O O10 0.000000 0.347347 0.700718
O O11 0.304365 0.498612 0.324313
O O12 0.500000 0.499866 0.321860
#
# Coordination Sequence:
#
# PCOD8167659 Si02
#       6
#     4   4   4   4   4   2
#     4  10  21  41  60  84 119 156 198 246 297 360
#     4  12  24  42  66  93 127 168 208 252 307 368
#     4  10  21  38  59  85 118 154 196 240 294 356
#     4  10  21  38  60  88 120 154 195 245 297 352
#     4  12  24  41  64  92 121 158 205 257 310 357
#     4  12  24  42  64  96 134 166 208 256 304 364
#
# _framework density 23.051089999999999
#
# number of rings (size 3 to 8) (size 9 to 14) (size 15 to 20)
#    0.000    1.091    0.000    7.091    0.000    0.727 
#    0.000   21.818    0.000    0.000    0.000    0.000 
#    0.000    0.000    0.000    0.000    0.000    0.000 
#
# Total GULP energy -272643.680770 kJ/mol
# GULP energy per Si atom -12392.894580 kJ/mol
# Density = 2.299862 g / cm^3
# Si number density = 23.051090 Si / 1000 Ang^3
#
#
#
# Elastic Constant Matrix: (Units=GPa)
#
#
# Indices 1 2 3 4 5 6 
#
# 1 57.4341 32.2356 15.7647 0.0000 0.0000 0.0000
# 2 32.2356 139.6431 77.1879 0.0000 0.0000 0.0000
# 3 15.7647 77.1879 223.4533 0.0000 0.0000 0.0000
# 4 0.0000 0.0000 0.0000 61.8912 0.0000 0.0000
# 5 0.0000 0.0000 0.0000 0.0000 7.0737 0.0000
# 6 0.0000 0.0000 0.0000 0.0000 0.0000 -5.0889
#
#
#
# Elastic Compliance Matrix: (Units=1/GPa)
#
#
# Indices 1 2 3 4 5 6 
#
# 1 0.020012 -0.004745 0.000227 0.000000 0.000000 0.000000
# 2 -0.004745 0.009976 -0.003111 0.000000 0.000000 0.000000
# 3 0.000227 -0.003111 0.005534 0.000000 0.000000 0.000000
# 4 0.000000 0.000000 0.000000 0.016157 0.000000 0.000000
# 5 0.000000 0.000000 0.000000 0.000000 0.141369 0.000000
# 6 0.000000 0.000000 0.000000 0.000000 0.000000 -0.196506
#
#
# Mechanical properties :
#
#
# Convention : Reuss Voigt Hill
#
# Bulk Modulus (GPa) = 49.34916 74.54520 61.94718
# Shear Modulus (GPa) = 269.45089 32.46468 150.95779
#
# Velocity S-wave (km/s) = 10.82343 3.75691 8.10127
# Velocity P-wave (km/s) = 13.32856 7.15741 10.69764
#
# Compressibility (1/GPa) = 0.02026377
#
# Stress axis : x y z
#
# Youngs Moduli (GPa) = 49.96943 100.23709 180.70322
#
# Poissons Ratio (x) = 0.47566 -0.04108
# Poissons Ratio (y) = 0.23712 0.56223
# Poissons Ratio (z) = -0.01136 0.31187
#
# Static dielectric constant tensor:
#      x y z
#    x 4.085000 0.000000 0.000000 
#    y 0.000000 4.212820 0.000000 
#    z 0.000000 0.000000 5.567440 
# 
# 
# High freq. dielectric constant tensor:
#      x y z
#    x 1.891040 0.000000 0.000000 
#    y 0.000000 1.921710 0.000000 
#    z 0.000000 0.000000 1.948780 
# 
# From -- ./inp_files/1081.got.cif
#   From: 2010.03.12/outbox.cif.g09.slc.cpg/sg26_1_cif.got.tgz:1081.got - 2010.04.14 03:33:09.
