data_PCOD8167371
_publ_section_title
;
Structure prediction by ZEFSAII (Michael W. Deem and Ramdas Pophale) SiO2 
 PCOD8167371
Probable space group: P M C 21
;
_chemical_formula_sum "Si O2"
_cell_formula_units_Z 32
_cell_length_a 8.791798
_cell_length_b 14.593688
_cell_length_c 12.461434
_cell_angle_alpha 90.000000
_cell_angle_beta 90.000000
_cell_angle_gamma 90.000000
_cell_volume 1598.861261
_symmetry_space_group_name_H-M "P M C 21"
_symmetry_group_IT_number 26
_symmetry_cell_setting 'orthorhombic'
loop_
_space_group_symop_operation_xyz
x,y,z
-x,-y,1/2+z
-x,y,z
x,-y,1/2+z
loop_
_atom_site_type_symbol
_atom_site_label
_atom_site_fract_x
_atom_site_fract_y
_atom_site_fract_z
Si Si1 0.673950 0.132707 0.039830
Si Si2 0.830690 0.165128 0.651008
Si Si3 0.820332 0.166194 0.262272
Si Si4 0.325066 0.064666 0.465474
Si Si5 0.818030 0.435733 0.762795
Si Si6 0.818560 0.364954 0.320497
Si Si7 0.832363 0.644649 0.050517
Si Si8 0.679310 0.737702 0.351146
O O1 0.500000 0.140024 0.077569
O O2 0.772670 0.124904 0.147919
O O3 0.720680 0.220311 0.967542
O O4 0.696876 0.044838 0.962563
O O5 0.737302 0.090777 0.583674
O O6 0.845715 0.247944 0.568257
O O7 0.749415 0.196765 0.759854
O O8 0.000000 0.128113 0.679690
O O9 0.756966 0.108557 0.362600
O O10 0.760530 0.272247 0.263415
O O11 0.000000 0.162073 0.272911
O O12 0.500000 0.094318 0.458957
O O13 0.763090 0.540674 0.767619
O O14 0.747851 0.403803 0.649124
O O15 0.747292 0.365888 0.850274
O O16 0.000000 0.425072 0.770626
O O17 0.744929 0.369987 0.439317
O O18 0.000000 0.361068 0.327315
O O19 0.000000 0.599838 0.042365
O O20 0.500000 0.734421 0.332516
#
# Coordination Sequence:
#
# PCOD8167371 Si02
#       8
#     4   4   4   4   4   4   4   4
#     4  10  25  44  60  82 122 169 201 239 305 373
#     4  10  19  35  60  87 114 146 195 255 301 345
#     4  11  23  40  63  93 122 152 202 259 304 353
#     4  11  23  40  62  86 118 161 201 239 300 373
#     4   9  18  32  56  85 113 157 204 244 296 358
#     4   9  17  32  55  84 119 153 192 244 305 359
#     4   8  14  28  49  76 111 144 183 238 292 341
#     4  10  21  39  59  83 119 160 202 248 301 360
#
# _framework density 20.014246
#
# number of rings (size 3 to 8) (size 9 to 14) (size 15 to 20)
#    0.000    2.250    1.250    2.250    1.750    3.000 
#    0.000    3.750    0.000    1.500    0.000    0.000 
#    0.000    0.000    0.000    0.000    0.000    0.000 
#
# Total GULP energy -396537.850214 kJ/mol
# GULP energy per Si atom -12391.807819 kJ/mol
# Density = 1.996869 g / cm^3
# Si number density = 20.014246 Si / 1000 Ang^3
#
#
#
# Elastic Constant Matrix: (Units=GPa)
#
#
# Indices 1 2 3 4 5 6 
#
# 1 81.7967 32.8999 34.9809 0.0000 0.0000 0.0000
# 2 32.8999 108.5140 40.3464 0.0000 0.0000 0.0000
# 3 34.9809 40.3464 91.7742 0.0000 0.0000 0.0000
# 4 0.0000 0.0000 0.0000 27.3099 0.0000 0.0000
# 5 0.0000 0.0000 0.0000 0.0000 29.2703 0.0000
# 6 0.0000 0.0000 0.0000 0.0000 0.0000 22.1261
#
#
#
# Elastic Compliance Matrix: (Units=1/GPa)
#
#
# Indices 1 2 3 4 5 6 
#
# 1 0.015365 -0.002966 -0.004553 0.000000 0.000000 0.000000
# 2 -0.002966 0.011588 -0.003964 0.000000 0.000000 0.000000
# 3 -0.004553 -0.003964 0.014374 0.000000 0.000000 0.000000
# 4 0.000000 0.000000 0.000000 0.036617 0.000000 0.000000
# 5 0.000000 0.000000 0.000000 0.000000 0.034164 0.000000
# 6 0.000000 0.000000 0.000000 0.000000 0.000000 0.045196
#
#
# Mechanical properties :
#
#
# Convention : Reuss Voigt Hill
#
# Bulk Modulus (GPa) = 54.45825 55.39325 54.92575
# Shear Modulus (GPa) = 26.82526 27.33177 27.07852
#
# Velocity S-wave (km/s) = 3.66499 3.69943 3.68225
# Velocity P-wave (km/s) = 6.72149 6.78120 6.75141
#
# Compressibility (1/GPa) = 0.01836269
#
# Stress axis : x y z
#
# Youngs Moduli (GPa) = 65.08133 86.29260 69.56789
#
# Poissons Ratio (x) = 0.25592 0.31674
# Poissons Ratio (y) = 0.19302 0.27578
# Poissons Ratio (z) = 0.29631 0.34208
#
# Static dielectric constant tensor:
#      x y z
#    x 3.431380 0.000000 0.000000 
#    y 0.000000 3.785440 0.000000 
#    z 0.000000 0.000000 3.629760 
# 
# 
# High freq. dielectric constant tensor:
#      x y z
#    x 1.755750 0.000000 0.000000 
#    y 0.000000 1.783620 0.000000 
#    z 0.000000 0.000000 1.782760 
# 
# From -- ./inp_files/3105.got.cif
#   From: 2010.03.12/outbox.cif.g09.slc.cpg/sg26_2_cif.got.tgz:3105.got - 2010.04.14 03:33:09.
