data_PCOD8167552
_publ_section_title
;
Structure prediction by ZEFSAII (Michael W. Deem and Ramdas Pophale) SiO2 
 PCOD8167552
Probable space group: P M C 21
;
_chemical_formula_sum "Si O2"
_cell_formula_units_Z 24
_cell_length_a 9.277251
_cell_length_b 9.722389
_cell_length_c 13.836139
_cell_angle_alpha 90.000000
_cell_angle_beta 90.000000
_cell_angle_gamma 90.000000
_cell_volume 1247.978825
_symmetry_space_group_name_H-M "P M C 21"
_symmetry_group_IT_number 26
_symmetry_cell_setting 'orthorhombic'
loop_
_space_group_symop_operation_xyz
x,y,z
-x,-y,1/2+z
-x,y,z
x,-y,1/2+z
loop_
_atom_site_type_symbol
_atom_site_label
_atom_site_fract_x
_atom_site_fract_y
_atom_site_fract_z
Si Si1 0.667280 0.971259 0.215000
Si Si2 0.832758 0.920004 0.397176
Si Si3 0.831575 0.648740 0.513985
Si Si4 0.669191 0.712283 0.702454
Si Si5 0.335729 0.580485 0.907271
Si Si6 0.336657 0.140620 0.507675
O O1 0.500000 0.966269 0.242361
O O2 0.755327 0.889011 0.295968
O O3 0.702514 0.889339 0.117819
O O4 0.719354 0.129130 0.207163
O O5 0.800724 0.799898 0.472926
O O6 0.000000 0.938278 0.376589
O O7 0.771184 0.061515 0.438088
O O8 0.753303 0.634492 0.617017
O O9 0.769562 0.542055 0.436254
O O10 0.000000 0.619920 0.527878
O O11 0.500000 0.703200 0.679976
O O12 0.709328 0.638140 0.802495
O O13 0.500000 0.526509 0.904455
O O14 0.319230 0.698219 0.988116
O O15 0.500000 0.092259 0.483951
#
# Coordination Sequence:
#
# PCOD8167552 Si02
#       6
#     4   4   4   4   4   4
#     4  10  20  36  63  92 119 153 198 251 299 347
#     4  11  23  37  57  87 122 157 197 241 291 356
#     4  11  25  41  58  87 126 165 200 238 295 363
#     4  10  20  38  65  90 115 154 201 251 303 352
#     4  10  22  40  62  90 120 153 201 250 297 355
#     4  10  20  38  63  90 116 148 199 251 295 349
#
# _framework density 19.231096000000001
#
# number of rings (size 3 to 8) (size 9 to 14) (size 15 to 20)
#    0.000    1.667    3.333    1.000    0.000    6.000 
#    0.000    5.000    0.000    0.000    0.000    0.000 
#    0.000    0.000    0.000    0.000    0.000    0.000 
#
# Total GULP energy -297718.719708 kJ/mol
# GULP energy per Si atom -12404.946654 kJ/mol
# Density = 1.918732 g / cm^3
# Si number density = 19.231096 Si / 1000 Ang^3
#
#
#
# Elastic Constant Matrix: (Units=GPa)
#
#
# Indices 1 2 3 4 5 6 
#
# 1 76.3333 30.5916 54.1815 0.0000 0.0000 0.0000
# 2 30.5916 38.0930 16.2124 0.0000 0.0000 0.0000
# 3 54.1815 16.2124 112.9117 0.0000 0.0000 0.0000
# 4 0.0000 0.0000 0.0000 31.8620 0.0000 0.0000
# 5 0.0000 0.0000 0.0000 0.0000 23.1348 0.0000
# 6 0.0000 0.0000 0.0000 0.0000 0.0000 27.1603
#
#
#
# Elastic Compliance Matrix: (Units=1/GPa)
#
#
# Indices 1 2 3 4 5 6 
#
# 1 0.027946 -0.017824 -0.010851 0.000000 0.000000 0.000000
# 2 -0.017824 0.039329 0.002906 0.000000 0.000000 0.000000
# 3 -0.010851 0.002906 0.013646 0.000000 0.000000 0.000000
# 4 0.000000 0.000000 0.000000 0.031385 0.000000 0.000000
# 5 0.000000 0.000000 0.000000 0.000000 0.043225 0.000000
# 6 0.000000 0.000000 0.000000 0.000000 0.000000 0.036818
#
#
# Mechanical properties :
#
#
# Convention : Reuss Voigt Hill
#
# Bulk Modulus (GPa) = 34.03348 47.70100 40.86724
# Shear Modulus (GPa) = 19.70977 24.85491 22.28234
#
# Velocity S-wave (km/s) = 3.20486 3.59894 3.40761
# Velocity P-wave (km/s) = 5.60628 6.49059 6.06458
#
# Compressibility (1/GPa) = 0.02938283
#
# Stress axis : x y z
#
# Youngs Moduli (GPa) = 35.78386 25.42647 73.28195
#
# Poissons Ratio (x) = 0.45321 0.79515
# Poissons Ratio (y) = 0.63783 -0.21296
# Poissons Ratio (z) = 0.38827 -0.07389
#
# Static dielectric constant tensor:
#      x y z
#    x 3.439780 0.000000 0.000000 
#    y 0.000000 3.367180 0.000000 
#    z 0.000000 0.000000 3.626390 
# 
# 
# High freq. dielectric constant tensor:
#      x y z
#    x 1.742440 0.000000 0.000000 
#    y 0.000000 1.737720 0.000000 
#    z 0.000000 0.000000 1.762180 
# 
# From -- ./inp_files/2825.got.cif
#   From: 2010.03.12/outbox.cif.g09.slc.cpg/sg26_2_cif.got.tgz:2825.got - 2010.04.14 03:33:09.
