data_PCOD8167021
_publ_section_title
;
Structure prediction by ZEFSAII (Michael W. Deem and Ramdas Pophale) SiO2 
 PCOD8167021
Probable space group: P M M 2
;
_chemical_formula_sum "Si O2"
_cell_formula_units_Z 32
_cell_length_a 9.690835
_cell_length_b 9.603458
_cell_length_c 20.574916
_cell_angle_alpha 90.000000
_cell_angle_beta 90.000000
_cell_angle_gamma 90.000000
_cell_volume 1914.815399
_symmetry_space_group_name_H-M "P M M 2"
_symmetry_group_IT_number 25
_symmetry_cell_setting 'orthorhombic'
loop_
_space_group_symop_operation_xyz
x,y,z
-x,-y,z
-x,y,z
x,-y,z
loop_
_atom_site_type_symbol
_atom_site_label
_atom_site_fract_x
_atom_site_fract_y
_atom_site_fract_z
Si Si1 0.836090 0.154449 0.846430
Si Si2 0.663890 0.654050 0.234986
Si Si3 0.658835 0.336775 0.090103
Si Si4 0.835191 0.342918 0.730314
Si Si5 0.339784 0.162584 0.353168
Si Si6 0.840932 0.162512 0.992318
Si Si7 0.846416 0.834420 0.470131
Si Si8 0.835843 0.155584 0.613278
O O1 0.777952 0.265604 0.794680
O O2 0.000000 0.148999 0.843011
O O3 0.778732 0.000000 0.829552
O O4 0.791391 0.198083 0.919042
O O5 0.500000 0.649442 0.235315
O O6 0.721885 0.500000 0.251084
O O7 0.711123 0.700610 0.162968
O O8 0.718661 0.761422 0.288979
O O9 0.500000 0.292846 0.080929
O O10 0.677687 0.500000 0.076897
O O11 0.749900 0.251422 0.040517
O O12 0.777200 0.500000 0.729550
O O13 0.777568 0.261567 0.667203
O O14 0.000000 0.343514 0.730061
O O15 0.500000 0.195655 0.365030
O O16 0.257598 0.221937 0.415351
O O17 0.313169 0.000000 0.342717
O O18 0.000000 0.204650 0.001874
O O19 0.819548 0.000000 0.006821
O O20 0.792430 0.788730 0.541643
O O21 0.000000 0.774483 0.456661
O O22 0.851893 0.000000 0.468876
O O23 0.000000 0.148396 0.616591
O O24 0.776537 0.000000 0.626298
#
# Coordination Sequence:
#
# PCOD8167021 Si02
#       8
#     4   4   4   4   4   4   4   4
#     4   8  14  25  39  55  80 113 143 171 207 253
#     4   8  15  29  46  62  83 111 141 173 209 251
#     4   9  18  32  49  68  89 116 151 186 220 263
#     4   9  15  21  32  54  81 105 133 172 212 245
#     4   9  16  26  43  66  85 102 133 176 212 242
#     4   9  18  31  46  67  94 120 147 182 224 267
#     4   8  14  25  40  58  82 111 138 164 202 252
#     4   8  13  22  36  51  70 102 138 165 196 244
#
# _framework density 16.711794000000001
#
# number of rings (size 3 to 8) (size 9 to 14) (size 15 to 20)
#    0.000    3.500    0.000    2.625    0.000    3.000 
#    0.000    3.750    0.000    3.375    0.000    0.875 
#    0.000    5.000    0.000    0.000    0.000    0.000 
#
# Total GULP energy -396581.795213 kJ/mol
# GULP energy per Si atom -12393.181100 kJ/mol
# Density = 1.667376 g / cm^3
# Si number density = 16.711794 Si / 1000 Ang^3
#
#
#
# Elastic Constant Matrix: (Units=GPa)
#
#
# Indices 1 2 3 4 5 6 
#
# 1 34.8521 30.1631 45.8122 0.0000 0.0000 0.0000
# 2 30.1631 89.6040 86.4306 0.0000 0.0000 0.0000
# 3 45.8122 86.4306 173.8741 0.0000 0.0000 0.0000
# 4 0.0000 0.0000 0.0000 13.7345 0.0000 0.0000
# 5 0.0000 0.0000 0.0000 0.0000 -5.0055 0.0000
# 6 0.0000 0.0000 0.0000 0.0000 0.0000 15.4543
#
#
#
# Elastic Compliance Matrix: (Units=1/GPa)
#
#
# Indices 1 2 3 4 5 6 
#
# 1 0.046274 -0.007332 -0.008547 0.000000 0.000000 0.000000
# 2 -0.007332 0.022602 -0.009303 0.000000 0.000000 0.000000
# 3 -0.008547 -0.009303 0.012628 0.000000 0.000000 0.000000
# 4 0.000000 0.000000 0.000000 0.072809 0.000000 0.000000
# 5 0.000000 0.000000 0.000000 0.000000 -0.199780 0.000000
# 6 0.000000 0.000000 0.000000 0.000000 0.000000 0.064707
#
#
# Mechanical properties :
#
#
# Convention : Reuss Voigt Hill
#
# Bulk Modulus (GPa) = 32.11525 69.23798 50.67662
# Shear Modulus (GPa) = 62.51081 13.89827 38.20454
#
# Velocity S-wave (km/s) = 6.12261 2.88695 4.78649
# Velocity P-wave (km/s) = 8.32110 7.25488 7.80621
#
# Compressibility (1/GPa) = 0.03113786
#
# Stress axis : x y z
#
# Youngs Moduli (GPa) = 21.61053 44.24297 79.18924
#
# Poissons Ratio (x) = 0.32440 0.67686
# Poissons Ratio (y) = 0.15846 0.73674
# Poissons Ratio (z) = 0.18471 0.41161
#
# Static dielectric constant tensor:
#      x y z
#    x 2.735480 0.000000 0.000000 
#    y 0.000000 3.184750 0.000000 
#    z 0.000000 0.000000 3.523040 
# 
# 
# High freq. dielectric constant tensor:
#      x y z
#    x 1.583940 0.000000 0.000000 
#    y 0.000000 1.631360 0.000000 
#    z 0.000000 0.000000 1.659880 
# 
# From -- ./inp_files/6364.got.cif
#   From: 2010.03.12/outbox.cif.g09.slc.cpg/sg25_4_cif.got.tgz:6364.got - 2010.04.14 03:30:10.
