data_PCOD8167849
_publ_section_title
;
Structure prediction by ZEFSAII (Michael W. Deem and Ramdas Pophale) SiO2 
 PCOD8167849
Probable space group: P C C 2
;
_chemical_formula_sum "Si O2"
_cell_formula_units_Z 24
_cell_length_a 7.568123
_cell_length_b 11.883939
_cell_length_c 11.488163
_cell_angle_alpha 90.000000
_cell_angle_beta 90.000000
_cell_angle_gamma 90.000000
_cell_volume 1033.235180
_symmetry_space_group_name_H-M "P C C 2"
_symmetry_group_IT_number 27
_symmetry_cell_setting 'orthorhombic'
loop_
_space_group_symop_operation_xyz
x,y,z
-x,-y,z
-x,y,1/2+z
x,-y,1/2+z
loop_
_atom_site_type_symbol
_atom_site_label
_atom_site_fract_x
_atom_site_fract_y
_atom_site_fract_z
Si Si1 0.704419 0.147347 0.353830
Si Si2 0.361203 0.231884 0.090753
Si Si3 0.727705 0.718441 0.478816
Si Si4 0.297067 0.099401 0.314463
Si Si5 0.147933 0.347833 0.710859
Si Si6 0.755768 0.412670 0.760025
O O1 0.756103 0.204283 0.476842
O O2 0.497192 0.120465 0.355169
O O3 0.765693 0.232861 0.255381
O O4 0.787921 0.024246 0.329586
O O5 0.297979 0.134255 0.179374
O O6 0.328796 0.353420 0.147542
O O7 0.566622 0.233381 0.056153
O O8 0.815797 0.818536 0.400149
O O9 0.867628 0.665585 0.570150
O O10 0.667149 0.624337 0.383014
O O11 0.272666 0.454059 0.743135
O O12 0.959457 0.373714 0.765843
#
# Coordination Sequence:
#
# PCOD8167849 Si02
#       6
#     4   4   4   4   4   4
#     4  10  21  35  67  91 125 172 215 267 336 390
#     4  10  21  42  62  94 130 165 219 282 326 390
#     4  10  22  43  64  93 130 170 222 274 338 398
#     4   9  20  39  62  97 126 163 221 276 324 389
#     4  11  24  42  67  93 130 183 218 271 351 401
#     4  10  26  43  64  96 135 173 226 277 338 415
#
# _framework density 23.228014000000002
#
# number of rings (size 3 to 8) (size 9 to 14) (size 15 to 20)
#    0.000    2.000    1.667    0.000    7.000    3.333 
#    3.000    3.333    0.000    0.000    0.000    0.000 
#    0.000    0.000    0.000    0.000    0.000    0.000 
#
# Total GULP energy -297358.263101 kJ/mol
# GULP energy per Si atom -12389.927629 kJ/mol
# Density = 2.317515 g / cm^3
# Si number density = 23.228014 Si / 1000 Ang^3
#
#
#
# Elastic Constant Matrix: (Units=GPa)
#
#
# Indices 1 2 3 4 5 6 
#
# 1 13.1604 14.3190 13.5906 0.0000 0.0000 0.0000
# 2 14.3190 181.8035 64.1728 0.0000 0.0000 0.0000
# 3 13.5906 64.1728 158.7878 0.0000 0.0000 0.0000
# 4 0.0000 0.0000 0.0000 27.2461 0.0000 0.0000
# 5 0.0000 0.0000 0.0000 0.0000 20.7597 0.0000
# 6 0.0000 0.0000 0.0000 0.0000 0.0000 22.1430
#
#
#
# Elastic Compliance Matrix: (Units=1/GPa)
#
#
# Indices 1 2 3 4 5 6 
#
# 1 0.086976 -0.004925 -0.005454 0.000000 0.000000 0.000000
# 2 -0.004925 0.006695 -0.002284 0.000000 0.000000 0.000000
# 3 -0.005454 -0.002284 0.007688 0.000000 0.000000 0.000000
# 4 0.000000 0.000000 0.000000 0.036703 0.000000 0.000000
# 5 0.000000 0.000000 0.000000 0.000000 0.048170 0.000000
# 6 0.000000 0.000000 0.000000 0.000000 0.000000 0.045161
#
#
# Mechanical properties :
#
#
# Convention : Reuss Voigt Hill
#
# Bulk Modulus (GPa) = 13.15229 59.76850 36.46039
# Shear Modulus (GPa) = 17.72657 31.47437 24.60047
#
# Velocity S-wave (km/s) = 2.76552 3.68505 3.25789
# Velocity P-wave (km/s) = 3.98397 6.62519 5.46650
#
# Compressibility (1/GPa) = 0.07603241
#
# Stress axis : x y z
#
# Youngs Moduli (GPa) = 11.49738 149.37493 130.08020
#
# Poissons Ratio (x) = 0.73571 0.70943
# Poissons Ratio (y) = 0.05663 0.29710
# Poissons Ratio (z) = 0.06270 0.34117
#
# Static dielectric constant tensor:
#      x y z
#    x 3.764500 0.000000 0.000000 
#    y 0.000000 4.643130 0.000000 
#    z 0.000000 0.000000 4.477600 
# 
# 
# High freq. dielectric constant tensor:
#      x y z
#    x 1.879830 0.000000 0.000000 
#    y 0.000000 1.923720 0.000000 
#    z 0.000000 0.000000 1.936280 
# 
# From -- ./inp_files/2341.got.cif
#   From: 2010.03.12/outbox.cif.g09.slc.cpg/sg27_2_cif.got.tgz:2341.got - 2010.04.14 03:36:05.
