data_PCOD8167269
_publ_section_title
;
Structure prediction by ZEFSAII (Michael W. Deem and Ramdas Pophale) SiO2 
 PCOD8167269
Probable space group: P M C 21
;
_chemical_formula_sum "Si O2"
_cell_formula_units_Z 32
_cell_length_a 9.321120
_cell_length_b 11.249497
_cell_length_c 15.949245
_cell_angle_alpha 90.000000
_cell_angle_beta 90.000000
_cell_angle_gamma 90.000000
_cell_volume 1672.404520
_symmetry_space_group_name_H-M "P M C 21"
_symmetry_group_IT_number 26
_symmetry_cell_setting 'orthorhombic'
loop_
_space_group_symop_operation_xyz
x,y,z
-x,-y,1/2+z
-x,y,z
x,-y,1/2+z
loop_
_atom_site_type_symbol
_atom_site_label
_atom_site_fract_x
_atom_site_fract_y
_atom_site_fract_z
Si Si1 0.669845 0.020703 0.125000
Si Si2 0.158841 0.435651 0.267280
Si Si3 0.671157 0.914144 0.948850
Si Si4 0.663069 0.466711 0.999827
Si Si5 0.668513 0.711933 0.644175
Si Si6 0.664500 0.645330 0.318375
Si Si7 0.159583 0.326310 0.447215
Si Si8 0.329611 0.086525 0.799087
O O1 0.500000 0.013983 0.126901
O O2 0.721502 0.156456 0.121721
O O3 0.731772 0.959609 0.209618
O O4 0.724957 0.958041 0.040167
O O5 0.247402 0.329764 0.225645
O O6 0.242483 0.560906 0.257483
O O7 0.145942 0.400969 0.363192
O O8 0.000000 0.448920 0.227596
O O9 0.500000 0.897669 0.945861
O O10 0.746507 0.789752 0.931311
O O11 0.723992 0.005089 0.876481
O O12 0.500000 0.507955 0.013702
O O13 0.679551 0.398603 0.912786
O O14 0.759647 0.584618 0.010996
O O15 0.713043 0.373401 0.068890
O O16 0.500000 0.709756 0.663899
O O17 0.500000 0.639458 0.287552
O O18 0.725280 0.779188 0.312608
O O19 0.000000 0.293968 0.480808
O O20 0.500000 0.083589 0.798709
#
# Coordination Sequence:
#
# PCOD8167269 Si02
#       8
#     4   4   4   4   4   4   4   4
#     4   9  18  31  50  79 107 130 166 213 256 306
#     4  10  21  35  51  74 104 137 172 213 260 310
#     4  10  19  33  55  79 105 138 173 213 261 310
#     4   9  18  32  52  76  99 128 170 217 259 304
#     4  10  19  33  54  78 103 132 170 215 262 311
#     4   9  17  32  53  75 100 133 174 215 259 310
#     4  10  21  36  52  73 104 139 174 211 256 311
#     4   9  17  30  51  78 106 135 167 209 259 306
#
# _framework density 19.134128
#
# number of rings (size 3 to 8) (size 9 to 14) (size 15 to 20)
#    0.000    2.500    0.000    2.250    0.000    7.000 
#    0.000    3.750    0.000    3.000    0.000    0.000 
#    0.000    0.000    0.000    0.000    0.000    0.000 
#
# Total GULP energy -396742.763351 kJ/mol
# GULP energy per Si atom -12398.211355 kJ/mol
# Density = 1.909058 g / cm^3
# Si number density = 19.134128 Si / 1000 Ang^3
#
#
#
# Elastic Constant Matrix: (Units=GPa)
#
#
# Indices 1 2 3 4 5 6 
#
# 1 60.5739 48.4544 17.1139 0.0000 0.0000 0.0000
# 2 48.4544 143.2819 28.0471 0.0000 0.0000 0.0000
# 3 17.1139 28.0471 69.8964 0.0000 0.0000 0.0000
# 4 0.0000 0.0000 0.0000 24.1633 0.0000 0.0000
# 5 0.0000 0.0000 0.0000 0.0000 14.2279 0.0000
# 6 0.0000 0.0000 0.0000 0.0000 0.0000 7.9820
#
#
#
# Elastic Compliance Matrix: (Units=1/GPa)
#
#
# Indices 1 2 3 4 5 6 
#
# 1 0.023103 -0.007277 -0.002737 0.000000 0.000000 0.000000
# 2 -0.007277 0.009866 -0.002177 0.000000 0.000000 0.000000
# 3 -0.002737 -0.002177 0.015851 0.000000 0.000000 0.000000
# 4 0.000000 0.000000 0.000000 0.041385 0.000000 0.000000
# 5 0.000000 0.000000 0.000000 0.000000 0.070284 0.000000
# 6 0.000000 0.000000 0.000000 0.000000 0.000000 0.125281
#
#
# Mechanical properties :
#
#
# Convention : Reuss Voigt Hill
#
# Bulk Modulus (GPa) = 40.91998 51.22035 46.07016
# Shear Modulus (GPa) = 15.70848 21.28375 18.49612
#
# Velocity S-wave (km/s) = 2.86836 3.33880 3.11248
# Velocity P-wave (km/s) = 5.69230 6.45683 6.08658
#
# Compressibility (1/GPa) = 0.02443794
#
# Stress axis : x y z
#
# Youngs Moduli (GPa) = 43.28416 101.35385 63.08904
#
# Poissons Ratio (x) = 0.73757 0.17265
# Poissons Ratio (y) = 0.31499 0.13736
# Poissons Ratio (z) = 0.11845 0.22067
#
# Static dielectric constant tensor:
#      x y z
#    x 3.372730 0.000000 0.000000 
#    y 0.000000 3.616620 0.000000 
#    z 0.000000 0.000000 3.536260 
# 
# 
# High freq. dielectric constant tensor:
#      x y z
#    x 1.709140 0.000000 0.000000 
#    y 0.000000 1.755990 0.000000 
#    z 0.000000 0.000000 1.740330 
# 
# From -- ./inp_files/4140.got.cif
#   From: 2010.03.12/outbox.cif.g09.slc.cpg/sg26_3_cif.got.tgz:4140.got - 2010.04.14 03:33:09.
