data_PCOD8167300
_publ_section_title
;
Structure prediction by ZEFSAII (Michael W. Deem and Ramdas Pophale) SiO2 
 PCOD8167300
Probable space group: P M C 21
;
_chemical_formula_sum "Si O2"
_cell_formula_units_Z 32
_cell_length_a 8.630350
_cell_length_b 20.693487
_cell_length_c 9.246582
_cell_angle_alpha 90.000000
_cell_angle_beta 90.000000
_cell_angle_gamma 90.000000
_cell_volume 1651.365901
_symmetry_space_group_name_H-M "P M C 21"
_symmetry_group_IT_number 26
_symmetry_cell_setting 'orthorhombic'
loop_
_space_group_symop_operation_xyz
x,y,z
-x,-y,1/2+z
-x,y,z
x,-y,1/2+z
loop_
_atom_site_type_symbol
_atom_site_label
_atom_site_fract_x
_atom_site_fract_y
_atom_site_fract_z
Si Si1 0.315555 0.430075 0.128680
Si Si2 0.317736 0.800925 0.635508
Si Si3 0.818346 0.313795 0.303307
Si Si4 0.317126 0.054998 0.111041
Si Si5 0.316021 0.554523 0.301307
Si Si6 0.683796 0.795708 0.305393
Si Si7 0.315137 0.937398 0.291366
Si Si8 0.315523 0.323387 0.620305
O O1 0.500000 0.424697 0.131894
O O2 0.245365 0.363951 0.186372
O O3 0.254891 0.488717 0.228331
O O4 0.254719 0.441192 0.965408
O O5 0.500000 0.786416 0.649972
O O6 0.224702 0.757383 0.748189
O O7 0.279597 0.875058 0.680273
O O8 0.260118 0.787199 0.471307
O O9 0.743751 0.327128 0.458073
O O10 0.000000 0.321085 0.318418
O O11 0.500000 0.045760 0.105409
O O12 0.241444 0.994815 0.196296
O O13 0.248167 0.051978 0.950994
O O14 0.500000 0.554906 0.300566
O O15 0.253301 0.614662 0.208053
O O16 0.500000 0.791908 0.307666
O O17 0.736579 0.865429 0.240580
O O18 0.751773 0.739829 0.202462
O O19 0.500000 0.941290 0.291639
O O20 0.500000 0.322231 0.616444
#
# Coordination Sequence:
#
# PCOD8167300 Si02
#       8
#     4   4   4   4   4   4   4   4
#     4  10  19  36  60  84 107 134 167 206 248 298
#     4   9  17  33  54  75  98 132 173 213 254 303
#     4  12  25  37  49  73 105 138 173 214 258 301
#     4   8  14  23  40  67 101 132 159 195 248 303
#     4   9  18  33  60  89 108 130 167 208 247 292
#     4   8  15  28  50  77 104 131 166 209 255 302
#     4   8  13  22  37  68 107 132 152 194 250 303
#     4  10  19  34  55  79 104 135 171 209 250 298
#
# _framework density 19.377897000000001
#
# number of rings (size 3 to 8) (size 9 to 14) (size 15 to 20)
#    0.000    2.750    0.000    4.125    0.000    5.000 
#    0.000    8.750    0.000    0.000    0.000    7.875 
#    0.000    0.000    0.000    0.000    0.000    0.000 
#
# Total GULP energy -396656.579188 kJ/mol
# GULP energy per Si atom -12395.518100 kJ/mol
# Density = 1.933379 g / cm^3
# Si number density = 19.377897 Si / 1000 Ang^3
#
#
#
# Elastic Constant Matrix: (Units=GPa)
#
#
# Indices 1 2 3 4 5 6 
#
# 1 19.6287 12.6858 8.1388 0.0000 0.0000 0.0000
# 2 12.6858 127.4724 44.0282 0.0000 0.0000 0.0000
# 3 8.1388 44.0282 92.3121 0.0000 0.0000 0.0000
# 4 0.0000 0.0000 0.0000 45.4857 0.0000 0.0000
# 5 0.0000 0.0000 0.0000 0.0000 1.3935 0.0000
# 6 0.0000 0.0000 0.0000 0.0000 0.0000 3.6591
#
#
#
# Elastic Compliance Matrix: (Units=1/GPa)
#
#
# Indices 1 2 3 4 5 6 
#
# 1 0.054996 -0.004548 -0.002680 0.000000 0.000000 0.000000
# 2 -0.004548 0.009768 -0.004258 0.000000 0.000000 0.000000
# 3 -0.002680 -0.004258 0.013100 0.000000 0.000000 0.000000
# 4 0.000000 0.000000 0.000000 0.021985 0.000000 0.000000
# 5 0.000000 0.000000 0.000000 0.000000 0.717625 0.000000
# 6 0.000000 0.000000 0.000000 0.000000 0.000000 0.273289
#
#
# Mechanical properties :
#
#
# Convention : Reuss Voigt Hill
#
# Bulk Modulus (GPa) = 18.21713 41.01322 29.61518
# Shear Modulus (GPa) = 4.41684 21.74501 13.08092
#
# Velocity S-wave (km/s) = 1.51138 3.35349 2.60098
# Velocity P-wave (km/s) = 3.53088 6.01710 4.93318
#
# Compressibility (1/GPa) = 0.05489338
#
# Stress axis : x y z
#
# Youngs Moduli (GPa) = 18.18315 102.37444 76.33638
#
# Poissons Ratio (x) = 0.46555 0.20457
# Poissons Ratio (y) = 0.08269 0.32504
# Poissons Ratio (z) = 0.04873 0.43590
#
# Static dielectric constant tensor:
#      x y z
#    x 2.870170 0.000000 0.000000 
#    y 0.000000 3.961890 0.000000 
#    z 0.000000 0.000000 3.748880 
# 
# 
# High freq. dielectric constant tensor:
#      x y z
#    x 1.685750 0.000000 0.000000 
#    y 0.000000 1.775810 0.000000 
#    z 0.000000 0.000000 1.757480 
# 
# From -- ./inp_files/1595.got.cif
#   From: 2010.03.12/outbox.cif.g09.slc.cpg/sg26_1_cif.got.tgz:1595.got - 2010.04.14 03:33:09.
