data_PCOD8167863
_publ_section_title
;
Structure prediction by ZEFSAII (Michael W. Deem and Ramdas Pophale) SiO2 
 PCOD8167863
Probable space group: P C C 2
;
_chemical_formula_sum "Si O2"
_cell_formula_units_Z 32
_cell_length_a 8.612979
_cell_length_b 16.387741
_cell_length_c 10.612506
_cell_angle_alpha 90.000000
_cell_angle_beta 90.000000
_cell_angle_gamma 90.000000
_cell_volume 1497.926240
_symmetry_space_group_name_H-M "P C C 2"
_symmetry_group_IT_number 27
_symmetry_cell_setting 'orthorhombic'
loop_
_space_group_symop_operation_xyz
x,y,z
-x,-y,z
-x,y,1/2+z
x,-y,1/2+z
loop_
_atom_site_type_symbol
_atom_site_label
_atom_site_fract_x
_atom_site_fract_y
_atom_site_fract_z
Si Si1 0.723232 0.565817 0.909170
Si Si2 0.233245 0.780262 0.911399
Si Si3 0.021946 0.326558 0.016025
Si Si4 0.664644 0.958140 0.127388
Si Si5 0.167391 0.958821 0.898007
Si Si6 0.222150 0.564010 0.129149
Si Si7 0.730247 0.220579 0.626620
Si Si8 0.522012 0.328468 0.022889
O O1 0.752848 0.526783 0.770027
O O2 0.852754 0.635477 0.922037
O O3 0.751800 0.501778 0.020300
O O4 0.549835 0.605603 0.922246
O O5 0.264283 0.797851 0.769921
O O6 0.162599 0.866551 0.955704
O O7 0.400322 0.752627 0.965154
O O8 0.117856 0.705001 0.930447
O O9 0.096883 0.247260 0.082895
O O10 0.948409 0.393911 0.112954
O O11 0.762792 0.967554 0.256761
O O12 0.661577 0.864530 0.074970
O O13 0.500000 0.000000 0.155843
O O14 0.732499 0.999407 0.004491
O O15 0.000000 0.000000 0.893598
O O16 0.355777 0.631320 0.116968
O O17 0.622951 0.298619 0.603523
#
# Coordination Sequence:
#
# PCOD8167863 Si02
#       8
#     4   4   4   4   4   4   4   4
#     4  11  24  40  61  89 120 157 199 248 304 362
#     4  10  21  39  61  86 118 158 201 247 300 359
#     4  10  22  39  61  86 118 155 201 250 299 358
#     4  11  23  40  63  93 128 166 209 259 315 377
#     4  11  23  40  63  93 128 166 209 259 315 377
#     4  11  24  40  61  89 120 157 199 248 304 362
#     4  10  21  39  61  86 118 158 201 247 300 359
#     4  10  22  39  61  86 118 155 201 250 299 358
#
# _framework density 21.362867999999999
#
# number of rings (size 3 to 8) (size 9 to 14) (size 15 to 20)
#    0.000    1.500    0.000    4.500    0.000   10.000 
#    0.000    6.250    0.000    0.000    0.000    0.000 
#    0.000    0.000    0.000    0.000    0.000    0.000 
#
# Total GULP energy -396442.115552 kJ/mol
# GULP energy per Si atom -12388.816111 kJ/mol
# Density = 2.131425 g / cm^3
# Si number density = 21.362868 Si / 1000 Ang^3
#
#
#
# Elastic Constant Matrix: (Units=GPa)
#
#
# Indices 1 2 3 4 5 6 
#
# 1 102.7379 28.4328 12.4841 0.0000 0.0000 0.0000
# 2 28.4328 111.3114 35.4175 0.0000 0.0000 0.0000
# 3 12.4841 35.4175 102.2653 0.0000 0.0000 0.0000
# 4 0.0000 0.0000 0.0000 -46.1877 0.0000 0.0000
# 5 0.0000 0.0000 0.0000 0.0000 28.5560 0.0000
# 6 0.0000 0.0000 0.0000 0.0000 0.0000 42.4417
#
#
#
# Elastic Compliance Matrix: (Units=1/GPa)
#
#
# Indices 1 2 3 4 5 6 
#
# 1 0.010488 -0.002553 -0.000396 0.000000 0.000000 0.000000
# 2 -0.002553 0.010718 -0.003400 0.000000 0.000000 0.000000
# 3 -0.000396 -0.003400 0.011004 0.000000 0.000000 0.000000
# 4 0.000000 0.000000 0.000000 -0.021651 0.000000 0.000000
# 5 0.000000 0.000000 0.000000 0.000000 0.035019 0.000000
# 6 0.000000 0.000000 0.000000 0.000000 0.000000 0.023562
#
#
# Mechanical properties :
#
#
# Convention : Reuss Voigt Hill
#
# Bulk Modulus (GPa) = 51.25143 52.10927 51.68035
# Shear Modulus (GPa) = 56.59754 20.96067 38.77911
#
# Velocity S-wave (km/s) = 5.15276 3.13577 4.26521
# Velocity P-wave (km/s) = 7.71001 6.12830 6.96421
#
# Compressibility (1/GPa) = 0.01951165
#
# Stress axis : x y z
#
# Youngs Moduli (GPa) = 95.34530 93.30239 90.87226
#
# Poissons Ratio (x) = 0.23820 0.03600
# Poissons Ratio (y) = 0.24342 0.30899
# Poissons Ratio (z) = 0.03777 0.31725
#
# Static dielectric constant tensor:
#      x y z
#    x 3.955350 0.000000 0.000000 
#    y 0.000000 9.773460 0.000000 
#    z 0.000000 0.000000 3.775880 
# 
# 
# High freq. dielectric constant tensor:
#      x y z
#    x 1.849720 0.000000 0.000000 
#    y 0.000000 1.849220 0.000000 
#    z 0.000000 0.000000 1.830130 
# 
# From -- ./inp_files/2433.got.cif
#   From: 2010.03.12/outbox.cif.g09.slc.cpg/sg27_2_cif.got.tgz:2433.got - 2010.04.14 03:36:05.
