data_PCOD8167067
_publ_section_title
;
Structure prediction by ZEFSAII (Michael W. Deem and Ramdas Pophale) SiO2 
 PCOD8167067
Probable space group: P M C 21
;
_chemical_formula_sum "Si O2"
_cell_formula_units_Z 32
_cell_length_a 8.975146
_cell_length_b 11.754518
_cell_length_c 14.760916
_cell_angle_alpha 90.000000
_cell_angle_beta 90.000000
_cell_angle_gamma 90.000000
_cell_volume 1557.254721
_symmetry_space_group_name_H-M "P M C 21"
_symmetry_group_IT_number 26
_symmetry_cell_setting 'orthorhombic'
loop_
_space_group_symop_operation_xyz
x,y,z
-x,-y,1/2+z
-x,y,z
x,-y,1/2+z
loop_
_atom_site_type_symbol
_atom_site_label
_atom_site_fract_x
_atom_site_fract_y
_atom_site_fract_z
Si Si1 0.323780 0.587607 0.801050
Si Si2 0.828859 0.986950 0.689199
Si Si3 0.827415 0.229051 0.773894
Si Si4 0.674530 0.843739 0.830468
Si Si5 0.321475 0.629839 0.413727
Si Si6 0.332038 0.439111 0.103088
Si Si7 0.824254 0.894759 0.007881
Si Si8 0.331684 0.302907 0.603360
O O1 0.500000 0.572968 0.792915
O O2 0.283004 0.710885 0.842575
O O3 0.263265 0.485452 0.863707
O O4 0.250394 0.579750 0.699665
O O5 0.805336 0.096898 0.752361
O O6 0.776694 0.014344 0.585823
O O7 0.000000 0.948581 0.689364
O O8 0.730925 0.886436 0.732211
O O9 0.759591 0.259730 0.871736
O O10 0.730730 0.304353 0.704977
O O11 0.000000 0.263325 0.767132
O O12 0.500000 0.863240 0.836088
O O13 0.749667 0.918674 0.910587
O O14 0.500000 0.640442 0.407291
O O15 0.264011 0.629810 0.518097
O O16 0.500000 0.396677 0.116659
O O17 0.330065 0.568929 0.068770
O O18 0.773892 0.770140 0.039061
O O19 0.000000 0.895716 0.995708
O O20 0.500000 0.253402 0.601126
#
# Coordination Sequence:
#
# PCOD8167067 Si02
#       8
#     4   4   4   4   4   4   4   4
#     4   9  18  34  53  82 119 148 179 231 292 335
#     4   9  21  41  60  78 110 153 188 232 295 347
#     4  10  20  35  54  78 110 144 182 233 288 337
#     4  11  22  37  61  88 116 150 196 246 284 341
#     4  10  18  32  56  81 108 147 187 223 275 343
#     4   9  17  30  52  80 112 148 182 224 286 342
#     4  10  21  38  60  85 117 154 191 237 294 349
#     4  10  17  31  58  84 108 144 191 236 272 328
#
# _framework density 20.548981999999999
#
# number of rings (size 3 to 8) (size 9 to 14) (size 15 to 20)
#    0.000    2.250    1.250    3.000    0.000    5.000 
#    2.250    3.750    0.000    0.000    0.000    0.000 
#    0.000    0.000    0.000    0.000    0.000    0.000 
#
# Total GULP energy -396649.779063 kJ/mol
# GULP energy per Si atom -12395.305596 kJ/mol
# Density = 2.050221 g / cm^3
# Si number density = 20.548982 Si / 1000 Ang^3
#
#
#
# Elastic Constant Matrix: (Units=GPa)
#
#
# Indices 1 2 3 4 5 6 
#
# 1 55.3597 16.0312 13.9668 0.0000 0.0000 0.0000
# 2 16.0312 29.2443 5.4970 0.0000 0.0000 0.0000
# 3 13.9668 5.4970 100.1713 0.0000 0.0000 0.0000
# 4 0.0000 0.0000 0.0000 27.4663 0.0000 0.0000
# 5 0.0000 0.0000 0.0000 0.0000 26.6383 0.0000
# 6 0.0000 0.0000 0.0000 0.0000 0.0000 19.3117
#
#
#
# Elastic Compliance Matrix: (Units=1/GPa)
#
#
# Indices 1 2 3 4 5 6 
#
# 1 0.022045 -0.011627 -0.002436 0.000000 0.000000 0.000000
# 2 -0.011627 0.040683 -0.000611 0.000000 0.000000 0.000000
# 3 -0.002436 -0.000611 0.010356 0.000000 0.000000 0.000000
# 4 0.000000 0.000000 0.000000 0.036408 0.000000 0.000000
# 5 0.000000 0.000000 0.000000 0.000000 0.037540 0.000000
# 6 0.000000 0.000000 0.000000 0.000000 0.000000 0.051782
#
#
# Mechanical properties :
#
#
# Convention : Reuss Voigt Hill
#
# Bulk Modulus (GPa) = 22.86420 28.41834 25.64127
# Shear Modulus (GPa) = 20.59805 24.63529 22.61667
#
# Velocity S-wave (km/s) = 3.16949 3.46621 3.32116
# Velocity P-wave (km/s) = 4.95429 5.46617 5.21652
#
# Compressibility (1/GPa) = 0.04373650
#
# Stress axis : x y z
#
# Youngs Moduli (GPa) = 45.36150 24.58012 96.56190
#
# Poissons Ratio (x) = 0.28579 0.23519
# Poissons Ratio (y) = 0.52741 0.05904
# Poissons Ratio (z) = 0.11049 0.01503
#
# Static dielectric constant tensor:
#      x y z
#    x 3.419490 0.000000 0.000000 
#    y 0.000000 3.464350 0.000000 
#    z 0.000000 0.000000 3.996760 
# 
# 
# High freq. dielectric constant tensor:
#      x y z
#    x 1.772710 0.000000 0.000000 
#    y 0.000000 1.782270 0.000000 
#    z 0.000000 0.000000 1.817970 
# 
# From -- ./inp_files/4144.got.cif
#   From: 2010.03.12/outbox.cif.g09.slc.cpg/sg26_3_cif.got.tgz:4144.got - 2010.04.14 03:33:09.
