data_PCOD8167166
_publ_section_title
;
Structure prediction by ZEFSAII (Michael W. Deem and Ramdas Pophale) SiO2 
 PCOD8167166
Probable space group: P M C 21
;
_chemical_formula_sum "Si O2"
_cell_formula_units_Z 24
_cell_length_a 27.483091
_cell_length_b 7.296604
_cell_length_c 5.319560
_cell_angle_alpha 90.000000
_cell_angle_beta 90.000000
_cell_angle_gamma 90.000000
_cell_volume 1066.748558
_symmetry_space_group_name_H-M "P M C 21"
_symmetry_group_IT_number 26
_symmetry_cell_setting 'orthorhombic'
loop_
_space_group_symop_operation_xyz
x,y,z
-x,-y,1/2+z
-x,y,z
x,-y,1/2+z
loop_
_atom_site_type_symbol
_atom_site_label
_atom_site_fract_x
_atom_site_fract_y
_atom_site_fract_z
Si Si1 0.692940 0.292668 0.333490
Si Si2 0.348051 0.704272 0.333303
Si Si3 0.057044 0.196318 0.853193
Si Si4 0.554333 0.117676 0.801703
Si Si5 0.802665 0.615702 0.804399
Si Si6 0.097746 0.209357 0.353164
O O1 0.675070 0.193946 0.589268
O O2 0.670526 0.496824 0.343403
O O3 0.750945 0.286549 0.326174
O O4 0.671639 0.193584 0.085080
O O5 0.406687 0.717369 0.321675
O O6 0.076883 0.305222 0.608279
O O7 0.000000 0.161822 0.830348
O O8 0.084908 0.003671 0.873494
O O9 0.071058 0.302296 0.110928
O O10 0.500000 0.202698 0.813215
O O11 0.562281 0.017664 0.536034
O O12 0.807934 0.530594 0.527598
O O13 0.844344 0.767903 0.835669
#
# Coordination Sequence:
#
# PCOD8167166 Si02
#       6
#     4   4   4   4   4   4
#     4  10  19  35  57  80 103 151 186 232 271 313
#     4  10  18  35  59  80 107 144 195 222 268 334
#     4  10  19  38  62  82 107 145 184 228 278 322
#     4  10  21  37  58  83 117 153 180 225 286 335
#     4  12  21  37  57  80 114 151 183 220 281 335
#     4  10  20  32  59  85 106 142 184 227 272 331
#
# _framework density 22.498272
#
# number of rings (size 3 to 8) (size 9 to 14) (size 15 to 20)
#    0.000    1.667    3.333    4.500    0.000    0.000 
#    0.000    3.333   22.000   17.000    0.000    0.000 
#    0.000    0.000    0.000    0.000    0.000    0.000 
#
# Total GULP energy -297402.009575 kJ/mol
# GULP energy per Si atom -12391.750399 kJ/mol
# Density = 2.244706 g / cm^3
# Si number density = 22.498272 Si / 1000 Ang^3
#
#
#
# Elastic Constant Matrix: (Units=GPa)
#
#
# Indices 1 2 3 4 5 6 
#
# 1 187.8204 22.1641 16.8680 0.0000 0.0000 0.0000
# 2 22.1641 12.8580 -12.2769 0.0000 0.0000 0.0000
# 3 16.8680 -12.2769 203.9831 0.0000 0.0000 0.0000
# 4 0.0000 0.0000 0.0000 2.4283 0.0000 0.0000
# 5 0.0000 0.0000 0.0000 0.0000 29.5355 0.0000
# 6 0.0000 0.0000 0.0000 0.0000 0.0000 26.4521
#
#
#
# Elastic Compliance Matrix: (Units=1/GPa)
#
#
# Indices 1 2 3 4 5 6 
#
# 1 0.007038 -0.013460 -0.001392 0.000000 0.000000 0.000000
# 2 -0.013460 0.108259 0.007629 0.000000 0.000000 0.000000
# 3 -0.001392 0.007629 0.005477 0.000000 0.000000 0.000000
# 4 0.000000 0.000000 0.000000 0.411811 0.000000 0.000000
# 5 0.000000 0.000000 0.000000 0.000000 0.033858 0.000000
# 6 0.000000 0.000000 0.000000 0.000000 0.000000 0.037804
#
#
# Mechanical properties :
#
#
# Convention : Reuss Voigt Hill
#
# Bulk Modulus (GPa) = 9.40504 50.90799 30.15652
# Shear Modulus (GPa) = 7.64367 36.87692 22.26029
#
# Velocity S-wave (km/s) = 1.84522 4.05297 3.14892
# Velocity P-wave (km/s) = 2.95452 6.67673 5.16275
#
# Compressibility (1/GPa) = 0.10632598
#
# Stress axis : x y z
#
# Youngs Moduli (GPa) = 142.09210 9.23708 182.59413
#
# Poissons Ratio (x) = 0.12434 0.25419
# Poissons Ratio (y) = 1.91263 -1.39297
# Poissons Ratio (z) = 0.19781 -0.07047
#
# Static dielectric constant tensor:
#      x y z
#    x 4.255460 0.000000 0.000000 
#    y 0.000000 3.218980 0.000000 
#    z 0.000000 0.000000 8.016160 
# 
# 
# High freq. dielectric constant tensor:
#      x y z
#    x 1.897990 0.000000 0.000000 
#    y 0.000000 1.820010 0.000000 
#    z 0.000000 0.000000 1.938260 
# 
# From -- ./inp_files/945.got.cif
#   From: 2010.03.12/outbox.cif.g09.slc.cpg/sg26_1_cif.got.tgz:945.got - 2010.04.14 03:33:09.
