data_PCOD8167813
_publ_section_title
;
Structure prediction by ZEFSAII (Michael W. Deem and Ramdas Pophale) SiO2 
 PCOD8167813
Probable space group: P C C 2
;
_chemical_formula_sum "Si O2"
_cell_formula_units_Z 30
_cell_length_a 8.965371
_cell_length_b 9.088119
_cell_length_c 18.579493
_cell_angle_alpha 90.000000
_cell_angle_beta 90.000000
_cell_angle_gamma 90.000000
_cell_volume 1513.826592
_symmetry_space_group_name_H-M "P C C 2"
_symmetry_group_IT_number 27
_symmetry_cell_setting 'orthorhombic'
loop_
_space_group_symop_operation_xyz
x,y,z
-x,-y,z
-x,y,1/2+z
x,-y,1/2+z
loop_
_atom_site_type_symbol
_atom_site_label
_atom_site_fract_x
_atom_site_fract_y
_atom_site_fract_z
Si Si1 0.828119 0.155189 0.348370
Si Si2 0.501987 0.332105 0.642699
Si Si3 0.689652 0.850249 0.535276
Si Si4 0.000000 0.000000 0.227749
Si Si5 0.784770 0.856505 0.112081
Si Si6 0.007251 0.826573 0.490217
Si Si7 0.372576 0.101280 0.380984
Si Si8 0.463377 0.666309 0.307175
O O1 0.934248 0.221125 0.411205
O O2 0.689147 0.267736 0.341840
O O3 0.782102 0.987995 0.372862
O O4 0.919597 0.128216 0.274919
O O5 0.500000 0.500000 0.617905
O O6 0.386277 0.255698 0.590963
O O7 0.664826 0.259967 0.640141
O O8 0.439766 0.317209 0.722768
O O9 0.588853 0.867541 0.464267
O O10 0.840891 0.770099 0.506845
O O11 0.704921 0.007660 0.573030
O O12 0.880048 0.915511 0.179179
O O13 0.884477 0.768531 0.053640
O O14 0.000000 0.000000 0.499472
O O15 0.386975 0.249645 0.334367
O O16 0.500000 0.000000 0.346634
O O17 0.500000 0.500000 0.330243
#
# Coordination Sequence:
#
# PCOD8167813 Si02
#       8
#     4   4   4   2   4   4   4   4
#     4  11  20  36  65  92 123 160 202 263 314 372
#     4  11  25  42  61  88 126 168 209 254 301 364
#     4  11  20  38  65  92 122 159 200 254 314 362
#     4  12  20  32  66 100 120 156 212 260 324 374
#     4  11  21  38  64  94 122 156 202 260 310 366
#     4  10  19  37  59  92 127 150 193 258 316 361
#     4  10  19  34  60  91 116 155 203 256 303 359
#     4  10  24  41  58  86 129 165 211 255 303 367
#
# _framework density 19.817329999999998
#
# number of rings (size 3 to 8) (size 9 to 14) (size 15 to 20)
#    0.000    1.333    5.333    2.800    1.867    2.667 
#    0.000    0.667    0.000    5.600    0.000    0.000 
#    0.000    0.000    0.000    0.000    0.000    0.000 
#
# Total GULP energy -371862.796999 kJ/mol
# GULP energy per Si atom -12395.426567 kJ/mol
# Density = 1.977222 g / cm^3
# Si number density = 19.817330 Si / 1000 Ang^3
#
#
#
# Elastic Constant Matrix: (Units=GPa)
#
#
# Indices 1 2 3 4 5 6 
#
# 1 90.1125 42.5460 18.9211 0.0000 0.0000 0.0000
# 2 42.5460 99.9635 37.7812 0.0000 0.0000 0.0000
# 3 18.9211 37.7812 76.9083 0.0000 0.0000 0.0000
# 4 0.0000 0.0000 0.0000 12.4137 0.0000 0.0000
# 5 0.0000 0.0000 0.0000 0.0000 41.3630 0.0000
# 6 0.0000 0.0000 0.0000 0.0000 0.0000 19.5323
#
#
#
# Elastic Compliance Matrix: (Units=1/GPa)
#
#
# Indices 1 2 3 4 5 6 
#
# 1 0.013913 -0.005683 -0.000631 0.000000 0.000000 0.000000
# 2 -0.005683 0.014606 -0.005777 0.000000 0.000000 0.000000
# 3 -0.000631 -0.005777 0.015996 0.000000 0.000000 0.000000
# 4 0.000000 0.000000 0.000000 0.080556 0.000000 0.000000
# 5 0.000000 0.000000 0.000000 0.000000 0.024176 0.000000
# 6 0.000000 0.000000 0.000000 0.000000 0.000000 0.051197
#
#
# Mechanical properties :
#
#
# Convention : Reuss Voigt Hill
#
# Bulk Modulus (GPa) = 49.18284 51.72008 50.45146
# Shear Modulus (GPa) = 21.60725 25.84421 23.72573
#
# Velocity S-wave (km/s) = 3.30558 3.61518 3.46384
# Velocity P-wave (km/s) = 6.28022 6.60160 6.44291
#
# Compressibility (1/GPa) = 0.02033230
#
# Stress axis : x y z
#
# Youngs Moduli (GPa) = 71.87545 68.46575 62.51681
#
# Poissons Ratio (x) = 0.38909 0.03945
# Poissons Ratio (y) = 0.40847 0.36116
# Poissons Ratio (z) = 0.04536 0.39552
#
# Static dielectric constant tensor:
#      x y z
#    x 4.236370 0.000000 0.000000 
#    y 0.000000 3.353260 0.000000 
#    z 0.000000 0.000000 3.802790 
# 
# 
# High freq. dielectric constant tensor:
#      x y z
#    x 1.782280 0.000000 0.000000 
#    y 0.000000 1.730520 0.000000 
#    z 0.000000 0.000000 1.792480 
# 
# From -- ./inp_files/4776.got.cif
#   From: 2010.03.12/outbox.cif.g09.slc.cpg/sg27_3_cif.got.tgz:4776.got - 2010.04.14 03:36:05.
