data_PCOD8167643
_publ_section_title
;
Structure prediction by ZEFSAII (Michael W. Deem and Ramdas Pophale) SiO2 
 PCOD8167643
Probable space group: P M C 21
;
_chemical_formula_sum "Si O2"
_cell_formula_units_Z 32
_cell_length_a 9.038681
_cell_length_b 11.675048
_cell_length_c 14.344632
_cell_angle_alpha 90.000000
_cell_angle_beta 90.000000
_cell_angle_gamma 90.000000
_cell_volume 1513.746476
_symmetry_space_group_name_H-M "P M C 21"
_symmetry_group_IT_number 26
_symmetry_cell_setting 'orthorhombic'
loop_
_space_group_symop_operation_xyz
x,y,z
-x,-y,1/2+z
-x,y,z
x,-y,1/2+z
loop_
_atom_site_type_symbol
_atom_site_label
_atom_site_fract_x
_atom_site_fract_y
_atom_site_fract_z
Si Si1 0.325237 0.177367 0.324040
Si Si2 0.334514 0.688424 0.116692
Si Si3 0.175819 0.022192 0.183334
Si Si4 0.170496 0.208848 0.774026
Si Si5 0.670363 0.916800 0.016009
Si Si6 0.330328 0.565480 0.608817
Si Si7 0.175943 0.589912 0.806207
Si Si8 0.171728 0.372679 0.931364
O O1 0.500000 0.197011 0.312170
O O2 0.293528 0.082707 0.405515
O O3 0.248462 0.297043 0.351623
O O4 0.254754 0.133138 0.226966
O O5 0.500000 0.707001 0.153497
O O6 0.232743 0.692906 0.207316
O O7 0.292268 0.786006 0.043376
O O8 0.315910 0.564337 0.070485
O O9 0.234810 0.915779 0.247012
O O10 0.227754 0.003402 0.076033
O O11 0.000000 0.039525 0.185298
O O12 0.201827 0.251463 0.878824
O O13 0.000000 0.203055 0.751692
O O14 0.500000 0.948817 0.035504
O O15 0.500000 0.600898 0.627664
O O16 0.238054 0.579607 0.702204
O O17 0.264021 0.641651 0.525886
O O18 0.222743 0.479937 0.867732
O O19 0.000000 0.603000 0.801997
O O20 0.000000 0.386721 0.956598
#
# Coordination Sequence:
#
# PCOD8167643 Si02
#       8
#     4   4   4   4   4   4   4   4
#     4  11  23  41  63  87 122 160 200 249 301 361
#     4   9  17  31  54  82 112 146 189 239 288 341
#     4  10  21  38  62  89 117 152 198 250 299 353
#     4   9  18  35  57  81 110 145 189 239 289 341
#     4   9  19  37  61  88 116 154 199 247 300 352
#     4  11  22  35  55  86 122 160 198 240 296 359
#     4  11  23  40  62  88 122 161 202 249 300 356
#     4  10  21  37  58  85 119 158 197 241 295 357
#
# _framework density 21.139603999999999
#
# number of rings (size 3 to 8) (size 9 to 14) (size 15 to 20)
#    0.000    2.000    1.250    2.250    0.000    4.500 
#    2.250    2.500    0.000    0.000    0.000    0.000 
#    0.000    0.000    0.000    0.000    0.000    0.000 
#
# Total GULP energy -396696.784813 kJ/mol
# GULP energy per Si atom -12396.774525 kJ/mol
# Density = 2.109149 g / cm^3
# Si number density = 21.139604 Si / 1000 Ang^3
#
#
#
# Elastic Constant Matrix: (Units=GPa)
#
#
# Indices 1 2 3 4 5 6 
#
# 1 59.6801 12.5452 29.9523 0.0000 0.0000 0.0000
# 2 12.5452 31.8514 -1.6693 0.0000 0.0000 0.0000
# 3 29.9523 -1.6693 85.2919 0.0000 0.0000 0.0000
# 4 0.0000 0.0000 0.0000 26.7455 0.0000 0.0000
# 5 0.0000 0.0000 0.0000 0.0000 34.3223 0.0000
# 6 0.0000 0.0000 0.0000 0.0000 0.0000 27.7692
#
#
#
# Elastic Compliance Matrix: (Units=1/GPa)
#
#
# Indices 1 2 3 4 5 6 
#
# 1 0.022861 -0.009435 -0.008213 0.000000 0.000000 0.000000
# 2 -0.009435 0.035322 0.004004 0.000000 0.000000 0.000000
# 3 -0.008213 0.004004 0.014687 0.000000 0.000000 0.000000
# 4 0.000000 0.000000 0.000000 0.037389 0.000000 0.000000
# 5 0.000000 0.000000 0.000000 0.000000 0.029136 0.000000
# 6 0.000000 0.000000 0.000000 0.000000 0.000000 0.036011
#
#
# Mechanical properties :
#
#
# Convention : Reuss Voigt Hill
#
# Bulk Modulus (GPa) = 21.93768 28.71996 25.32882
# Shear Modulus (GPa) = 22.94774 26.83376 24.89075
#
# Velocity S-wave (km/s) = 3.29832 3.56667 3.43512
# Velocity P-wave (km/s) = 4.99052 5.52964 5.26698
#
# Compressibility (1/GPa) = 0.04558367
#
# Stress axis : x y z
#
# Youngs Moduli (GPa) = 43.74239 28.31130 68.08763
#
# Poissons Ratio (x) = 0.26711 0.55919
# Poissons Ratio (y) = 0.41269 -0.27266
# Poissons Ratio (z) = 0.35925 -0.11337
#
# Static dielectric constant tensor:
#      x y z
#    x 3.724180 0.000000 0.000000 
#    y 0.000000 3.827180 0.000000 
#    z 0.000000 0.000000 3.769050 
# 
# 
# High freq. dielectric constant tensor:
#      x y z
#    x 1.825950 0.000000 0.000000 
#    y 0.000000 1.819120 0.000000 
#    z 0.000000 0.000000 1.825480 
# 
# From -- ./inp_files/4247.got.cif
#   From: 2010.03.12/outbox.cif.g09.slc.cpg/sg26_3_cif.got.tgz:4247.got - 2010.04.14 03:33:09.
