data_PCOD8167101
_publ_section_title
;
Structure prediction by ZEFSAII (Michael W. Deem and Ramdas Pophale) SiO2 
 PCOD8167101
Probable space group: P M C 21
;
_chemical_formula_sum "Si O2"
_cell_formula_units_Z 32
_cell_length_a 8.884289
_cell_length_b 21.097732
_cell_length_c 9.653207
_cell_angle_alpha 90.000000
_cell_angle_beta 90.000000
_cell_angle_gamma 90.000000
_cell_volume 1809.381176
_symmetry_space_group_name_H-M "P M C 21"
_symmetry_group_IT_number 26
_symmetry_cell_setting 'orthorhombic'
loop_
_space_group_symop_operation_xyz
x,y,z
-x,-y,1/2+z
-x,y,z
x,-y,1/2+z
loop_
_atom_site_type_symbol
_atom_site_label
_atom_site_fract_x
_atom_site_fract_y
_atom_site_fract_z
Si Si1 0.825471 0.765596 0.743640
Si Si2 0.328750 0.632687 0.735859
Si Si3 0.674654 0.858154 0.537469
Si Si4 0.670272 0.453170 0.997112
Si Si5 0.673833 0.965136 0.756929
Si Si6 0.827826 0.873092 0.956172
Si Si7 0.822643 0.491730 0.253859
Si Si8 0.174283 0.098560 0.763759
O O1 0.742130 0.699964 0.767196
O O2 0.763280 0.800756 0.608134
O O3 0.000000 0.752327 0.719323
O O4 0.794349 0.806533 0.881424
O O5 0.500000 0.631917 0.790219
O O6 0.324303 0.616477 0.569789
O O7 0.234396 0.576895 0.813211
O O8 0.500000 0.840255 0.537487
O O9 0.703970 0.923185 0.620530
O O10 0.730594 0.866222 0.381106
O O11 0.500000 0.474243 0.964807
O O12 0.746367 0.503517 0.103997
O O13 0.766750 0.452867 0.856506
O O14 0.500000 0.984980 0.771102
O O15 0.775864 0.026489 0.743216
O O16 0.719040 0.926785 0.894570
O O17 0.796747 0.864785 0.119347
O O18 0.000000 0.894198 0.928798
O O19 0.000000 0.493277 0.238573
O O20 0.000000 0.099779 0.806410
#
# Coordination Sequence:
#
# PCOD8167101 Si02
#       8
#     4   4   4   4   4   4   4   4
#     4  10  19  35  57  76  98 130 175 217 251 299
#     4   9  19  33  54  78 106 140 174 210 255 307
#     4  10  21  35  52  74 101 132 168 209 255 307
#     4   9  18  32  51  77 111 143 170 208 258 307
#     4  10  20  33  50  74  99 128 166 206 251 309
#     4   9  20  35  52  74  99 131 166 208 257 303
#     4  10  18  30  52  81 109 138 175 213 253 300
#     4  11  21  33  50  72 101 130 162 207 260 310
#
# _framework density 17.685604000000001
#
# number of rings (size 3 to 8) (size 9 to 14) (size 15 to 20)
#    0.750    1.500    0.000    3.750    0.000    5.000 
#    0.000    0.000    2.750    0.000    0.000    0.000 
#    0.000    0.000    0.000    0.000    0.000    0.000 
#
# Total GULP energy -396696.562727 kJ/mol
# GULP energy per Si atom -12396.767585 kJ/mol
# Density = 1.764535 g / cm^3
# Si number density = 17.685604 Si / 1000 Ang^3
#
#
#
# Elastic Constant Matrix: (Units=GPa)
#
#
# Indices 1 2 3 4 5 6 
#
# 1 87.4120 10.9212 16.9858 0.0000 0.0000 0.0000
# 2 10.9212 40.6301 -0.4050 0.0000 0.0000 0.0000
# 3 16.9858 -0.4050 73.4058 0.0000 0.0000 0.0000
# 4 0.0000 0.0000 0.0000 12.1563 0.0000 0.0000
# 5 0.0000 0.0000 0.0000 0.0000 28.2958 0.0000
# 6 0.0000 0.0000 0.0000 0.0000 0.0000 31.1563
#
#
#
# Elastic Compliance Matrix: (Units=1/GPa)
#
#
# Indices 1 2 3 4 5 6 
#
# 1 0.012423 -0.003368 -0.002893 0.000000 0.000000 0.000000
# 2 -0.003368 0.025527 0.000920 0.000000 0.000000 0.000000
# 3 -0.002893 0.000920 0.014297 0.000000 0.000000 0.000000
# 4 0.000000 0.000000 0.000000 0.082262 0.000000 0.000000
# 5 0.000000 0.000000 0.000000 0.000000 0.035341 0.000000
# 6 0.000000 0.000000 0.000000 0.000000 0.000000 0.032096
#
#
# Mechanical properties :
#
#
# Convention : Reuss Voigt Hill
#
# Bulk Modulus (GPa) = 24.05868 28.49467 26.27668
# Shear Modulus (GPa) = 22.07662 25.91805 23.99734
#
# Velocity S-wave (km/s) = 3.53694 3.83232 3.68759
# Velocity P-wave (km/s) = 5.50572 5.97738 5.74639
#
# Compressibility (1/GPa) = 0.04156504
#
# Stress axis : x y z
#
# Youngs Moduli (GPa) = 80.49517 39.17450 69.94243
#
# Poissons Ratio (x) = 0.13194 0.20236
# Poissons Ratio (y) = 0.27112 -0.06436
# Poissons Ratio (z) = 0.23289 -0.03605
#
# Static dielectric constant tensor:
#      x y z
#    x 3.371180 0.000000 0.000000 
#    y 0.000000 2.985670 0.000000 
#    z 0.000000 0.000000 3.209210 
# 
# 
# High freq. dielectric constant tensor:
#      x y z
#    x 1.702830 0.000000 0.000000 
#    y 0.000000 1.652360 0.000000 
#    z 0.000000 0.000000 1.675900 
# 
# From -- ./inp_files/1609.got.cif
#   From: 2010.03.12/outbox.cif.g09.slc.cpg/sg26_1_cif.got.tgz:1609.got - 2010.04.14 03:33:09.
