data_PCOD8167695
_publ_section_title
;
Structure prediction by ZEFSAII (Michael W. Deem and Ramdas Pophale) SiO2 
 PCOD8167695
Probable space group: P M C 21
;
_chemical_formula_sum "Si O2"
_cell_formula_units_Z 32
_cell_length_a 9.116321
_cell_length_b 15.042257
_cell_length_c 11.800644
_cell_angle_alpha 90.000000
_cell_angle_beta 90.000000
_cell_angle_gamma 90.000000
_cell_volume 1618.222824
_symmetry_space_group_name_H-M "P M C 21"
_symmetry_group_IT_number 26
_symmetry_cell_setting 'orthorhombic'
loop_
_space_group_symop_operation_xyz
x,y,z
-x,-y,1/2+z
-x,y,z
x,-y,1/2+z
loop_
_atom_site_type_symbol
_atom_site_label
_atom_site_fract_x
_atom_site_fract_y
_atom_site_fract_z
Si Si1 0.825740 0.255117 0.493190
Si Si2 0.164713 0.644118 0.346412
Si Si3 0.828543 0.080825 0.626859
Si Si4 0.329748 0.750264 0.755663
Si Si5 0.334077 0.608412 0.569529
Si Si6 0.163857 0.844995 0.362655
Si Si7 0.671119 0.900103 0.577617
Si Si8 0.331987 0.405751 0.633883
O O1 0.772292 0.166054 0.556704
O O2 0.772706 0.250619 0.364462
O O3 0.758054 0.341063 0.552865
O O4 0.000000 0.264969 0.496833
O O5 0.221960 0.637262 0.473527
O O6 0.165334 0.746768 0.309390
O O7 0.267604 0.590827 0.260512
O O8 0.000000 0.605275 0.340575
O O9 0.791567 0.090355 0.759843
O O10 0.000000 0.068067 0.606606
O O11 0.747992 0.994523 0.582206
O O12 0.500000 0.751824 0.792368
O O13 0.294346 0.661800 0.683602
O O14 0.288454 0.837900 0.683623
O O15 0.500000 0.633674 0.533060
O O16 0.318219 0.504115 0.586139
O O17 0.279433 0.851469 0.463178
O O18 0.000000 0.867829 0.407421
O O19 0.500000 0.916572 0.570322
O O20 0.500000 0.373968 0.638573
#
# Coordination Sequence:
#
# PCOD8167695 Si02
#       8
#     4   4   4   4   4   4   4   4
#     4  11  24  43  64  90 124 164 209 255 306 364
#     4  11  22  40  66  94 123 155 207 264 306 358
#     4  10  23  43  63  87 123 164 203 249 308 371
#     4  10  23  43  62  88 126 164 203 251 306 369
#     4  10  23  43  64  89 124 166 207 246 306 374
#     4  10  21  41  65  88 120 160 202 250 308 367
#     4  11  24  40  63  94 123 156 205 257 302 360
#     4  11  24  41  65  92 125 167 206 250 308 371
#
# _framework density 19.77478
#
# number of rings (size 3 to 8) (size 9 to 14) (size 15 to 20)
#    0.000    1.500    2.500    1.500    3.500    4.500 
#    0.000    0.000    0.000    0.000    0.000    0.000 
#    0.000    0.000    0.000    0.000    0.000    0.000 
#
# Total GULP energy -396945.860788 kJ/mol
# GULP energy per Si atom -12404.558150 kJ/mol
# Density = 1.972977 g / cm^3
# Si number density = 19.774780 Si / 1000 Ang^3
#
#
#
# Elastic Constant Matrix: (Units=GPa)
#
#
# Indices 1 2 3 4 5 6 
#
# 1 89.7937 45.1815 51.9080 0.0000 0.0000 0.0000
# 2 45.1815 94.9287 31.8340 0.0000 0.0000 0.0000
# 3 51.9080 31.8340 99.8186 0.0000 0.0000 0.0000
# 4 0.0000 0.0000 0.0000 24.0236 0.0000 0.0000
# 5 0.0000 0.0000 0.0000 0.0000 40.0445 0.0000
# 6 0.0000 0.0000 0.0000 0.0000 0.0000 29.9244
#
#
#
# Elastic Compliance Matrix: (Units=1/GPa)
#
#
# Indices 1 2 3 4 5 6 
#
# 1 0.018820 -0.006355 -0.007760 0.000000 0.000000 0.000000
# 2 -0.006355 0.013942 -0.001141 0.000000 0.000000 0.000000
# 3 -0.007760 -0.001141 0.014418 0.000000 0.000000 0.000000
# 4 0.000000 0.000000 0.000000 0.041626 0.000000 0.000000
# 5 0.000000 0.000000 0.000000 0.000000 0.024972 0.000000
# 6 0.000000 0.000000 0.000000 0.000000 0.000000 0.033418
#
#
# Mechanical properties :
#
#
# Convention : Reuss Voigt Hill
#
# Bulk Modulus (GPa) = 60.00209 60.26532 60.13370
# Shear Modulus (GPa) = 27.28292 29.17299 28.22796
#
# Velocity S-wave (km/s) = 3.71844 3.84508 3.78229
# Velocity P-wave (km/s) = 6.98887 7.08907 7.03915
#
# Compressibility (1/GPa) = 0.01666609
#
# Stress axis : x y z
#
# Youngs Moduli (GPa) = 53.13356 71.72688 69.35908
#
# Poissons Ratio (x) = 0.45584 0.53825
# Poissons Ratio (y) = 0.33768 0.07917
# Poissons Ratio (z) = 0.41233 0.08187
#
# Static dielectric constant tensor:
#      x y z
#    x 3.638790 0.000000 0.000000 
#    y 0.000000 3.658970 0.000000 
#    z 0.000000 0.000000 3.551970 
# 
# 
# High freq. dielectric constant tensor:
#      x y z
#    x 1.774460 0.000000 0.000000 
#    y 0.000000 1.778290 0.000000 
#    z 0.000000 0.000000 1.777850 
# 
# From -- ./inp_files/2917.got.cif
#   From: 2010.03.12/outbox.cif.g09.slc.cpg/sg26_2_cif.got.tgz:2917.got - 2010.04.14 03:33:09.
