data_PCOD8167782
_publ_section_title
;
Structure prediction by ZEFSAII (Michael W. Deem and Ramdas Pophale) SiO2 
 PCOD8167782
Probable space group: P C C 2
;
_chemical_formula_sum "Si O2"
_cell_formula_units_Z 32
_cell_length_a 38.089335
_cell_length_b 7.561476
_cell_length_c 5.278196
_cell_angle_alpha 90.000000
_cell_angle_beta 90.000000
_cell_angle_gamma 90.000000
_cell_volume 1520.181635
_symmetry_space_group_name_H-M "P C C 2"
_symmetry_group_IT_number 27
_symmetry_cell_setting 'orthorhombic'
loop_
_space_group_symop_operation_xyz
x,y,z
-x,-y,z
-x,y,1/2+z
x,-y,1/2+z
loop_
_atom_site_type_symbol
_atom_site_label
_atom_site_fract_x
_atom_site_fract_y
_atom_site_fract_z
Si Si1 0.014822 0.805366 0.032060
Si Si2 0.485148 0.800596 0.614776
Si Si3 0.126870 0.208829 0.051617
Si Si4 0.097455 0.809962 0.051906
Si Si5 0.201627 0.889585 0.606512
Si Si6 0.583492 0.385581 0.560021
Si Si7 0.338223 0.392444 0.107103
Si Si8 0.721089 0.888294 0.093632
O O1 0.055979 0.821871 0.074969
O O2 0.995928 0.706355 0.269339
O O3 0.000000 0.000000 0.981113
O O4 0.503096 0.703804 0.374250
O O5 0.443029 0.781349 0.587466
O O6 0.500000 0.000000 0.635123
O O7 0.108512 0.295795 0.297777
O O8 0.168880 0.241619 0.064939
O O9 0.115882 0.001764 0.041489
O O10 0.112159 0.297662 0.794940
O O11 0.239994 0.798746 0.573562
O O12 0.198297 0.039883 0.392411
O O13 0.577192 0.475983 0.287558
O O14 0.622961 0.307964 0.575388
O O15 0.333675 0.455384 0.396253
O O16 0.308659 0.252795 0.043661
O O17 0.716576 0.967747 0.373139
#
# Coordination Sequence:
#
# PCOD8167782 Si02
#       8
#     4   4   4   4   4   4   4   4
#     4  10  16  22  26  35  53  79 118 179 235 270
#     4  10  21  37  53  80 114 145 179 224 278 317
#     4  10  14  22  31  47  65  95 129 167 223 290
#     4  10  16  20  31  42  59  90 136 168 232 292
#     4  10  16  27  41  61  91 116 143 191 246 304
#     4  10  21  37  59  83 107 144 188 225 261 316
#     4  10  21  40  61  83 115 150 187 226 273 328
#     4  10  21  35  55  85 112 139 178 222 277 327
#
# _framework density 21.050117
#
# number of rings (size 3 to 8) (size 9 to 14) (size 15 to 20)
#    0.000    2.000    2.500    5.250    0.000    1.500 
#    4.500    0.000    0.000    0.000    0.000    0.000 
#    0.000    0.000    0.000    0.000    0.000    0.000 
#
# Total GULP energy -396429.840481 kJ/mol
# GULP energy per Si atom -12388.432515 kJ/mol
# Density = 2.100221 g / cm^3
# Si number density = 21.050117 Si / 1000 Ang^3
#
#
#
# Elastic Constant Matrix: (Units=GPa)
#
#
# Indices 1 2 3 4 5 6 
#
# 1 175.1685 29.6730 19.3565 0.0000 0.0000 0.0000
# 2 29.6730 17.7725 -3.6147 0.0000 0.0000 0.0000
# 3 19.3565 -3.6147 166.6931 0.0000 0.0000 0.0000
# 4 0.0000 0.0000 0.0000 3.3709 0.0000 0.0000
# 5 0.0000 0.0000 0.0000 0.0000 35.3144 0.0000
# 6 0.0000 0.0000 0.0000 0.0000 0.0000 1.7256
#
#
#
# Elastic Compliance Matrix: (Units=1/GPa)
#
#
# Indices 1 2 3 4 5 6 
#
# 1 0.008214 -0.013970 -0.001257 0.000000 0.000000 0.000000
# 2 -0.013970 0.080275 0.003363 0.000000 0.000000 0.000000
# 3 -0.001257 0.003363 0.006218 0.000000 0.000000 0.000000
# 4 0.000000 0.000000 0.000000 0.296659 0.000000 0.000000
# 5 0.000000 0.000000 0.000000 0.000000 0.028317 0.000000
# 6 0.000000 0.000000 0.000000 0.000000 0.000000 0.579515
#
#
# Mechanical properties :
#
#
# Convention : Reuss Voigt Hill
#
# Bulk Modulus (GPa) = 14.08854 50.05153 32.07004
# Shear Modulus (GPa) = 4.77744 29.03013 16.90378
#
# Velocity S-wave (km/s) = 1.50814 3.71765 2.83685
# Velocity P-wave (km/s) = 3.12090 6.50052 5.09886
#
# Compressibility (1/GPa) = 0.07097965
#
# Stress axis : x y z
#
# Youngs Moduli (GPa) = 121.74133 12.45715 160.82572
#
# Poissons Ratio (x) = 0.17403 0.20212
# Poissons Ratio (y) = 1.70072 -0.54085
# Poissons Ratio (z) = 0.15300 -0.04189
#
# Static dielectric constant tensor:
#      x y z
#    x 4.149770 0.000000 0.000000 
#    y 0.000000 2.851680 0.000000 
#    z 0.000000 0.000000 5.699020 
# 
# 
# High freq. dielectric constant tensor:
#      x y z
#    x 1.845030 0.000000 0.000000 
#    y 0.000000 1.731220 0.000000 
#    z 0.000000 0.000000 1.872490 
# 
# From -- ./inp_files/741.got.cif
#   From: 2010.03.12/outbox.cif.g09.slc.cpg/sg27_1_cif.got.tgz:741.got - 2010.04.14 03:36:05.
