data_PCOD8167074
_publ_section_title
;
Structure prediction by ZEFSAII (Michael W. Deem and Ramdas Pophale) SiO2 
 PCOD8167074
Probable space group: P M C 21
;
_chemical_formula_sum "Si O2"
_cell_formula_units_Z 32
_cell_length_a 8.723895
_cell_length_b 10.548420
_cell_length_c 18.871782
_cell_angle_alpha 90.000000
_cell_angle_beta 90.000000
_cell_angle_gamma 90.000000
_cell_volume 1736.643817
_symmetry_space_group_name_H-M "P M C 21"
_symmetry_group_IT_number 26
_symmetry_cell_setting 'orthorhombic'
loop_
_space_group_symop_operation_xyz
x,y,z
-x,-y,1/2+z
-x,y,z
x,-y,1/2+z
loop_
_atom_site_type_symbol
_atom_site_label
_atom_site_fract_x
_atom_site_fract_y
_atom_site_fract_z
Si Si1 0.682509 0.500000 0.217280
Si Si2 0.317895 0.259174 0.304364
Si Si3 0.821901 0.000000 0.304206
Si Si4 0.683693 0.500000 0.057870
Si Si5 0.323809 0.000000 0.952863
Si Si6 0.317895 0.740826 0.304364
Si Si7 0.322533 0.726735 0.464916
Si Si8 0.677467 0.726735 0.964915
O O1 0.500000 0.500000 0.217917
O O2 0.743942 0.375035 0.257097
O O3 0.748253 0.500000 0.137560
O O4 0.743942 0.624965 0.257097
O O5 0.500000 0.250244 0.303086
O O6 0.256938 0.280869 0.384876
O O7 0.252115 0.128129 0.271846
O O8 0.791998 1.000000 0.387865
O O9 0.747885 0.871871 0.271846
O O10 0.000000 0.000000 0.286965
O O11 0.500000 0.500000 0.060412
O O12 0.752097 0.376525 0.017252
O O13 0.752097 0.623475 0.017252
O O14 0.500000 0.000000 0.923534
O O15 0.296059 0.130305 0.996718
O O16 0.296059 0.869695 0.996718
O O17 0.500000 0.749756 0.303086
O O18 0.256938 0.719131 0.384876
O O19 0.500000 0.692540 0.460818
O O20 0.500000 0.692540 0.960817
#
# Coordination Sequence:
#
# PCOD8167074 Si02
#       8
#     4   4   4   4   4   4   4   4
#     4   9  17  27  42  65  94 120 148 185 224 260
#     4   9  16  29  47  68  92 120 147 178 223 274
#     4  10  18  28  45  70  92 114 148 192 226 256
#     4   9  15  23  37  65  94 112 138 183 222 254
#     4   8  14  26  43  64  88 116 144 176 220 270
#     4   9  16  29  47  68  92 120 147 178 223 274
#     4   8  13  22  39  60  86 114 140 170 214 263
#     4   8  13  22  39  60  86 114 140 170 214 263
#
# _framework density 18.426345000000001
#
# number of rings (size 3 to 8) (size 9 to 14) (size 15 to 20)
#    0.000    3.250    0.000    3.375    0.000    3.000 
#    0.000    1.875    0.000    6.000    0.000   21.000 
#    0.000    0.000    0.000    0.000    0.000    0.000 
#
# Total GULP energy -396439.751407 kJ/mol
# GULP energy per Si atom -12388.742231 kJ/mol
# Density = 1.838441 g / cm^3
# Si number density = 18.426345 Si / 1000 Ang^3
#
#
#
# Elastic Constant Matrix: (Units=GPa)
#
#
# Indices 1 2 3 4 5 6 
#
# 1 25.7383 21.1012 9.6528 0.0000 0.0000 0.0000
# 2 21.1012 223.4182 89.2795 0.0000 0.0000 0.0000
# 3 9.6528 89.2795 98.9431 0.0000 0.0000 0.0000
# 4 0.0000 0.0000 0.0000 9.3147 0.0000 0.0000
# 5 0.0000 0.0000 0.0000 0.0000 4.1916 0.0000
# 6 0.0000 0.0000 0.0000 0.0000 0.0000 5.3993
#
#
#
# Elastic Compliance Matrix: (Units=1/GPa)
#
#
# Indices 1 2 3 4 5 6 
#
# 1 0.042155 -0.003656 -0.000813 0.000000 0.000000 0.000000
# 2 -0.003656 0.007317 -0.006246 0.000000 0.000000 0.000000
# 3 -0.000813 -0.006246 0.015822 0.000000 0.000000 0.000000
# 4 0.000000 0.000000 0.000000 0.107357 0.000000 0.000000
# 5 0.000000 0.000000 0.000000 0.000000 0.238573 0.000000
# 6 0.000000 0.000000 0.000000 0.000000 0.000000 0.185208
#
#
# Mechanical properties :
#
#
# Convention : Reuss Voigt Hill
#
# Bulk Modulus (GPa) = 22.79814 65.35184 44.07499
# Shear Modulus (GPa) = 7.90533 18.98552 13.44543
#
# Velocity S-wave (km/s) = 2.07353 3.21338 2.70420
# Velocity P-wave (km/s) = 4.25819 7.02220 5.80704
#
# Compressibility (1/GPa) = 0.04386324
#
# Stress axis : x y z
#
# Youngs Moduli (GPa) = 23.72185 136.66649 63.20360
#
# Poissons Ratio (x) = 0.49971 0.05141
# Poissons Ratio (y) = 0.08674 0.39475
# Poissons Ratio (z) = 0.01929 0.85358
#
# Static dielectric constant tensor:
#      x y z
#    x 2.713630 0.000000 0.000000 
#    y 0.000000 3.966630 0.000000 
#    z 0.000000 0.000000 3.236740 
# 
# 
# High freq. dielectric constant tensor:
#      x y z
#    x 1.647810 0.000000 0.000000 
#    y 0.000000 1.745680 0.000000 
#    z 0.000000 0.000000 1.671110 
# 
# From -- ./inp_files/5088.got.cif
#   From: 2010.03.12/outbox.cif.g09.slc.cpg/sg26_3_cif.got.tgz:5088.got - 2010.04.14 03:33:09.
