data_PCOD8167100
_publ_section_title
;
Structure prediction by ZEFSAII (Michael W. Deem and Ramdas Pophale) SiO2 
 PCOD8167100
Probable space group: P M C 21
;
_chemical_formula_sum "Si O2"
_cell_formula_units_Z 32
_cell_length_a 8.791402
_cell_length_b 21.365078
_cell_length_c 9.795144
_cell_angle_alpha 90.000000
_cell_angle_beta 90.000000
_cell_angle_gamma 90.000000
_cell_volume 1839.811999
_symmetry_space_group_name_H-M "P M C 21"
_symmetry_group_IT_number 26
_symmetry_cell_setting 'orthorhombic'
loop_
_space_group_symop_operation_xyz
x,y,z
-x,-y,1/2+z
-x,y,z
x,-y,1/2+z
loop_
_atom_site_type_symbol
_atom_site_label
_atom_site_fract_x
_atom_site_fract_y
_atom_site_fract_z
Si Si1 0.679327 0.768989 0.775790
Si Si2 0.173301 0.635801 0.753426
Si Si3 0.678801 0.863977 0.551332
Si Si4 0.827969 0.455477 0.028394
Si Si5 0.679412 0.959444 0.775096
Si Si6 0.820122 0.866267 0.976528
Si Si7 0.679412 0.487768 0.286777
Si Si8 0.319892 0.103690 0.756244
O O1 0.500000 0.772836 0.798713
O O2 0.732054 0.698022 0.774693
O O3 0.725198 0.800460 0.630557
O O4 0.758407 0.805128 0.899460
O O5 0.177025 0.614732 0.592856
O O6 0.253197 0.579460 0.839097
O O7 0.000000 0.645130 0.803244
O O8 0.500000 0.870852 0.538283
O O9 0.737558 0.923165 0.639851
O O10 0.743116 0.865235 0.397120
O O11 0.749892 0.502952 0.137784
O O12 0.000000 0.477204 0.999940
O O13 0.731991 0.457607 0.889322
O O14 0.500000 0.950986 0.796769
O O15 0.758141 0.929866 0.908278
O O16 0.726553 0.031038 0.760495
O O17 0.000000 0.865809 0.971035
O O18 0.764824 0.862362 0.132585
O O19 0.500000 0.484874 0.276702
O O20 0.500000 0.111971 0.737515
#
# Coordination Sequence:
#
# PCOD8167100 Si02
#       8
#     4   4   4   4   4   4   4   4
#     4  10  19  35  56  74  96 130 179 220 249 297
#     4   9  19  33  54  78 105 138 172 210 260 309
#     4   8  16  29  49  75  97 123 163 213 257 295
#     4   9  18  32  51  77 111 142 169 207 258 306
#     4   9  17  32  53  75  95 126 170 209 252 309
#     4  11  22  33  48  73 105 135 165 205 256 310
#     4  10  18  30  52  81 109 138 174 210 249 301
#     4  10  18  32  53  73  98 128 164 210 259 307
#
# _framework density 17.393080999999999
#
# number of rings (size 3 to 8) (size 9 to 14) (size 15 to 20)
#    0.750    1.750    0.000    4.500    0.000    2.500 
#    0.000    3.125    2.750    0.000    0.000    0.000 
#    0.000    0.000    0.000    0.000    0.000    0.000 
#
# Total GULP energy -396583.127271 kJ/mol
# GULP energy per Si atom -12393.222727 kJ/mol
# Density = 1.735349 g / cm^3
# Si number density = 17.393081 Si / 1000 Ang^3
#
#
#
# Elastic Constant Matrix: (Units=GPa)
#
#
# Indices 1 2 3 4 5 6 
#
# 1 79.7232 14.9549 24.1539 0.0000 0.0000 0.0000
# 2 14.9549 46.1997 5.0383 0.0000 0.0000 0.0000
# 3 24.1539 5.0383 91.2260 0.0000 0.0000 0.0000
# 4 0.0000 0.0000 0.0000 14.6604 0.0000 0.0000
# 5 0.0000 0.0000 0.0000 0.0000 18.0591 0.0000
# 6 0.0000 0.0000 0.0000 0.0000 0.0000 21.3878
#
#
#
# Elastic Compliance Matrix: (Units=1/GPa)
#
#
# Indices 1 2 3 4 5 6 
#
# 1 0.014433 -0.004281 -0.003585 0.000000 0.000000 0.000000
# 2 -0.004281 0.023046 -0.000139 0.000000 0.000000 0.000000
# 3 -0.003585 -0.000139 0.011919 0.000000 0.000000 0.000000
# 4 0.000000 0.000000 0.000000 0.068211 0.000000 0.000000
# 5 0.000000 0.000000 0.000000 0.000000 0.055374 0.000000
# 6 0.000000 0.000000 0.000000 0.000000 0.000000 0.046756
#
#
# Mechanical properties :
#
#
# Convention : Reuss Voigt Hill
#
# Bulk Modulus (GPa) = 29.95173 33.93811 31.94492
# Shear Modulus (GPa) = 20.25300 22.35491 21.30396
#
# Velocity S-wave (km/s) = 3.41607 3.58896 3.50359
# Velocity P-wave (km/s) = 5.72864 6.06045 5.89688
#
# Compressibility (1/GPa) = 0.03338705
#
# Stress axis : x y z
#
# Youngs Moduli (GPa) = 69.28786 43.39133 83.90211
#
# Poissons Ratio (x) = 0.18575 0.30078
# Poissons Ratio (y) = 0.29661 0.01169
# Poissons Ratio (z) = 0.24839 0.00605
#
# Static dielectric constant tensor:
#      x y z
#    x 3.108400 0.000000 0.000000 
#    y 0.000000 3.009860 0.000000 
#    z 0.000000 0.000000 3.328560 
# 
# 
# High freq. dielectric constant tensor:
#      x y z
#    x 1.669170 0.000000 0.000000 
#    y 0.000000 1.644310 0.000000 
#    z 0.000000 0.000000 1.667640 
# 
# From -- ./inp_files/1610.got.cif
#   From: 2010.03.12/outbox.cif.g09.slc.cpg/sg26_1_cif.got.tgz:1610.got - 2010.04.14 03:33:09.
