data_PCOD8167333
_publ_section_title
;
Structure prediction by ZEFSAII (Michael W. Deem and Ramdas Pophale) SiO2 
 PCOD8167333
Probable space group: P M C 21
;
_chemical_formula_sum "Si O2"
_cell_formula_units_Z 24
_cell_length_a 8.498793
_cell_length_b 13.700700
_cell_length_c 10.068003
_cell_angle_alpha 90.000000
_cell_angle_beta 90.000000
_cell_angle_gamma 90.000000
_cell_volume 1172.312362
_symmetry_space_group_name_H-M "P M C 21"
_symmetry_group_IT_number 26
_symmetry_cell_setting 'orthorhombic'
loop_
_space_group_symop_operation_xyz
x,y,z
-x,-y,1/2+z
-x,y,z
x,-y,1/2+z
loop_
_atom_site_type_symbol
_atom_site_label
_atom_site_fract_x
_atom_site_fract_y
_atom_site_fract_z
Si Si1 0.184590 0.437867 0.251760
Si Si2 0.816713 0.922357 0.609336
Si Si3 0.817075 0.223174 0.881155
Si Si4 0.187188 0.139478 0.604305
Si Si5 0.318041 0.577546 0.470268
Si Si6 0.812346 0.223724 0.329034
O O1 0.271534 0.516732 0.341209
O O2 0.249411 0.330932 0.290983
O O3 0.000000 0.447761 0.276488
O O4 0.220853 0.459501 0.097764
O O5 0.788104 0.874560 0.465832
O O6 0.742155 0.854347 0.724250
O O7 0.000000 0.932874 0.640276
O O8 0.740164 0.030189 0.609870
O O9 0.759196 0.200934 0.732208
O O10 0.715553 0.309375 0.942492
O O11 0.000000 0.254158 0.885726
O O12 0.251030 0.195517 0.474736
O O13 0.000000 0.132043 0.598481
O O14 0.500000 0.563424 0.502191
O O15 0.000000 0.223596 0.322497
#
# Coordination Sequence:
#
# PCOD8167333 Si02
#       6
#     4   4   4   4   4   4
#     4  11  23  42  66  90 118 158 206 254 301 364
#     4   9  15  28  50  82 121 153 190 246 302 346
#     4  10  19  34  57  86 118 156 200 244 297 360
#     4   9  17  27  49  87 123 151 188 246 302 345
#     4  12  26  43  62  89 123 159 199 252 313 369
#     4   9  17  30  50  82 117 149 189 240 293 346
#
# _framework density 20.472359999999998
#
# number of rings (size 3 to 8) (size 9 to 14) (size 15 to 20)
#    0.000    2.000    1.667    3.000    2.333    4.000 
#    0.000    0.000    0.000    1.000    0.000    0.000 
#    0.000    0.000    0.000    0.000    0.000    0.000 
#
# Total GULP energy -297643.859390 kJ/mol
# GULP energy per Si atom -12401.827475 kJ/mol
# Density = 2.042576 g / cm^3
# Si number density = 20.472360 Si / 1000 Ang^3
#
#
#
# Elastic Constant Matrix: (Units=GPa)
#
#
# Indices 1 2 3 4 5 6 
#
# 1 35.4297 16.0820 6.8941 0.0000 0.0000 0.0000
# 2 16.0820 82.4674 24.3458 0.0000 0.0000 0.0000
# 3 6.8941 24.3458 134.4447 0.0000 0.0000 0.0000
# 4 0.0000 0.0000 0.0000 37.5056 0.0000 0.0000
# 5 0.0000 0.0000 0.0000 0.0000 14.2061 0.0000
# 6 0.0000 0.0000 0.0000 0.0000 0.0000 7.5907
#
#
#
# Elastic Compliance Matrix: (Units=1/GPa)
#
#
# Indices 1 2 3 4 5 6 
#
# 1 0.031001 -0.005891 -0.000523 0.000000 0.000000 0.000000
# 2 -0.005891 0.013930 -0.002220 0.000000 0.000000 0.000000
# 3 -0.000523 -0.002220 0.007867 0.000000 0.000000 0.000000
# 4 0.000000 0.000000 0.000000 0.026663 0.000000 0.000000
# 5 0.000000 0.000000 0.000000 0.000000 0.070392 0.000000
# 6 0.000000 0.000000 0.000000 0.000000 0.000000 0.131741
#
#
# Mechanical properties :
#
#
# Convention : Reuss Voigt Hill
#
# Bulk Modulus (GPa) = 28.14597 38.55394 33.34995
# Shear Modulus (GPa) = 16.09240 25.52847 20.81044
#
# Velocity S-wave (km/s) = 2.80671 3.53508 3.19174
# Velocity P-wave (km/s) = 4.92764 5.96116 5.46887
#
# Compressibility (1/GPa) = 0.03552907
#
# Stress axis : x y z
#
# Youngs Moduli (GPa) = 32.25736 71.78577 127.11474
#
# Poissons Ratio (x) = 0.42290 0.06646
# Poissons Ratio (y) = 0.19003 0.28226
# Poissons Ratio (z) = 0.01687 0.15940
#
# Static dielectric constant tensor:
#      x y z
#    x 3.120170 0.000000 0.000000 
#    y 0.000000 3.844880 0.000000 
#    z 0.000000 0.000000 3.918080 
# 
# 
# High freq. dielectric constant tensor:
#      x y z
#    x 1.737250 0.000000 0.000000 
#    y 0.000000 1.810100 0.000000 
#    z 0.000000 0.000000 1.818740 
# 
# From -- ./inp_files/1454.got.cif
#   From: 2010.03.12/outbox.cif.g09.slc.cpg/sg26_1_cif.got.tgz:1454.got - 2010.04.14 03:33:09.
