data_PCOD8167970
_publ_section_title
;
Structure prediction by ZEFSAII (Michael W. Deem and Ramdas Pophale) SiO2 
 PCOD8167970
Probable space group: P M A 2
;
_chemical_formula_sum "Si O2"
_cell_formula_units_Z 28
_cell_length_a 23.899947
_cell_length_b 13.407375
_cell_length_c 5.165436
_cell_angle_alpha 90.000000
_cell_angle_beta 90.000000
_cell_angle_gamma 90.000000
_cell_volume 1655.189336
_symmetry_space_group_name_H-M "P M A 2"
_symmetry_group_IT_number 28
_symmetry_cell_setting 'orthorhombic'
loop_
_space_group_symop_operation_xyz
x,y,z
-x,-y,z
1/2-x,y,z
1/2+x,-y,z
loop_
_atom_site_type_symbol
_atom_site_label
_atom_site_fract_x
_atom_site_fract_y
_atom_site_fract_z
Si Si1 0.463799 0.729695 0.567010
Si Si2 0.370180 0.566475 0.571643
Si Si3 0.561949 0.956413 0.049188
Si Si4 0.629820 0.566474 0.071643
Si Si5 0.250000 0.561042 0.665011
Si Si6 0.250000 0.438959 0.165011
Si Si7 0.938051 0.043586 0.549188
Si Si8 0.536201 0.729695 0.067010
O O1 0.415053 0.651687 0.615973
O O2 0.437815 0.839032 0.596428
O O3 0.488890 0.713382 0.282728
O O4 0.511110 0.713383 0.782728
O O5 0.377909 0.518690 0.288750
O O6 0.308270 0.617746 0.599919
O O7 0.377908 0.481311 0.788750
O O8 0.562185 0.839032 0.096429
O O9 0.500000 0.000000 0.996576
O O10 0.593533 0.013302 0.283596
O O11 0.593533 0.986698 0.783596
O O12 0.691730 0.617746 0.099920
O O13 0.584947 0.651687 0.115973
O O14 0.250000 0.465600 0.469625
O O15 0.250000 0.534401 0.969625
O O16 0.000000 0.000000 0.496576
#
# Coordination Sequence:
#
# PCOD8167970 Si02
#       8
#     4   4   4   4   2   2   4   4
#     4  12  21  30  48  72 100 127 156 187 238 288
#     4  10  21  35  49  70  96 128 160 192 231 274
#     4  10  16  30  46  63  89 121 162 192 217 268
#     4  10  21  35  49  70  96 128 160 192 231 274
#     4   8  16  34  54  64  84 122 168 200 218 262
#     4   8  16  34  54  64  84 122 168 200 218 262
#     4  10  16  30  46  63  89 121 162 192 217 268
#     4  12  21  30  48  72 100 127 156 187 238 288
#
# _framework density 16.916495000000001
#
# number of rings (size 3 to 8) (size 9 to 14) (size 15 to 20)
#    0.000    1.714    5.714    1.714    0.000    3.429 
#    0.000    0.000    0.000    0.000    0.000    2.000 
#    0.000    0.000    0.000    0.000    0.000    0.000 
#
# Total GULP energy -346944.606288 kJ/mol
# GULP energy per Si atom -12390.878796 kJ/mol
# Density = 1.687799 g / cm^3
# Si number density = 16.916495 Si / 1000 Ang^3
#
#
#
# Elastic Constant Matrix: (Units=GPa)
#
#
# Indices 1 2 3 4 5 6 
#
# 1 60.6267 41.7674 8.7131 0.0000 0.0000 0.0000
# 2 41.7674 71.7454 5.7781 0.0000 0.0000 0.0000
# 3 8.7131 5.7781 106.3788 0.0000 0.0000 0.0000
# 4 0.0000 0.0000 0.0000 22.7509 0.0000 0.0000
# 5 0.0000 0.0000 0.0000 0.0000 9.9890 0.0000
# 6 0.0000 0.0000 0.0000 0.0000 0.0000 -1.8404
#
#
#
# Elastic Compliance Matrix: (Units=1/GPa)
#
#
# Indices 1 2 3 4 5 6 
#
# 1 0.027746 -0.016040 -0.001401 0.000000 0.000000 0.000000
# 2 -0.016040 0.023272 0.000050 0.000000 0.000000 0.000000
# 3 -0.001401 0.000050 0.009512 0.000000 0.000000 0.000000
# 4 0.000000 0.000000 0.000000 0.043954 0.000000 0.000000
# 5 0.000000 0.000000 0.000000 0.000000 0.100110 0.000000
# 6 0.000000 0.000000 0.000000 0.000000 0.000000 -0.543362
#
#
# Mechanical properties :
#
#
# Convention : Reuss Voigt Hill
#
# Bulk Modulus (GPa) = 38.83869 39.02980 38.93424
# Shear Modulus (GPa) = -16.92610 18.34605 0.70997
#
# Velocity S-wave (km/s) = -3.16661 3.29676 0.64854
# Velocity P-wave (km/s) = 3.10468 6.13299 4.86069
#
# Compressibility (1/GPa) = 0.02574752
#
# Stress axis : x y z
#
# Youngs Moduli (GPa) = 36.04112 42.97018 105.12536
#
# Poissons Ratio (x) = 0.68924 0.14732
# Poissons Ratio (y) = 0.57809 -0.00523
# Poissons Ratio (z) = 0.05051 -0.00214
#
# Static dielectric constant tensor:
#      x y z
#    x 3.040990 0.000000 0.000000 
#    y 0.000000 2.922950 0.000000 
#    z 0.000000 0.000000 3.928580 
# 
# 
# High freq. dielectric constant tensor:
#      x y z
#    x 1.609480 0.000000 0.000000 
#    y 0.000000 1.624000 0.000000 
#    z 0.000000 0.000000 1.692480 
# 
# From -- ./inp_files/1406.got.cif
#   From: 2010.03.12/outbox.cif.g09.slc.cpg/sg28_1_cif.got.tgz:1406.got - 2010.04.14 03:39:34.
