data_PCOD8167421
_publ_section_title
;
Structure prediction by ZEFSAII (Michael W. Deem and Ramdas Pophale) SiO2 
 PCOD8167421
Probable space group: P M C 21
;
_chemical_formula_sum "Si O2"
_cell_formula_units_Z 12
_cell_length_a 5.341006
_cell_length_b 7.841519
_cell_length_c 13.530316
_cell_angle_alpha 90.000000
_cell_angle_beta 90.000000
_cell_angle_gamma 90.000000
_cell_volume 566.671283
_symmetry_space_group_name_H-M "P M C 21"
_symmetry_group_IT_number 26
_symmetry_cell_setting 'orthorhombic'
loop_
_space_group_symop_operation_xyz
x,y,z
-x,-y,1/2+z
-x,y,z
x,-y,1/2+z
loop_
_atom_site_type_symbol
_atom_site_label
_atom_site_fract_x
_atom_site_fract_y
_atom_site_fract_z
Si Si1 0.500000 0.740549 0.427261
Si Si2 0.500000 0.581637 0.224566
Si Si3 0.000000 0.856721 0.525355
Si Si4 0.000000 0.550341 0.674696
Si Si5 0.500000 0.358111 0.499190
Si Si6 0.000000 0.761760 0.022625
O O1 0.500000 0.725724 0.308793
O O2 0.248562 0.837335 0.459205
O O3 0.500000 0.557410 0.479265
O O4 0.253616 0.461562 0.239629
O O5 0.500000 0.672561 0.118131
O O6 0.000000 0.726747 0.615861
O O7 0.000000 0.048758 0.568399
O O8 0.000000 0.385014 0.604758
O O9 0.250151 0.267889 0.455981
#
# Coordination Sequence:
#
# PCOD8167421 Si02
#       6
#     2   2   2   2   2   2
#     4  12  21  37  65  89 117 160 197 245 297 345
#     4  10  20  35  64  83 119 158 195 241 294 351
#     4  12  21  37  65  88 113 157 202 241 296 351
#     4  10  19  40  59  85 116 157 196 236 301 348
#     4  10  19  40  59  82 120 158 190 236 305 340
#     4  10  20  35  64  81 115 156 190 239 291 347
#
# _framework density 21.176297999999999
#
# number of rings (size 3 to 8) (size 9 to 14) (size 15 to 20)
#    0.000    1.333    6.667    2.000    0.000    0.000 
#    0.000    0.000   44.000    0.000    0.000    0.000 
#    0.000    0.000    0.000    0.000    0.000    0.000 
#
# Total GULP energy -148696.467507 kJ/mol
# GULP energy per Si atom -12391.372292 kJ/mol
# Density = 2.112810 g / cm^3
# Si number density = 21.176298 Si / 1000 Ang^3
#
#
#
# Elastic Constant Matrix: (Units=GPa)
#
#
# Indices 1 2 3 4 5 6 
#
# 1 234.5712 31.0348 -5.0382 0.0000 0.0000 0.0000
# 2 31.0348 143.7393 2.4160 0.0000 0.0000 0.0000
# 3 -5.0382 2.4160 23.1031 0.0000 0.0000 0.0000
# 4 0.0000 0.0000 0.0000 5.2717 0.0000 0.0000
# 5 0.0000 0.0000 0.0000 0.0000 15.0716 0.0000
# 6 0.0000 0.0000 0.0000 0.0000 0.0000 13.9667
#
#
#
# Elastic Compliance Matrix: (Units=1/GPa)
#
#
# Indices 1 2 3 4 5 6 
#
# 1 0.004414 -0.000971 0.001064 0.000000 0.000000 0.000000
# 2 -0.000971 0.007183 -0.000963 0.000000 0.000000 0.000000
# 3 0.001064 -0.000963 0.043617 0.000000 0.000000 0.000000
# 4 0.000000 0.000000 0.000000 0.189691 0.000000 0.000000
# 5 0.000000 0.000000 0.000000 0.000000 0.066350 0.000000
# 6 0.000000 0.000000 0.000000 0.000000 0.000000 0.071599
#
#
# Mechanical properties :
#
#
# Convention : Reuss Voigt Hill
#
# Bulk Modulus (GPa) = 18.70036 50.91542 34.80789
# Shear Modulus (GPa) = 12.42489 31.72875 22.07682
#
# Velocity S-wave (km/s) = 2.42489 3.87501 3.23232
# Velocity P-wave (km/s) = 4.08535 6.64204 5.51393
#
# Compressibility (1/GPa) = 0.05347490
#
# Stress axis : x y z
#
# Youngs Moduli (GPa) = 226.53012 139.21999 22.92685
#
# Poissons Ratio (x) = 0.13518 -0.02440
# Poissons Ratio (y) = 0.21996 0.02208
# Poissons Ratio (z) = -0.24108 0.13406
#
# Static dielectric constant tensor:
#      x y z
#    x 6.248410 0.000000 0.000000 
#    y 0.000000 3.569970 0.000000 
#    z 0.000000 0.000000 3.346970 
# 
# 
# High freq. dielectric constant tensor:
#      x y z
#    x 1.882500 0.000000 0.000000 
#    y 0.000000 1.807300 0.000000 
#    z 0.000000 0.000000 1.778950 
# 
# From -- ./inp_files/2541.got.cif
#   From: 2010.03.12/outbox.cif.g09.slc.cpg/sg26_2_cif.got.tgz:2541.got - 2010.04.14 03:33:09.
