data_PCOD8167348
_publ_section_title
;
Structure prediction by ZEFSAII (Michael W. Deem and Ramdas Pophale) SiO2 
 PCOD8167348
Probable space group: P M C 21
;
_chemical_formula_sum "Si O2"
_cell_formula_units_Z 32
_cell_length_a 9.216029
_cell_length_b 15.965404
_cell_length_c 11.098783
_cell_angle_alpha 90.000000
_cell_angle_beta 90.000000
_cell_angle_gamma 90.000000
_cell_volume 1633.048585
_symmetry_space_group_name_H-M "P M C 21"
_symmetry_group_IT_number 26
_symmetry_cell_setting 'orthorhombic'
loop_
_space_group_symop_operation_xyz
x,y,z
-x,-y,1/2+z
-x,y,z
x,-y,1/2+z
loop_
_atom_site_type_symbol
_atom_site_label
_atom_site_fract_x
_atom_site_fract_y
_atom_site_fract_z
Si Si1 0.168618 0.977608 0.126850
Si Si2 0.664794 0.143659 0.457118
Si Si3 0.832410 0.572341 0.443581
Si Si4 0.665650 0.742842 0.487843
Si Si5 0.168538 0.450855 0.667079
Si Si6 0.169189 0.162881 0.808157
Si Si7 0.333590 0.285051 0.635736
Si Si8 0.665542 0.861015 0.687866
O O1 0.198910 0.928782 0.252546
O O2 0.000000 0.987900 0.100967
O O3 0.237731 0.068506 0.125369
O O4 0.232167 0.922668 0.019920
O O5 0.500000 0.110676 0.467381
O O6 0.676615 0.237315 0.509067
O O7 0.721106 0.151492 0.322228
O O8 0.742895 0.657593 0.451308
O O9 0.799345 0.527993 0.311041
O O10 0.793423 0.521489 0.566225
O O11 0.000000 0.596758 0.446872
O O12 0.500000 0.734807 0.445651
O O13 0.740362 0.825687 0.429852
O O14 0.678966 0.768561 0.627874
O O15 0.272486 0.377598 0.621790
O O16 0.000000 0.426054 0.653678
O O17 0.229320 0.237456 0.726549
O O18 0.000000 0.177986 0.830305
O O19 0.500000 0.287318 0.682403
O O20 0.500000 0.892619 0.682345
#
# Coordination Sequence:
#
# PCOD8167348 Si02
#       8
#     4   4   4   4   4   4   4   4
#     4  10  22  37  57  86 115 148 194 246 294 344
#     4   9  20  39  58  80 114 153 193 238 293 356
#     4  10  22  40  61  86 120 159 200 246 302 365
#     4  11  23  38  59  87 116 153 198 243 293 352
#     4  10  21  38  60  87 119 157 198 243 300 364
#     4  10  20  36  58  83 114 149 187 237 289 344
#     4  10  19  34  60  88 111 144 191 239 288 344
#     4  10  23  40  57  81 117 157 195 240 297 357
#
# _framework density 19.595251999999999
#
# number of rings (size 3 to 8) (size 9 to 14) (size 15 to 20)
#    0.000    2.000    1.250    1.500    1.750    5.000 
#    0.000    0.000    0.000    0.000    0.000    0.000 
#    0.000    0.000    0.000    0.000    0.000    0.000 
#
# Total GULP energy -396518.347911 kJ/mol
# GULP energy per Si atom -12391.198372 kJ/mol
# Density = 1.955065 g / cm^3
# Si number density = 19.595252 Si / 1000 Ang^3
#
#
#
# Elastic Constant Matrix: (Units=GPa)
#
#
# Indices 1 2 3 4 5 6 
#
# 1 74.1122 38.2525 41.1616 0.0000 0.0000 0.0000
# 2 38.2525 79.3811 49.0962 0.0000 0.0000 0.0000
# 3 41.1616 49.0962 130.2476 0.0000 0.0000 0.0000
# 4 0.0000 0.0000 0.0000 25.2035 0.0000 0.0000
# 5 0.0000 0.0000 0.0000 0.0000 21.9855 0.0000
# 6 0.0000 0.0000 0.0000 0.0000 0.0000 27.2268
#
#
#
# Elastic Compliance Matrix: (Units=1/GPa)
#
#
# Indices 1 2 3 4 5 6 
#
# 1 0.019007 -0.007099 -0.003331 0.000000 0.000000 0.000000
# 2 -0.007099 0.019079 -0.004948 0.000000 0.000000 0.000000
# 3 -0.003331 -0.004948 0.010595 0.000000 0.000000 0.000000
# 4 0.000000 0.000000 0.000000 0.039677 0.000000 0.000000
# 5 0.000000 0.000000 0.000000 0.000000 0.045485 0.000000
# 6 0.000000 0.000000 0.000000 0.000000 0.000000 0.036728
#
#
# Mechanical properties :
#
#
# Convention : Reuss Voigt Hill
#
# Bulk Modulus (GPa) = 55.78725 60.08462 57.93593
# Shear Modulus (GPa) = 24.11930 25.23186 24.67558
#
# Velocity S-wave (km/s) = 3.51219 3.59228 3.55246
# Velocity P-wave (km/s) = 6.70663 6.92354 6.81595
#
# Compressibility (1/GPa) = 0.01792524
#
# Stress axis : x y z
#
# Youngs Moduli (GPa) = 52.61174 52.41407 94.38009
#
# Poissons Ratio (x) = 0.37210 0.31435
# Poissons Ratio (y) = 0.37350 0.46701
# Poissons Ratio (z) = 0.17524 0.25935
#
# Static dielectric constant tensor:
#      x y z
#    x 3.624400 0.000000 0.000000 
#    y 0.000000 3.454230 0.000000 
#    z 0.000000 0.000000 4.029950 
# 
# 
# High freq. dielectric constant tensor:
#      x y z
#    x 1.769250 0.000000 0.000000 
#    y 0.000000 1.747380 0.000000 
#    z 0.000000 0.000000 1.774780 
# 
# From -- ./inp_files/3027.got.cif
#   From: 2010.03.12/outbox.cif.g09.slc.cpg/sg26_2_cif.got.tgz:3027.got - 2010.04.14 03:33:09.
