data_PCOD8167472
_publ_section_title
;
Structure prediction by ZEFSAII (Michael W. Deem and Ramdas Pophale) SiO2 
 PCOD8167472
Probable space group: P M C 21
;
_chemical_formula_sum "Si O2"
_cell_formula_units_Z 24
_cell_length_a 12.644654
_cell_length_b 10.876512
_cell_length_c 9.040308
_cell_angle_alpha 90.000000
_cell_angle_beta 90.000000
_cell_angle_gamma 90.000000
_cell_volume 1243.311127
_symmetry_space_group_name_H-M "P M C 21"
_symmetry_group_IT_number 26
_symmetry_cell_setting 'orthorhombic'
loop_
_space_group_symop_operation_xyz
x,y,z
-x,-y,1/2+z
-x,y,z
x,-y,1/2+z
loop_
_atom_site_type_symbol
_atom_site_label
_atom_site_fract_x
_atom_site_fract_y
_atom_site_fract_z
Si Si1 0.377529 0.155882 0.276410
Si Si2 0.720395 0.963054 0.494911
Si Si3 0.123100 0.460644 0.054175
Si Si4 0.114811 0.845807 0.049966
Si Si5 0.794841 0.342901 0.351896
Si Si6 0.117460 0.776129 0.364208
O O1 0.500000 0.187793 0.283777
O O2 0.348734 0.114083 0.110611
O O3 0.320141 0.285526 0.316664
O O4 0.353956 0.045352 0.390215
O O5 0.791975 0.873266 0.398688
O O6 0.799554 0.050261 0.584923
O O7 0.155504 0.417256 0.216721
O O8 0.000000 0.503224 0.053852
O O9 0.201353 0.568004 0.995437
O O10 0.143019 0.350255 0.942437
O O11 0.119357 0.751165 0.187911
O O12 0.000000 0.908866 0.039103
O O13 0.134505 0.775923 0.894762
O O14 0.000000 0.823915 0.411525
#
# Coordination Sequence:
#
# PCOD8167472 Si02
#       6
#     4   4   4   4   4   4
#     4  11  24  42  65  87 116 161 213 260 303 345
#     4  11  20  39  60  88 120 156 201 253 304 360
#     4  11  21  36  59  88 122 162 196 234 298 369
#     4  10  20  34  55  87 126 160 193 238 300 370
#     4  11  23  39  61  87 124 159 205 249 293 355
#     4  10  20  34  56  89 126 160 194 234 296 373
#
# _framework density 19.303294000000001
#
# number of rings (size 3 to 8) (size 9 to 14) (size 15 to 20)
#    0.000    1.333    3.333    3.500    0.000    1.333 
#    0.000    0.833    0.000    0.000    0.000    0.000 
#    0.000    0.000    0.000    0.000    0.000    0.000 
#
# Total GULP energy -297478.619043 kJ/mol
# GULP energy per Si atom -12394.942460 kJ/mol
# Density = 1.925936 g / cm^3
# Si number density = 19.303294 Si / 1000 Ang^3
#
#
#
# Elastic Constant Matrix: (Units=GPa)
#
#
# Indices 1 2 3 4 5 6 
#
# 1 89.4932 40.8188 44.5659 0.0000 0.0000 0.0000
# 2 40.8188 79.8164 35.6526 0.0000 0.0000 0.0000
# 3 44.5659 35.6526 89.7194 0.0000 0.0000 0.0000
# 4 0.0000 0.0000 0.0000 43.7198 0.0000 0.0000
# 5 0.0000 0.0000 0.0000 0.0000 -60.2243 0.0000
# 6 0.0000 0.0000 0.0000 0.0000 0.0000 25.4264
#
#
#
# Elastic Compliance Matrix: (Units=1/GPa)
#
#
# Indices 1 2 3 4 5 6 
#
# 1 0.016886 -0.005944 -0.006026 0.000000 0.000000 0.000000
# 2 -0.005944 0.017325 -0.003932 0.000000 0.000000 0.000000
# 3 -0.006026 -0.003932 0.015701 0.000000 0.000000 0.000000
# 4 0.000000 0.000000 0.000000 0.022873 0.000000 0.000000
# 5 0.000000 0.000000 0.000000 0.000000 -0.016605 0.000000
# 6 0.000000 0.000000 0.000000 0.000000 0.000000 0.039329
#
#
# Mechanical properties :
#
#
# Convention : Reuss Voigt Hill
#
# Bulk Modulus (GPa) = 55.22139 55.67818 55.44978
# Shear Modulus (GPa) = 37.49554 10.98383 24.23968
#
# Velocity S-wave (km/s) = 4.41210 2.38799 3.54747
# Velocity P-wave (km/s) = 7.39086 6.04233 6.75036
#
# Compressibility (1/GPa) = 0.01810892
#
# Stress axis : x y z
#
# Youngs Moduli (GPa) = 59.22145 57.72023 63.68850
#
# Poissons Ratio (x) = 0.34309 0.38376
# Poissons Ratio (y) = 0.35201 0.25042
# Poissons Ratio (z) = 0.35684 0.22696
#
# Static dielectric constant tensor:
#      x y z
#    x 3.695340 0.000000 0.000000 
#    y 0.000000 3.568750 0.000000 
#    z 0.000000 0.000000 3.724430 
# 
# 
# High freq. dielectric constant tensor:
#      x y z
#    x 1.724910 0.000000 0.000000 
#    y 0.000000 1.751230 0.000000 
#    z 0.000000 0.000000 1.766820 
# 
# From -- ./inp_files/1802.got.cif
#   From: 2010.03.12/outbox.cif.g09.slc.cpg/sg26_1_cif.got.tgz:1802.got - 2010.04.14 03:33:09.
