data_PCOD8167056
_publ_section_title
;
Structure prediction by ZEFSAII (Michael W. Deem and Ramdas Pophale) SiO2 
 PCOD8167056
Probable space group: P M C 21
;
_chemical_formula_sum "Si O2"
_cell_formula_units_Z 32
_cell_length_a 8.988239
_cell_length_b 11.454793
_cell_length_c 17.671790
_cell_angle_alpha 90.000000
_cell_angle_beta 90.000000
_cell_angle_gamma 90.000000
_cell_volume 1819.459527
_symmetry_space_group_name_H-M "P M C 21"
_symmetry_group_IT_number 26
_symmetry_cell_setting 'orthorhombic'
loop_
_space_group_symop_operation_xyz
x,y,z
-x,-y,1/2+z
-x,y,z
x,-y,1/2+z
loop_
_atom_site_type_symbol
_atom_site_label
_atom_site_fract_x
_atom_site_fract_y
_atom_site_fract_z
Si Si1 0.173429 0.257694 0.430660
Si Si2 0.331083 0.278823 0.577602
Si Si3 0.324652 0.623185 0.240370
Si Si4 0.667208 0.956608 0.869131
Si Si5 0.174721 0.839178 0.301215
Si Si6 0.336013 0.178206 0.211706
Si Si7 0.172730 0.382965 0.275618
Si Si8 0.670007 0.942702 0.161755
O O1 0.228810 0.320058 0.507683
O O2 0.252770 0.132549 0.425717
O O3 0.213425 0.340730 0.360030
O O4 0.000000 0.234460 0.434118
O O5 0.500000 0.312363 0.557678
O O6 0.280271 0.344156 0.654237
O O7 0.313379 0.137926 0.587605
O O8 0.500000 0.633293 0.252134
O O9 0.245795 0.709686 0.300324
O O10 0.271417 0.493765 0.257463
O O11 0.500000 0.977656 0.898354
O O12 0.668662 0.900370 0.786450
O O13 0.753168 0.080765 0.867298
O O14 0.000000 0.829412 0.315477
O O15 0.208104 0.898354 0.220968
O O16 0.500000 0.234547 0.201114
O O17 0.215139 0.281037 0.215489
O O18 0.302671 0.081789 0.145313
O O19 0.000000 0.412687 0.266151
O O20 0.500000 0.925374 0.193984
#
# Coordination Sequence:
#
# PCOD8167056 Si02
#       8
#     4   4   4   4   4   4   4   4
#     4  10  20  32  48  73 102 129 160 203 254 304
#     4   9  18  32  50  72  97 126 162 205 250 300
#     4  10  20  34  51  71  96 130 173 211 245 293
#     4   9  16  28  46  67  93 124 156 189 230 283
#     4  10  17  26  44  70  97 121 149 191 241 285
#     4   8  14  26  45  67  91 120 152 189 232 276
#     4  10  20  32  47  71 100 129 166 209 250 293
#     4   8  15  28  45  67  94 123 156 191 230 282
#
# _framework density 17.58764
#
# number of rings (size 3 to 8) (size 9 to 14) (size 15 to 20)
#    0.000    2.750    0.000    4.125    0.000    7.000 
#    0.000    0.000    0.000    1.500    0.000    5.250 
#    0.000    0.000    0.000    0.000    0.000    0.000 
#
# Total GULP energy -396568.273244 kJ/mol
# GULP energy per Si atom -12392.758539 kJ/mol
# Density = 1.754761 g / cm^3
# Si number density = 17.587640 Si / 1000 Ang^3
#
#
#
# Elastic Constant Matrix: (Units=GPa)
#
#
# Indices 1 2 3 4 5 6 
#
# 1 100.0432 51.0254 32.2061 0.0000 0.0000 0.0000
# 2 51.0254 109.7274 30.7337 0.0000 0.0000 0.0000
# 3 32.2061 30.7337 51.8566 0.0000 0.0000 0.0000
# 4 0.0000 0.0000 0.0000 14.3058 0.0000 0.0000
# 5 0.0000 0.0000 0.0000 0.0000 21.7908 0.0000
# 6 0.0000 0.0000 0.0000 0.0000 0.0000 30.8519
#
#
#
# Elastic Compliance Matrix: (Units=1/GPa)
#
#
# Indices 1 2 3 4 5 6 
#
# 1 0.014515 -0.005066 -0.006012 0.000000 0.000000 0.000000
# 2 -0.005066 0.012695 -0.004378 0.000000 0.000000 0.000000
# 3 -0.006012 -0.004378 0.025613 0.000000 0.000000 0.000000
# 4 0.000000 0.000000 0.000000 0.069902 0.000000 0.000000
# 5 0.000000 0.000000 0.000000 0.000000 0.045891 0.000000
# 6 0.000000 0.000000 0.000000 0.000000 0.000000 0.032413
#
#
# Mechanical properties :
#
#
# Convention : Reuss Voigt Hill
#
# Bulk Modulus (GPa) = 45.63956 54.39527 50.01742
# Shear Modulus (GPa) = 20.89917 23.23386 22.06651
#
# Velocity S-wave (km/s) = 3.45089 3.63854 3.54596
# Velocity P-wave (km/s) = 6.47181 6.97476 6.72799
#
# Compressibility (1/GPa) = 0.02191081
#
# Stress axis : x y z
#
# Youngs Moduli (GPa) = 68.89499 78.76870 39.04311
#
# Poissons Ratio (x) = 0.39902 0.23474
# Poissons Ratio (y) = 0.34900 0.17093
# Poissons Ratio (z) = 0.41422 0.34485
#
# Static dielectric constant tensor:
#      x y z
#    x 3.254570 0.000000 0.000000 
#    y 0.000000 3.379640 0.000000 
#    z 0.000000 0.000000 2.995780 
# 
# 
# High freq. dielectric constant tensor:
#      x y z
#    x 1.686560 0.000000 0.000000 
#    y 0.000000 1.673950 0.000000 
#    z 0.000000 0.000000 1.633150 
# 
# From -- ./inp_files/5074.got.cif
#   From: 2010.03.12/outbox.cif.g09.slc.cpg/sg26_3_cif.got.tgz:5074.got - 2010.04.14 03:33:09.
