data_PCOD8167299
_publ_section_title
;
Structure prediction by ZEFSAII (Michael W. Deem and Ramdas Pophale) SiO2 
 PCOD8167299
Probable space group: P M C 21
;
_chemical_formula_sum "Si O2"
_cell_formula_units_Z 32
_cell_length_a 13.897008
_cell_length_b 9.419789
_cell_length_c 13.343161
_cell_angle_alpha 90.000000
_cell_angle_beta 90.000000
_cell_angle_gamma 90.000000
_cell_volume 1746.711617
_symmetry_space_group_name_H-M "P M C 21"
_symmetry_group_IT_number 26
_symmetry_cell_setting 'orthorhombic'
loop_
_space_group_symop_operation_xyz
x,y,z
-x,-y,1/2+z
-x,y,z
x,-y,1/2+z
loop_
_atom_site_type_symbol
_atom_site_label
_atom_site_fract_x
_atom_site_fract_y
_atom_site_fract_z
Si Si1 0.891396 0.629023 0.991510
Si Si2 0.610737 0.501731 0.545835
Si Si3 0.745851 0.312394 0.664727
Si Si4 0.262456 0.990512 0.250108
Si Si5 0.270227 0.889038 0.453838
Si Si6 0.890673 0.931078 0.896612
Si Si7 0.389646 0.189162 0.129434
Si Si8 0.759045 0.585708 0.390857
O O1 0.886102 0.767395 0.922938
O O2 0.850809 0.507340 0.919423
O O3 0.000000 0.591138 0.020687
O O4 0.836243 0.643277 0.096793
O O5 0.500000 0.474592 0.521647
O O6 0.650143 0.368559 0.609185
O O7 0.625465 0.643494 0.612920
O O8 0.662705 0.513215 0.437420
O O9 0.742140 0.140628 0.671954
O O10 0.753154 0.390955 0.771782
O O11 0.318683 0.932125 0.348023
O O12 0.154851 0.039140 0.285515
O O13 0.320227 0.130126 0.215991
O O14 0.356206 0.900262 0.532563
O O15 0.225870 0.732668 0.448303
O O16 0.177009 0.987820 0.478553
O O17 0.000000 0.988894 0.898715
O O18 0.500000 0.152307 0.153210
#
# Coordination Sequence:
#
# PCOD8167299 Si02
#       8
#     4   4   4   4   4   4   4   4
#     4  10  21  35  54  82 113 145 183 232 279 326
#     4   9  20  36  55  81 111 145 187 229 278 330
#     4  10  20  36  58  82 110 149 184 229 274 329
#     4   9  20  34  55  82 109 142 184 228 276 333
#     4   8  18  35  54  76 108 141 183 227 271 328
#     4   9  19  36  55  77 109 144 181 228 281 330
#     4  10  19  34  55  78 108 145 180 225 279 330
#     4   9  19  36  56  78 110 149 182 230 274 324
#
# _framework density 18.320139999999999
#
# number of rings (size 3 to 8) (size 9 to 14) (size 15 to 20)
#    0.750    2.000    0.000    0.750    1.750    3.000 
#    0.000    3.125    0.000    0.000    0.000    0.000 
#    0.000    0.000    0.000    0.000    0.000    0.000 
#
# Total GULP energy -396457.914773 kJ/mol
# GULP energy per Si atom -12389.309837 kJ/mol
# Density = 1.827844 g / cm^3
# Si number density = 18.320140 Si / 1000 Ang^3
#
#
#
# Elastic Constant Matrix: (Units=GPa)
#
#
# Indices 1 2 3 4 5 6 
#
# 1 106.6922 30.8970 32.9079 0.0000 0.0000 0.0000
# 2 30.8970 52.8541 24.8679 0.0000 0.0000 0.0000
# 3 32.9079 24.8679 71.2820 0.0000 0.0000 0.0000
# 4 0.0000 0.0000 0.0000 26.6998 0.0000 0.0000
# 5 0.0000 0.0000 0.0000 0.0000 22.7959 0.0000
# 6 0.0000 0.0000 0.0000 0.0000 0.0000 28.8525
#
#
#
# Elastic Compliance Matrix: (Units=1/GPa)
#
#
# Indices 1 2 3 4 5 6 
#
# 1 0.012053 -0.005297 -0.003716 0.000000 0.000000 0.000000
# 2 -0.005297 0.024964 -0.006263 0.000000 0.000000 0.000000
# 3 -0.003716 -0.006263 0.017930 0.000000 0.000000 0.000000
# 4 0.000000 0.000000 0.000000 0.037453 0.000000 0.000000
# 5 0.000000 0.000000 0.000000 0.000000 0.043868 0.000000
# 6 0.000000 0.000000 0.000000 0.000000 0.000000 0.034659
#
#
# Mechanical properties :
#
#
# Convention : Reuss Voigt Hill
#
# Bulk Modulus (GPa) = 40.99692 45.35266 43.17479
# Shear Modulus (GPa) = 23.85368 25.14666 24.50017
#
# Velocity S-wave (km/s) = 3.61230 3.70891 3.66093
# Velocity P-wave (km/s) = 6.31070 6.56892 6.44111
#
# Compressibility (1/GPa) = 0.02439207
#
# Stress axis : x y z
#
# Youngs Moduli (GPa) = 82.96637 40.05828 55.77384
#
# Poissons Ratio (x) = 0.21220 0.20727
# Poissons Ratio (y) = 0.43950 0.34933
# Poissons Ratio (z) = 0.30833 0.25090
#
# Static dielectric constant tensor:
#      x y z
#    x 3.311850 0.000000 0.000000 
#    y 0.000000 3.414250 0.000000 
#    z 0.000000 0.000000 3.307880 
# 
# 
# High freq. dielectric constant tensor:
#      x y z
#    x 1.699370 0.000000 0.000000 
#    y 0.000000 1.715430 0.000000 
#    z 0.000000 0.000000 1.701830 
# 
# From -- ./inp_files/4662.got.cif
#   From: 2010.03.12/outbox.cif.g09.slc.cpg/sg26_3_cif.got.tgz:4662.got - 2010.04.14 03:33:09.
