data_PCOD8167589
_publ_section_title
;
Structure prediction by ZEFSAII (Michael W. Deem and Ramdas Pophale) SiO2 
 PCOD8167589
Probable space group: P M C 21
;
_chemical_formula_sum "Si O2"
_cell_formula_units_Z 20
_cell_length_a 13.336819
_cell_length_b 8.526567
_cell_length_c 8.804002
_cell_angle_alpha 90.000000
_cell_angle_beta 90.000000
_cell_angle_gamma 90.000000
_cell_volume 1001.167167
_symmetry_space_group_name_H-M "P M C 21"
_symmetry_group_IT_number 26
_symmetry_cell_setting 'orthorhombic'
loop_
_space_group_symop_operation_xyz
x,y,z
-x,-y,1/2+z
-x,y,z
x,-y,1/2+z
loop_
_atom_site_type_symbol
_atom_site_label
_atom_site_fract_x
_atom_site_fract_y
_atom_site_fract_z
Si Si1 0.780202 0.881415 0.746650
Si Si2 0.302035 0.414989 0.700436
Si Si3 0.887129 0.606401 0.630924
Si Si4 0.789675 0.818313 0.414590
Si Si5 0.385271 0.302155 0.389234
O O1 0.860398 0.737648 0.760190
O O2 0.745811 0.895394 0.569901
O O3 0.682587 0.848415 0.849257
O O4 0.831094 0.042368 0.806487
O O5 0.189985 0.461820 0.643527
O O6 0.296109 0.276148 0.824202
O O7 0.366644 0.356228 0.560165
O O8 0.359328 0.561699 0.770273
O O9 0.875416 0.692050 0.465171
O O10 0.000000 0.544440 0.651570
O O11 0.500000 0.252501 0.370362
#
# Coordination Sequence:
#
# PCOD8167589 Si02
#       5
#     4   4   4   4   4
#     4   9  21  39  58  86 121 158 194 255 293 357
#     4  11  20  39  61  88 123 159 198 261 292 355
#     4   9  21  37  59  89 119 160 203 241 305 360
#     4  10  20  39  62  82 125 158 197 248 306 343
#     4  11  21  38  61  89 120 161 205 247 307 361
#
# _framework density 19.976683000000001
#
# number of rings (size 3 to 8) (size 9 to 14) (size 15 to 20)
#    1.200    0.800    2.000    1.800    0.000    1.600 
#    0.000    6.000    0.000    0.000    0.000    0.000 
#    0.000    0.000    0.000    0.000    0.000    0.000 
#
# Total GULP energy -247817.022254 kJ/mol
# GULP energy per Si atom -12390.851113 kJ/mol
# Density = 1.993122 g / cm^3
# Si number density = 19.976683 Si / 1000 Ang^3
#
#
#
# Elastic Constant Matrix: (Units=GPa)
#
#
# Indices 1 2 3 4 5 6 
#
# 1 98.2263 -7.4610 19.8601 0.0000 0.0000 0.0000
# 2 -7.4610 40.5709 18.1521 0.0000 0.0000 0.0000
# 3 19.8601 18.1521 100.0495 0.0000 0.0000 0.0000
# 4 0.0000 0.0000 0.0000 42.4628 0.0000 0.0000
# 5 0.0000 0.0000 0.0000 0.0000 21.4485 0.0000
# 6 0.0000 0.0000 0.0000 0.0000 0.0000 15.0542
#
#
#
# Elastic Compliance Matrix: (Units=1/GPa)
#
#
# Indices 1 2 3 4 5 6 
#
# 1 0.010989 0.003262 -0.002773 0.000000 0.000000 0.000000
# 2 0.003262 0.027794 -0.005690 0.000000 0.000000 0.000000
# 3 -0.002773 -0.005690 0.011578 0.000000 0.000000 0.000000
# 4 0.000000 0.000000 0.000000 0.023550 0.000000 0.000000
# 5 0.000000 0.000000 0.000000 0.000000 0.046623 0.000000
# 6 0.000000 0.000000 0.000000 0.000000 0.000000 0.066427
#
#
# Mechanical properties :
#
#
# Convention : Reuss Voigt Hill
#
# Bulk Modulus (GPa) = 25.02657 33.32769 29.17713
# Shear Modulus (GPa) = 23.73230 29.67945 26.70588
#
# Velocity S-wave (km/s) = 3.45048 3.85867 3.66027
# Velocity P-wave (km/s) = 5.33193 6.04747 5.70094
#
# Compressibility (1/GPa) = 0.03995753
#
# Stress axis : x y z
#
# Youngs Moduli (GPa) = 91.00006 35.97916 86.37156
#
# Poissons Ratio (x) = -0.11735 0.23952
# Poissons Ratio (y) = -0.29681 0.49146
# Poissons Ratio (z) = 0.25235 0.20473
#
# Static dielectric constant tensor:
#      x y z
#    x 3.209640 0.000000 0.000000 
#    y 0.000000 3.555190 0.000000 
#    z 0.000000 0.000000 3.697540 
# 
# 
# High freq. dielectric constant tensor:
#      x y z
#    x 1.737390 0.000000 0.000000 
#    y 0.000000 1.774560 0.000000 
#    z 0.000000 0.000000 1.788220 
# 
# From -- ./inp_files/2077.got.cif
#   From: 2010.03.12/outbox.cif.g09.slc.cpg/sg26_2_cif.got.tgz:2077.got - 2010.04.14 03:33:09.
