data_PCOD8167131
_publ_section_title
;
Structure prediction by ZEFSAII (Michael W. Deem and Ramdas Pophale) SiO2 
 PCOD8167131
Probable space group: P M C 21
;
_chemical_formula_sum "Si O2"
_cell_formula_units_Z 32
_cell_length_a 8.966445
_cell_length_b 11.495246
_cell_length_c 16.201384
_cell_angle_alpha 90.000000
_cell_angle_beta 90.000000
_cell_angle_gamma 90.000000
_cell_volume 1669.900805
_symmetry_space_group_name_H-M "P M C 21"
_symmetry_group_IT_number 26
_symmetry_cell_setting 'orthorhombic'
loop_
_space_group_symop_operation_xyz
x,y,z
-x,-y,1/2+z
-x,y,z
x,-y,1/2+z
loop_
_atom_site_type_symbol
_atom_site_label
_atom_site_fract_x
_atom_site_fract_y
_atom_site_fract_z
Si Si1 0.175020 0.621308 0.352570
Si Si2 0.665790 0.781450 0.789878
Si Si3 0.675623 0.070509 0.440477
Si Si4 0.174167 0.558749 0.167220
Si Si5 0.322456 0.681824 0.623524
Si Si6 0.675233 0.802679 0.452578
Si Si7 0.172367 0.254309 0.539489
Si Si8 0.333185 0.410839 0.416398
O O1 0.217483 0.582882 0.261017
O O2 0.231485 0.749836 0.376039
O O3 0.273524 0.541191 0.412298
O O4 0.000000 0.608658 0.369398
O O5 0.500000 0.829636 0.774395
O O6 0.742020 0.762065 0.699730
O O7 0.662149 0.651732 0.827829
O O8 0.742760 0.873039 0.854627
O O9 0.500000 0.092690 0.439828
O O10 0.737497 0.135735 0.521982
O O11 0.720045 0.937487 0.450855
O O12 0.259823 0.449294 0.127849
O O13 0.218335 0.680928 0.123857
O O14 0.000000 0.532442 0.155734
O O15 0.500000 0.673359 0.630896
O O16 0.273676 0.744769 0.538957
O O17 0.500000 0.785990 0.437500
O O18 0.210451 0.345012 0.468660
O O19 0.000000 0.221580 0.537917
O O20 0.500000 0.411411 0.455894
#
# Coordination Sequence:
#
# PCOD8167131 Si02
#       8
#     4   4   4   4   4   4   4   4
#     4  11  22  36  54  77 112 150 184 224 276 334
#     4   8  15  30  54  78 104 139 176 221 269 318
#     4   9  19  38  57  79 111 144 187 232 272 325
#     4  10  22  37  53  80 115 145 179 225 276 337
#     4  10  19  34  57  83 109 142 185 230 279 334
#     4  10  22  38  56  82 114 147 188 235 280 330
#     4  10  20  35  56  81 109 143 181 223 275 329
#     4  10  18  32  55  82 110 140 178 222 275 329
#
# _framework density 19.162815999999999
#
# number of rings (size 3 to 8) (size 9 to 14) (size 15 to 20)
#    0.000    2.250    1.250    2.625    0.000    4.500 
#    2.250    0.000    0.000    0.000    0.000    0.000 
#    0.000    0.000    0.000    0.000    0.000    0.000 
#
# Total GULP energy -396540.856190 kJ/mol
# GULP energy per Si atom -12391.901756 kJ/mol
# Density = 1.911920 g / cm^3
# Si number density = 19.162816 Si / 1000 Ang^3
#
#
#
# Elastic Constant Matrix: (Units=GPa)
#
#
# Indices 1 2 3 4 5 6 
#
# 1 35.7412 42.6764 26.8571 0.0000 0.0000 0.0000
# 2 42.6764 142.0955 48.5266 0.0000 0.0000 0.0000
# 3 26.8571 48.5266 63.5718 0.0000 0.0000 0.0000
# 4 0.0000 0.0000 0.0000 28.1416 0.0000 0.0000
# 5 0.0000 0.0000 0.0000 0.0000 23.1441 0.0000
# 6 0.0000 0.0000 0.0000 0.0000 0.0000 22.3540
#
#
#
# Elastic Compliance Matrix: (Units=1/GPa)
#
#
# Indices 1 2 3 4 5 6 
#
# 1 0.050725 -0.010707 -0.013257 0.000000 0.000000 0.000000
# 2 -0.010707 0.011779 -0.004468 0.000000 0.000000 0.000000
# 3 -0.013257 -0.004468 0.024741 0.000000 0.000000 0.000000
# 4 0.000000 0.000000 0.000000 0.035535 0.000000 0.000000
# 5 0.000000 0.000000 0.000000 0.000000 0.043208 0.000000
# 6 0.000000 0.000000 0.000000 0.000000 0.000000 0.044735
#
#
# Mechanical properties :
#
#
# Convention : Reuss Voigt Hill
#
# Bulk Modulus (GPa) = 32.91420 53.05875 42.98648
# Shear Modulus (GPa) = 18.00415 22.95117 20.47766
#
# Velocity S-wave (km/s) = 3.06851 3.46452 3.27251
# Velocity P-wave (km/s) = 5.45598 6.61456 6.06301
#
# Compressibility (1/GPa) = 0.03038202
#
# Stress axis : x y z
#
# Youngs Moduli (GPa) = 19.71399 84.89571 40.41842
#
# Poissons Ratio (x) = 0.90902 0.53581
# Poissons Ratio (y) = 0.21109 0.18058
# Poissons Ratio (z) = 0.26134 0.37930
#
# Static dielectric constant tensor:
#      x y z
#    x 3.313420 0.000000 0.000000 
#    y 0.000000 3.562000 0.000000 
#    z 0.000000 0.000000 3.695100 
# 
# 
# High freq. dielectric constant tensor:
#      x y z
#    x 1.726210 0.000000 0.000000 
#    y 0.000000 1.740050 0.000000 
#    z 0.000000 0.000000 1.744830 
# 
# From -- ./inp_files/5087.got.cif
#   From: 2010.03.12/outbox.cif.g09.slc.cpg/sg26_3_cif.got.tgz:5087.got - 2010.04.14 03:33:09.
