data_PCOD8167387
_publ_section_title
;
Structure prediction by ZEFSAII (Michael W. Deem and Ramdas Pophale) SiO2 
 PCOD8167387
Probable space group: P M C 21
;
_chemical_formula_sum "Si O2"
_cell_formula_units_Z 32
_cell_length_a 9.219007
_cell_length_b 16.039866
_cell_length_c 11.193130
_cell_angle_alpha 90.000000
_cell_angle_beta 90.000000
_cell_angle_gamma 90.000000
_cell_volume 1655.146456
_symmetry_space_group_name_H-M "P M C 21"
_symmetry_group_IT_number 26
_symmetry_cell_setting 'orthorhombic'
loop_
_space_group_symop_operation_xyz
x,y,z
-x,-y,1/2+z
-x,y,z
x,-y,1/2+z
loop_
_atom_site_type_symbol
_atom_site_label
_atom_site_fract_x
_atom_site_fract_y
_atom_site_fract_z
Si Si1 0.660831 0.154017 0.790300
Si Si2 0.170889 0.743513 0.472806
Si Si3 0.327984 0.842449 0.920910
Si Si4 0.671822 0.974220 0.103725
Si Si5 0.827928 0.455621 0.653678
Si Si6 0.828293 0.443027 0.921759
Si Si7 0.660172 0.705345 0.092881
Si Si8 0.328036 0.156785 0.154846
O O1 0.500000 0.143383 0.850594
O O2 0.778925 0.183273 0.884918
O O3 0.714602 0.066983 0.731892
O O4 0.647760 0.222538 0.688917
O O5 0.223278 0.652982 0.427401
O O6 0.248779 0.763674 0.597573
O O7 0.000000 0.746068 0.489481
O O8 0.500000 0.851660 0.923379
O O9 0.267341 0.847799 0.788414
O O10 0.259452 0.919316 0.996631
O O11 0.285361 0.751291 0.972498
O O12 0.500000 0.969791 0.096883
O O13 0.721899 0.069978 0.092764
O O14 0.776607 0.480583 0.790953
O O15 0.765795 0.511228 0.542152
O O16 0.777588 0.362054 0.630527
O O17 0.000000 0.457588 0.651459
O O18 0.000000 0.448894 0.927516
O O19 0.500000 0.664071 0.076358
O O20 0.500000 0.170417 0.149489
#
# Coordination Sequence:
#
# PCOD8167387 Si02
#       8
#     4   4   4   4   4   4   4   4
#     4   9  17  32  56  81 103 134 177 219 258 314
#     4  11  22  36  52  77 111 144 177 224 274 322
#     4   8  16  31  49  76 110 136 169 219 268 318
#     4   8  16  30  53  81 103 132 179 224 257 307
#     4  10  19  36  58  80 103 140 188 228 268 327
#     4   9  20  36  56  78 105 139 184 229 270 325
#     4   9  17  32  54  80 108 134 167 218 274 319
#     4  10  20  33  54  79 105 141 181 223 269 320
#
# _framework density 19.333637
#
# number of rings (size 3 to 8) (size 9 to 14) (size 15 to 20)
#    0.000    2.750    1.250    1.875    1.750    1.000 
#    0.000    4.375    0.000    1.500    0.000    0.000 
#    0.000    0.000    0.000    0.000    0.000    0.000 
#
# Total GULP energy -396427.434640 kJ/mol
# GULP energy per Si atom -12388.357333 kJ/mol
# Density = 1.928963 g / cm^3
# Si number density = 19.333637 Si / 1000 Ang^3
#
#
#
# Elastic Constant Matrix: (Units=GPa)
#
#
# Indices 1 2 3 4 5 6 
#
# 1 27.5359 16.1468 21.1541 0.0000 0.0000 0.0000
# 2 16.1468 60.7484 42.6177 0.0000 0.0000 0.0000
# 3 21.1541 42.6177 140.6746 0.0000 0.0000 0.0000
# 4 0.0000 0.0000 0.0000 28.2852 0.0000 0.0000
# 5 0.0000 0.0000 0.0000 0.0000 19.1593 0.0000
# 6 0.0000 0.0000 0.0000 0.0000 0.0000 20.6748
#
#
#
# Elastic Compliance Matrix: (Units=1/GPa)
#
#
# Indices 1 2 3 4 5 6 
#
# 1 0.044698 -0.009099 -0.003965 0.000000 0.000000 0.000000
# 2 -0.009099 0.022756 -0.005526 0.000000 0.000000 0.000000
# 3 -0.003965 -0.005526 0.009379 0.000000 0.000000 0.000000
# 4 0.000000 0.000000 0.000000 0.035354 0.000000 0.000000
# 5 0.000000 0.000000 0.000000 0.000000 0.052194 0.000000
# 6 0.000000 0.000000 0.000000 0.000000 0.000000 0.048368
#
#
# Mechanical properties :
#
#
# Convention : Reuss Voigt Hill
#
# Bulk Modulus (GPa) = 25.21838 43.19958 34.20898
# Shear Modulus (GPa) = 19.00080 23.55989 21.28035
#
# Velocity S-wave (km/s) = 3.13834 3.49463 3.32126
# Velocity P-wave (km/s) = 5.11902 6.21900 5.69563
#
# Compressibility (1/GPa) = 0.03965362
#
# Stress axis : x y z
#
# Youngs Moduli (GPa) = 22.37242 43.94352 106.62225
#
# Poissons Ratio (x) = 0.39984 0.42275
# Poissons Ratio (y) = 0.20357 0.58918
# Poissons Ratio (z) = 0.08871 0.24283
#
# Static dielectric constant tensor:
#      x y z
#    x 3.078500 0.000000 0.000000 
#    y 0.000000 3.661210 0.000000 
#    z 0.000000 0.000000 4.190710 
# 
# 
# High freq. dielectric constant tensor:
#      x y z
#    x 1.696740 0.000000 0.000000 
#    y 0.000000 1.745930 0.000000 
#    z 0.000000 0.000000 1.768420 
# 
# From -- ./inp_files/3035.got.cif
#   From: 2010.03.12/outbox.cif.g09.slc.cpg/sg26_2_cif.got.tgz:3035.got - 2010.04.14 03:33:09.
