data_PCOD8167454
_publ_section_title
;
Structure prediction by ZEFSAII (Michael W. Deem and Ramdas Pophale) SiO2 
 PCOD8167454
Probable space group: P M C 21
;
_chemical_formula_sum "Si O2"
_cell_formula_units_Z 32
_cell_length_a 8.916074
_cell_length_b 14.685917
_cell_length_c 12.594808
_cell_angle_alpha 90.000000
_cell_angle_beta 90.000000
_cell_angle_gamma 90.000000
_cell_volume 1649.173262
_symmetry_space_group_name_H-M "P M C 21"
_symmetry_group_IT_number 26
_symmetry_cell_setting 'orthorhombic'
loop_
_space_group_symop_operation_xyz
x,y,z
-x,-y,1/2+z
-x,y,z
x,-y,1/2+z
loop_
_atom_site_type_symbol
_atom_site_label
_atom_site_fract_x
_atom_site_fract_y
_atom_site_fract_z
Si Si1 0.174436 0.124585 0.714050
Si Si2 0.677317 0.946102 0.784626
Si Si3 0.171800 0.366774 0.424458
Si Si4 0.673313 0.178496 0.094091
Si Si5 0.165828 0.340751 0.185651
Si Si6 0.821296 0.167850 0.475028
Si Si7 0.169959 0.557196 0.480753
Si Si8 0.174418 0.254005 0.897744
O O1 0.227487 0.134864 0.592342
O O2 0.203000 0.219358 0.777908
O O3 0.000000 0.097820 0.719039
O O4 0.269321 0.049719 0.777208
O O5 0.500000 0.940639 0.801487
O O6 0.726492 0.902773 0.671575
O O7 0.752245 0.897245 0.885614
O O8 0.191322 0.380726 0.300194
O O9 0.244044 0.270743 0.461269
O O10 0.252391 0.459030 0.467748
O O11 0.000000 0.363487 0.462751
O O12 0.500000 0.169556 0.066967
O O13 0.704565 0.269465 0.160354
O O14 0.759351 0.180840 0.981860
O O15 0.000000 0.294221 0.176933
O O16 0.176403 0.424910 0.105774
O O17 0.000000 0.166519 0.460582
O O18 0.242900 0.643926 0.416733
O O19 0.000000 0.545495 0.438513
O O20 0.000000 0.259913 0.925587
#
# Coordination Sequence:
#
# PCOD8167454 Si02
#       8
#     4   4   4   4   4   4   4   4
#     4  10  23  39  57  83 114 150 186 231 284 337
#     4  11  24  39  57  81 109 144 187 236 283 336
#     4   9  16  28  51  82 113 145 181 223 273 326
#     4  10  20  34  54  78 104 138 184 236 279 321
#     4   9  16  29  50  76 107 144 184 226 274 326
#     4  10  21  38  59  85 116 148 187 231 280 338
#     4   8  15  27  48  80 111 143 183 224 268 321
#     4   9  19  36  56  81 114 148 184 225 277 333
#
# _framework density 19.403663000000002
#
# number of rings (size 3 to 8) (size 9 to 14) (size 15 to 20)
#    0.000    2.500    1.250    1.500    1.750    3.500 
#    0.000    5.000    0.000    6.000    0.000    3.500 
#    0.000    0.000    0.000    0.000    0.000    0.000 
#
# Total GULP energy -396513.775075 kJ/mol
# GULP energy per Si atom -12391.055471 kJ/mol
# Density = 1.935950 g / cm^3
# Si number density = 19.403663 Si / 1000 Ang^3
#
#
#
# Elastic Constant Matrix: (Units=GPa)
#
#
# Indices 1 2 3 4 5 6 
#
# 1 28.3268 19.9944 29.9773 0.0000 0.0000 0.0000
# 2 19.9944 128.3868 65.8947 0.0000 0.0000 0.0000
# 3 29.9773 65.8947 112.3739 0.0000 0.0000 0.0000
# 4 0.0000 0.0000 0.0000 28.3165 0.0000 0.0000
# 5 0.0000 0.0000 0.0000 0.0000 16.4988 0.0000
# 6 0.0000 0.0000 0.0000 0.0000 0.0000 9.5735
#
#
#
# Elastic Compliance Matrix: (Units=1/GPa)
#
#
# Indices 1 2 3 4 5 6 
#
# 1 0.049346 -0.001328 -0.012385 0.000000 0.000000 0.000000
# 2 -0.001328 0.011178 -0.006200 0.000000 0.000000 0.000000
# 3 -0.012385 -0.006200 0.015839 0.000000 0.000000 0.000000
# 4 0.000000 0.000000 0.000000 0.035315 0.000000 0.000000
# 5 0.000000 0.000000 0.000000 0.000000 0.060610 0.000000
# 6 0.000000 0.000000 0.000000 0.000000 0.000000 0.104455
#
#
# Mechanical properties :
#
#
# Convention : Reuss Voigt Hill
#
# Bulk Modulus (GPa) = 27.37043 55.64669 41.50856
# Shear Modulus (GPa) = 15.20915 21.09250 18.15083
#
# Velocity S-wave (km/s) = 2.80273 3.30060 3.06180
# Velocity P-wave (km/s) = 4.96086 6.57769 5.82564
#
# Compressibility (1/GPa) = 0.03653578
#
# Stress axis : x y z
#
# Youngs Moduli (GPa) = 20.26489 89.45972 63.13723
#
# Poissons Ratio (x) = 0.11885 0.78194
# Poissons Ratio (y) = 0.02692 0.39147
# Poissons Ratio (z) = 0.25098 0.55468
#
# Static dielectric constant tensor:
#      x y z
#    x 3.174370 0.000000 0.000000 
#    y 0.000000 3.723200 0.000000 
#    z 0.000000 0.000000 3.625710 
# 
# 
# High freq. dielectric constant tensor:
#      x y z
#    x 1.710260 0.000000 0.000000 
#    y 0.000000 1.758190 0.000000 
#    z 0.000000 0.000000 1.762650 
# 
# From -- ./inp_files/2966.got.cif
#   From: 2010.03.12/outbox.cif.g09.slc.cpg/sg26_2_cif.got.tgz:2966.got - 2010.04.14 03:33:09.
