data_PCOD8167538
_publ_section_title
;
Structure prediction by ZEFSAII (Michael W. Deem and Ramdas Pophale) SiO2 
 PCOD8167538
Probable space group: P M C 21
;
_chemical_formula_sum "Si O2"
_cell_formula_units_Z 32
_cell_length_a 8.805471
_cell_length_b 11.344558
_cell_length_c 16.448468
_cell_angle_alpha 90.000000
_cell_angle_beta 90.000000
_cell_angle_gamma 90.000000
_cell_volume 1643.106165
_symmetry_space_group_name_H-M "P M C 21"
_symmetry_group_IT_number 26
_symmetry_cell_setting 'orthorhombic'
loop_
_space_group_symop_operation_xyz
x,y,z
-x,-y,1/2+z
-x,y,z
x,-y,1/2+z
loop_
_atom_site_type_symbol
_atom_site_label
_atom_site_fract_x
_atom_site_fract_y
_atom_site_fract_z
Si Si1 0.319765 0.937270 0.733400
Si Si2 0.676778 0.577537 0.506389
Si Si3 0.834364 0.398407 0.283112
Si Si4 0.179122 0.189246 0.705854
Si Si5 0.323605 0.216015 0.381762
Si Si6 0.173744 0.257123 0.128680
Si Si7 0.318779 0.687700 0.049215
Si Si8 0.170225 0.357071 0.845936
O O1 0.500000 0.951573 0.735610
O O2 0.256639 0.885906 0.821007
O O3 0.274411 0.851629 0.659599
O O4 0.243056 0.058961 0.710808
O O5 0.500000 0.586781 0.525661
O O6 0.762597 0.687664 0.546659
O O7 0.737071 0.447207 0.532258
O O8 0.707779 0.604468 0.412362
O O9 0.707556 0.342868 0.341465
O O10 0.807945 0.363959 0.190815
O O11 0.829288 0.538290 0.280579
O O12 0.000000 0.352406 0.313650
O O13 0.252271 0.262792 0.632486
O O14 0.221276 0.244373 0.793651
O O15 0.000000 0.187524 0.691507
O O16 0.500000 0.193706 0.385446
O O17 0.262366 0.225520 0.474827
O O18 0.000000 0.215224 0.117120
O O19 0.500000 0.689052 0.053582
O O20 0.000000 0.340171 0.882979
#
# Coordination Sequence:
#
# PCOD8167538 Si02
#       8
#     4   4   4   4   4   4   4   4
#     4  10  21  40  63  85 114 154 201 248 295 349
#     4  11  22  36  58  90 122 153 193 242 297 356
#     4   9  17  31  55  84 112 146 186 230 287 345
#     4  11  24  41  60  85 118 160 205 248 298 353
#     4   9  18  35  59  86 115 149 190 239 291 347
#     4  10  20  36  59  86 117 152 191 238 290 350
#     4  10  21  38  60  89 122 154 195 246 299 358
#     4  10  21  37  56  81 118 156 191 239 295 354
#
# _framework density 19.475307000000001
#
# number of rings (size 3 to 8) (size 9 to 14) (size 15 to 20)
#    0.000    2.000    1.250    2.250    0.000    4.500 
#    2.250    0.000    0.000    0.000    0.000    0.000 
#    0.000    0.000    0.000    0.000    0.000    0.000 
#
# Total GULP energy -396543.089212 kJ/mol
# GULP energy per Si atom -12391.971538 kJ/mol
# Density = 1.943098 g / cm^3
# Si number density = 19.475307 Si / 1000 Ang^3
#
#
#
# Elastic Constant Matrix: (Units=GPa)
#
#
# Indices 1 2 3 4 5 6 
#
# 1 29.1962 19.5233 26.6560 0.0000 0.0000 0.0000
# 2 19.5233 107.0399 52.5153 0.0000 0.0000 0.0000
# 3 26.6560 52.5153 88.9951 0.0000 0.0000 0.0000
# 4 0.0000 0.0000 0.0000 26.4436 0.0000 0.0000
# 5 0.0000 0.0000 0.0000 0.0000 30.9193 0.0000
# 6 0.0000 0.0000 0.0000 0.0000 0.0000 29.9860
#
#
#
# Elastic Compliance Matrix: (Units=1/GPa)
#
#
# Indices 1 2 3 4 5 6 
#
# 1 0.047567 -0.002373 -0.012847 0.000000 0.000000 0.000000
# 2 -0.002373 0.013267 -0.007118 0.000000 0.000000 0.000000
# 3 -0.012847 -0.007118 0.019285 0.000000 0.000000 0.000000
# 4 0.000000 0.000000 0.000000 0.037816 0.000000 0.000000
# 5 0.000000 0.000000 0.000000 0.000000 0.032342 0.000000
# 6 0.000000 0.000000 0.000000 0.000000 0.000000 0.033349
#
#
# Mechanical properties :
#
#
# Convention : Reuss Voigt Hill
#
# Bulk Modulus (GPa) = 28.21437 46.95781 37.58609
# Shear Modulus (GPa) = 20.82309 25.90556 23.36433
#
# Velocity S-wave (km/s) = 3.27342 3.65111 3.46741
# Velocity P-wave (km/s) = 5.36710 6.47595 5.94742
#
# Compressibility (1/GPa) = 0.03544293
#
# Stress axis : x y z
#
# Youngs Moduli (GPa) = 21.02292 75.37260 51.85378
#
# Poissons Ratio (x) = 0.17885 0.66617
# Poissons Ratio (y) = 0.04988 0.36911
# Poissons Ratio (z) = 0.27008 0.53652
#
# Static dielectric constant tensor:
#      x y z
#    x 3.525240 0.000000 0.000000 
#    y 0.000000 3.515280 0.000000 
#    z 0.000000 0.000000 3.607830 
# 
# 
# High freq. dielectric constant tensor:
#      x y z
#    x 1.754230 0.000000 0.000000 
#    y 0.000000 1.750690 0.000000 
#    z 0.000000 0.000000 1.759030 
# 
# From -- ./inp_files/4254.got.cif
#   From: 2010.03.12/outbox.cif.g09.slc.cpg/sg26_3_cif.got.tgz:4254.got - 2010.04.14 03:33:09.
