data_PCOD8167460
_publ_section_title
;
Structure prediction by ZEFSAII (Michael W. Deem and Ramdas Pophale) SiO2 
 PCOD8167460
Probable space group: P M C 21
;
_chemical_formula_sum "Si O2"
_cell_formula_units_Z 32
_cell_length_a 8.909593
_cell_length_b 14.710915
_cell_length_c 12.470509
_cell_angle_alpha 90.000000
_cell_angle_beta 90.000000
_cell_angle_gamma 90.000000
_cell_volume 1634.487982
_symmetry_space_group_name_H-M "P M C 21"
_symmetry_group_IT_number 26
_symmetry_cell_setting 'orthorhombic'
loop_
_space_group_symop_operation_xyz
x,y,z
-x,-y,1/2+z
-x,y,z
x,-y,1/2+z
loop_
_atom_site_type_symbol
_atom_site_label
_atom_site_fract_x
_atom_site_fract_y
_atom_site_fract_z
Si Si1 0.326272 0.951113 0.406580
Si Si2 0.830635 0.367273 0.762773
Si Si3 0.324125 0.727600 0.795681
Si Si4 0.831979 0.367093 0.005005
Si Si5 0.320338 0.856599 0.977319
Si Si6 0.672360 0.801861 0.570760
Si Si7 0.678778 0.177505 0.718120
Si Si8 0.675703 0.544835 0.691758
O O1 0.500000 0.962378 0.379849
O O2 0.303001 0.901531 0.521481
O O3 0.256461 0.894972 0.305755
O O4 0.255360 0.051161 0.422776
O O5 0.734567 0.277424 0.746248
O O6 0.760866 0.450484 0.698840
O O7 0.000000 0.348989 0.723190
O O8 0.827942 0.401720 0.884368
O O9 0.500000 0.717901 0.808599
O O10 0.259036 0.771767 0.905288
O O11 0.286946 0.796301 0.697025
O O12 0.262490 0.625397 0.771448
O O13 0.783810 0.261951 0.004154
O O14 0.708966 0.422704 0.071405
O O15 0.000000 0.377467 0.053279
O O16 0.500000 0.858981 0.976853
O O17 0.262132 0.848231 0.099254
O O18 0.500000 0.770156 0.553253
O O19 0.500000 0.179644 0.722674
O O20 0.500000 0.528552 0.707970
#
# Coordination Sequence:
#
# PCOD8167460 Si02
#       8
#     4   4   4   4   4   4   4   4
#     4   9  17  28  48  79 110 140 181 231 279 329
#     4  11  23  38  57  81 112 150 188 235 289 344
#     4   8  16  30  48  74 109 142 176 222 281 331
#     4  10  20  35  54  78 108 143 183 230 284 338
#     4   9  18  30  49  82 118 147 180 229 286 338
#     4   9  16  29  51  75 102 138 182 232 274 319
#     4  10  20  34  54  82 113 147 188 234 284 338
#     4  10  21  36  57  83 110 147 192 239 285 339
#
# _framework density 19.577995000000001
#
# number of rings (size 3 to 8) (size 9 to 14) (size 15 to 20)
#    0.000    2.500    1.250    1.875    1.750    2.500 
#    0.000    1.250    0.000    4.500    0.000    0.000 
#    0.000    0.000    0.000    0.000    0.000    0.000 
#
# Total GULP energy -396554.214020 kJ/mol
# GULP energy per Si atom -12392.319188 kJ/mol
# Density = 1.953343 g / cm^3
# Si number density = 19.577995 Si / 1000 Ang^3
#
#
#
# Elastic Constant Matrix: (Units=GPa)
#
#
# Indices 1 2 3 4 5 6 
#
# 1 23.6572 8.3686 13.0543 0.0000 0.0000 0.0000
# 2 8.3686 110.2117 46.5458 0.0000 0.0000 0.0000
# 3 13.0543 46.5458 102.4437 0.0000 0.0000 0.0000
# 4 0.0000 0.0000 0.0000 26.4301 0.0000 0.0000
# 5 0.0000 0.0000 0.0000 0.0000 17.7452 0.0000
# 6 0.0000 0.0000 0.0000 0.0000 0.0000 6.1806
#
#
#
# Elastic Compliance Matrix: (Units=1/GPa)
#
#
# Indices 1 2 3 4 5 6 
#
# 1 0.045606 -0.001248 -0.005244 0.000000 0.000000 0.000000
# 2 -0.001248 0.011262 -0.004958 0.000000 0.000000 0.000000
# 3 -0.005244 -0.004958 0.012682 0.000000 0.000000 0.000000
# 4 0.000000 0.000000 0.000000 0.037836 0.000000 0.000000
# 5 0.000000 0.000000 0.000000 0.000000 0.056353 0.000000
# 6 0.000000 0.000000 0.000000 0.000000 0.000000 0.161797
#
#
# Mechanical properties :
#
#
# Convention : Reuss Voigt Hill
#
# Bulk Modulus (GPa) = 21.43645 41.36113 31.39879
# Shear Modulus (GPa) = 13.73675 21.29410 17.51543
#
# Velocity S-wave (km/s) = 2.65173 3.30154 2.99431
# Velocity P-wave (km/s) = 4.51094 5.97543 5.29407
#
# Compressibility (1/GPa) = 0.04664951
#
# Stress axis : x y z
#
# Youngs Moduli (GPa) = 21.92696 88.79323 78.84924
#
# Poissons Ratio (x) = 0.11082 0.41352
# Poissons Ratio (y) = 0.02737 0.39093
# Poissons Ratio (z) = 0.11500 0.44023
#
# Static dielectric constant tensor:
#      x y z
#    x 3.228700 0.000000 0.000000 
#    y 0.000000 3.668700 0.000000 
#    z 0.000000 0.000000 3.791770 
# 
# 
# High freq. dielectric constant tensor:
#      x y z
#    x 1.715860 0.000000 0.000000 
#    y 0.000000 1.763440 0.000000 
#    z 0.000000 0.000000 1.765200 
# 
# From -- ./inp_files/3015.got.cif
#   From: 2010.03.12/outbox.cif.g09.slc.cpg/sg26_2_cif.got.tgz:3015.got - 2010.04.14 03:33:09.
