data_PCOD8167573
_publ_section_title
;
Structure prediction by ZEFSAII (Michael W. Deem and Ramdas Pophale) SiO2 
 PCOD8167573
Probable space group: P M C 21
;
_chemical_formula_sum "Si O2"
_cell_formula_units_Z 32
_cell_length_a 8.549233
_cell_length_b 12.214493
_cell_length_c 15.005061
_cell_angle_alpha 90.000000
_cell_angle_beta 90.000000
_cell_angle_gamma 90.000000
_cell_volume 1566.896692
_symmetry_space_group_name_H-M "P M C 21"
_symmetry_group_IT_number 26
_symmetry_cell_setting 'orthorhombic'
loop_
_space_group_symop_operation_xyz
x,y,z
-x,-y,1/2+z
-x,y,z
x,-y,1/2+z
loop_
_atom_site_type_symbol
_atom_site_label
_atom_site_fract_x
_atom_site_fract_y
_atom_site_fract_z
Si Si1 0.182765 0.612477 0.725350
Si Si2 0.172234 0.007460 0.079795
Si Si3 0.318494 0.623355 0.233451
Si Si4 0.682463 0.234564 0.079164
Si Si5 0.186322 0.770831 0.881786
Si Si6 0.185458 0.237222 0.885617
Si Si7 0.683365 0.780136 0.074453
Si Si8 0.170205 0.004183 0.869201
O O1 0.283096 0.503194 0.719358
O O2 0.216653 0.683739 0.638735
O O3 0.238341 0.676922 0.813891
O O4 0.000000 0.584136 0.729810
O O5 0.277184 0.110632 0.108698
O O6 0.000000 0.018350 0.123792
O O7 0.250193 0.894635 0.112051
O O8 0.154560 0.005031 0.974961
O O9 0.500000 0.641368 0.254285
O O10 0.219762 0.666113 0.317287
O O11 0.268305 0.686772 0.144269
O O12 0.500000 0.255856 0.094109
O O13 0.726932 0.261264 0.977595
O O14 0.000000 0.782602 0.887481
O O15 0.256574 0.889024 0.845996
O O16 0.248314 0.742413 0.979603
O O17 0.251108 0.120584 0.844200
O O18 0.000000 0.227593 0.904203
O O19 0.500000 0.792969 0.063472
O O20 0.000000 0.002755 0.823322
#
# Coordination Sequence:
#
# PCOD8167573 Si02
#       8
#     4   4   4   4   4   4   4   4
#     4  11  24  41  60  84 114 153 205 252 289 343
#     4   9  17  33  58  87 119 152 189 233 282 345
#     4  11  25  42  57  81 118 157 200 248 297 347
#     4  11  22  38  61  89 122 155 188 236 297 353
#     4   9  19  37  61  87 115 148 188 237 289 343
#     4  10  20  37  62  89 116 151 193 236 287 349
#     4  10  21  37  59  87 119 153 189 235 293 352
#     4   7  13  29  54  84 113 139 174 223 280 338
#
# _framework density 20.422535
#
# number of rings (size 3 to 8) (size 9 to 14) (size 15 to 20)
#    0.000    2.250    0.000    4.500    0.000    5.000 
#    0.000    4.375    0.000    0.000    0.000    0.000 
#    0.000    0.000    0.000    0.000    0.000    0.000 
#
# Total GULP energy -396649.934929 kJ/mol
# GULP energy per Si atom -12395.310467 kJ/mol
# Density = 2.037605 g / cm^3
# Si number density = 20.422535 Si / 1000 Ang^3
#
#
#
# Elastic Constant Matrix: (Units=GPa)
#
#
# Indices 1 2 3 4 5 6 
#
# 1 52.8181 14.1691 18.6120 0.0000 0.0000 0.0000
# 2 14.1691 137.4157 51.5194 0.0000 0.0000 0.0000
# 3 18.6120 51.5194 87.8319 0.0000 0.0000 0.0000
# 4 0.0000 0.0000 0.0000 36.2254 0.0000 0.0000
# 5 0.0000 0.0000 0.0000 0.0000 25.6538 0.0000
# 6 0.0000 0.0000 0.0000 0.0000 0.0000 32.1702
#
#
#
# Elastic Compliance Matrix: (Units=1/GPa)
#
#
# Indices 1 2 3 4 5 6 
#
# 1 0.020502 -0.000622 -0.003980 0.000000 0.000000 0.000000
# 2 -0.000622 0.009348 -0.005351 0.000000 0.000000 0.000000
# 3 -0.003980 -0.005351 0.015368 0.000000 0.000000 0.000000
# 4 0.000000 0.000000 0.000000 0.027605 0.000000 0.000000
# 5 0.000000 0.000000 0.000000 0.000000 0.038981 0.000000
# 6 0.000000 0.000000 0.000000 0.000000 0.000000 0.031085
#
#
# Mechanical properties :
#
#
# Convention : Reuss Voigt Hill
#
# Bulk Modulus (GPa) = 39.50764 49.62964 44.56864
# Shear Modulus (GPa) = 29.20044 31.72755 30.46400
#
# Velocity S-wave (km/s) = 3.78539 3.94579 3.86642
# Velocity P-wave (km/s) = 6.20425 6.71664 6.46552
#
# Compressibility (1/GPa) = 0.02531156
#
# Stress axis : x y z
#
# Youngs Moduli (GPa) = 48.77547 106.97965 65.07221
#
# Poissons Ratio (x) = 0.06654 0.25897
# Poissons Ratio (y) = 0.03034 0.34821
# Poissons Ratio (z) = 0.19411 0.57247
#
# Static dielectric constant tensor:
#      x y z
#    x 3.591660 0.000000 0.000000 
#    y 0.000000 3.902200 0.000000 
#    z 0.000000 0.000000 3.536800 
# 
# 
# High freq. dielectric constant tensor:
#      x y z
#    x 1.786150 0.000000 0.000000 
#    y 0.000000 1.807100 0.000000 
#    z 0.000000 0.000000 1.790040 
# 
# From -- ./inp_files/4306.got.cif
#   From: 2010.03.12/outbox.cif.g09.slc.cpg/sg26_3_cif.got.tgz:4306.got - 2010.04.14 03:33:09.
