data_PCOD8167444
_publ_section_title
;
Structure prediction by ZEFSAII (Michael W. Deem and Ramdas Pophale) SiO2 
 PCOD8167444
Probable space group: P M C 21
;
_chemical_formula_sum "Si O2"
_cell_formula_units_Z 32
_cell_length_a 8.813782
_cell_length_b 11.552509
_cell_length_c 17.515250
_cell_angle_alpha 90.000000
_cell_angle_beta 90.000000
_cell_angle_gamma 90.000000
_cell_volume 1783.425453
_symmetry_space_group_name_H-M "P M C 21"
_symmetry_group_IT_number 26
_symmetry_cell_setting 'orthorhombic'
loop_
_space_group_symop_operation_xyz
x,y,z
-x,-y,1/2+z
-x,y,z
x,-y,1/2+z
loop_
_atom_site_type_symbol
_atom_site_label
_atom_site_fract_x
_atom_site_fract_y
_atom_site_fract_z
Si Si1 0.820869 0.733694 0.655370
Si Si2 0.666890 0.843894 0.883310
Si Si3 0.667288 0.951022 0.716956
Si Si4 0.819462 0.383102 0.852388
Si Si5 0.679024 0.733344 0.497529
Si Si6 0.680263 0.378610 0.301286
Si Si7 0.832449 0.048603 0.940389
Si Si8 0.832895 0.844284 0.273826
O O1 0.779476 0.867986 0.670271
O O2 0.736321 0.689814 0.579523
O O3 0.764734 0.650795 0.722886
O O4 0.000000 0.721823 0.645651
O O5 0.500000 0.838032 0.920576
O O6 0.657141 0.909491 0.803306
O O7 0.728564 0.714324 0.866739
O O8 0.773548 0.915624 0.941197
O O9 0.500000 0.947188 0.679195
O O10 0.726072 0.084064 0.715969
O O11 0.765306 0.344121 0.935571
O O12 0.730925 0.497329 0.829731
O O13 0.773628 0.285991 0.789358
O O14 0.000000 0.402291 0.854154
O O15 0.500000 0.716414 0.489000
O O16 0.720846 0.869012 0.488245
O O17 0.500000 0.372406 0.287368
O O18 0.841441 0.091206 0.854196
O O19 0.000000 0.052022 0.977734
O O20 0.000000 0.840009 0.236964
#
# Coordination Sequence:
#
# PCOD8167444 Si02
#       8
#     4   4   4   4   4   4   4   4
#     4  11  21  34  52  74 102 134 169 212 262 313
#     4   8  15  27  44  68  97 126 157 196 240 288
#     4   9  16  27  45  70  97 124 157 196 242 295
#     4  10  20  34  52  76 104 136 177 218 257 304
#     4  11  21  34  52  74 102 134 169 212 262 313
#     4  10  20  34  52  76 104 136 177 218 257 304
#     4   9  16  27  45  70  97 124 157 196 242 295
#     4   8  15  27  44  68  97 126 157 196 240 288
#
# _framework density 17.942997999999999
#
# number of rings (size 3 to 8) (size 9 to 14) (size 15 to 20)
#    0.000    2.500    0.000    5.250    0.000    7.000 
#    0.000    0.000    0.000    1.500    0.000    0.000 
#    0.000    0.000    0.000    0.000    0.000    0.000 
#
# Total GULP energy -396647.782991 kJ/mol
# GULP energy per Si atom -12395.243218 kJ/mol
# Density = 1.790216 g / cm^3
# Si number density = 17.942998 Si / 1000 Ang^3
#
#
#
# Elastic Constant Matrix: (Units=GPa)
#
#
# Indices 1 2 3 4 5 6 
#
# 1 74.4411 18.3682 6.6921 0.0000 0.0000 0.0000
# 2 18.3682 113.6369 16.2977 0.0000 0.0000 0.0000
# 3 6.6921 16.2977 38.9871 0.0000 0.0000 0.0000
# 4 0.0000 0.0000 0.0000 11.9993 0.0000 0.0000
# 5 0.0000 0.0000 0.0000 0.0000 23.7408 0.0000
# 6 0.0000 0.0000 0.0000 0.0000 0.0000 30.6935
#
#
#
# Elastic Compliance Matrix: (Units=1/GPa)
#
#
# Indices 1 2 3 4 5 6 
#
# 1 0.014080 -0.002052 -0.001559 0.000000 0.000000 0.000000
# 2 -0.002052 0.009660 -0.003686 0.000000 0.000000 0.000000
# 3 -0.001559 -0.003686 0.027458 0.000000 0.000000 0.000000
# 4 0.000000 0.000000 0.000000 0.083338 0.000000 0.000000
# 5 0.000000 0.000000 0.000000 0.000000 0.042122 0.000000
# 6 0.000000 0.000000 0.000000 0.000000 0.000000 0.032580
#
#
# Mechanical properties :
#
#
# Convention : Reuss Voigt Hill
#
# Bulk Modulus (GPa) = 27.31954 34.42013 30.86983
# Shear Modulus (GPa) = 21.18342 25.66721 23.42532
#
# Velocity S-wave (km/s) = 3.43971 3.78628 3.61715
# Velocity P-wave (km/s) = 5.57084 6.19187 5.88954
#
# Compressibility (1/GPa) = 0.03660384
#
# Stress axis : x y z
#
# Youngs Moduli (GPa) = 71.02284 103.51603 36.41932
#
# Poissons Ratio (x) = 0.21245 0.05677
# Poissons Ratio (y) = 0.14576 0.13424
# Poissons Ratio (z) = 0.11072 0.38156
#
# Static dielectric constant tensor:
#      x y z
#    x 3.564690 0.000000 0.000000 
#    y 0.000000 3.433660 0.000000 
#    z 0.000000 0.000000 2.980210 
# 
# 
# High freq. dielectric constant tensor:
#      x y z
#    x 1.708780 0.000000 0.000000 
#    y 0.000000 1.685580 0.000000 
#    z 0.000000 0.000000 1.651270 
# 
# From -- ./inp_files/4991.got.cif
#   From: 2010.03.12/outbox.cif.g09.slc.cpg/sg26_3_cif.got.tgz:4991.got - 2010.04.14 03:33:09.
