data_PCOD8167365
_publ_section_title
;
Structure prediction by ZEFSAII (Michael W. Deem and Ramdas Pophale) SiO2 
 PCOD8167365
Probable space group: P M C 21
;
_chemical_formula_sum "Si O2"
_cell_formula_units_Z 32
_cell_length_a 9.228740
_cell_length_b 16.174833
_cell_length_c 10.943574
_cell_angle_alpha 90.000000
_cell_angle_beta 90.000000
_cell_angle_gamma 90.000000
_cell_volume 1633.583714
_symmetry_space_group_name_H-M "P M C 21"
_symmetry_group_IT_number 26
_symmetry_cell_setting 'orthorhombic'
loop_
_space_group_symop_operation_xyz
x,y,z
-x,-y,1/2+z
-x,y,z
x,-y,1/2+z
loop_
_atom_site_type_symbol
_atom_site_label
_atom_site_fract_x
_atom_site_fract_y
_atom_site_fract_z
Si Si1 0.843369 0.153670 0.054300
Si Si2 0.330898 0.843870 0.906763
Si Si3 0.336149 0.868165 0.187348
Si Si4 0.670751 0.440722 0.914194
Si Si5 0.328506 0.443984 0.191689
Si Si6 0.838443 0.283342 0.268638
Si Si7 0.335250 0.259090 0.879395
Si Si8 0.830803 0.974037 0.743935
O O1 0.853667 0.212433 0.170097
O O2 0.805295 0.062658 0.106934
O O3 0.000000 0.151780 0.987602
O O4 0.723263 0.185913 0.963711
O O5 0.500000 0.837212 0.872653
O O6 0.254611 0.755805 0.878628
O O7 0.260250 0.920990 0.839170
O O8 0.302313 0.860269 0.046942
O O9 0.500000 0.899354 0.211462
O O10 0.315811 0.775745 0.242705
O O11 0.225725 0.932345 0.249220
O O12 0.500000 0.436006 0.896732
O O13 0.729759 0.496044 0.800665
O O14 0.740354 0.348726 0.896763
O O15 0.708049 0.475242 0.051642
O O16 0.500000 0.429538 0.203320
O O17 0.246809 0.358546 0.208631
O O18 0.000000 0.310530 0.312624
O O19 0.500000 0.270841 0.918621
O O20 0.000000 0.971609 0.779795
#
# Coordination Sequence:
#
# PCOD8167365 Si02
#       8
#     4   4   4   4   4   4   4   4
#     4   9  19  35  55  80 107 141 184 231 278 337
#     4  10  21  38  58  82 113 149 192 240 293 351
#     4  10  23  38  55  83 116 150 192 243 293 344
#     4   9  19  34  57  87 116 147 196 245 295 353
#     4  10  19  35  59  87 115 153 195 244 299 355
#     4  10  20  36  58  84 112 145 189 236 285 346
#     4  10  20  36  57  83 113 148 189 239 289 343
#     4  10  22  38  57  82 114 151 191 238 290 345
#
# _framework density 19.588833000000001
#
# number of rings (size 3 to 8) (size 9 to 14) (size 15 to 20)
#    0.000    2.250    1.250    1.875    1.750    5.000 
#    0.000    5.000    0.000    0.000    0.000    0.000 
#    0.000    0.000    0.000    0.000    0.000    0.000 
#
# Total GULP energy -396573.137336 kJ/mol
# GULP energy per Si atom -12392.910542 kJ/mol
# Density = 1.954425 g / cm^3
# Si number density = 19.588833 Si / 1000 Ang^3
#
#
#
# Elastic Constant Matrix: (Units=GPa)
#
#
# Indices 1 2 3 4 5 6 
#
# 1 72.1214 21.3571 39.9712 0.0000 0.0000 0.0000
# 2 21.3571 69.8427 41.7189 0.0000 0.0000 0.0000
# 3 39.9712 41.7189 101.1442 0.0000 0.0000 0.0000
# 4 0.0000 0.0000 0.0000 20.4237 0.0000 0.0000
# 5 0.0000 0.0000 0.0000 0.0000 1.0733 0.0000
# 6 0.0000 0.0000 0.0000 0.0000 0.0000 15.6981
#
#
#
# Elastic Compliance Matrix: (Units=1/GPa)
#
#
# Indices 1 2 3 4 5 6 
#
# 1 0.017897 -0.001656 -0.006390 0.000000 0.000000 0.000000
# 2 -0.001656 0.019152 -0.007245 0.000000 0.000000 0.000000
# 3 -0.006390 -0.007245 0.015400 0.000000 0.000000 0.000000
# 4 0.000000 0.000000 0.000000 0.048963 0.000000 0.000000
# 5 0.000000 0.000000 0.000000 0.000000 0.931694 0.000000
# 6 0.000000 0.000000 0.000000 0.000000 0.000000 0.063702
#
#
# Mechanical properties :
#
#
# Convention : Reuss Voigt Hill
#
# Bulk Modulus (GPa) = 45.72930 49.91141 47.82036
# Shear Modulus (GPa) = 4.40653 16.77642 10.59148
#
# Velocity S-wave (km/s) = 1.50146 2.92965 2.32780
# Velocity P-wave (km/s) = 5.13820 6.08101 5.62938
#
# Compressibility (1/GPa) = 0.02186782
#
# Stress axis : x y z
#
# Youngs Moduli (GPa) = 55.87451 52.21390 64.93311
#
# Poissons Ratio (x) = 0.08647 0.41491
# Poissons Ratio (y) = 0.09253 0.47045
# Poissons Ratio (z) = 0.35703 0.37830
#
# Static dielectric constant tensor:
#      x y z
#    x 3.576720 0.000000 0.000000 
#    y 0.000000 3.656970 0.000000 
#    z 0.000000 0.000000 3.736050 
# 
# 
# High freq. dielectric constant tensor:
#      x y z
#    x 1.750080 0.000000 0.000000 
#    y 0.000000 1.758340 0.000000 
#    z 0.000000 0.000000 1.763250 
# 
# From -- ./inp_files/3023.got.cif
#   From: 2010.03.12/outbox.cif.g09.slc.cpg/sg26_2_cif.got.tgz:3023.got - 2010.04.14 03:33:09.
