data_PCOD8167964
_publ_section_title
;
Structure prediction by ZEFSAII (Michael W. Deem and Ramdas Pophale) SiO2 
 PCOD8167964
Probable space group: P M A 2
;
_chemical_formula_sum "Si O2"
_cell_formula_units_Z 32
_cell_length_a 8.547283
_cell_length_b 9.803869
_cell_length_c 20.999722
_cell_angle_alpha 90.000000
_cell_angle_beta 90.000000
_cell_angle_gamma 90.000000
_cell_volume 1759.702004
_symmetry_space_group_name_H-M "P M A 2"
_symmetry_group_IT_number 28
_symmetry_cell_setting 'orthorhombic'
loop_
_space_group_symop_operation_xyz
x,y,z
-x,-y,z
1/2-x,y,z
1/2+x,-y,z
loop_
_atom_site_type_symbol
_atom_site_label
_atom_site_fract_x
_atom_site_fract_y
_atom_site_fract_z
Si Si1 0.934297 0.856423 0.102310
Si Si2 0.064700 0.652605 0.001055
Si Si3 0.065370 0.652142 0.727217
Si Si4 0.065182 0.652298 0.472762
Si Si5 0.934613 0.651218 0.342923
Si Si6 0.931838 0.351861 0.862831
Si Si7 0.935016 0.147141 0.239830
Si Si8 0.566039 0.652553 0.600415
O O1 0.750000 0.868177 0.114393
O O2 0.970970 0.741360 0.051294
O O3 0.019009 0.816942 0.167794
O O4 0.000000 0.000000 0.076560
O O5 0.250000 0.654577 0.015092
O O6 0.000000 0.500000 0.006158
O O7 0.026408 0.718663 0.930639
O O8 0.250000 0.650356 0.715544
O O9 0.019251 0.723509 0.795903
O O10 0.000000 0.500000 0.731075
O O11 0.986063 0.728144 0.666313
O O12 0.250000 0.653136 0.470817
O O13 0.000000 0.500000 0.474423
O O14 0.999101 0.720864 0.408257
O O15 0.005192 0.727034 0.537498
O O16 0.750000 0.643926 0.346435
O O17 0.000000 0.500000 0.333635
O O18 0.987878 0.739932 0.283769
O O19 0.750000 0.375030 0.859018
O O20 0.000000 0.500000 0.865211
O O21 0.750000 0.149396 0.247845
O O22 0.000000 0.000000 0.259953
O O23 0.500000 0.500000 0.604005
O O24 0.750000 0.650937 0.593944
#
# Coordination Sequence:
#
# PCOD8167964 Si02
#       8
#     4   4   4   4   4   4   4   4
#     4  11  22  38  57  78 101 131 165 204 249 297
#     4  10  19  33  51  75 103 134 168 207 250 299
#     4   9  14  21  32  50  76 112 153 193 233 281
#     4  10  17  27  41  60  87 122 159 199 243 291
#     4  11  21  35  53  77 105 135 168 207 250 298
#     4   8  15  25  39  58  86 120 156 195 240 286
#     4  11  22  39  59  80 103 132 165 203 247 296
#     4  10  16  22  32  50  77 114 155 196 237 284
#
# _framework density 18.184896999999999
#
# number of rings (size 3 to 8) (size 9 to 14) (size 15 to 20)
#    0.000    2.000    0.000    9.375    0.000    1.500 
#    0.000    2.500    0.000    0.000    0.000    0.000 
#    0.000    1.000    0.000    8.500    0.000   10.000 
#
# Total GULP energy -396421.937710 kJ/mol
# GULP energy per Si atom -12388.185553 kJ/mol
# Density = 1.814351 g / cm^3
# Si number density = 18.184897 Si / 1000 Ang^3
#
#
#
# Elastic Constant Matrix: (Units=GPa)
#
#
# Indices 1 2 3 4 5 6 
#
# 1 131.9694 20.4678 40.0275 0.0000 0.0000 0.0000
# 2 20.4678 40.7522 48.1421 0.0000 0.0000 0.0000
# 3 40.0275 48.1421 135.6976 0.0000 0.0000 0.0000
# 4 0.0000 0.0000 0.0000 -2.1669 0.0000 0.0000
# 5 0.0000 0.0000 0.0000 0.0000 28.4979 0.0000
# 6 0.0000 0.0000 0.0000 0.0000 0.0000 17.9804
#
#
#
# Elastic Compliance Matrix: (Units=1/GPa)
#
#
# Indices 1 2 3 4 5 6 
#
# 1 0.008439 -0.002234 -0.001697 0.000000 0.000000 0.000000
# 2 -0.002234 0.042834 -0.014538 0.000000 0.000000 0.000000
# 3 -0.001697 -0.014538 0.013027 0.000000 0.000000 0.000000
# 4 0.000000 0.000000 0.000000 -0.461482 0.000000 0.000000
# 5 0.000000 0.000000 0.000000 0.000000 0.035090 0.000000
# 6 0.000000 0.000000 0.000000 0.000000 0.000000 0.055616
#
#
# Mechanical properties :
#
#
# Convention : Reuss Voigt Hill
#
# Bulk Modulus (GPa) = 36.54450 58.41044 47.47747
# Shear Modulus (GPa) = -19.19991 22.18107 1.49058
#
# Velocity S-wave (km/s) = -3.25286 3.49628 0.90634
# Velocity P-wave (km/s) = 2.45593 6.96338 5.22112
#
# Compressibility (1/GPa) = 0.02736390
#
# Stress axis : x y z
#
# Youngs Moduli (GPa) = 118.50316 23.34573 76.76155
#
# Poissons Ratio (x) = 0.05216 0.13023
# Poissons Ratio (y) = 0.26474 1.11593
# Poissons Ratio (z) = 0.20105 0.33939
#
# Static dielectric constant tensor:
#      x y z
#    x 3.533120 0.000000 0.000000 
#    y 0.000000 2.703800 0.000000 
#    z 0.000000 0.000000 4.746390 
# 
# 
# High freq. dielectric constant tensor:
#      x y z
#    x 1.727320 0.000000 0.000000 
#    y 0.000000 1.620930 0.000000 
#    z 0.000000 0.000000 1.742740 
# 
# From -- ./inp_files/6944.got.cif
#   From: 2010.03.12/outbox.cif.g09.slc.cpg/sg28_4_cif.got.tgz:6944.got - 2010.04.14 03:39:34.
