data_PCOD8167790
_publ_section_title
;
Structure prediction by ZEFSAII (Michael W. Deem and Ramdas Pophale) SiO2 
 PCOD8167790
Probable space group: P C C 2
;
_chemical_formula_sum "Si O2"
_cell_formula_units_Z 20
_cell_length_a 17.011075
_cell_length_b 12.313401
_cell_length_c 5.356449
_cell_angle_alpha 90.000000
_cell_angle_beta 90.000000
_cell_angle_gamma 90.000000
_cell_volume 1121.984240
_symmetry_space_group_name_H-M "P C C 2"
_symmetry_group_IT_number 27
_symmetry_cell_setting 'orthorhombic'
loop_
_space_group_symop_operation_xyz
x,y,z
-x,-y,z
-x,y,1/2+z
x,-y,1/2+z
loop_
_atom_site_type_symbol
_atom_site_label
_atom_site_fract_x
_atom_site_fract_y
_atom_site_fract_z
Si Si1 0.467257 0.878515 0.524190
Si Si2 0.950134 0.793330 0.525307
Si Si3 0.718970 0.878342 0.024787
Si Si4 0.215600 0.121472 0.524779
Si Si5 0.087976 0.545408 0.025514
O O1 0.499734 0.818924 0.273831
O O2 0.374141 0.879938 0.525422
O O3 0.500000 0.000000 0.522829
O O4 0.878931 0.878849 0.525157
O O5 0.911625 0.674700 0.525162
O O6 0.000068 0.812423 0.275444
O O7 0.751001 0.818782 0.774349
O O8 0.753200 0.999360 0.024316
O O9 0.751204 0.818775 0.274946
O O10 0.131014 0.500110 0.275624
O O11 0.000000 0.500000 0.025941
#
# Coordination Sequence:
#
# PCOD8167790 Si02
#       5
#     4   4   4   4   4
#     4  10  16  25  46  69  80 106 152 186 204 245
#     4  12  21  32  47  67  84 105 159 198 215 271
#     4  10  19  35  44  59  95 122 152 174 219 271
#     4  10  20  32  46  59  83 126 148 184 228 257
#     4  10  16  30  48  66  83 102 123 186 242 270
#
# _framework density 17.825561
#
# number of rings (size 3 to 8) (size 9 to 14) (size 15 to 20)
#    0.000    1.600    4.000    7.200    0.000    0.000 
#    0.000   12.000    0.000    0.000    0.000    0.000 
#    0.000    0.000    0.000    0.000    0.000  244.000 
#
# Total GULP energy -247818.207898 kJ/mol
# GULP energy per Si atom -12390.910395 kJ/mol
# Density = 1.778499 g / cm^3
# Si number density = 17.825561 Si / 1000 Ang^3
#
#
#
# Elastic Constant Matrix: (Units=GPa)
#
#
# Indices 1 2 3 4 5 6 
#
# 1 140.2722 22.3331 77.2468 0.0000 0.0000 0.0000
# 2 22.3331 18.3552 10.3742 0.0000 0.0000 0.0000
# 3 77.2468 10.3742 242.1402 0.0000 0.0000 0.0000
# 4 0.0000 0.0000 0.0000 7.4637 0.0000 0.0000
# 5 0.0000 0.0000 0.0000 0.0000 25.3905 0.0000
# 6 0.0000 0.0000 0.0000 0.0000 0.0000 2.2628
#
#
#
# Elastic Compliance Matrix: (Units=1/GPa)
#
#
# Indices 1 2 3 4 5 6 
#
# 1 0.010480 -0.011131 -0.002866 0.000000 0.000000 0.000000
# 2 -0.011131 0.067655 0.000652 0.000000 0.000000 0.000000
# 3 -0.002866 0.000652 0.005016 0.000000 0.000000 0.000000
# 4 0.000000 0.000000 0.000000 0.133981 0.000000 0.000000
# 5 0.000000 0.000000 0.000000 0.000000 0.039385 0.000000
# 6 0.000000 0.000000 0.000000 0.000000 0.000000 0.441938
#
#
# Mechanical properties :
#
#
# Convention : Reuss Voigt Hill
#
# Bulk Modulus (GPa) = 17.71126 68.96398 43.33762
# Shear Modulus (GPa) = 6.72075 26.41096 16.56586
#
# Velocity S-wave (km/s) = 1.94383 3.85338 3.05180
# Velocity P-wave (km/s) = 3.87239 7.65312 6.06489
#
# Compressibility (1/GPa) = 0.05646124
#
# Stress axis : x y z
#
# Youngs Moduli (GPa) = 95.42373 14.78093 199.35072
#
# Poissons Ratio (x) = 0.16452 0.57139
# Poissons Ratio (y) = 1.06213 -0.13003
# Poissons Ratio (z) = 0.27351 -0.00964
#
# Static dielectric constant tensor:
#      x y z
#    x 3.077480 0.000000 0.000000 
#    y 0.000000 2.687230 0.000000 
#    z 0.000000 0.000000 22.584670 
# 
# 
# High freq. dielectric constant tensor:
#      x y z
#    x 1.668410 0.000000 0.000000 
#    y 0.000000 1.603640 0.000000 
#    z 0.000000 0.000000 1.745050 
# 
# From -- ./inp_files/280.got.cif
#   From: 2010.03.12/outbox.cif.g09.slc.cpg/sg27_1_cif.got.tgz:280.got - 2010.04.14 03:36:05.
