data_PCOD8167312
_publ_section_title
;
Structure prediction by ZEFSAII (Michael W. Deem and Ramdas Pophale) SiO2 
 PCOD8167312
Probable space group: P M C 21
;
_chemical_formula_sum "Si O2"
_cell_formula_units_Z 32
_cell_length_a 9.019309
_cell_length_b 14.512611
_cell_length_c 12.440486
_cell_angle_alpha 90.000000
_cell_angle_beta 90.000000
_cell_angle_gamma 90.000000
_cell_volume 1628.381529
_symmetry_space_group_name_H-M "P M C 21"
_symmetry_group_IT_number 26
_symmetry_cell_setting 'orthorhombic'
loop_
_space_group_symop_operation_xyz
x,y,z
-x,-y,1/2+z
-x,y,z
x,-y,1/2+z
loop_
_atom_site_type_symbol
_atom_site_label
_atom_site_fract_x
_atom_site_fract_y
_atom_site_fract_z
Si Si1 0.324919 0.942517 0.462220
Si Si2 0.830879 0.369322 0.807019
Si Si3 0.325751 0.736143 0.831109
Si Si4 0.837028 0.373246 0.049909
Si Si5 0.325605 0.857780 0.024095
Si Si6 0.832104 0.823540 0.632120
Si Si7 0.676592 0.178500 0.761912
Si Si8 0.670986 0.545765 0.735142
O O1 0.500000 0.930062 0.470270
O O2 0.256700 0.902899 0.571598
O O3 0.265841 0.893476 0.352954
O O4 0.275806 0.049503 0.461916
O O5 0.817319 0.404124 0.928461
O O6 0.733086 0.279995 0.787494
O O7 0.769511 0.455262 0.741319
O O8 0.000000 0.348407 0.773846
O O9 0.500000 0.750051 0.810418
O O10 0.278396 0.770319 0.950267
O O11 0.241303 0.799521 0.745793
O O12 0.283826 0.627766 0.818567
O O13 0.000000 0.403787 0.094361
O O14 0.826706 0.263195 0.052644
O O15 0.702306 0.416496 0.116088
O O16 0.500000 0.858841 0.038266
O O17 0.258399 0.850402 0.144624
O O18 0.000000 0.856203 0.653307
O O19 0.500000 0.180966 0.761819
O O20 0.500000 0.518934 0.747712
#
# Coordination Sequence:
#
# PCOD8167312 Si02
#       8
#     4   4   4   4   4   4   4   4
#     4  10  20  34  58  86 113 149 194 240 289 346
#     4  11  22  38  59  83 116 158 196 237 293 354
#     4   9  19  37  59  83 115 151 192 241 292 342
#     4   9  19  36  55  77 108 149 192 237 289 345
#     4   9  20  37  59  87 120 155 192 240 295 350
#     4  10  19  34  56  81 111 146 189 240 287 338
#     4  10  21  37  58  88 119 152 197 245 294 348
#     4  10  21  35  56  87 116 150 196 246 295 345
#
# _framework density 19.651413999999999
#
# number of rings (size 3 to 8) (size 9 to 14) (size 15 to 20)
#    0.000    2.250    1.250    1.125    1.750    3.000 
#    0.000    3.125    0.000    0.000    0.000    0.000 
#    0.000    0.000    0.000    0.000    0.000    0.000 
#
# Total GULP energy -396700.514135 kJ/mol
# GULP energy per Si atom -12396.891067 kJ/mol
# Density = 1.960669 g / cm^3
# Si number density = 19.651414 Si / 1000 Ang^3
#
#
#
# Elastic Constant Matrix: (Units=GPa)
#
#
# Indices 1 2 3 4 5 6 
#
# 1 35.3329 21.5840 23.4355 0.0000 0.0000 0.0000
# 2 21.5840 97.7577 38.8752 0.0000 0.0000 0.0000
# 3 23.4355 38.8752 90.6822 0.0000 0.0000 0.0000
# 4 0.0000 0.0000 0.0000 25.5866 0.0000 0.0000
# 5 0.0000 0.0000 0.0000 0.0000 22.4177 0.0000
# 6 0.0000 0.0000 0.0000 0.0000 0.0000 12.2299
#
#
#
# Elastic Compliance Matrix: (Units=1/GPa)
#
#
# Indices 1 2 3 4 5 6 
#
# 1 0.036186 -0.005148 -0.007145 0.000000 0.000000 0.000000
# 2 -0.005148 0.013064 -0.004270 0.000000 0.000000 0.000000
# 3 -0.007145 -0.004270 0.014705 0.000000 0.000000 0.000000
# 4 0.000000 0.000000 0.000000 0.039083 0.000000 0.000000
# 5 0.000000 0.000000 0.000000 0.000000 0.044608 0.000000
# 6 0.000000 0.000000 0.000000 0.000000 0.000000 0.081767
#
#
# Mechanical properties :
#
#
# Convention : Reuss Voigt Hill
#
# Bulk Modulus (GPa) = 32.43736 43.50691 37.97214
# Shear Modulus (GPa) = 18.32746 21.37205 19.84975
#
# Velocity S-wave (km/s) = 3.05721 3.30139 3.18164
# Velocity P-wave (km/s) = 5.38556 6.05967 5.73253
#
# Compressibility (1/GPa) = 0.03082865
#
# Stress axis : x y z
#
# Youngs Moduli (GPa) = 27.63486 76.54540 68.00621
#
# Poissons Ratio (x) = 0.39408 0.48589
# Poissons Ratio (y) = 0.14227 0.29039
# Poissons Ratio (z) = 0.19744 0.32685
#
# Static dielectric constant tensor:
#      x y z
#    x 3.439710 0.000000 0.000000 
#    y 0.000000 3.596450 0.000000 
#    z 0.000000 0.000000 3.640110 
# 
# 
# High freq. dielectric constant tensor:
#      x y z
#    x 1.749060 0.000000 0.000000 
#    y 0.000000 1.764240 0.000000 
#    z 0.000000 0.000000 1.765320 
# 
# From -- ./inp_files/2947.got.cif
#   From: 2010.03.12/outbox.cif.g09.slc.cpg/sg26_2_cif.got.tgz:2947.got - 2010.04.14 03:33:09.
