data_PCOD8167182
_publ_section_title
;
Structure prediction by ZEFSAII (Michael W. Deem and Ramdas Pophale) SiO2 
 PCOD8167182
Probable space group: P M C 21
;
_chemical_formula_sum "Si O2"
_cell_formula_units_Z 32
_cell_length_a 12.201863
_cell_length_b 5.049193
_cell_length_c 31.896773
_cell_angle_alpha 90.000000
_cell_angle_beta 90.000000
_cell_angle_gamma 90.000000
_cell_volume 1965.146190
_symmetry_space_group_name_H-M "P M C 21"
_symmetry_group_IT_number 26
_symmetry_cell_setting 'orthorhombic'
loop_
_space_group_symop_operation_xyz
x,y,z
-x,-y,1/2+z
-x,y,z
x,-y,1/2+z
loop_
_atom_site_type_symbol
_atom_site_label
_atom_site_fract_x
_atom_site_fract_y
_atom_site_fract_z
Si Si1 0.369744 0.181040 0.359370
Si Si2 0.296219 0.437457 0.721423
Si Si3 0.629071 0.885727 0.054553
Si Si4 0.625815 0.061421 0.266732
Si Si5 0.369156 0.321160 0.909374
Si Si6 0.245660 0.796796 0.140067
Si Si7 0.628998 0.378245 0.002679
Si Si8 0.127352 0.667901 0.668337
O O1 0.500000 0.182865 0.358567
O O2 0.327239 0.148707 0.311931
O O3 0.323088 0.449443 0.379222
O O4 0.326098 0.949378 0.389377
O O5 0.370309 0.684336 0.735997
O O6 0.331242 0.313323 0.675852
O O7 0.173357 0.558757 0.713574
O O8 0.301068 0.191992 0.753602
O O9 0.500000 0.892362 0.063812
O O10 0.689582 0.840363 0.097817
O O11 0.660332 0.660825 0.021301
O O12 0.674303 0.155055 0.034120
O O13 0.500000 0.964172 0.268960
O O14 0.500000 0.333485 0.911078
O O15 0.319953 0.351093 0.956188
O O16 0.152837 0.566157 0.134307
O O17 0.189942 0.066630 0.155271
O O18 0.500000 0.338102 0.998959
O O19 0.000000 0.729139 0.672040
#
# Coordination Sequence:
#
# PCOD8167182 Si02
#       8
#     4   4   4   4   4   4   4   4
#     4   9  17  26  40  59  84 122 159 195 224 251
#     4  10  20  35  46  70  89 124 166 186 237 273
#     4  10  19  30  43  65  97 128 156 189 222 262
#     4  11  20  31  45  66 100 132 160 192 225 266
#     4   9  15  26  40  58  81 115 168 197 216 262
#     4  10  20  34  49  72  89 123 163 184 240 274
#     4   9  17  27  42  60  86 126 161 194 226 252
#     4  10  20  37  54  68  87 116 154 199 250 284
#
# _framework density 16.283777000000001
#
# number of rings (size 3 to 8) (size 9 to 14) (size 15 to 20)
#    0.750    1.500    1.250    3.000    0.000    6.000 
#    0.000    0.000    0.000    0.000    0.000    0.000 
#    0.000    0.000    0.000   78.750    0.000    8.750 
#
# Total GULP energy -396438.362190 kJ/mol
# GULP energy per Si atom -12388.698818 kJ/mol
# Density = 1.624671 g / cm^3
# Si number density = 16.283777 Si / 1000 Ang^3
#
#
#
# Elastic Constant Matrix: (Units=GPa)
#
#
# Indices 1 2 3 4 5 6 
#
# 1 33.8445 20.5052 29.6746 0.0000 0.0000 0.0000
# 2 20.5052 71.8712 2.1390 0.0000 0.0000 0.0000
# 3 29.6746 2.1390 78.8320 0.0000 0.0000 0.0000
# 4 0.0000 0.0000 0.0000 27.0215 0.0000 0.0000
# 5 0.0000 0.0000 0.0000 0.0000 0.3339 0.0000
# 6 0.0000 0.0000 0.0000 0.0000 0.0000 13.1994
#
#
#
# Elastic Compliance Matrix: (Units=1/GPa)
#
#
# Indices 1 2 3 4 5 6 
#
# 1 0.057904 -0.015884 -0.021366 0.000000 0.000000 0.000000
# 2 -0.015884 0.018283 0.005483 0.000000 0.000000 0.000000
# 3 -0.021366 0.005483 0.020579 0.000000 0.000000 0.000000
# 4 0.000000 0.000000 0.000000 0.037008 0.000000 0.000000
# 5 0.000000 0.000000 0.000000 0.000000 2.995056 0.000000
# 6 0.000000 0.000000 0.000000 0.000000 0.000000 0.075761
#
#
# Mechanical properties :
#
#
# Convention : Reuss Voigt Hill
#
# Bulk Modulus (GPa) = 30.09159 32.13171 31.11165
# Shear Modulus (GPa) = 1.52476 16.92619 9.22548
#
# Velocity S-wave (km/s) = 0.96871 3.22755 2.38280
# Velocity P-wave (km/s) = 4.44644 5.80212 5.16892
#
# Compressibility (1/GPa) = 0.03323188
#
# Stress axis : x y z
#
# Youngs Moduli (GPa) = 17.26989 54.69709 48.59291
#
# Poissons Ratio (x) = 0.86884 1.03823
# Poissons Ratio (y) = 0.27432 -0.26645
# Poissons Ratio (z) = 0.36899 -0.29992
#
# Static dielectric constant tensor:
#      x y z
#    x 2.491170 0.000000 0.000000 
#    y 0.000000 3.405420 0.000000 
#    z 0.000000 0.000000 3.207220 
# 
# 
# High freq. dielectric constant tensor:
#      x y z
#    x 1.543900 0.000000 0.000000 
#    y 0.000000 1.656520 0.000000 
#    z 0.000000 0.000000 1.630750 
# 
# From -- ./inp_files/5656.got.cif
#   From: 2010.03.12/outbox.cif.g09.slc.cpg/sg26_3_cif.got.tgz:5656.got - 2010.04.14 03:33:09.
