data_PCOD8167178
_publ_section_title
;
Structure prediction by ZEFSAII (Michael W. Deem and Ramdas Pophale) SiO2 
 PCOD8167178
Probable space group: P M C 21
;
_chemical_formula_sum "Si O2"
_cell_formula_units_Z 28
_cell_length_a 15.218573
_cell_length_b 26.775051
_cell_length_c 5.171827
_cell_angle_alpha 90.000000
_cell_angle_beta 90.000000
_cell_angle_gamma 90.000000
_cell_volume 2107.406075
_symmetry_space_group_name_H-M "P M C 21"
_symmetry_group_IT_number 26
_symmetry_cell_setting 'orthorhombic'
loop_
_space_group_symop_operation_xyz
x,y,z
-x,-y,1/2+z
-x,y,z
x,-y,1/2+z
loop_
_atom_site_type_symbol
_atom_site_label
_atom_site_fract_x
_atom_site_fract_y
_atom_site_fract_z
Si Si1 0.218665 0.533401 0.506150
Si Si2 0.104365 0.371051 0.038147
Si Si3 0.104758 0.858375 0.540339
Si Si4 0.104377 0.311911 0.538603
Si Si5 0.895223 0.028914 0.039912
Si Si6 0.895160 0.800478 0.040311
Si Si7 0.406242 0.531905 0.595244
O O1 0.208310 0.509325 0.223168
O O2 0.143174 0.573736 0.542958
O O3 0.314761 0.560992 0.538060
O O4 0.138945 0.341354 0.788442
O O5 0.000000 0.376704 0.037774
O O6 0.138230 0.340544 0.285788
O O7 0.141579 0.914731 0.540009
O O8 0.140802 0.829528 0.790550
O O9 0.000000 0.859162 0.540302
O O10 0.140771 0.829406 0.290458
O O11 0.142515 0.255769 0.540054
O O12 0.000000 0.309413 0.541045
O O13 0.000000 0.029639 0.039933
O O14 0.859134 0.000021 0.789852
O O15 0.000000 0.799549 0.040039
O O16 0.500000 0.561498 0.552911
O O17 0.404700 0.514007 0.892084
#
# Coordination Sequence:
#
# PCOD8167178 Si02
#       7
#     4   4   4   4   4   4   4
#     4  10  19  29  41  56  72  90 111 133 157 190
#     4  10  19  29  39  51  68  89 111 133 161 198
#     4   9  15  21  30  43  55  69  92 122 153 186
#     4   9  17  28  39  49  62  82 106 134 167 197
#     4   9  15  21  27  36  53  74  91 109 141 188
#     4   9  15  23  34  45  55  68  93 128 159 185
#     4   8  14  25  40  56  72  88 106 129 156 184
#
# _framework density 13.286474999999999
#
# number of rings (size 3 to 8) (size 9 to 14) (size 15 to 20)
#    0.000    2.857    0.000    2.571    0.000    7.429 
#    0.000    0.000    0.000    0.000    0.000    0.000 
#    0.000    0.000    0.000    0.000    0.000    0.000 
#
# Total GULP energy -346965.672514 kJ/mol
# GULP energy per Si atom -12391.631161 kJ/mol
# Density = 1.325623 g / cm^3
# Si number density = 13.286475 Si / 1000 Ang^3
#
#
#
# Elastic Constant Matrix: (Units=GPa)
#
#
# Indices 1 2 3 4 5 6 
#
# 1 22.4117 20.7397 13.3089 0.0000 0.0000 0.0000
# 2 20.7397 90.6617 43.5646 0.0000 0.0000 0.0000
# 3 13.3089 43.5646 114.7954 0.0000 0.0000 0.0000
# 4 0.0000 0.0000 0.0000 25.3676 0.0000 0.0000
# 5 0.0000 0.0000 0.0000 0.0000 6.6159 0.0000
# 6 0.0000 0.0000 0.0000 0.0000 0.0000 0.3332
#
#
#
# Elastic Compliance Matrix: (Units=1/GPa)
#
#
# Indices 1 2 3 4 5 6 
#
# 1 0.056986 -0.012061 -0.002030 0.000000 0.000000 0.000000
# 2 -0.012061 0.016043 -0.004690 0.000000 0.000000 0.000000
# 3 -0.002030 -0.004690 0.010726 0.000000 0.000000 0.000000
# 4 0.000000 0.000000 0.000000 0.039420 0.000000 0.000000
# 5 0.000000 0.000000 0.000000 0.000000 0.151152 0.000000
# 6 0.000000 0.000000 0.000000 0.000000 0.000000 3.001650
#
#
# Mechanical properties :
#
#
# Convention : Reuss Voigt Hill
#
# Bulk Modulus (GPa) = 21.64774 42.56614 32.10694
# Shear Modulus (GPa) = 1.50198 16.48037 8.99118
#
# Velocity S-wave (km/s) = 1.06438 3.52573 2.60420
# Velocity P-wave (km/s) = 4.22362 6.97719 5.76715
#
# Compressibility (1/GPa) = 0.04619419
#
# Stress axis : x y z
#
# Youngs Moduli (GPa) = 17.54820 62.33416 93.22917
#
# Poissons Ratio (x) = 0.75179 0.18923
# Poissons Ratio (y) = 0.21164 0.43723
# Poissons Ratio (z) = 0.03562 0.29234
#
# Static dielectric constant tensor:
#      x y z
#    x 2.284810 0.000000 0.000000 
#    y 0.000000 2.639250 0.000000 
#    z 0.000000 0.000000 2.950670 
# 
# 
# High freq. dielectric constant tensor:
#      x y z
#    x 1.428790 0.000000 0.000000 
#    y 0.000000 1.494240 0.000000 
#    z 0.000000 0.000000 1.534110 
# 
# From -- ./inp_files/822.got.cif
#   From: 2010.03.12/outbox.cif.g09.slc.cpg/sg26_1_cif.got.tgz:822.got - 2010.04.14 03:33:09.
