data_PCOD8167058
_publ_section_title
;
Structure prediction by ZEFSAII (Michael W. Deem and Ramdas Pophale) SiO2 
 PCOD8167058
Probable space group: P M C 21
;
_chemical_formula_sum "Si O2"
_cell_formula_units_Z 32
_cell_length_a 9.019455
_cell_length_b 9.620942
_cell_length_c 21.751647
_cell_angle_alpha 90.000000
_cell_angle_beta 90.000000
_cell_angle_gamma 90.000000
_cell_volume 1887.513382
_symmetry_space_group_name_H-M "P M C 21"
_symmetry_group_IT_number 26
_symmetry_cell_setting 'orthorhombic'
loop_
_space_group_symop_operation_xyz
x,y,z
-x,-y,1/2+z
-x,y,z
x,-y,1/2+z
loop_
_atom_site_type_symbol
_atom_site_label
_atom_site_fract_x
_atom_site_fract_y
_atom_site_fract_z
Si Si1 0.673973 0.541911 0.507310
Si Si2 0.829938 0.515797 0.208873
Si Si3 0.170389 0.826266 0.170922
Si Si4 0.166977 0.293471 0.547484
Si Si5 0.828129 0.295753 0.103504
Si Si6 0.167850 0.640194 0.918034
Si Si7 0.326904 0.683018 0.795409
Si Si8 0.673423 0.901763 0.692545
O O1 0.500000 0.561881 0.498008
O O2 0.712796 0.416958 0.555225
O O3 0.745293 0.679156 0.538222
O O4 0.751166 0.502410 0.441778
O O5 0.785945 0.675162 0.196735
O O6 0.799391 0.425947 0.148223
O O7 0.731082 0.459123 0.264878
O O8 0.000000 0.502564 0.229190
O O9 0.200775 0.827425 0.096676
O O10 0.000000 0.862406 0.185459
O O11 0.274205 0.940112 0.202997
O O12 0.170830 0.247656 0.475168
O O13 0.000000 0.352751 0.562690
O O14 0.759811 0.158045 0.133826
O O15 0.000000 0.268944 0.090538
O O16 0.251483 0.708196 0.861079
O O17 0.000000 0.603324 0.899168
O O18 0.500000 0.668538 0.805945
O O19 0.285608 0.815071 0.753434
O O20 0.500000 0.895209 0.678928
#
# Coordination Sequence:
#
# PCOD8167058 Si02
#       8
#     4   4   4   4   4   4   4   4
#     4  10  17  26  46  75 101 124 153 198 251 293
#     4   9  17  30  50  71  94 125 165 204 240 288
#     4  10  18  33  52  74 101 131 170 207 246 299
#     4   8  16  30  48  73  98 124 159 203 243 289
#     4  10  17  31  50  71  98 130 164 201 243 290
#     4   9  17  31  50  72  97 127 166 206 244 295
#     4  10  20  33  48  72 102 130 165 207 251 297
#     4  10  22  34  46  72 107 137 166 206 256 303
#
# _framework density 16.953522
#
# number of rings (size 3 to 8) (size 9 to 14) (size 15 to 20)
#    0.750    1.750    1.250    2.250    0.000    3.000 
#    0.000    0.000    0.000    1.500    0.000    5.250 
#    0.000    0.000    0.000    0.000    0.000    0.000 
#
# Total GULP energy -396487.615570 kJ/mol
# GULP energy per Si atom -12390.237987 kJ/mol
# Density = 1.691494 g / cm^3
# Si number density = 16.953522 Si / 1000 Ang^3
#
#
#
# Elastic Constant Matrix: (Units=GPa)
#
#
# Indices 1 2 3 4 5 6 
#
# 1 93.1612 31.5972 39.1496 0.0000 0.0000 0.0000
# 2 31.5972 77.8488 27.1682 0.0000 0.0000 0.0000
# 3 39.1496 27.1682 83.0408 0.0000 0.0000 0.0000
# 4 0.0000 0.0000 0.0000 15.9885 0.0000 0.0000
# 5 0.0000 0.0000 0.0000 0.0000 29.5213 0.0000
# 6 0.0000 0.0000 0.0000 0.0000 0.0000 26.0142
#
#
#
# Elastic Compliance Matrix: (Units=1/GPa)
#
#
# Indices 1 2 3 4 5 6 
#
# 1 0.014371 -0.003915 -0.005494 0.000000 0.000000 0.000000
# 2 -0.003915 0.015568 -0.003247 0.000000 0.000000 0.000000
# 3 -0.005494 -0.003247 0.015695 0.000000 0.000000 0.000000
# 4 0.000000 0.000000 0.000000 0.062545 0.000000 0.000000
# 5 0.000000 0.000000 0.000000 0.000000 0.033874 0.000000
# 6 0.000000 0.000000 0.000000 0.000000 0.000000 0.038441
#
#
# Mechanical properties :
#
#
# Convention : Reuss Voigt Hill
#
# Bulk Modulus (GPa) = 49.21314 49.98677 49.59996
# Shear Modulus (GPa) = 23.52050 24.71384 24.11717
#
# Velocity S-wave (km/s) = 3.72876 3.82218 3.77576
# Velocity P-wave (km/s) = 6.90141 7.00195 6.95186
#
# Compressibility (1/GPa) = 0.02031978
#
# Stress axis : x y z
#
# Youngs Moduli (GPa) = 69.58498 64.23472 63.71491
#
# Poissons Ratio (x) = 0.25151 0.35006
# Poissons Ratio (y) = 0.27246 0.20690
# Poissons Ratio (z) = 0.38231 0.20859
#
# Static dielectric constant tensor:
#      x y z
#    x 3.153790 0.000000 0.000000 
#    y 0.000000 2.869330 0.000000 
#    z 0.000000 0.000000 3.113500 
# 
# 
# High freq. dielectric constant tensor:
#      x y z
#    x 1.662050 0.000000 0.000000 
#    y 0.000000 1.614570 0.000000 
#    z 0.000000 0.000000 1.640950 
# 
# From -- ./inp_files/5537.got.cif
#   From: 2010.03.12/outbox.cif.g09.slc.cpg/sg26_3_cif.got.tgz:5537.got - 2010.04.14 03:33:09.
