data_PCOD8167615
_publ_section_title
;
Structure prediction by ZEFSAII (Michael W. Deem and Ramdas Pophale) SiO2 
 PCOD8167615
Probable space group: P M C 21
;
_chemical_formula_sum "Si O2"
_cell_formula_units_Z 32
_cell_length_a 8.905658
_cell_length_b 13.785348
_cell_length_c 14.007526
_cell_angle_alpha 90.000000
_cell_angle_beta 90.000000
_cell_angle_gamma 90.000000
_cell_volume 1719.670275
_symmetry_space_group_name_H-M "P M C 21"
_symmetry_group_IT_number 26
_symmetry_cell_setting 'orthorhombic'
loop_
_space_group_symop_operation_xyz
x,y,z
-x,-y,1/2+z
-x,y,z
x,-y,1/2+z
loop_
_atom_site_type_symbol
_atom_site_label
_atom_site_fract_x
_atom_site_fract_y
_atom_site_fract_z
Si Si1 0.823024 0.647120 0.603910
Si Si2 0.674985 0.150310 0.115773
Si Si3 0.671060 0.657218 0.143047
Si Si4 0.325199 0.472328 0.262997
Si Si5 0.174201 0.854903 0.125609
Si Si6 0.325540 0.022724 0.472288
Si Si7 0.175547 0.024497 0.268617
Si Si8 0.326656 0.510910 0.979573
O O1 0.751718 0.750953 0.583038
O O2 0.769115 0.607438 0.706154
O O3 0.773738 0.576024 0.519098
O O4 0.000000 0.657129 0.604361
O O5 0.500000 0.167285 0.132556
O O6 0.744959 0.113677 0.215142
O O7 0.707093 0.074216 0.031774
O O8 0.500000 0.693500 0.152858
O O9 0.710565 0.580052 0.225349
O O10 0.781676 0.746961 0.156547
O O11 0.698490 0.608242 0.040237
O O12 0.500000 0.448279 0.247142
O O13 0.276231 0.465548 0.372520
O O14 0.212618 0.924672 0.214070
O O15 0.000000 0.859610 0.098968
O O16 0.268033 0.885017 0.032222
O O17 0.500000 0.037208 0.450181
O O18 0.236449 0.014591 0.374604
O O19 0.000000 0.046537 0.271404
O O20 0.500000 0.477549 0.984698
#
# Coordination Sequence:
#
# PCOD8167615 Si02
#       8
#     4   4   4   4   4   4   4   4
#     4  11  22  35  54  81 113 144 176 221 274 324
#     4  10  21  38  58  79 107 144 186 225 261 314
#     4   9  18  33  54  79 106 137 177 223 267 316
#     4   9  19  37  58  78 105 142 183 226 268 315
#     4  10  21  36  54  77 109 144 175 216 268 320
#     4  10  21  37  58  81 105 139 181 222 263 314
#     4  10  21  37  56  80 110 141 175 221 275 322
#     4   9  19  37  58  79 105 141 183 224 266 313
#
# _framework density 18.608218999999998
#
# number of rings (size 3 to 8) (size 9 to 14) (size 15 to 20)
#    0.000    2.250    0.000    3.375    0.000    7.500 
#    0.000    7.500    0.000    0.000    0.000    0.000 
#    0.000    0.000    0.000    0.000    0.000    0.000 
#
# Total GULP energy -396946.852618 kJ/mol
# GULP energy per Si atom -12404.589144 kJ/mol
# Density = 1.856587 g / cm^3
# Si number density = 18.608219 Si / 1000 Ang^3
#
#
#
# Elastic Constant Matrix: (Units=GPa)
#
#
# Indices 1 2 3 4 5 6 
#
# 1 83.4490 17.6858 13.5517 0.0000 0.0000 0.0000
# 2 17.6858 51.2797 -20.7008 0.0000 0.0000 0.0000
# 3 13.5517 -20.7008 68.5980 0.0000 0.0000 0.0000
# 4 0.0000 0.0000 0.0000 11.4361 0.0000 0.0000
# 5 0.0000 0.0000 0.0000 0.0000 26.3703 0.0000
# 6 0.0000 0.0000 0.0000 0.0000 0.0000 32.7958
#
#
#
# Elastic Compliance Matrix: (Units=1/GPa)
#
#
# Indices 1 2 3 4 5 6 
#
# 1 0.014236 -0.006884 -0.004890 0.000000 0.000000 0.000000
# 2 -0.006884 0.025535 0.009066 0.000000 0.000000 0.000000
# 3 -0.004890 0.009066 0.018279 0.000000 0.000000 0.000000
# 4 0.000000 0.000000 0.000000 0.087442 0.000000 0.000000
# 5 0.000000 0.000000 0.000000 0.000000 0.037921 0.000000
# 6 0.000000 0.000000 0.000000 0.000000 0.000000 0.030492
#
#
# Mechanical properties :
#
#
# Convention : Reuss Voigt Hill
#
# Bulk Modulus (GPa) = 18.99908 24.93335 21.96622
# Shear Modulus (GPa) = 21.10889 26.97310 24.04099
#
# Velocity S-wave (km/s) = 3.37172 3.81139 3.59828
# Velocity P-wave (km/s) = 5.03887 5.72688 5.39386
#
# Compressibility (1/GPa) = 0.05263411
#
# Stress axis : x y z
#
# Youngs Moduli (GPa) = 70.24255 39.16244 54.70647
#
# Poissons Ratio (x) = 0.26959 0.26750
# Poissons Ratio (y) = 0.48354 -0.49594
# Poissons Ratio (z) = 0.34347 -0.35503
#
# Static dielectric constant tensor:
#      x y z
#    x 3.441400 0.000000 0.000000 
#    y 0.000000 3.353740 0.000000 
#    z 0.000000 0.000000 3.447540 
# 
# 
# High freq. dielectric constant tensor:
#      x y z
#    x 1.727140 0.000000 0.000000 
#    y 0.000000 1.721370 0.000000 
#    z 0.000000 0.000000 1.723880 
# 
# From -- ./inp_files/4353.got.cif
#   From: 2010.03.12/outbox.cif.g09.slc.cpg/sg26_3_cif.got.tgz:4353.got - 2010.04.14 03:33:09.
