data_PCOD8167055
_publ_section_title
;
Structure prediction by ZEFSAII (Michael W. Deem and Ramdas Pophale) SiO2 
 PCOD8167055
Probable space group: P M C 21
;
_chemical_formula_sum "Si O2"
_cell_formula_units_Z 32
_cell_length_a 8.982725
_cell_length_b 11.432534
_cell_length_c 17.704067
_cell_angle_alpha 90.000000
_cell_angle_beta 90.000000
_cell_angle_gamma 90.000000
_cell_volume 1818.124631
_symmetry_space_group_name_H-M "P M C 21"
_symmetry_group_IT_number 26
_symmetry_cell_setting 'orthorhombic'
loop_
_space_group_symop_operation_xyz
x,y,z
-x,-y,1/2+z
-x,y,z
x,-y,1/2+z
loop_
_atom_site_type_symbol
_atom_site_label
_atom_site_fract_x
_atom_site_fract_y
_atom_site_fract_z
Si Si1 0.170320 0.849234 0.774490
Si Si2 0.825928 0.260903 0.065739
Si Si3 0.167275 0.163231 0.690578
Si Si4 0.830889 0.393285 0.219644
Si Si5 0.674618 0.372804 0.758297
Si Si6 0.163858 0.938035 0.357961
Si Si7 0.325191 0.950219 0.634468
Si Si8 0.673409 0.730437 0.417692
O O1 0.189143 0.709258 0.782745
O O2 0.292240 0.892753 0.715253
O O3 0.000000 0.873265 0.744351
O O4 0.195365 0.920885 0.853369
O O5 0.789302 0.343020 0.137082
O O6 0.747896 0.133828 0.071721
O O7 0.000000 0.240829 0.057673
O O8 0.761069 0.321150 0.989880
O O9 0.246775 0.288819 0.697455
O O10 0.168670 0.101073 0.771199
O O11 0.000000 0.183305 0.660917
O O12 0.254435 0.080567 0.631016
O O13 0.717908 0.494808 0.240922
O O14 0.000000 0.441049 0.220344
O O15 0.500000 0.355170 0.749389
O O16 0.724314 0.341809 0.843868
O O17 0.285035 0.867836 0.406201
O O18 0.000000 0.913134 0.392590
O O19 0.500000 0.959510 0.620243
O O20 0.500000 0.719567 0.433286
#
# Coordination Sequence:
#
# PCOD8167055 Si02
#       8
#     4   4   4   4   4   4   4   4
#     4   8  15  28  45  67  94 123 157 194 232 281
#     4  10  20  34  51  71  96 128 166 206 249 301
#     4   9  16  28  46  67  93 124 157 192 231 279
#     4   9  18  32  50  72  97 128 170 212 246 290
#     4  10  20  32  48  73 102 131 167 209 252 297
#     4   8  14  26  45  67  91 120 152 188 232 282
#     4  10  17  26  44  70  97 121 148 188 240 290
#     4  10  20  32  47  71 100 127 159 203 254 306
#
# _framework density 17.600553999999999
#
# number of rings (size 3 to 8) (size 9 to 14) (size 15 to 20)
#    0.000    2.750    0.000    4.125    0.000    7.000 
#    0.000    0.000    0.000    1.500    0.000    5.250 
#    0.000    0.000    0.000    0.000    0.000    0.000 
#
# Total GULP energy -396578.258452 kJ/mol
# GULP energy per Si atom -12393.070577 kJ/mol
# Density = 1.756049 g / cm^3
# Si number density = 17.600554 Si / 1000 Ang^3
#
#
#
# Elastic Constant Matrix: (Units=GPa)
#
#
# Indices 1 2 3 4 5 6 
#
# 1 96.5953 42.2463 32.1048 0.0000 0.0000 0.0000
# 2 42.2463 107.1895 31.4597 0.0000 0.0000 0.0000
# 3 32.1048 31.4597 54.6189 0.0000 0.0000 0.0000
# 4 0.0000 0.0000 0.0000 16.1769 0.0000 0.0000
# 5 0.0000 0.0000 0.0000 0.0000 24.3257 0.0000
# 6 0.0000 0.0000 0.0000 0.0000 0.0000 29.3721
#
#
#
# Elastic Compliance Matrix: (Units=1/GPa)
#
#
# Indices 1 2 3 4 5 6 
#
# 1 0.014008 -0.003736 -0.006082 0.000000 0.000000 0.000000
# 2 -0.003736 0.012224 -0.004845 0.000000 0.000000 0.000000
# 3 -0.006082 -0.004845 0.024674 0.000000 0.000000 0.000000
# 4 0.000000 0.000000 0.000000 0.061817 0.000000 0.000000
# 5 0.000000 0.000000 0.000000 0.000000 0.041109 0.000000
# 6 0.000000 0.000000 0.000000 0.000000 0.000000 0.034046
#
#
# Mechanical properties :
#
#
# Convention : Reuss Voigt Hill
#
# Bulk Modulus (GPa) = 46.33808 52.22501 49.28154
# Shear Modulus (GPa) = 22.28213 24.14779 23.21496
#
# Velocity S-wave (km/s) = 3.56194 3.70806 3.63573
# Velocity P-wave (km/s) = 6.58037 6.93323 6.75910
#
# Compressibility (1/GPa) = 0.02158052
#
# Stress axis : x y z
#
# Youngs Moduli (GPa) = 71.38901 81.80924 40.52838
#
# Poissons Ratio (x) = 0.30562 0.24649
# Poissons Ratio (y) = 0.26670 0.19635
# Poissons Ratio (z) = 0.43418 0.39634
#
# Static dielectric constant tensor:
#      x y z
#    x 3.247530 0.000000 0.000000 
#    y 0.000000 3.341350 0.000000 
#    z 0.000000 0.000000 3.053180 
# 
# 
# High freq. dielectric constant tensor:
#      x y z
#    x 1.687140 0.000000 0.000000 
#    y 0.000000 1.670130 0.000000 
#    z 0.000000 0.000000 1.637820 
# 
# From -- ./inp_files/5016.got.cif
#   From: 2010.03.12/outbox.cif.g09.slc.cpg/sg26_3_cif.got.tgz:5016.got - 2010.04.14 03:33:09.
