data_PCOD8167289
_publ_section_title
;
Structure prediction by ZEFSAII (Michael W. Deem and Ramdas Pophale) SiO2 
 PCOD8167289
Probable space group: P M C 21
;
_chemical_formula_sum "Si O2"
_cell_formula_units_Z 32
_cell_length_a 8.854493
_cell_length_b 11.951576
_cell_length_c 14.326750
_cell_angle_alpha 90.000000
_cell_angle_beta 90.000000
_cell_angle_gamma 90.000000
_cell_volume 1516.130411
_symmetry_space_group_name_H-M "P M C 21"
_symmetry_group_IT_number 26
_symmetry_cell_setting 'orthorhombic'
loop_
_space_group_symop_operation_xyz
x,y,z
-x,-y,1/2+z
-x,y,z
x,-y,1/2+z
loop_
_atom_site_type_symbol
_atom_site_label
_atom_site_fract_x
_atom_site_fract_y
_atom_site_fract_z
Si Si1 0.831077 0.674723 0.214850
Si Si2 0.326072 0.618959 0.526660
Si Si3 0.324417 0.114881 0.630892
Si Si4 0.829754 0.208274 0.904705
Si Si5 0.823930 0.158435 0.449252
Si Si6 0.675244 0.996852 0.816007
Si Si7 0.175989 0.413694 0.420976
Si Si8 0.328402 0.546827 0.729056
O O1 0.778345 0.781404 0.158453
O O2 0.831053 0.697675 0.324884
O O3 0.715660 0.576173 0.193866
O O4 0.000000 0.643257 0.180554
O O5 0.500000 0.625573 0.495927
O O6 0.240687 0.730489 0.493874
O O7 0.261802 0.504524 0.482961
O O8 0.308521 0.624431 0.638452
O O9 0.500000 0.147826 0.630587
O O10 0.266581 0.085074 0.527149
O O11 0.295155 0.015075 0.705130
O O12 0.728616 0.104089 0.874665
O O13 0.000000 0.166929 0.926292
O O14 0.787005 0.289898 0.459768
O O15 0.000000 0.134280 0.458787
O O16 0.766395 0.112800 0.349019
O O17 0.500000 0.977838 0.836137
O O18 0.221479 0.414275 0.312445
O O19 0.000000 0.441005 0.426983
O O20 0.500000 0.546988 0.765147
#
# Coordination Sequence:
#
# PCOD8167289 Si02
#       8
#     4   4   4   4   4   4   4   4
#     4  10  19  33  57  87 119 155 197 249 298 354
#     4  11  23  38  59  89 123 161 203 249 303 367
#     4  10  21  38  63  93 121 159 207 255 306 363
#     4  10  20  36  60  87 116 153 196 246 302 355
#     4  11  24  42  64  91 124 163 207 256 309 368
#     4  10  22  41  65  91 121 158 202 255 307 363
#     4  11  24  41  61  89 124 164 205 253 307 364
#     4  11  23  37  57  87 122 163 203 247 304 366
#
# _framework density 21.106363999999999
#
# number of rings (size 3 to 8) (size 9 to 14) (size 15 to 20)
#    0.000    1.500    1.250    3.750    0.000    8.500 
#    2.250    0.000    0.000    0.000    0.000    0.000 
#    0.000    0.000    0.000    0.000    0.000    0.000 
#
# Total GULP energy -396860.516663 kJ/mol
# GULP energy per Si atom -12401.891146 kJ/mol
# Density = 2.105833 g / cm^3
# Si number density = 21.106364 Si / 1000 Ang^3
#
#
#
# Elastic Constant Matrix: (Units=GPa)
#
#
# Indices 1 2 3 4 5 6 
#
# 1 79.9857 13.8537 28.6245 0.0000 0.0000 0.0000
# 2 13.8537 32.4830 2.0148 0.0000 0.0000 0.0000
# 3 28.6245 2.0148 82.9840 0.0000 0.0000 0.0000
# 4 0.0000 0.0000 0.0000 24.7435 0.0000 0.0000
# 5 0.0000 0.0000 0.0000 0.0000 32.0836 0.0000
# 6 0.0000 0.0000 0.0000 0.0000 0.0000 33.8541
#
#
#
# Elastic Compliance Matrix: (Units=1/GPa)
#
#
# Indices 1 2 3 4 5 6 
#
# 1 0.015438 -0.006263 -0.005173 0.000000 0.000000 0.000000
# 2 -0.006263 0.033373 0.001350 0.000000 0.000000 0.000000
# 3 -0.005173 0.001350 0.013802 0.000000 0.000000 0.000000
# 4 0.000000 0.000000 0.000000 0.040415 0.000000 0.000000
# 5 0.000000 0.000000 0.000000 0.000000 0.031169 0.000000
# 6 0.000000 0.000000 0.000000 0.000000 0.000000 0.029539
#
#
# Mechanical properties :
#
#
# Convention : Reuss Voigt Hill
#
# Bulk Modulus (GPa) = 23.56237 31.60430 27.58333
# Shear Modulus (GPa) = 25.24550 28.20022 26.72286
#
# Velocity S-wave (km/s) = 3.46223 3.65924 3.56210
# Velocity P-wave (km/s) = 5.21254 5.73234 5.47861
#
# Compressibility (1/GPa) = 0.04244056
#
# Stress axis : x y z
#
# Youngs Moduli (GPa) = 64.77336 29.96445 72.45224
#
# Poissons Ratio (x) = 0.18768 0.37481
# Poissons Ratio (y) = 0.40571 -0.09783
# Poissons Ratio (z) = 0.33509 -0.04046
#
# Static dielectric constant tensor:
#      x y z
#    x 3.892410 0.000000 0.000000 
#    y 0.000000 3.586960 0.000000 
#    z 0.000000 0.000000 3.972250 
# 
# 
# High freq. dielectric constant tensor:
#      x y z
#    x 1.841170 0.000000 0.000000 
#    y 0.000000 1.808760 0.000000 
#    z 0.000000 0.000000 1.832690 
# 
# From -- ./inp_files/4185.got.cif
#   From: 2010.03.12/outbox.cif.g09.slc.cpg/sg26_3_cif.got.tgz:4185.got - 2010.04.14 03:33:09.
