data_PCOD8167704
_publ_section_title
;
Structure prediction by ZEFSAII (Michael W. Deem and Ramdas Pophale) SiO2 
 PCOD8167704
Probable space group: P M C 21
;
_chemical_formula_sum "Si O2"
_cell_formula_units_Z 20
_cell_length_a 7.803547
_cell_length_b 14.520165
_cell_length_c 9.075453
_cell_angle_alpha 90.000000
_cell_angle_beta 90.000000
_cell_angle_gamma 90.000000
_cell_volume 1028.328598
_symmetry_space_group_name_H-M "P M C 21"
_symmetry_group_IT_number 26
_symmetry_cell_setting 'orthorhombic'
loop_
_space_group_symop_operation_xyz
x,y,z
-x,-y,1/2+z
-x,y,z
x,-y,1/2+z
loop_
_atom_site_type_symbol
_atom_site_label
_atom_site_fract_x
_atom_site_fract_y
_atom_site_fract_z
Si Si1 0.810034 0.788640 0.328130
Si Si2 0.309170 0.217354 0.144457
Si Si3 0.500000 0.891714 0.184890
Si Si4 0.500000 0.913100 0.836064
Si Si5 0.692420 0.413545 0.185324
Si Si6 0.305671 0.586434 0.344881
O O1 0.789294 0.818834 0.500167
O O2 0.671266 0.836376 0.223742
O O3 0.798490 0.678834 0.310276
O O4 0.000000 0.820094 0.278379
O O5 0.500000 0.246805 0.085191
O O6 0.329763 0.138735 0.270345
O O7 0.223755 0.311227 0.211060
O O8 0.500000 0.983567 0.280690
O O9 0.500000 0.912928 0.011552
O O10 0.500000 0.410611 0.249835
O O11 0.786402 0.498266 0.267349
O O12 0.698368 0.437272 0.015062
O O13 0.500000 0.600471 0.286760
#
# Coordination Sequence:
#
# PCOD8167704 Si02
#       6
#     4   4   2   2   4   4
#     4  11  21  37  61  86 121 159 197 241 289 346
#     4   8  16  37  59  89 110 149 197 234 294 345
#     4  12  22  42  61  92 115 150 191 240 300 354
#     4  10  22  38  71  84 119 148 185 248 298 356
#     4   8  14  25  49  76 112 143 189 232 273 336
#     4   9  16  30  49  80 115 153 195 237 282 339
#
# _framework density 19.449038000000002
#
# number of rings (size 3 to 8) (size 9 to 14) (size 15 to 20)
#    0.600    2.000    2.000    2.400    0.000    1.600 
#    0.000    9.000    0.000    0.000    0.000    0.000 
#    0.000    0.000    0.000    0.000    0.000    0.000 
#
# Total GULP energy -247762.263815 kJ/mol
# GULP energy per Si atom -12388.113191 kJ/mol
# Density = 1.940477 g / cm^3
# Si number density = 19.449038 Si / 1000 Ang^3
#
#
#
# Elastic Constant Matrix: (Units=GPa)
#
#
# Indices 1 2 3 4 5 6 
#
# 1 78.2067 15.2598 17.4813 0.0000 0.0000 0.0000
# 2 15.2598 80.4443 30.0164 0.0000 0.0000 0.0000
# 3 17.4813 30.0164 69.8832 0.0000 0.0000 0.0000
# 4 0.0000 0.0000 0.0000 42.1364 0.0000 0.0000
# 5 0.0000 0.0000 0.0000 0.0000 6.7213 0.0000
# 6 0.0000 0.0000 0.0000 0.0000 0.0000 3.7804
#
#
#
# Elastic Compliance Matrix: (Units=1/GPa)
#
#
# Indices 1 2 3 4 5 6 
#
# 1 0.013709 -0.001573 -0.002754 0.000000 0.000000 0.000000
# 2 -0.001573 0.014984 -0.006042 0.000000 0.000000 0.000000
# 3 -0.002754 -0.006042 0.017594 0.000000 0.000000 0.000000
# 4 0.000000 0.000000 0.000000 0.023732 0.000000 0.000000
# 5 0.000000 0.000000 0.000000 0.000000 0.148781 0.000000
# 6 0.000000 0.000000 0.000000 0.000000 0.000000 0.264523
#
#
# Mechanical properties :
#
#
# Convention : Reuss Voigt Hill
#
# Bulk Modulus (GPa) = 39.14123 39.33881 39.24002
# Shear Modulus (GPa) = 9.75462 21.57939 15.66701
#
# Velocity S-wave (km/s) = 2.24196 3.33458 2.84129
# Velocity P-wave (km/s) = 5.18368 5.92422 5.56628
#
# Compressibility (1/GPa) = 0.02554851
#
# Stress axis : x y z
#
# Youngs Moduli (GPa) = 72.94433 66.73789 56.83823
#
# Poissons Ratio (x) = 0.10498 0.15651
# Poissons Ratio (y) = 0.11475 0.34344
# Poissons Ratio (z) = 0.20086 0.40326
#
# Static dielectric constant tensor:
#      x y z
#    x 3.157900 0.000000 0.000000 
#    y 0.000000 3.668040 0.000000 
#    z 0.000000 0.000000 3.338460 
# 
# 
# High freq. dielectric constant tensor:
#      x y z
#    x 1.711920 0.000000 0.000000 
#    y 0.000000 1.766130 0.000000 
#    z 0.000000 0.000000 1.738670 
# 
# From -- ./inp_files/1376.got.cif
#   From: 2010.03.12/outbox.cif.g09.slc.cpg/sg26_1_cif.got.tgz:1376.got - 2010.04.14 03:33:09.
