data_PCOD8167486
_publ_section_title
;
Structure prediction by ZEFSAII (Michael W. Deem and Ramdas Pophale) SiO2 
 PCOD8167486
Probable space group: P M C 21
;
_chemical_formula_sum "Si O2"
_cell_formula_units_Z 26
_cell_length_a 11.992644
_cell_length_b 8.382536
_cell_length_c 12.824958
_cell_angle_alpha 90.000000
_cell_angle_beta 90.000000
_cell_angle_gamma 90.000000
_cell_volume 1289.277254
_symmetry_space_group_name_H-M "P M C 21"
_symmetry_group_IT_number 26
_symmetry_cell_setting 'orthorhombic'
loop_
_space_group_symop_operation_xyz
x,y,z
-x,-y,1/2+z
-x,y,z
x,-y,1/2+z
loop_
_atom_site_type_symbol
_atom_site_label
_atom_site_fract_x
_atom_site_fract_y
_atom_site_fract_z
Si Si1 0.319672 0.503578 0.280830
Si Si2 0.126256 0.934237 0.109287
Si Si3 0.267766 0.186513 0.199980
Si Si4 0.500000 0.294226 0.665594
Si Si5 0.126317 0.731095 0.305054
Si Si6 0.500000 0.685230 0.911868
Si Si7 0.500000 0.063755 0.239861
Si Si8 0.876111 0.932850 0.881499
O O1 0.264876 0.377711 0.199453
O O2 0.391082 0.617504 0.207057
O O3 0.217028 0.597280 0.335516
O O4 0.391799 0.414284 0.370855
O O5 0.193194 0.101348 0.113091
O O6 0.000000 0.981270 0.133819
O O7 0.165376 0.804440 0.193414
O O8 0.142045 0.859133 0.995723
O O9 0.393294 0.130325 0.179901
O O10 0.222892 0.133668 0.312958
O O11 0.500000 0.290621 0.537922
O O12 0.500000 0.125973 0.726705
O O13 0.130729 0.874310 0.388576
O O14 0.000000 0.659477 0.299643
O O15 0.500000 0.862774 0.858627
O O16 0.000000 0.885426 0.839444
#
# Coordination Sequence:
#
# PCOD8167486 Si02
#       8
#     4   4   4   2   4   2   2   4
#     4  10  22  37  55  86 116 143 185 222 277 355
#     4   9  18  34  56  80 105 142 191 230 267 320
#     4  10  20  35  53  77 111 140 176 228 275 323
#     4  11  21  41  64  78 112 151 181 235 286 320
#     4   9  18  33  53  79 112 146 181 226 274 321
#     4   9  23  43  60  82 112 147 185 233 280 330
#     4  10  22  38  58  84 104 140 198 230 266 338
#     4   9  18  34  56  79 105 144 191 230 267 318
#
# _framework density 20.166338
#
# number of rings (size 3 to 8) (size 9 to 14) (size 15 to 20)
#    0.000    2.462    0.000    3.692    0.000    7.385 
#    0.000    6.154    0.000    6.462    0.000    0.000 
#    0.000    0.000    0.000    0.000    0.000    0.000 
#
# Total GULP energy -322105.295321 kJ/mol
# GULP energy per Si atom -12388.665205 kJ/mol
# Density = 2.012044 g / cm^3
# Si number density = 20.166338 Si / 1000 Ang^3
#
#
#
# Elastic Constant Matrix: (Units=GPa)
#
#
# Indices 1 2 3 4 5 6 
#
# 1 106.7124 43.5469 15.7317 0.0000 0.0000 0.0000
# 2 43.5469 104.0821 13.9724 0.0000 0.0000 0.0000
# 3 15.7317 13.9724 91.7421 0.0000 0.0000 0.0000
# 4 0.0000 0.0000 0.0000 14.1416 0.0000 0.0000
# 5 0.0000 0.0000 0.0000 0.0000 12.7726 0.0000
# 6 0.0000 0.0000 0.0000 0.0000 0.0000 31.0254
#
#
#
# Elastic Compliance Matrix: (Units=1/GPa)
#
#
# Indices 1 2 3 4 5 6 
#
# 1 0.011441 -0.004618 -0.001259 0.000000 0.000000 0.000000
# 2 -0.004618 0.011672 -0.000986 0.000000 0.000000 0.000000
# 3 -0.001259 -0.000986 0.011266 0.000000 0.000000 0.000000
# 4 0.000000 0.000000 0.000000 0.070713 0.000000 0.000000
# 5 0.000000 0.000000 0.000000 0.000000 0.078293 0.000000
# 6 0.000000 0.000000 0.000000 0.000000 0.000000 0.032232
#
#
# Mechanical properties :
#
#
# Convention : Reuss Voigt Hill
#
# Bulk Modulus (GPa) = 48.41495 49.89318 49.15406
# Shear Modulus (GPa) = 21.16613 26.87362 24.01988
#
# Velocity S-wave (km/s) = 3.24323 3.65444 3.45496
# Velocity P-wave (km/s) = 6.17128 6.52695 6.35160
#
# Compressibility (1/GPa) = 0.02065478
#
# Stress axis : x y z
#
# Youngs Moduli (GPa) = 87.40534 85.67371 88.76201
#
# Poissons Ratio (x) = 0.39563 0.11171
# Poissons Ratio (y) = 0.40362 0.08750
# Poissons Ratio (z) = 0.11001 0.08446
#
# Static dielectric constant tensor:
#      x y z
#    x 3.870870 0.000000 0.000000 
#    y 0.000000 3.648790 0.000000 
#    z 0.000000 0.000000 3.507900 
# 
# 
# High freq. dielectric constant tensor:
#      x y z
#    x 1.806950 0.000000 0.000000 
#    y 0.000000 1.773590 0.000000 
#    z 0.000000 0.000000 1.762580 
# 
# From -- ./inp_files/4496.got.cif
#   From: 2010.03.12/outbox.cif.g09.slc.cpg/sg26_3_cif.got.tgz:4496.got - 2010.04.14 03:33:09.
