data_PCOD8167496
_publ_section_title
;
Structure prediction by ZEFSAII (Michael W. Deem and Ramdas Pophale) SiO2 
 PCOD8167496
Probable space group: P M C 21
;
_chemical_formula_sum "Si O2"
_cell_formula_units_Z 32
_cell_length_a 8.564884
_cell_length_b 12.334622
_cell_length_c 15.389310
_cell_angle_alpha 90.000000
_cell_angle_beta 90.000000
_cell_angle_gamma 90.000000
_cell_volume 1625.797601
_symmetry_space_group_name_H-M "P M C 21"
_symmetry_group_IT_number 26
_symmetry_cell_setting 'orthorhombic'
loop_
_space_group_symop_operation_xyz
x,y,z
-x,-y,1/2+z
-x,y,z
x,-y,1/2+z
loop_
_atom_site_type_symbol
_atom_site_label
_atom_site_fract_x
_atom_site_fract_y
_atom_site_fract_z
Si Si1 0.683933 0.132677 0.605980
Si Si2 0.813709 0.528242 0.451526
Si Si3 0.827255 0.754986 0.707319
Si Si4 0.185641 0.626202 0.105980
Si Si5 0.827255 0.754986 0.504641
Si Si6 0.186291 0.528241 0.760434
Si Si7 0.814887 0.984747 0.455788
Si Si8 0.185113 0.015253 0.256172
O O1 0.500000 0.127742 0.605980
O O2 0.738281 0.256363 0.605980
O O3 0.743937 0.076071 0.517977
O O4 0.743938 0.076071 0.693982
O O5 0.755244 0.439334 0.520907
O O6 0.740371 0.647390 0.469883
O O7 0.754011 0.500000 0.355980
O O8 0.000000 0.534795 0.458180
O O9 0.841428 0.741551 0.605980
O O10 0.740371 0.647390 0.742078
O O11 0.000000 0.760749 0.749876
O O12 0.741702 0.867531 0.730663
O O13 0.244756 0.560665 0.191052
O O14 0.000000 0.639738 0.105980
O O15 0.000000 0.760749 0.462084
O O16 0.741702 0.867531 0.481297
O O17 0.000000 0.534795 0.753780
O O18 0.000000 0.988436 0.470406
O O19 0.767360 1.000000 0.355980
O O20 0.000000 0.011564 0.241554
#
# Coordination Sequence:
#
# PCOD8167496 Si02
#       8
#     4   4   4   4   4   4   4   4
#     4  12  26  41  56  78 120 165 197 232 285 352
#     4   9  17  28  49  83 115 140 172 228 292 338
#     4   9  15  28  50  79 113 140 172 227 288 336
#     4  10  20  35  56  82 112 145 191 238 281 340
#     4   9  15  28  50  79 113 140 172 227 288 336
#     4   9  17  28  49  83 115 140 172 228 292 338
#     4  10  21  37  62  91 115 145 191 245 294 340
#     4  10  21  37  62  91 115 145 191 245 294 340
#
# _framework density 19.682645999999998
#
# number of rings (size 3 to 8) (size 9 to 14) (size 15 to 20)
#    0.000    2.250    2.500    1.125    3.500    0.500 
#    0.000    0.000    0.000    3.750    0.000    0.000 
#    0.000    0.000    0.000    0.000    0.000    0.000 
#
# Total GULP energy -396594.034434 kJ/mol
# GULP energy per Si atom -12393.563576 kJ/mol
# Density = 1.963785 g / cm^3
# Si number density = 19.682646 Si / 1000 Ang^3
#
#
#
# Elastic Constant Matrix: (Units=GPa)
#
#
# Indices 1 2 3 4 5 6 
#
# 1 36.8154 25.9541 27.4314 0.0000 0.0000 0.0000
# 2 25.9541 200.3157 85.9088 0.0000 0.0000 0.0000
# 3 27.4314 85.9088 158.0367 0.0000 0.0000 0.0000
# 4 0.0000 0.0000 0.0000 39.8010 0.0000 0.0000
# 5 0.0000 0.0000 0.0000 0.0000 7.6948 0.0000
# 6 0.0000 0.0000 0.0000 0.0000 0.0000 4.3213
#
#
#
# Elastic Compliance Matrix: (Units=1/GPa)
#
#
# Indices 1 2 3 4 5 6 
#
# 1 0.031990 -0.002300 -0.004303 0.000000 0.000000 0.000000
# 2 -0.002300 0.006675 -0.003229 0.000000 0.000000 0.000000
# 3 -0.004303 -0.003229 0.008830 0.000000 0.000000 0.000000
# 4 0.000000 0.000000 0.000000 0.025125 0.000000 0.000000
# 5 0.000000 0.000000 0.000000 0.000000 0.129957 0.000000
# 6 0.000000 0.000000 0.000000 0.000000 0.000000 0.231412
#
#
# Mechanical properties :
#
#
# Convention : Reuss Voigt Hill
#
# Bulk Modulus (GPa) = 35.93048 74.86181 55.39615
# Shear Modulus (GPa) = 10.80079 27.42166 19.11123
#
# Velocity S-wave (km/s) = 2.34508 3.73660 3.11942
# Velocity P-wave (km/s) = 5.06232 7.53214 6.41717
#
# Compressibility (1/GPa) = 0.02783152
#
# Stress axis : x y z
#
# Youngs Moduli (GPa) = 31.26019 149.81168 113.25051
#
# Poissons Ratio (x) = 0.34449 0.48727
# Poissons Ratio (y) = 0.07188 0.36573
# Poissons Ratio (z) = 0.13450 0.48380
#
# Static dielectric constant tensor:
#      x y z
#    x 2.949860 0.000000 0.000000 
#    y 0.000000 2.308470 0.000000 
#    z 0.000000 0.000000 3.649530 
# 
# 
# High freq. dielectric constant tensor:
#      x y z
#    x 1.693840 0.000000 0.000000 
#    y 0.000000 1.793970 0.000000 
#    z 0.000000 0.000000 1.776970 
# 
# From -- ./inp_files/4156.got.cif
#   From: 2010.03.12/outbox.cif.g09.slc.cpg/sg26_3_cif.got.tgz:4156.got - 2010.04.14 03:33:09.
