data_PCOD8167634
_publ_section_title
;
Structure prediction by ZEFSAII (Michael W. Deem and Ramdas Pophale) SiO2 
 PCOD8167634
Probable space group: P M C 21
;
_chemical_formula_sum "Si O2"
_cell_formula_units_Z 32
_cell_length_a 13.680931
_cell_length_b 14.056266
_cell_length_c 9.178676
_cell_angle_alpha 90.000000
_cell_angle_beta 90.000000
_cell_angle_gamma 90.000000
_cell_volume 1765.085143
_symmetry_space_group_name_H-M "P M C 21"
_symmetry_group_IT_number 26
_symmetry_cell_setting 'orthorhombic'
loop_
_space_group_symop_operation_xyz
x,y,z
-x,-y,1/2+z
-x,y,z
x,-y,1/2+z
loop_
_atom_site_type_symbol
_atom_site_label
_atom_site_fract_x
_atom_site_fract_y
_atom_site_fract_z
Si Si1 0.387978 0.919066 0.046470
Si Si2 0.281041 0.703255 0.399146
Si Si3 0.723371 0.623568 0.710038
Si Si4 0.890118 0.569214 0.914036
Si Si5 0.386355 0.425999 0.691102
Si Si6 0.614408 0.719753 0.945096
Si Si7 0.109452 0.378963 0.743492
Si Si8 0.386977 0.898716 0.384070
O O1 0.500000 0.918052 0.995609
O O2 0.376981 0.927580 0.217574
O O3 0.337335 0.820984 0.990850
O O4 0.341540 0.013327 0.974997
O O5 0.247354 0.663173 0.554040
O O6 0.367960 0.637369 0.334988
O O7 0.187786 0.701540 0.289150
O O8 0.319900 0.809029 0.419518
O O9 0.817152 0.631038 0.815636
O O10 0.681619 0.517662 0.697645
O O11 0.641869 0.692638 0.780600
O O12 0.881677 0.459850 0.866419
O O13 0.000000 0.606970 0.885527
O O14 0.863922 0.577234 0.085332
O O15 0.500000 0.455486 0.685122
O O16 0.351703 0.365451 0.551360
O O17 0.500000 0.730965 0.963355
O O18 0.000000 0.335462 0.742039
O O19 0.500000 0.875847 0.424607
#
# Coordination Sequence:
#
# PCOD8167634 Si02
#       8
#     4   4   4   4   4   4   4   4
#     4   9  19  36  56  77 105 145 187 234 283 323
#     4  12  23  35  55  84 113 147 189 233 280 335
#     4  12  24  33  52  82 114 153 193 223 271 331
#     4  10  21  37  57  80 109 148 192 236 277 324
#     4  11  22  37  51  72 114 160 194 225 266 321
#     4  10  21  37  54  75 111 154 191 228 270 325
#     4  10  21  38  58  80 109 146 188 235 284 333
#     4  10  21  37  58  82 111 145 187 240 288 330
#
# _framework density 18.129438
#
# number of rings (size 3 to 8) (size 9 to 14) (size 15 to 20)
#    0.000    1.500    2.500    3.000    1.750    4.500 
#    0.000    0.000    0.000    0.000    0.000    1.750 
#    0.000    0.000    0.000    0.000    0.000    0.000 
#
# Total GULP energy -396787.885917 kJ/mol
# GULP energy per Si atom -12399.621435 kJ/mol
# Density = 1.808817 g / cm^3
# Si number density = 18.129438 Si / 1000 Ang^3
#
#
#
# Elastic Constant Matrix: (Units=GPa)
#
#
# Indices 1 2 3 4 5 6 
#
# 1 71.3395 42.6367 36.8950 0.0000 0.0000 0.0000
# 2 42.6367 108.9068 42.1526 0.0000 0.0000 0.0000
# 3 36.8950 42.1526 101.3268 0.0000 0.0000 0.0000
# 4 0.0000 0.0000 0.0000 28.4879 0.0000 0.0000
# 5 0.0000 0.0000 0.0000 0.0000 26.3049 0.0000
# 6 0.0000 0.0000 0.0000 0.0000 0.0000 14.7434
#
#
#
# Elastic Compliance Matrix: (Units=1/GPa)
#
#
# Indices 1 2 3 4 5 6 
#
# 1 0.020098 -0.006002 -0.004821 0.000000 0.000000 0.000000
# 2 -0.006002 0.012737 -0.003113 0.000000 0.000000 0.000000
# 3 -0.004821 -0.003113 0.012920 0.000000 0.000000 0.000000
# 4 0.000000 0.000000 0.000000 0.035103 0.000000 0.000000
# 5 0.000000 0.000000 0.000000 0.000000 0.038016 0.000000
# 6 0.000000 0.000000 0.000000 0.000000 0.000000 0.067827
#
#
# Mechanical properties :
#
#
# Convention : Reuss Voigt Hill
#
# Bulk Modulus (GPa) = 55.92332 58.32687 57.12510
# Shear Modulus (GPa) = 22.67226 24.56650 23.61938
#
# Velocity S-wave (km/s) = 3.54019 3.68511 3.61337
# Velocity P-wave (km/s) = 6.90103 7.09570 6.99904
#
# Compressibility (1/GPa) = 0.01788163
#
# Stress axis : x y z
#
# Youngs Moduli (GPa) = 49.75570 78.51139 77.40188
#
# Poissons Ratio (x) = 0.47125 0.37316
# Poissons Ratio (y) = 0.29865 0.24096
# Poissons Ratio (z) = 0.23988 0.24441
#
# Static dielectric constant tensor:
#      x y z
#    x 3.355790 0.000000 0.000000 
#    y 0.000000 3.375230 0.000000 
#    z 0.000000 0.000000 3.451360 
# 
# 
# High freq. dielectric constant tensor:
#      x y z
#    x 1.682160 0.000000 0.000000 
#    y 0.000000 1.680100 0.000000 
#    z 0.000000 0.000000 1.717710 
# 
# From -- ./inp_files/2234.got.cif
#   From: 2010.03.12/outbox.cif.g09.slc.cpg/sg26_2_cif.got.tgz:2234.got - 2010.04.14 03:33:09.
