data_PCOD8167071
_publ_section_title
;
Structure prediction by ZEFSAII (Michael W. Deem and Ramdas Pophale) SiO2 
 PCOD8167071
Probable space group: P M C 21
;
_chemical_formula_sum "Si O2"
_cell_formula_units_Z 22
_cell_length_a 11.076053
_cell_length_b 6.945322
_cell_length_c 14.149608
_cell_angle_alpha 90.000000
_cell_angle_beta 90.000000
_cell_angle_gamma 90.000000
_cell_volume 1088.483422
_symmetry_space_group_name_H-M "P M C 21"
_symmetry_group_IT_number 26
_symmetry_cell_setting 'orthorhombic'
loop_
_space_group_symop_operation_xyz
x,y,z
-x,-y,1/2+z
-x,y,z
x,-y,1/2+z
loop_
_atom_site_type_symbol
_atom_site_label
_atom_site_fract_x
_atom_site_fract_y
_atom_site_fract_z
Si Si1 0.738418 0.996874 0.354070
Si Si2 0.000000 0.222662 0.033261
Si Si3 0.737324 0.330023 0.224704
Si Si4 0.000000 0.838705 0.325314
Si Si5 0.000000 0.473095 0.202186
Si Si6 0.245595 0.033533 0.068816
Si Si7 0.363110 0.256763 0.700160
O O1 0.879923 0.968841 0.326150
O O2 0.659474 0.837124 0.301761
O O3 0.700236 0.208815 0.317686
O O4 0.702051 0.975402 0.463175
O O5 0.000000 0.428138 0.088689
O O6 0.105026 0.076240 0.061388
O O7 0.000000 0.284412 0.923234
O O8 0.658910 0.519019 0.214112
O O9 0.878872 0.374196 0.240201
O O10 0.700675 0.206301 0.131938
O O11 0.000000 0.696919 0.234086
O O12 0.272969 0.831127 0.120997
O O13 0.500000 0.220836 0.667234
#
# Coordination Sequence:
#
# PCOD8167071 Si02
#       7
#     4   2   4   2   2   4   4
#     4  10  21  40  62  89 119 153 192 242 297 356
#     4   8  18  35  60  93 122 152 192 232 294 361
#     4  10  21  37  58  88 117 152 194 238 293 357
#     4  10  17  35  61  90 124 151 188 240 291 361
#     4  10  17  34  57  87 120 159 182 232 301 346
#     4   9  21  40  62  86 122 153 191 240 299 354
#     4  11  24  40  59  84 113 156 204 247 291 341
#
# _framework density 20.21161
#
# number of rings (size 3 to 8) (size 9 to 14) (size 15 to 20)
#    0.000    2.182    1.818    0.545    0.000    8.000 
#    3.273    1.818    0.000    0.000    0.000    0.000 
#    0.000    0.000    0.000    0.000    0.000    0.000 
#
# Total GULP energy -272617.121989 kJ/mol
# GULP energy per Si atom -12391.687363 kJ/mol
# Density = 2.016561 g / cm^3
# Si number density = 20.211610 Si / 1000 Ang^3
#
#
#
# Elastic Constant Matrix: (Units=GPa)
#
#
# Indices 1 2 3 4 5 6 
#
# 1 62.3970 22.4421 28.6559 0.0000 0.0000 0.0000
# 2 22.4421 127.8346 62.9490 0.0000 0.0000 0.0000
# 3 28.6559 62.9490 140.2999 0.0000 0.0000 0.0000
# 4 0.0000 0.0000 0.0000 24.6614 0.0000 0.0000
# 5 0.0000 0.0000 0.0000 0.0000 13.8888 0.0000
# 6 0.0000 0.0000 0.0000 0.0000 0.0000 11.4858
#
#
#
# Elastic Compliance Matrix: (Units=1/GPa)
#
#
# Indices 1 2 3 4 5 6 
#
# 1 0.017979 -0.001730 -0.002896 0.000000 0.000000 0.000000
# 2 -0.001730 0.010208 -0.004226 0.000000 0.000000 0.000000
# 3 -0.002896 -0.004226 0.009615 0.000000 0.000000 0.000000
# 4 0.000000 0.000000 0.000000 0.040549 0.000000 0.000000
# 5 0.000000 0.000000 0.000000 0.000000 0.072000 0.000000
# 6 0.000000 0.000000 0.000000 0.000000 0.000000 0.087064
#
#
# Mechanical properties :
#
#
# Convention : Reuss Voigt Hill
#
# Bulk Modulus (GPa) = 49.75991 62.06951 55.91471
# Shear Modulus (GPa) = 19.09714 24.43950 21.76832
#
# Velocity S-wave (km/s) = 3.07719 3.48110 3.28536
# Velocity P-wave (km/s) = 6.10724 6.85083 6.48970
#
# Compressibility (1/GPa) = 0.02009650
#
# Stress axis : x y z
#
# Youngs Moduli (GPa) = 55.62164 97.96619 104.00039
#
# Poissons Ratio (x) = 0.16951 0.30116
# Poissons Ratio (y) = 0.09624 0.43956
# Poissons Ratio (z) = 0.16107 0.41405
#
# Static dielectric constant tensor:
#      x y z
#    x 3.497380 0.000000 0.000000 
#    y 0.000000 3.539110 0.000000 
#    z 0.000000 0.000000 3.849660 
# 
# 
# High freq. dielectric constant tensor:
#      x y z
#    x 1.775210 0.000000 0.000000 
#    y 0.000000 1.782310 0.000000 
#    z 0.000000 0.000000 1.789600 
# 
# From -- ./inp_files/4434.got.cif
#   From: 2010.03.12/outbox.cif.g09.slc.cpg/sg26_3_cif.got.tgz:4434.got - 2010.04.14 03:33:09.
