data_PCOD8167657
_publ_section_title
;
Structure prediction by ZEFSAII (Michael W. Deem and Ramdas Pophale) SiO2 
 PCOD8167657
Probable space group: P M C 21
;
_chemical_formula_sum "Si O2"
_cell_formula_units_Z 20
_cell_length_a 20.852538
_cell_length_b 8.137809
_cell_length_c 5.271995
_cell_angle_alpha 90.000000
_cell_angle_beta 90.000000
_cell_angle_gamma 90.000000
_cell_volume 894.625769
_symmetry_space_group_name_H-M "P M C 21"
_symmetry_group_IT_number 26
_symmetry_cell_setting 'orthorhombic'
loop_
_space_group_symop_operation_xyz
x,y,z
-x,-y,1/2+z
-x,y,z
x,-y,1/2+z
loop_
_atom_site_type_symbol
_atom_site_label
_atom_site_fract_x
_atom_site_fract_y
_atom_site_fract_z
Si Si1 0.425194 0.095358 0.013290
Si Si2 0.823846 0.111172 0.579300
Si Si3 0.258670 0.585396 0.096253
Si Si4 0.073860 0.395641 0.567838
Si Si5 0.399043 0.550926 0.578152
O O1 0.500000 0.143617 0.030348
O O2 0.382906 0.257052 0.058645
O O3 0.407201 0.970018 0.236066
O O4 0.759173 0.222263 0.585407
O O5 0.885265 0.229580 0.582164
O O6 0.824386 0.003984 0.325073
O O7 0.228470 0.505110 0.350342
O O8 0.335255 0.561102 0.100849
O O9 0.090345 0.491138 0.309069
O O10 0.000000 0.340926 0.573193
O O11 0.439117 0.488296 0.333731
#
# Coordination Sequence:
#
# PCOD8167657 Si02
#       5
#     4   4   4   4   4
#     4  10  21  38  60  88 120 150 186 237 294 347
#     4  12  24  38  60  89 120 153 193 246 297 340
#     4  10  21  41  60  80 114 155 198 239 283 343
#     4  10  21  39  63  88 118 158 196 234 288 353
#     4  10  21  38  59  85 114 152 195 236 282 341
#
# _framework density 22.355716000000001
#
# number of rings (size 3 to 8) (size 9 to 14) (size 15 to 20)
#    0.000    1.600    0.000    4.800    0.000    1.600 
#    0.000   24.000    0.000    0.000    0.000    0.000 
#    0.000    0.000    0.000    0.000    0.000    0.000 
#
# Total GULP energy -247898.465461 kJ/mol
# GULP energy per Si atom -12394.923273 kJ/mol
# Density = 2.230483 g / cm^3
# Si number density = 22.355716 Si / 1000 Ang^3
#
#
#
# Elastic Constant Matrix: (Units=GPa)
#
#
# Indices 1 2 3 4 5 6 
#
# 1 67.3621 28.5256 1.6654 0.0000 0.0000 0.0000
# 2 28.5256 135.5319 40.9830 0.0000 0.0000 0.0000
# 3 1.6654 40.9830 171.2125 0.0000 0.0000 0.0000
# 4 0.0000 0.0000 0.0000 52.0843 0.0000 0.0000
# 5 0.0000 0.0000 0.0000 0.0000 5.5370 0.0000
# 6 0.0000 0.0000 0.0000 0.0000 0.0000 -50.6955
#
#
#
# Elastic Compliance Matrix: (Units=1/GPa)
#
#
# Indices 1 2 3 4 5 6 
#
# 1 0.016379 -0.003664 0.000718 0.000000 0.000000 0.000000
# 2 -0.003664 0.008774 -0.002065 0.000000 0.000000 0.000000
# 3 0.000718 -0.002065 0.006328 0.000000 0.000000 0.000000
# 4 0.000000 0.000000 0.000000 0.019200 0.000000 0.000000
# 5 0.000000 0.000000 0.000000 0.000000 0.180603 0.000000
# 6 0.000000 0.000000 0.000000 0.000000 0.000000 -0.019726
#
#
# Mechanical properties :
#
#
# Convention : Reuss Voigt Hill
#
# Bulk Modulus (GPa) = 46.60123 57.38384 51.99254
# Shear Modulus (GPa) = 21.85954 21.58067 21.72011
#
# Velocity S-wave (km/s) = 3.13038 3.11035 3.12038
# Velocity P-wave (km/s) = 5.82720 6.21476 6.02410
#
# Compressibility (1/GPa) = 0.02145866
#
# Stress axis : x y z
#
# Youngs Moduli (GPa) = 61.05326 113.97461 158.03018
#
# Poissons Ratio (x) = 0.41765 -0.11344
# Poissons Ratio (y) = 0.22372 0.32626
# Poissons Ratio (z) = -0.04383 0.23531
#
# Static dielectric constant tensor:
#      x y z
#    x 3.804770 0.000000 0.000000 
#    y 0.000000 3.925820 0.000000 
#    z 0.000000 0.000000 6.332320 
# 
# 
# High freq. dielectric constant tensor:
#      x y z
#    x 1.863270 0.000000 0.000000 
#    y 0.000000 1.878650 0.000000 
#    z 0.000000 0.000000 1.920710 
# 
# From -- ./inp_files/1078.got.cif
#   From: 2010.03.12/outbox.cif.g09.slc.cpg/sg26_1_cif.got.tgz:1078.got - 2010.04.14 03:33:09.
