data_PCOD8167158
_publ_section_title
;
Structure prediction by ZEFSAII (Michael W. Deem and Ramdas Pophale) SiO2 
 PCOD8167158
Probable space group: P M C 21
;
_chemical_formula_sum "Si O2"
_cell_formula_units_Z 32
_cell_length_a 9.063007
_cell_length_b 15.430617
_cell_length_c 12.048418
_cell_angle_alpha 90.000000
_cell_angle_beta 90.000000
_cell_angle_gamma 90.000000
_cell_volume 1684.944629
_symmetry_space_group_name_H-M "P M C 21"
_symmetry_group_IT_number 26
_symmetry_cell_setting 'orthorhombic'
loop_
_space_group_symop_operation_xyz
x,y,z
-x,-y,1/2+z
-x,y,z
x,-y,1/2+z
loop_
_atom_site_type_symbol
_atom_site_label
_atom_site_fract_x
_atom_site_fract_y
_atom_site_fract_z
Si Si1 0.824216 0.896273 0.379220
Si Si2 0.169675 0.826844 0.143280
Si Si3 0.830110 0.914557 0.919012
Si Si4 0.176246 0.251274 0.288425
Si Si5 0.673978 0.653491 0.142189
Si Si6 0.170997 0.410637 0.438197
Si Si7 0.829713 0.603624 0.365200
Si Si8 0.174408 0.746230 0.538454
O O1 0.772138 0.863478 0.259375
O O2 0.762756 0.830095 0.472478
O O3 0.000000 0.899957 0.386466
O O4 0.755222 0.992302 0.394805
O O5 0.270260 0.747597 0.105034
O O6 0.000000 0.795558 0.151980
O O7 0.187317 0.900116 0.050285
O O8 0.760099 0.835861 0.847121
O O9 0.000000 0.919703 0.883959
O O10 0.231059 0.335793 0.355897
O O11 0.240151 0.256129 0.163066
O O12 0.000000 0.250864 0.288805
O O13 0.500000 0.648594 0.140236
O O14 0.729916 0.633593 0.264500
O O15 0.738978 0.586455 0.052859
O O16 0.197184 0.502450 0.380954
O O17 0.000000 0.395568 0.467040
O O18 0.781635 0.658053 0.474087
O O19 0.000000 0.624036 0.336852
O O20 0.000000 0.754088 0.546779
#
# Coordination Sequence:
#
# PCOD8167158 Si02
#       8
#     4   4   4   4   4   4   4   4
#     4   9  17  27  46  78 112 142 174 226 286 334
#     4  10  18  34  56  79 110 146 191 234 281 338
#     4   9  17  27  46  78 112 142 174 226 286 334
#     4   9  17  29  47  77 112 139 171 221 277 333
#     4  12  24  38  58  81 114 152 191 234 281 332
#     4  10  21  37  60  85 110 143 186 233 282 334
#     4  10  21  37  60  85 110 143 186 233 282 334
#     4   9  17  29  47  77 112 139 171 221 277 333
#
# _framework density 18.991720999999998
#
# number of rings (size 3 to 8) (size 9 to 14) (size 15 to 20)
#    0.000    2.250    2.500    1.125    3.500    0.500 
#    0.000    0.000    0.000    0.750    0.000    0.000 
#    0.000    0.000    0.000    0.000    0.000    0.000 
#
# Total GULP energy -396752.390512 kJ/mol
# GULP energy per Si atom -12398.512203 kJ/mol
# Density = 1.894850 g / cm^3
# Si number density = 18.991721 Si / 1000 Ang^3
#
#
#
# Elastic Constant Matrix: (Units=GPa)
#
#
# Indices 1 2 3 4 5 6 
#
# 1 42.5032 18.7682 20.3083 0.0000 0.0000 0.0000
# 2 18.7682 128.0344 44.1699 0.0000 0.0000 0.0000
# 3 20.3083 44.1699 128.8367 0.0000 0.0000 0.0000
# 4 0.0000 0.0000 0.0000 26.2246 0.0000 0.0000
# 5 0.0000 0.0000 0.0000 0.0000 8.5179 0.0000
# 6 0.0000 0.0000 0.0000 0.0000 0.0000 2.2381
#
#
#
# Elastic Compliance Matrix: (Units=1/GPa)
#
#
# Indices 1 2 3 4 5 6 
#
# 1 0.026269 -0.002747 -0.003199 0.000000 0.000000 0.000000
# 2 -0.002747 0.009145 -0.002702 0.000000 0.000000 0.000000
# 3 -0.003199 -0.002702 0.009192 0.000000 0.000000 0.000000
# 4 0.000000 0.000000 0.000000 0.038132 0.000000 0.000000
# 5 0.000000 0.000000 0.000000 0.000000 0.117400 0.000000
# 6 0.000000 0.000000 0.000000 0.000000 0.000000 0.446801
#
#
# Mechanical properties :
#
#
# Convention : Reuss Voigt Hill
#
# Bulk Modulus (GPa) = 36.61638 51.76302 44.18970
# Shear Modulus (GPa) = 7.42566 21.80464 14.61515
#
# Velocity S-wave (km/s) = 1.97950 3.39206 2.77709
# Velocity P-wave (km/s) = 4.95445 6.53117 5.79667
#
# Compressibility (1/GPa) = 0.02731019
#
# Stress axis : x y z
#
# Youngs Moduli (GPa) = 38.06739 109.34506 108.78473
#
# Poissons Ratio (x) = 0.30039 0.34800
# Poissons Ratio (y) = 0.10458 0.29397
# Poissons Ratio (z) = 0.12178 0.29549
#
# Static dielectric constant tensor:
#      x y z
#    x 2.840240 0.000000 0.000000 
#    y 0.000000 3.750850 0.000000 
#    z 0.000000 0.000000 3.673800 
# 
# 
# High freq. dielectric constant tensor:
#      x y z
#    x 1.661340 0.000000 0.000000 
#    y 0.000000 1.750980 0.000000 
#    z 0.000000 0.000000 1.753520 
# 
# From -- ./inp_files/3072.got.cif
#   From: 2010.03.12/outbox.cif.g09.slc.cpg/sg26_2_cif.got.tgz:3072.got - 2010.04.14 03:33:09.
