data_PCOD8167451
_publ_section_title
;
Structure prediction by ZEFSAII (Michael W. Deem and Ramdas Pophale) SiO2 
 PCOD8167451
Probable space group: P M C 21
;
_chemical_formula_sum "Si O2"
_cell_formula_units_Z 32
_cell_length_a 9.709926
_cell_length_b 11.302643
_cell_length_c 16.073962
_cell_angle_alpha 90.000000
_cell_angle_beta 90.000000
_cell_angle_gamma 90.000000
_cell_volume 1764.082403
_symmetry_space_group_name_H-M "P M C 21"
_symmetry_group_IT_number 26
_symmetry_cell_setting 'orthorhombic'
loop_
_space_group_symop_operation_xyz
x,y,z
-x,-y,1/2+z
-x,y,z
x,-y,1/2+z
loop_
_atom_site_type_symbol
_atom_site_label
_atom_site_fract_x
_atom_site_fract_y
_atom_site_fract_z
Si Si1 0.160782 0.578019 0.754660
Si Si2 0.160691 0.826393 0.430341
Si Si3 0.157609 0.743646 0.606661
Si Si4 0.661267 0.055627 0.475189
Si Si5 0.350274 0.906520 0.697220
Si Si6 0.654195 0.744446 0.853811
Si Si7 0.345484 0.151515 0.655020
Si Si8 0.160643 0.304878 0.761200
O O1 0.204555 0.630337 0.663082
O O2 0.241534 0.639687 0.830643
O O3 0.201267 0.441825 0.760688
O O4 0.000000 0.597959 0.770928
O O5 0.182780 0.732733 0.507185
O O6 0.207231 0.756225 0.347477
O O7 0.000000 0.862750 0.424919
O O8 0.249043 0.945592 0.441819
O O9 0.237411 0.860998 0.633072
O O10 0.000000 0.769022 0.626552
O O11 0.500000 0.027549 0.458751
O O12 0.703585 0.181049 0.433328
O O13 0.693835 0.082849 0.570715
O O14 0.500000 0.888458 0.653904
O O15 0.342559 0.840366 0.782556
O O16 0.331336 0.044541 0.721329
O O17 0.500000 0.691796 0.865997
O O18 0.500000 0.205330 0.651207
O O19 0.240117 0.252568 0.681623
O O20 0.000000 0.286373 0.745268
#
# Coordination Sequence:
#
# PCOD8167451 Si02
#       8
#     4   4   4   4   4   4   4   4
#     4   9  19  37  55  74 103 140 182 220 261 312
#     4  10  20  34  54  80 108 138 177 223 269 320
#     4   9  17  31  53  76 100 134 175 217 259 307
#     4  10  20  35  55  81 112 139 171 215 267 329
#     4   9  16  29  50  76 103 132 166 206 261 315
#     4   9  18  32  53  78 103 133 170 215 261 310
#     4  10  20  34  53  77 108 142 174 213 265 322
#     4  10  22  38  53  76 109 144 183 225 267 315
#
# _framework density 18.139741999999998
#
# number of rings (size 3 to 8) (size 9 to 14) (size 15 to 20)
#    0.000    2.500    1.250    0.750    0.000    3.500 
#    2.250    2.500    0.000    0.000    0.000    0.000 
#    0.000    0.000    0.000    0.000    0.000    0.000 
#
# Total GULP energy -396527.549821 kJ/mol
# GULP energy per Si atom -12391.485932 kJ/mol
# Density = 1.809846 g / cm^3
# Si number density = 18.139742 Si / 1000 Ang^3
#
#
#
# Elastic Constant Matrix: (Units=GPa)
#
#
# Indices 1 2 3 4 5 6 
#
# 1 64.3712 60.2884 37.5537 0.0000 0.0000 0.0000
# 2 60.2884 118.6581 47.8154 0.0000 0.0000 0.0000
# 3 37.5537 47.8154 63.3766 0.0000 0.0000 0.0000
# 4 0.0000 0.0000 0.0000 25.7751 0.0000 0.0000
# 5 0.0000 0.0000 0.0000 0.0000 23.9761 0.0000
# 6 0.0000 0.0000 0.0000 0.0000 0.0000 5.2422
#
#
#
# Elastic Compliance Matrix: (Units=1/GPa)
#
#
# Indices 1 2 3 4 5 6 
#
# 1 0.033609 -0.013005 -0.010103 0.000000 0.000000 0.000000
# 2 -0.013005 0.017141 -0.005226 0.000000 0.000000 0.000000
# 3 -0.010103 -0.005226 0.025708 0.000000 0.000000 0.000000
# 4 0.000000 0.000000 0.000000 0.038797 0.000000 0.000000
# 5 0.000000 0.000000 0.000000 0.000000 0.041708 0.000000
# 6 0.000000 0.000000 0.000000 0.000000 0.000000 0.190761
#
#
# Mechanical properties :
#
#
# Convention : Reuss Voigt Hill
#
# Bulk Modulus (GPa) = 50.53146 59.74676 55.13911
# Shear Modulus (GPa) = 12.16571 17.71523 14.94047
#
# Velocity S-wave (km/s) = 2.59253 3.12845 2.87301
# Velocity P-wave (km/s) = 6.07280 6.78661 6.43960
#
# Compressibility (1/GPa) = 0.01978965
#
# Stress axis : x y z
#
# Youngs Moduli (GPa) = 29.75371 58.33855 38.89768
#
# Poissons Ratio (x) = 0.75870 0.39299
# Poissons Ratio (y) = 0.38695 0.20329
# Poissons Ratio (z) = 0.30061 0.30490
#
# Static dielectric constant tensor:
#      x y z
#    x 3.517360 0.000000 0.000000 
#    y 0.000000 3.331310 0.000000 
#    z 0.000000 0.000000 3.621820 
# 
# 
# High freq. dielectric constant tensor:
#      x y z
#    x 1.700160 0.000000 0.000000 
#    y 0.000000 1.688980 0.000000 
#    z 0.000000 0.000000 1.703630 
# 
# From -- ./inp_files/5065.got.cif
#   From: 2010.03.12/outbox.cif.g09.slc.cpg/sg26_3_cif.got.tgz:5065.got - 2010.04.14 03:33:09.
