data_PCOD8167945
_publ_section_title
;
Structure prediction by ZEFSAII (Michael W. Deem and Ramdas Pophale) SiO2 
 PCOD8167945
Probable space group: P C C 2
;
_chemical_formula_sum "Si O2"
_cell_formula_units_Z 32
_cell_length_a 13.274414
_cell_length_b 12.911591
_cell_length_c 9.174184
_cell_angle_alpha 90.000000
_cell_angle_beta 90.000000
_cell_angle_gamma 90.000000
_cell_volume 1572.398297
_symmetry_space_group_name_H-M "P C C 2"
_symmetry_group_IT_number 27
_symmetry_cell_setting 'orthorhombic'
loop_
_space_group_symop_operation_xyz
x,y,z
-x,-y,z
-x,y,1/2+z
x,-y,1/2+z
loop_
_atom_site_type_symbol
_atom_site_label
_atom_site_fract_x
_atom_site_fract_y
_atom_site_fract_z
Si Si1 0.117764 0.198204 0.367930
Si Si2 0.720385 0.917394 0.552567
Si Si3 0.610503 0.549162 0.761660
Si Si4 0.718741 0.343808 0.778536
Si Si5 0.047422 0.114503 0.057680
Si Si6 0.751158 0.899652 0.876159
Si Si7 0.639393 0.285084 0.486194
Si Si8 0.412546 0.272294 0.533575
O O1 0.200913 0.122191 0.432937
O O2 0.172314 0.311580 0.347554
O O3 0.076304 0.154087 0.216843
O O4 0.028316 0.199981 0.486788
O O5 0.769562 0.939663 0.710997
O O6 0.631399 0.837663 0.580999
O O7 0.682988 0.023664 0.477000
O O8 0.500000 0.500000 0.747653
O O9 0.701499 0.466033 0.750750
O O10 0.624001 0.635752 0.638693
O O11 0.624400 0.600857 0.919288
O O12 0.713849 0.286769 0.623526
O O13 0.624577 0.303909 0.873516
O O14 0.141040 0.111093 0.949866
O O15 0.000000 0.000000 0.067253
O O16 0.689831 0.791912 0.869823
O O17 0.530128 0.249445 0.538086
#
# Coordination Sequence:
#
# PCOD8167945 Si02
#       8
#     4   4   4   4   4   4   4   4
#     4  11  24  42  66 103 132 166 220 289 337 404
#     4  11  25  43  62  97 139 177 222 270 341 403
#     4  12  22  41  69 100 134 178 236 276 327 386
#     4  11  24  38  65 100 137 171 223 283 338 394
#     4  12  23  40  70  98 126 171 225 284 343 395
#     4  12  25  43  66  96 134 177 221 277 341 411
#     4  12  23  41  65 102 136 177 229 274 334 396
#     4  11  23  41  64  99 137 181 226 280 319 406
#
# _framework density 20.351078999999999
#
# number of rings (size 3 to 8) (size 9 to 14) (size 15 to 20)
#    0.000    0.500    6.250    2.625    1.750    0.500 
#    0.000    1.250    0.000    0.750    0.000    0.000 
#    0.000    0.000    0.000    0.000    0.000    0.000 
#
# Total GULP energy -396706.546141 kJ/mol
# GULP energy per Si atom -12397.079567 kJ/mol
# Density = 2.030476 g / cm^3
# Si number density = 20.351079 Si / 1000 Ang^3
#
#
#
# Elastic Constant Matrix: (Units=GPa)
#
#
# Indices 1 2 3 4 5 6 
#
# 1 91.9696 63.1064 40.6042 0.0000 0.0000 0.0000
# 2 63.1064 104.8121 27.3879 0.0000 0.0000 0.0000
# 3 40.6042 27.3879 121.3214 0.0000 0.0000 0.0000
# 4 0.0000 0.0000 0.0000 32.9986 0.0000 0.0000
# 5 0.0000 0.0000 0.0000 0.0000 28.6605 0.0000
# 6 0.0000 0.0000 0.0000 0.0000 0.0000 33.8347
#
#
#
# Elastic Compliance Matrix: (Units=1/GPa)
#
#
# Indices 1 2 3 4 5 6 
#
# 1 0.020458 -0.011188 -0.004321 0.000000 0.000000 0.000000
# 2 -0.011188 0.016258 0.000074 0.000000 0.000000 0.000000
# 3 -0.004321 0.000074 0.009672 0.000000 0.000000 0.000000
# 4 0.000000 0.000000 0.000000 0.030304 0.000000 0.000000
# 5 0.000000 0.000000 0.000000 0.000000 0.034891 0.000000
# 6 0.000000 0.000000 0.000000 0.000000 0.000000 0.029555
#
#
# Mechanical properties :
#
#
# Convention : Reuss Voigt Hill
#
# Bulk Modulus (GPa) = 64.44344 64.47777 64.46061
# Shear Modulus (GPa) = 28.21955 31.56572 29.89263
#
# Velocity S-wave (km/s) = 3.72780 3.94262 3.83671
# Velocity P-wave (km/s) = 7.08966 7.24411 7.16730
#
# Compressibility (1/GPa) = 0.01551748
#
# Stress axis : x y z
#
# Youngs Moduli (GPa) = 48.88037 61.50845 103.39115
#
# Poissons Ratio (x) = 0.68819 0.44678
# Poissons Ratio (y) = 0.54690 -0.00769
# Poissons Ratio (z) = 0.21122 -0.00458
#
# Static dielectric constant tensor:
#      x y z
#    x 3.629760 0.000000 0.000000 
#    y 0.000000 3.877910 0.000000 
#    z 0.000000 0.000000 3.909470 
# 
# 
# High freq. dielectric constant tensor:
#      x y z
#    x 1.776440 0.000000 0.000000 
#    y 0.000000 1.786170 0.000000 
#    z 0.000000 0.000000 1.821900 
# 
# From -- ./inp_files/1470.got.cif
#   From: 2010.03.12/outbox.cif.g09.slc.cpg/sg27_1_cif.got.tgz:1470.got - 2010.04.14 03:36:05.
