data_PCOD8167245
_publ_section_title
;
Structure prediction by ZEFSAII (Michael W. Deem and Ramdas Pophale) SiO2 
 PCOD8167245
Probable space group: P M C 21
;
_chemical_formula_sum "Si O2"
_cell_formula_units_Z 32
_cell_length_a 8.996993
_cell_length_b 12.152334
_cell_length_c 14.531864
_cell_angle_alpha 90.000000
_cell_angle_beta 90.000000
_cell_angle_gamma 90.000000
_cell_volume 1588.833560
_symmetry_space_group_name_H-M "P M C 21"
_symmetry_group_IT_number 26
_symmetry_cell_setting 'orthorhombic'
loop_
_space_group_symop_operation_xyz
x,y,z
-x,-y,1/2+z
-x,y,z
x,-y,1/2+z
loop_
_atom_site_type_symbol
_atom_site_label
_atom_site_fract_x
_atom_site_fract_y
_atom_site_fract_z
Si Si1 0.825542 0.663932 0.628780
Si Si2 0.324072 0.398093 0.943744
Si Si3 0.328748 0.044083 0.355934
Si Si4 0.325306 0.393084 0.320912
Si Si5 0.172002 0.091773 0.172690
Si Si6 0.329102 0.203181 0.820489
Si Si7 0.168543 0.221163 0.445393
Si Si8 0.832899 0.152205 0.641539
O O1 0.754511 0.597709 0.543270
O O2 0.758936 0.615796 0.723782
O O3 0.793421 0.795682 0.616483
O O4 0.000000 0.639648 0.630058
O O5 0.500000 0.394547 0.961236
O O6 0.278348 0.498946 0.877999
O O7 0.260772 0.291387 0.890479
O O8 0.500000 0.073277 0.374822
O O9 0.282405 0.095432 0.258601
O O10 0.218949 0.095321 0.430976
O O11 0.299122 0.915250 0.363412
O O12 0.500000 0.389911 0.300849
O O13 0.282241 0.294279 0.388501
O O14 0.000000 0.094506 0.205229
O O15 0.208958 0.976726 0.119665
O O16 0.500000 0.230951 0.807526
O O17 0.264022 0.210065 0.718801
O O18 0.183747 0.233724 0.554860
O O19 0.000000 0.242507 0.412062
O O20 0.000000 0.152163 0.678547
#
# Coordination Sequence:
#
# PCOD8167245 Si02
#       8
#     4   4   4   4   4   4   4   4
#     4  11  23  39  64  93 120 155 199 251 301 356
#     4  10  24  44  64  88 120 161 204 249 301 357
#     4  10  19  32  55  86 117 154 194 240 296 353
#     4  11  24  43  65  87 119 163 208 252 300 355
#     4   9  18  35  56  83 119 157 196 241 295 354
#     4   9  20  39  59  85 120 155 198 248 298 352
#     4  11  22  36  57  87 122 159 199 248 300 357
#     4   9  20  36  56  85 123 164 200 241 301 362
#
# _framework density 20.140561999999999
#
# number of rings (size 3 to 8) (size 9 to 14) (size 15 to 20)
#    0.000    2.000    1.250    1.500    1.750    4.500 
#    0.000    3.750    0.000    0.000    0.000    0.000 
#    0.000    0.000    0.000    0.000    0.000    0.000 
#
# Total GULP energy -396625.877365 kJ/mol
# GULP energy per Si atom -12394.558668 kJ/mol
# Density = 2.009472 g / cm^3
# Si number density = 20.140562 Si / 1000 Ang^3
#
#
#
# Elastic Constant Matrix: (Units=GPa)
#
#
# Indices 1 2 3 4 5 6 
#
# 1 55.3674 41.2310 46.5386 0.0000 0.0000 0.0000
# 2 41.2310 86.6422 64.2334 0.0000 0.0000 0.0000
# 3 46.5386 64.2334 121.2404 0.0000 0.0000 0.0000
# 4 0.0000 0.0000 0.0000 26.1084 0.0000 0.0000
# 5 0.0000 0.0000 0.0000 0.0000 35.3124 0.0000
# 6 0.0000 0.0000 0.0000 0.0000 0.0000 22.2080
#
#
#
# Elastic Compliance Matrix: (Units=1/GPa)
#
#
# Indices 1 2 3 4 5 6 
#
# 1 0.030977 -0.009759 -0.006720 0.000000 0.000000 0.000000
# 2 -0.009759 0.022082 -0.007953 0.000000 0.000000 0.000000
# 3 -0.006720 -0.007953 0.015041 0.000000 0.000000 0.000000
# 4 0.000000 0.000000 0.000000 0.038302 0.000000 0.000000
# 5 0.000000 0.000000 0.000000 0.000000 0.028319 0.000000
# 6 0.000000 0.000000 0.000000 0.000000 0.000000 0.045029
#
#
# Mechanical properties :
#
#
# Convention : Reuss Voigt Hill
#
# Bulk Modulus (GPa) = 51.98716 63.02846 57.50781
# Shear Modulus (GPa) = 21.27419 24.14223 22.70821
#
# Velocity S-wave (km/s) = 3.25358 3.46596 3.36145
# Velocity P-wave (km/s) = 6.32318 6.88327 6.60916
#
# Compressibility (1/GPa) = 0.01923552
#
# Stress axis : x y z
#
# Youngs Moduli (GPa) = 32.28161 45.28591 66.48417
#
# Poissons Ratio (x) = 0.44196 0.44680
# Poissons Ratio (y) = 0.31504 0.52874
# Poissons Ratio (z) = 0.21694 0.36016
#
# Static dielectric constant tensor:
#      x y z
#    x 3.715010 0.000000 0.000000 
#    y 0.000000 3.853510 0.000000 
#    z 0.000000 0.000000 3.555650 
# 
# 
# High freq. dielectric constant tensor:
#      x y z
#    x 1.785810 0.000000 0.000000 
#    y 0.000000 1.784970 0.000000 
#    z 0.000000 0.000000 1.782230 
# 
# From -- ./inp_files/4316.got.cif
#   From: 2010.03.12/outbox.cif.g09.slc.cpg/sg26_3_cif.got.tgz:4316.got - 2010.04.14 03:33:09.
