data_PCOD8167868
_publ_section_title
;
Structure prediction by ZEFSAII (Michael W. Deem and Ramdas Pophale) SiO2 
 PCOD8167868
Probable space group: P C C 2
;
_chemical_formula_sum "Si O2"
_cell_formula_units_Z 28
_cell_length_a 8.810740
_cell_length_b 12.998746
_cell_length_c 12.400545
_cell_angle_alpha 90.000000
_cell_angle_beta 90.000000
_cell_angle_gamma 90.000000
_cell_volume 1420.216703
_symmetry_space_group_name_H-M "P C C 2"
_symmetry_group_IT_number 27
_symmetry_cell_setting 'orthorhombic'
loop_
_space_group_symop_operation_xyz
x,y,z
-x,-y,z
-x,y,1/2+z
x,-y,1/2+z
loop_
_atom_site_type_symbol
_atom_site_label
_atom_site_fract_x
_atom_site_fract_y
_atom_site_fract_z
Si Si1 0.251258 0.626025 0.254640
Si Si2 0.751218 0.373404 0.995827
Si Si3 0.681048 0.169129 0.375839
Si Si4 0.656832 0.837370 0.410148
Si Si5 0.828905 0.977408 0.016329
Si Si6 0.337949 0.976716 0.721758
Si Si7 0.500000 0.500000 0.875544
Si Si8 0.000000 0.500000 0.875284
O O1 0.251209 0.739202 0.305616
O O2 0.401925 0.569712 0.295468
O O3 0.102135 0.568304 0.296111
O O4 0.250730 0.632606 0.125364
O O5 0.757547 0.260090 0.943570
O O6 0.602255 0.431835 0.954456
O O7 0.901363 0.430171 0.955105
O O8 0.518979 0.191880 0.431692
O O9 0.679795 0.067174 0.305810
O O10 0.792617 0.137661 0.473445
O O11 0.712825 0.935250 0.476891
O O12 0.665988 0.866301 0.283140
O O13 0.806128 0.974437 0.144180
O O14 0.000000 0.000000 0.983753
O O15 0.500000 0.000000 0.662558
#
# Coordination Sequence:
#
# PCOD8167868 Si02
#       8
#     4   4   4   4   4   4   2   2
#     4  11  22  42  67  92 126 167 204 260 320 366
#     4  11  22  43  67  92 129 165 204 262 318 365
#     4  10  21  40  63  89 122 157 216 257 299 374
#     4  10  21  40  63  89 122 160 213 260 297 373
#     4  11  23  37  59  91 129 166 199 252 316 375
#     4   9  19  38  61  88 120 163 204 257 306 365
#     4  10  22  42  66 100 118 154 218 264 300 382
#     4  10  26  42  62  94 130 166 214 256 308 394
#
# _framework density 19.715301
#
# number of rings (size 3 to 8) (size 9 to 14) (size 15 to 20)
#    0.000    1.714    1.429    3.857    2.000    3.429 
#    2.571    1.429    0.000    0.000    0.000    0.000 
#    0.000    0.000    0.000    0.000    0.000    0.000 
#
# Total GULP energy -347068.318106 kJ/mol
# GULP energy per Si atom -12395.297075 kJ/mol
# Density = 1.967043 g / cm^3
# Si number density = 19.715301 Si / 1000 Ang^3
#
#
#
# Elastic Constant Matrix: (Units=GPa)
#
#
# Indices 1 2 3 4 5 6 
#
# 1 113.6930 50.7686 56.4994 0.0000 0.0000 0.0000
# 2 50.7686 128.1277 56.2429 0.0000 0.0000 0.0000
# 3 56.4994 56.2429 107.3613 0.0000 0.0000 0.0000
# 4 0.0000 0.0000 0.0000 17.6041 0.0000 0.0000
# 5 0.0000 0.0000 0.0000 0.0000 17.7927 0.0000
# 6 0.0000 0.0000 0.0000 0.0000 0.0000 8.9160
#
#
#
# Elastic Compliance Matrix: (Units=1/GPa)
#
#
# Indices 1 2 3 4 5 6 
#
# 1 0.012592 -0.002702 -0.005211 0.000000 0.000000 0.000000
# 2 -0.002702 0.010715 -0.004191 0.000000 0.000000 0.000000
# 3 -0.005211 -0.004191 0.014252 0.000000 0.000000 0.000000
# 4 0.000000 0.000000 0.000000 0.056805 0.000000 0.000000
# 5 0.000000 0.000000 0.000000 0.000000 0.056203 0.000000
# 6 0.000000 0.000000 0.000000 0.000000 0.000000 0.112159
#
#
# Mechanical properties :
#
#
# Convention : Reuss Voigt Hill
#
# Bulk Modulus (GPa) = 74.90275 75.13373 75.01824
# Shear Modulus (GPa) = 17.15946 21.24063 19.20005
#
# Velocity S-wave (km/s) = 2.95339 3.28589 3.12407
# Velocity P-wave (km/s) = 7.05016 7.25177 7.15167
#
# Compressibility (1/GPa) = 0.01335065
#
# Stress axis : x y z
#
# Youngs Moduli (GPa) = 79.41742 93.32583 70.16342
#
# Poissons Ratio (x) = 0.25215 0.36562
# Poissons Ratio (y) = 0.21457 0.29409
# Poissons Ratio (z) = 0.41385 0.39117
#
# Static dielectric constant tensor:
#      x y z
#    x 3.750940 0.000000 0.000000 
#    y 0.000000 3.733420 0.000000 
#    z 0.000000 0.000000 3.594870 
# 
# 
# High freq. dielectric constant tensor:
#      x y z
#    x 1.770110 0.000000 0.000000 
#    y 0.000000 1.772320 0.000000 
#    z 0.000000 0.000000 1.769790 
# 
# From -- ./inp_files/2404.got.cif
#   From: 2010.03.12/outbox.cif.g09.slc.cpg/sg27_2_cif.got.tgz:2404.got - 2010.04.14 03:36:05.
