data_PCOD8167749
_publ_section_title
;
Structure prediction by ZEFSAII (Michael W. Deem and Ramdas Pophale) SiO2 
 PCOD8167749
Probable space group: P M C 21
;
_chemical_formula_sum "Si O2"
_cell_formula_units_Z 24
_cell_length_a 15.512998
_cell_length_b 8.740628
_cell_length_c 8.524981
_cell_angle_alpha 90.000000
_cell_angle_beta 90.000000
_cell_angle_gamma 90.000000
_cell_volume 1155.930687
_symmetry_space_group_name_H-M "P M C 21"
_symmetry_group_IT_number 26
_symmetry_cell_setting 'orthorhombic'
loop_
_space_group_symop_operation_xyz
x,y,z
-x,-y,1/2+z
-x,y,z
x,-y,1/2+z
loop_
_atom_site_type_symbol
_atom_site_label
_atom_site_fract_x
_atom_site_fract_y
_atom_site_fract_z
Si Si1 0.661374 0.467066 0.324530
Si Si2 0.404231 0.709262 0.095652
Si Si3 0.844978 0.562188 0.461550
Si Si4 0.759339 0.783905 0.673938
Si Si5 0.904426 0.284043 0.650297
Si Si6 0.756332 0.909029 0.014775
O O1 0.593189 0.409448 0.451919
O O2 0.623110 0.619519 0.251246
O O3 0.751613 0.502647 0.408616
O O4 0.677350 0.329333 0.198753
O O5 0.500000 0.779360 0.117454
O O6 0.335660 0.840937 0.063352
O O7 0.837151 0.677980 0.609864
O O8 0.897090 0.414922 0.518753
O O9 0.894498 0.644776 0.322265
O O10 0.743132 0.909907 0.538875
O O11 0.781630 0.870823 0.835899
O O12 0.832881 0.153319 0.625271
O O13 0.000000 0.211354 0.637851
#
# Coordination Sequence:
#
# PCOD8167749 Si02
#       6
#     4   4   4   4   4   4
#     4  11  19  39  66  91 120 164 209 259 306 364
#     4  11  22  38  63  93 126 163 209 259 309 368
#     4  12  19  41  66  92 122 164 214 259 311 365
#     4  11  22  39  70  88 124 174 203 257 318 368
#     4  12  23  39  64  94 128 166 210 260 314 371
#     4  11  23  42  61  92 130 167 207 254 316 382
#
# _framework density 20.76249
#
# number of rings (size 3 to 8) (size 9 to 14) (size 15 to 20)
#    0.000    0.667    8.333    2.000    0.000    0.000 
#    0.000    9.167    0.000    0.000    0.000    0.000 
#    0.000    0.000    0.000    0.000    0.000    0.000 
#
# Total GULP energy -297555.416985 kJ/mol
# GULP energy per Si atom -12398.142374 kJ/mol
# Density = 2.071523 g / cm^3
# Si number density = 20.762490 Si / 1000 Ang^3
#
#
#
# Elastic Constant Matrix: (Units=GPa)
#
#
# Indices 1 2 3 4 5 6 
#
# 1 130.3272 21.4907 20.9730 0.0000 0.0000 0.0000
# 2 21.4907 75.6594 10.2692 0.0000 0.0000 0.0000
# 3 20.9730 10.2692 63.9897 0.0000 0.0000 0.0000
# 4 0.0000 0.0000 0.0000 44.4245 0.0000 0.0000
# 5 0.0000 0.0000 0.0000 0.0000 22.4494 0.0000
# 6 0.0000 0.0000 0.0000 0.0000 0.0000 10.2168
#
#
#
# Elastic Compliance Matrix: (Units=1/GPa)
#
#
# Indices 1 2 3 4 5 6 
#
# 1 0.008402 -0.002058 -0.002424 0.000000 0.000000 0.000000
# 2 -0.002058 0.014015 -0.001575 0.000000 0.000000 0.000000
# 3 -0.002424 -0.001575 0.016675 0.000000 0.000000 0.000000
# 4 0.000000 0.000000 0.000000 0.022510 0.000000 0.000000
# 5 0.000000 0.000000 0.000000 0.000000 0.044545 0.000000
# 6 0.000000 0.000000 0.000000 0.000000 0.000000 0.097878
#
#
# Mechanical properties :
#
#
# Convention : Reuss Voigt Hill
#
# Bulk Modulus (GPa) = 37.06453 41.71578 39.39015
# Shear Modulus (GPa) = 22.20936 29.90105 26.05520
#
# Velocity S-wave (km/s) = 3.27415 3.79904 3.54632
# Velocity P-wave (km/s) = 5.67308 6.27528 5.98177
#
# Compressibility (1/GPa) = 0.02697997
#
# Stress axis : x y z
#
# Youngs Moduli (GPa) = 119.01459 71.35041 59.97141
#
# Poissons Ratio (x) = 0.14682 0.14535
# Poissons Ratio (y) = 0.24489 0.09444
# Poissons Ratio (z) = 0.28845 0.11236
#
# Static dielectric constant tensor:
#      x y z
#    x 3.564900 0.000000 0.000000 
#    y 0.000000 3.810760 0.000000 
#    z 0.000000 0.000000 3.988710 
# 
# 
# High freq. dielectric constant tensor:
#      x y z
#    x 1.786230 0.000000 0.000000 
#    y 0.000000 1.806080 0.000000 
#    z 0.000000 0.000000 1.828050 
# 
# From -- ./inp_files/2110.got.cif
#   From: 2010.03.12/outbox.cif.g09.slc.cpg/sg26_2_cif.got.tgz:2110.got - 2010.04.14 03:33:09.
