data_PCOD8167097
_publ_section_title
;
Structure prediction by ZEFSAII (Michael W. Deem and Ramdas Pophale) SiO2 
 PCOD8167097
Probable space group: P M C 21
;
_chemical_formula_sum "Si O2"
_cell_formula_units_Z 32
_cell_length_a 9.016609
_cell_length_b 12.385398
_cell_length_c 14.746904
_cell_angle_alpha 90.000000
_cell_angle_beta 90.000000
_cell_angle_gamma 90.000000
_cell_volume 1646.850050
_symmetry_space_group_name_H-M "P M C 21"
_symmetry_group_IT_number 26
_symmetry_cell_setting 'orthorhombic'
loop_
_space_group_symop_operation_xyz
x,y,z
-x,-y,1/2+z
-x,y,z
x,-y,1/2+z
loop_
_atom_site_type_symbol
_atom_site_label
_atom_site_fract_x
_atom_site_fract_y
_atom_site_fract_z
Si Si1 0.324219 0.673760 0.220350
Si Si2 0.665864 0.818133 0.510043
Si Si3 0.675059 0.512242 0.591222
Si Si4 0.171015 0.972435 0.986356
Si Si5 0.826062 0.288391 0.169100
Si Si6 0.827981 0.894126 0.794914
Si Si7 0.174318 0.899392 0.185793
Si Si8 0.664521 0.602048 0.407430
O O1 0.500000 0.689002 0.231504
O O2 0.286842 0.606818 0.128440
O O3 0.250274 0.789808 0.217998
O O4 0.261508 0.603495 0.307017
O O5 0.500000 0.833172 0.550727
O O6 0.785601 0.789073 0.585949
O O7 0.662477 0.727438 0.433745
O O8 0.722789 0.927505 0.464920
O O9 0.500000 0.535016 0.587615
O O10 0.740836 0.598556 0.662030
O O11 0.742425 0.531758 0.488863
O O12 0.000000 0.010386 0.987265
O O13 0.201494 0.891926 0.902443
O O14 0.214093 0.915223 0.080069
O O15 0.000000 0.312965 0.170038
O O16 0.769794 0.221069 0.257207
O O17 0.759836 0.999652 0.743714
O O18 0.000000 0.899768 0.770074
O O19 0.000000 0.885387 0.201224
O O20 0.500000 0.554159 0.397363
#
# Coordination Sequence:
#
# PCOD8167097 Si02
#       8
#     4   4   4   4   4   4   4   4
#     4  10  20  36  56  76 104 142 175 213 266 317
#     4  10  18  30  51  78 107 136 175 222 257 303
#     4   9  19  36  55  77 104 135 175 222 266 309
#     4  10  19  33  52  74 106 144 174 209 264 317
#     4  10  18  33  55  76 102 135 175 217 264 313
#     4   9  18  33  53  78 105 139 176 213 261 317
#     4  10  20  35  53  77 109 139 171 215 259 308
#     4   8  16  32  53  76 101 134 175 215 259 306
#
# _framework density 19.431034
#
# number of rings (size 3 to 8) (size 9 to 14) (size 15 to 20)
#    0.000    2.500    1.250    2.250    0.000    1.000 
#    2.250    3.750    0.000    0.000    0.000    0.000 
#    0.000    0.000    0.000    0.000    0.000    0.000 
#
# Total GULP energy -396500.322820 kJ/mol
# GULP energy per Si atom -12390.635088 kJ/mol
# Density = 1.938681 g / cm^3
# Si number density = 19.431034 Si / 1000 Ang^3
#
#
#
# Elastic Constant Matrix: (Units=GPa)
#
#
# Indices 1 2 3 4 5 6 
#
# 1 30.0231 10.3148 10.1988 0.0000 0.0000 0.0000
# 2 10.3148 48.1420 16.0399 0.0000 0.0000 0.0000
# 3 10.1988 16.0399 106.9800 0.0000 0.0000 0.0000
# 4 0.0000 0.0000 0.0000 23.9985 0.0000 0.0000
# 5 0.0000 0.0000 0.0000 0.0000 16.7207 0.0000
# 6 0.0000 0.0000 0.0000 0.0000 0.0000 27.9968
#
#
#
# Elastic Compliance Matrix: (Units=1/GPa)
#
#
# Indices 1 2 3 4 5 6 
#
# 1 0.036545 -0.007020 -0.002431 0.000000 0.000000 0.000000
# 2 -0.007020 0.023213 -0.002811 0.000000 0.000000 0.000000
# 3 -0.002431 -0.002811 0.010001 0.000000 0.000000 0.000000
# 4 0.000000 0.000000 0.000000 0.041669 0.000000 0.000000
# 5 0.000000 0.000000 0.000000 0.000000 0.059806 0.000000
# 6 0.000000 0.000000 0.000000 0.000000 0.000000 0.035718
#
#
# Mechanical properties :
#
#
# Convention : Reuss Voigt Hill
#
# Bulk Modulus (GPa) = 22.10745 28.69467 25.40106
# Shear Modulus (GPa) = 20.27938 23.64930 21.96434
#
# Velocity S-wave (km/s) = 3.23408 3.49246 3.36575
# Velocity P-wave (km/s) = 5.03466 5.57338 5.31085
#
# Compressibility (1/GPa) = 0.04523363
#
# Stress axis : x y z
#
# Youngs Moduli (GPa) = 27.36321 43.08009 99.99177
#
# Poissons Ratio (x) = 0.30242 0.24313
# Poissons Ratio (y) = 0.19209 0.28109
# Poissons Ratio (z) = 0.06653 0.12110
#
# Static dielectric constant tensor:
#      x y z
#    x 3.273110 0.000000 0.000000 
#    y 0.000000 3.434580 0.000000 
#    z 0.000000 0.000000 3.718080 
# 
# 
# High freq. dielectric constant tensor:
#      x y z
#    x 1.723880 0.000000 0.000000 
#    y 0.000000 1.743160 0.000000 
#    z 0.000000 0.000000 1.763330 
# 
# From -- ./inp_files/4301.got.cif
#   From: 2010.03.12/outbox.cif.g09.slc.cpg/sg26_3_cif.got.tgz:4301.got - 2010.04.14 03:33:09.
