data_PCOD8167728
_publ_section_title
;
Structure prediction by ZEFSAII (Michael W. Deem and Ramdas Pophale) SiO2 
 PCOD8167728
Probable space group: P M C 21
;
_chemical_formula_sum "Si O2"
_cell_formula_units_Z 24
_cell_length_a 8.575291
_cell_length_b 11.739925
_cell_length_c 11.807871
_cell_angle_alpha 90.000000
_cell_angle_beta 90.000000
_cell_angle_gamma 90.000000
_cell_volume 1188.737023
_symmetry_space_group_name_H-M "P M C 21"
_symmetry_group_IT_number 26
_symmetry_cell_setting 'orthorhombic'
loop_
_space_group_symop_operation_xyz
x,y,z
-x,-y,1/2+z
-x,y,z
x,-y,1/2+z
loop_
_atom_site_type_symbol
_atom_site_label
_atom_site_fract_x
_atom_site_fract_y
_atom_site_fract_z
Si Si1 0.678818 0.216760 0.337600
Si Si2 0.821261 0.828816 0.074654
Si Si3 0.678534 0.065305 0.122934
Si Si4 0.680409 0.650660 0.239046
Si Si5 0.180007 0.589134 0.694359
Si Si6 0.681242 0.287712 0.992104
O O1 0.500000 0.219735 0.377610
O O2 0.788580 0.191840 0.443048
O O3 0.706687 0.116982 0.247001
O O4 0.718833 0.338512 0.283093
O O5 0.710696 0.749164 0.148887
O O6 0.000000 0.799184 0.100397
O O7 0.791381 0.959450 0.106278
O O8 0.500000 0.025399 0.107975
O O9 0.722322 0.159070 0.028481
O O10 0.500000 0.615063 0.234193
O O11 0.786307 0.543231 0.210503
O O12 0.727132 0.698020 0.361957
O O13 0.221194 0.622221 0.565575
O O14 0.000000 0.614202 0.717646
O O15 0.500000 0.312392 0.015894
#
# Coordination Sequence:
#
# PCOD8167728 Si02
#       6
#     4   4   4   4   4   4
#     4  10  22  43  68  90 120 167 215 251 297 371
#     4  12  26  40  60  95 131 161 201 258 320 364
#     4   9  20  41  66  91 119 160 211 255 301 365
#     4  11  24  42  65  91 123 166 214 254 298 367
#     4  11  23  40  64  94 129 161 199 257 319 366
#     4   9  21  42  67  91 118 163 214 253 299 367
#
# _framework density 20.189494
#
# number of rings (size 3 to 8) (size 9 to 14) (size 15 to 20)
#    0.000    1.667    0.000    5.000    4.667    4.667 
#    0.000    0.000    0.000    0.000    0.000    0.000 
#    0.000    0.000    0.000    0.000    0.000    0.000 
#
# Total GULP energy -297765.465092 kJ/mol
# GULP energy per Si atom -12406.894379 kJ/mol
# Density = 2.014354 g / cm^3
# Si number density = 20.189494 Si / 1000 Ang^3
#
#
#
# Elastic Constant Matrix: (Units=GPa)
#
#
# Indices 1 2 3 4 5 6 
#
# 1 68.5060 20.8050 25.4640 0.0000 0.0000 0.0000
# 2 20.8050 107.7261 46.5544 0.0000 0.0000 0.0000
# 3 25.4640 46.5544 112.2188 0.0000 0.0000 0.0000
# 4 0.0000 0.0000 0.0000 22.2097 0.0000 0.0000
# 5 0.0000 0.0000 0.0000 0.0000 25.8219 0.0000
# 6 0.0000 0.0000 0.0000 0.0000 0.0000 28.5190
#
#
#
# Elastic Compliance Matrix: (Units=1/GPa)
#
#
# Indices 1 2 3 4 5 6 
#
# 1 0.016249 -0.001882 -0.002906 0.000000 0.000000 0.000000
# 2 -0.001882 0.011529 -0.004356 0.000000 0.000000 0.000000
# 3 -0.002906 -0.004356 0.011378 0.000000 0.000000 0.000000
# 4 0.000000 0.000000 0.000000 0.045025 0.000000 0.000000
# 5 0.000000 0.000000 0.000000 0.000000 0.038727 0.000000
# 6 0.000000 0.000000 0.000000 0.000000 0.000000 0.035064
#
#
# Mechanical properties :
#
#
# Convention : Reuss Voigt Hill
#
# Bulk Modulus (GPa) = 47.92224 52.67751 50.29987
# Shear Modulus (GPa) = 27.29024 28.35197 27.82111
#
# Velocity S-wave (km/s) = 3.68054 3.75146 3.71617
# Velocity P-wave (km/s) = 6.46913 6.70170 6.58644
#
# Compressibility (1/GPa) = 0.02086714
#
# Stress axis : x y z
#
# Youngs Moduli (GPa) = 61.54163 86.74080 87.89209
#
# Poissons Ratio (x) = 0.16326 0.25544
# Poissons Ratio (y) = 0.11583 0.38282
# Poissons Ratio (z) = 0.17886 0.37781
#
# Static dielectric constant tensor:
#      x y z
#    x 3.568540 0.000000 0.000000 
#    y 0.000000 3.571850 0.000000 
#    z 0.000000 0.000000 3.763290 
# 
# 
# High freq. dielectric constant tensor:
#      x y z
#    x 1.787700 0.000000 0.000000 
#    y 0.000000 1.792310 0.000000 
#    z 0.000000 0.000000 1.795680 
# 
# From -- ./inp_files/2808.got.cif
#   From: 2010.03.12/outbox.cif.g09.slc.cpg/sg26_2_cif.got.tgz:2808.got - 2010.04.14 03:33:09.
