data_PCOD8167249
_publ_section_title
;
Structure prediction by ZEFSAII (Michael W. Deem and Ramdas Pophale) SiO2 
 PCOD8167249
Probable space group: P M C 21
;
_chemical_formula_sum "Si O2"
_cell_formula_units_Z 28
_cell_length_a 10.706976
_cell_length_b 19.779788
_cell_length_c 7.943935
_cell_angle_alpha 90.000000
_cell_angle_beta 90.000000
_cell_angle_gamma 90.000000
_cell_volume 1682.380181
_symmetry_space_group_name_H-M "P M C 21"
_symmetry_group_IT_number 26
_symmetry_cell_setting 'orthorhombic'
loop_
_space_group_symop_operation_xyz
x,y,z
-x,-y,1/2+z
-x,y,z
x,-y,1/2+z
loop_
_atom_site_type_symbol
_atom_site_label
_atom_site_fract_x
_atom_site_fract_y
_atom_site_fract_z
Si Si1 0.853032 0.660469 0.792250
Si Si2 0.137910 0.075040 0.536202
Si Si3 0.718818 0.978115 0.329126
Si Si4 0.143383 0.184174 0.262863
Si Si5 0.851375 0.573362 0.102182
Si Si6 0.851423 0.426703 0.981895
Si Si7 0.635353 0.897861 0.629372
O O1 0.818100 0.738918 0.794140
O O2 0.799395 0.627025 0.619759
O O3 0.000000 0.648610 0.792999
O O4 0.798717 0.626818 0.963967
O O5 0.239601 0.072761 0.682810
O O6 0.154369 0.145550 0.439291
O O7 0.000000 0.070070 0.612658
O O8 0.158143 0.008914 0.419428
O O9 0.633775 0.933178 0.448485
O O10 0.641609 0.043130 0.267933
O O11 0.000000 0.177656 0.191974
O O12 0.246372 0.152955 0.136436
O O13 0.804536 0.499987 0.042272
O O14 0.800686 0.589137 0.292063
O O15 0.000000 0.575372 0.106504
O O16 0.000000 0.424809 0.977131
O O17 0.500000 0.861099 0.652063
#
# Coordination Sequence:
#
# PCOD8167249 Si02
#       7
#     4   4   4   4   4   4   4
#     4   9  16  27  39  56  90 125 154 190 231 280
#     4   9  16  28  45  66  94 122 150 186 236 288
#     4   9  18  29  47  71  88 113 154 199 236 275
#     4   9  19  33  46  66  97 128 154 188 234 286
#     4   9  14  21  36  57  82 116 156 193 231 274
#     4   9  14  21  36  58  82 117 157 192 232 274
#     4  10  19  33  51  70  92 119 154 194 237 281
#
# _framework density 16.643087999999999
#
# number of rings (size 3 to 8) (size 9 to 14) (size 15 to 20)
#    0.000    2.857    1.429    0.857    0.000    4.000 
#    2.571    0.714    0.000    0.000    0.000    0.000 
#    0.000    1.143    0.000    0.000    0.000    0.286 
#
# Total GULP energy -346912.239394 kJ/mol
# GULP energy per Si atom -12389.722836 kJ/mol
# Density = 1.660521 g / cm^3
# Si number density = 16.643088 Si / 1000 Ang^3
#
#
#
# Elastic Constant Matrix: (Units=GPa)
#
#
# Indices 1 2 3 4 5 6 
#
# 1 61.7514 32.1351 21.1384 0.0000 0.0000 0.0000
# 2 32.1351 102.9744 48.9863 0.0000 0.0000 0.0000
# 3 21.1384 48.9863 119.0351 0.0000 0.0000 0.0000
# 4 0.0000 0.0000 0.0000 21.6657 0.0000 0.0000
# 5 0.0000 0.0000 0.0000 0.0000 4.1421 0.0000
# 6 0.0000 0.0000 0.0000 0.0000 0.0000 5.8811
#
#
#
# Elastic Compliance Matrix: (Units=1/GPa)
#
#
# Indices 1 2 3 4 5 6 
#
# 1 0.019468 -0.005509 -0.001190 0.000000 0.000000 0.000000
# 2 -0.005509 0.013634 -0.004633 0.000000 0.000000 0.000000
# 3 -0.001190 -0.004633 0.010519 0.000000 0.000000 0.000000
# 4 0.000000 0.000000 0.000000 0.046156 0.000000 0.000000
# 5 0.000000 0.000000 0.000000 0.000000 0.241423 0.000000
# 6 0.000000 0.000000 0.000000 0.000000 0.000000 0.170037
#
#
# Mechanical properties :
#
#
# Convention : Reuss Voigt Hill
#
# Bulk Modulus (GPa) = 47.71565 54.25340 50.98452
# Shear Modulus (GPa) = 9.41821 18.43784 13.92802
#
# Velocity S-wave (km/s) = 2.38143 3.33203 2.89600
# Velocity P-wave (km/s) = 6.02443 6.89000 6.47171
#
# Compressibility (1/GPa) = 0.02095749
#
# Stress axis : x y z
#
# Youngs Moduli (GPa) = 51.36537 73.34489 95.06965
#
# Poissons Ratio (x) = 0.40409 0.11313
# Poissons Ratio (y) = 0.28299 0.44041
# Poissons Ratio (z) = 0.06112 0.33977
#
# Static dielectric constant tensor:
#      x y z
#    x 2.658060 0.000000 0.000000 
#    y 0.000000 3.058110 0.000000 
#    z 0.000000 0.000000 3.401630 
# 
# 
# High freq. dielectric constant tensor:
#      x y z
#    x 1.582450 0.000000 0.000000 
#    y 0.000000 1.627330 0.000000 
#    z 0.000000 0.000000 1.650100 
# 
# From -- ./inp_files/1569.got.cif
#   From: 2010.03.12/outbox.cif.g09.slc.cpg/sg26_1_cif.got.tgz:1569.got - 2010.04.14 03:33:09.
