data_PCOD8167988
_publ_section_title
;
Structure prediction by ZEFSAII (Michael W. Deem and Ramdas Pophale) SiO2 
 PCOD8167988
Probable space group: P M A 2
;
_chemical_formula_sum "Si O2"
_cell_formula_units_Z 28
_cell_length_a 8.642620
_cell_length_b 9.644967
_cell_length_c 18.465421
_cell_angle_alpha 90.000000
_cell_angle_beta 90.000000
_cell_angle_gamma 90.000000
_cell_volume 1539.236588
_symmetry_space_group_name_H-M "P M A 2"
_symmetry_group_IT_number 28
_symmetry_cell_setting 'orthorhombic'
loop_
_space_group_symop_operation_xyz
x,y,z
-x,-y,z
1/2-x,y,z
1/2+x,-y,z
loop_
_atom_site_type_symbol
_atom_site_label
_atom_site_fract_x
_atom_site_fract_y
_atom_site_fract_z
Si Si1 0.933876 0.845480 0.712440
Si Si2 0.933775 0.154371 0.857123
Si Si3 0.431513 0.651191 0.437956
Si Si4 0.568455 0.348105 0.279333
Si Si5 0.565926 0.152733 0.565471
Si Si6 0.433408 0.152482 0.004151
Si Si7 0.068039 0.347064 0.135113
O O1 0.750000 0.845283 0.713008
O O2 0.998892 0.769199 0.784987
O O3 0.998240 0.775896 0.638773
O O4 0.000000 0.000000 0.712252
O O5 0.750000 0.154776 0.854603
O O6 0.000000 0.000000 0.857890
O O7 0.995512 0.223178 0.931314
O O8 0.500000 0.500000 0.450313
O O9 0.250000 0.633581 0.445412
O O10 0.472628 0.716020 0.358353
O O11 0.494907 0.755646 0.498511
O O12 0.500000 0.500000 0.280030
O O13 0.750000 0.352751 0.266065
O O14 0.490567 0.273338 0.209995
O O15 0.750000 0.146088 0.570354
O O16 0.500000 0.000000 0.553765
O O17 0.250000 0.142599 0.996212
O O18 0.486752 0.249777 0.069769
O O19 0.500000 0.000000 0.018247
O O20 0.250000 0.359964 0.137820
O O21 0.000000 0.500000 0.124036
#
# Coordination Sequence:
#
# PCOD8167988 Si02
#       7
#     4   4   4   4   4   4   4
#     4  10  17  27  44  67  94 125 160 197 236 278
#     4  10  17  27  45  68  94 125 159 196 237 279
#     4   9  19  33  51  73  97 125 160 200 240 285
#     4   9  16  29  49  71  94 123 160 200 238 279
#     4  10  19  32  48  71 100 128 160 198 240 285
#     4  10  20  33  49  72 100 128 160 198 240 285
#     4  10  20  33  51  74  98 126 161 199 239 285
#
# _framework density 18.190836000000001
#
# number of rings (size 3 to 8) (size 9 to 14) (size 15 to 20)
#    0.000    2.286    0.000    7.714    0.000    4.000 
#    0.000    0.714    0.000    4.286    0.000    6.000 
#    0.000    0.000    0.000    0.000    0.000    0.000 
#
# Total GULP energy -346957.787880 kJ/mol
# GULP energy per Si atom -12391.349567 kJ/mol
# Density = 1.814943 g / cm^3
# Si number density = 18.190836 Si / 1000 Ang^3
#
#
#
# Elastic Constant Matrix: (Units=GPa)
#
#
# Indices 1 2 3 4 5 6 
#
# 1 105.5963 23.7710 69.0021 0.0000 0.0000 0.0000
# 2 23.7710 46.4116 60.3242 0.0000 0.0000 0.0000
# 3 69.0021 60.3242 228.3827 0.0000 0.0000 0.0000
# 4 0.0000 0.0000 0.0000 14.8867 0.0000 0.0000
# 5 0.0000 0.0000 0.0000 0.0000 30.9145 0.0000
# 6 0.0000 0.0000 0.0000 0.0000 0.0000 10.9454
#
#
#
# Elastic Compliance Matrix: (Units=1/GPa)
#
#
# Indices 1 2 3 4 5 6 
#
# 1 0.011942 -0.002173 -0.003034 0.000000 0.000000 0.000000
# 2 -0.002173 0.033206 -0.008115 0.000000 0.000000 0.000000
# 3 -0.003034 -0.008115 0.007439 0.000000 0.000000 0.000000
# 4 0.000000 0.000000 0.000000 0.067174 0.000000 0.000000
# 5 0.000000 0.000000 0.000000 0.000000 0.032347 0.000000
# 6 0.000000 0.000000 0.000000 0.000000 0.000000 0.091362
#
#
# Mechanical properties :
#
#
# Convention : Reuss Voigt Hill
#
# Bulk Modulus (GPa) = 38.54464 76.28724 57.41594
# Shear Modulus (GPa) = 17.93654 26.50223 22.21939
#
# Velocity S-wave (km/s) = 3.14350 3.82108 3.49873
# Velocity P-wave (km/s) = 5.86605 7.84192 6.92482
#
# Compressibility (1/GPa) = 0.02594394
#
# Stress axis : x y z
#
# Youngs Moduli (GPa) = 83.73967 30.11499 134.43269
#
# Poissons Ratio (x) = 0.06543 0.40789
# Poissons Ratio (y) = 0.18194 1.09085
# Poissons Ratio (z) = 0.25408 0.24437
#
# Static dielectric constant tensor:
#      x y z
#    x 3.420910 0.000000 0.000000 
#    y 0.000000 2.888320 0.000000 
#    z 0.000000 0.000000 4.979050 
# 
# 
# High freq. dielectric constant tensor:
#      x y z
#    x 1.721450 0.000000 0.000000 
#    y 0.000000 1.635090 0.000000 
#    z 0.000000 0.000000 1.741210 
# 
# From -- ./inp_files/6909.got.cif
#   From: 2010.03.12/outbox.cif.g09.slc.cpg/sg28_4_cif.got.tgz:6909.got - 2010.04.14 03:39:34.
