data_PCOD8167263
_publ_section_title
;
Structure prediction by ZEFSAII (Michael W. Deem and Ramdas Pophale) SiO2 
 PCOD8167263
Probable space group: P M C 21
;
_chemical_formula_sum "Si O2"
_cell_formula_units_Z 32
_cell_length_a 8.648612
_cell_length_b 9.356051
_cell_length_c 20.615278
_cell_angle_alpha 90.000000
_cell_angle_beta 90.000000
_cell_angle_gamma 90.000000
_cell_volume 1668.123460
_symmetry_space_group_name_H-M "P M C 21"
_symmetry_group_IT_number 26
_symmetry_cell_setting 'orthorhombic'
loop_
_space_group_symop_operation_xyz
x,y,z
-x,-y,1/2+z
-x,y,z
x,-y,1/2+z
loop_
_atom_site_type_symbol
_atom_site_label
_atom_site_fract_x
_atom_site_fract_y
_atom_site_fract_z
Si Si1 0.816315 0.588160 0.842660
Si Si2 0.815942 0.087591 0.350022
Si Si3 0.181738 0.411832 0.102600
Si Si4 0.184965 0.409381 0.721118
Si Si5 0.682106 0.910217 0.464145
Si Si6 0.815956 0.603695 0.459349
Si Si7 0.182261 0.087723 0.102387
Si Si8 0.183903 0.086959 0.725637
O O1 0.757415 0.750358 0.840283
O O2 0.750827 0.502167 0.780971
O O3 0.754339 0.511149 0.907670
O O4 0.000000 0.584454 0.841660
O O5 0.000000 0.079437 0.356252
O O6 0.740545 0.031316 0.415594
O O7 0.754802 0.996341 0.288805
O O8 0.253284 0.520785 0.155100
O O9 0.223727 0.249927 0.122102
O O10 0.000000 0.433339 0.102825
O O11 0.245249 0.445018 0.030340
O O12 0.247975 0.248339 0.727344
O O13 0.000000 0.410233 0.720844
O O14 0.500000 0.898432 0.461657
O O15 0.753267 0.759752 0.441720
O O16 0.734323 0.956076 0.536037
O O17 0.000000 0.615868 0.458667
O O18 0.000000 0.069745 0.091216
O O19 0.245053 0.988055 0.160170
O O20 0.000000 0.083544 0.725512
#
# Coordination Sequence:
#
# PCOD8167263 Si02
#       8
#     4   4   4   4   4   4   4   4
#     4   9  17  28  48  75 102 130 164 206 255 302
#     4  10  19  33  53  79 107 136 170 212 256 305
#     4   8  14  24  41  64  94 124 153 193 245 296
#     4   9  15  24  41  72 105 127 154 203 257 305
#     4  11  22  35  51  74 103 140 177 211 253 304
#     4   9  17  32  52  74  97 127 167 213 257 300
#     4   9  17  32  52  74  99 131 168 211 258 306
#     4   9  17  28  49  78 105 131 165 209 259 306
#
# _framework density 19.183233000000001
#
# number of rings (size 3 to 8) (size 9 to 14) (size 15 to 20)
#    0.000    2.750    0.000    3.375    0.000    6.000 
#    0.000    5.000    0.000    0.000    0.000   14.000 
#    0.000    0.000    0.000    0.000    0.000    0.000 
#
# Total GULP energy -396743.464465 kJ/mol
# GULP energy per Si atom -12398.233265 kJ/mol
# Density = 1.913957 g / cm^3
# Si number density = 19.183233 Si / 1000 Ang^3
#
#
#
# Elastic Constant Matrix: (Units=GPa)
#
#
# Indices 1 2 3 4 5 6 
#
# 1 23.9316 12.1345 13.9564 0.0000 0.0000 0.0000
# 2 12.1345 154.9352 93.6978 0.0000 0.0000 0.0000
# 3 13.9564 93.6978 137.2903 0.0000 0.0000 0.0000
# 4 0.0000 0.0000 0.0000 45.6332 0.0000 0.0000
# 5 0.0000 0.0000 0.0000 0.0000 2.6584 0.0000
# 6 0.0000 0.0000 0.0000 0.0000 0.0000 3.5934
#
#
#
# Elastic Compliance Matrix: (Units=1/GPa)
#
#
# Indices 1 2 3 4 5 6 
#
# 1 0.044567 -0.001278 -0.003658 0.000000 0.000000 0.000000
# 2 -0.001278 0.011027 -0.007396 0.000000 0.000000 0.000000
# 3 -0.003658 -0.007396 0.012703 0.000000 0.000000 0.000000
# 4 0.000000 0.000000 0.000000 0.021914 0.000000 0.000000
# 5 0.000000 0.000000 0.000000 0.000000 0.376163 0.000000
# 6 0.000000 0.000000 0.000000 0.000000 0.000000 0.278288
#
#
# Mechanical properties :
#
#
# Convention : Reuss Voigt Hill
#
# Bulk Modulus (GPa) = 22.91834 61.74829 42.33331
# Shear Modulus (GPa) = 6.37860 23.46823 14.92341
#
# Velocity S-wave (km/s) = 1.82546 3.50147 2.79218
# Velocity P-wave (km/s) = 4.05168 6.97177 5.70183
#
# Compressibility (1/GPa) = 0.04363318
#
# Stress axis : x y z
#
# Youngs Moduli (GPa) = 22.43796 90.68586 78.72030
#
# Poissons Ratio (x) = 0.11591 0.28797
# Poissons Ratio (y) = 0.02868 0.58220
# Poissons Ratio (z) = 0.08208 0.67070
#
# Static dielectric constant tensor:
#      x y z
#    x 2.840690 0.000000 0.000000 
#    y 0.000000 3.676490 0.000000 
#    z 0.000000 0.000000 3.868770 
# 
# 
# High freq. dielectric constant tensor:
#      x y z
#    x 1.679430 0.000000 0.000000 
#    y 0.000000 1.750390 0.000000 
#    z 0.000000 0.000000 1.764340 
# 
# From -- ./inp_files/5340.got.cif
#   From: 2010.03.12/outbox.cif.g09.slc.cpg/sg26_3_cif.got.tgz:5340.got - 2010.04.14 03:33:09.
