data_PCOD8167557
_publ_section_title
;
Structure prediction by ZEFSAII (Michael W. Deem and Ramdas Pophale) SiO2 
 PCOD8167557
Probable space group: P M C 21
;
_chemical_formula_sum "Si O2"
_cell_formula_units_Z 32
_cell_length_a 9.260841
_cell_length_b 12.587232
_cell_length_c 14.188822
_cell_angle_alpha 90.000000
_cell_angle_beta 90.000000
_cell_angle_gamma 90.000000
_cell_volume 1653.967628
_symmetry_space_group_name_H-M "P M C 21"
_symmetry_group_IT_number 26
_symmetry_cell_setting 'orthorhombic'
loop_
_space_group_symop_operation_xyz
x,y,z
-x,-y,1/2+z
-x,y,z
x,-y,1/2+z
loop_
_atom_site_type_symbol
_atom_site_label
_atom_site_fract_x
_atom_site_fract_y
_atom_site_fract_z
Si Si1 0.835800 0.122323 0.974100
Si Si2 0.666435 0.188046 0.792813
Si Si3 0.671824 0.603666 0.774727
Si Si4 0.837625 0.780879 0.666612
Si Si5 0.338420 0.919988 0.966072
Si Si6 0.328504 0.610414 0.178109
Si Si7 0.328120 0.318847 0.477057
Si Si8 0.342659 0.040613 0.245242
O O1 0.759640 0.176501 0.886111
O O2 0.000000 0.092577 0.948110
O O3 0.758301 0.013887 0.010912
O O4 0.830434 0.213382 0.053777
O O5 0.500000 0.205285 0.823017
O O6 0.727889 0.286787 0.733753
O O7 0.681547 0.084609 0.726081
O O8 0.500000 0.607962 0.771947
O O9 0.729206 0.693763 0.705510
O O10 0.731444 0.492671 0.733041
O O11 0.728744 0.623013 0.881731
O O12 0.789672 0.896555 0.701616
O O13 0.000000 0.757527 0.701922
O O14 0.500000 0.927597 0.009496
O O15 0.271025 0.802740 0.983759
O O16 0.344018 0.940325 0.855877
O O17 0.500000 0.608988 0.177407
O O18 0.273754 0.615971 0.069181
O O19 0.500000 0.314230 0.472581
O O20 0.500000 0.076120 0.204585
#
# Coordination Sequence:
#
# PCOD8167557 Si02
#       8
#     4   4   4   4   4   4   4   4
#     4  10  22  36  51  78 116 154 188 227 277 334
#     4   9  19  36  56  83 113 142 182 230 282 334
#     4  10  20  37  59  83 113 147 188 232 276 330
#     4  11  23  36  52  78 113 151 189 228 273 328
#     4   9  17  32  55  80 109 144 184 230 278 329
#     4   9  19  34  58  88 113 142 184 235 283 329
#     4   9  17  32  54  83 113 141 178 228 280 326
#     4   9  17  31  53  81 110 141 179 224 277 332
#
# _framework density 19.347415999999999
#
# number of rings (size 3 to 8) (size 9 to 14) (size 15 to 20)
#    0.000    2.500    1.250    1.500    1.750    5.000 
#    0.000    3.125    0.000    2.250    0.000    0.000 
#    0.000    0.000    0.000    0.000    0.000    0.000 
#
# Total GULP energy -396670.962588 kJ/mol
# GULP energy per Si atom -12395.967581 kJ/mol
# Density = 1.930338 g / cm^3
# Si number density = 19.347416 Si / 1000 Ang^3
#
#
#
# Elastic Constant Matrix: (Units=GPa)
#
#
# Indices 1 2 3 4 5 6 
#
# 1 50.3718 28.1944 22.6179 0.0000 0.0000 0.0000
# 2 28.1944 133.9706 75.1551 0.0000 0.0000 0.0000
# 3 22.6179 75.1551 83.1322 0.0000 0.0000 0.0000
# 4 0.0000 0.0000 0.0000 28.8374 0.0000 0.0000
# 5 0.0000 0.0000 0.0000 0.0000 19.5764 0.0000
# 6 0.0000 0.0000 0.0000 0.0000 0.0000 7.3767
#
#
#
# Elastic Compliance Matrix: (Units=1/GPa)
#
#
# Indices 1 2 3 4 5 6 
#
# 1 0.023090 -0.002709 -0.003833 0.000000 0.000000 0.000000
# 2 -0.002709 0.015463 -0.013242 0.000000 0.000000 0.000000
# 3 -0.003833 -0.013242 0.025043 0.000000 0.000000 0.000000
# 4 0.000000 0.000000 0.000000 0.034677 0.000000 0.000000
# 5 0.000000 0.000000 0.000000 0.000000 0.051082 0.000000
# 6 0.000000 0.000000 0.000000 0.000000 0.000000 0.135563
#
#
# Mechanical properties :
#
#
# Convention : Reuss Voigt Hill
#
# Bulk Modulus (GPa) = 41.61850 57.71214 49.66532
# Shear Modulus (GPa) = 15.03777 20.59190 17.81484
#
# Velocity S-wave (km/s) = 2.79094 3.26594 3.03774
# Velocity P-wave (km/s) = 5.65187 6.64198 6.16683
#
# Compressibility (1/GPa) = 0.02402778
#
# Stress axis : x y z
#
# Youngs Moduli (GPa) = 43.30917 64.66997 39.93056
#
# Poissons Ratio (x) = 0.17519 0.15305
# Poissons Ratio (y) = 0.11733 0.52877
# Poissons Ratio (z) = 0.16600 0.85638
#
# Static dielectric constant tensor:
#      x y z
#    x 3.256260 0.000000 0.000000 
#    y 0.000000 3.746700 0.000000 
#    z 0.000000 0.000000 3.598480 
# 
# 
# High freq. dielectric constant tensor:
#      x y z
#    x 1.713920 0.000000 0.000000 
#    y 0.000000 1.750150 0.000000 
#    z 0.000000 0.000000 1.757760 
# 
# From -- ./inp_files/4192.got.cif
#   From: 2010.03.12/outbox.cif.g09.slc.cpg/sg26_3_cif.got.tgz:4192.got - 2010.04.14 03:33:09.
