data_PCOD8167974
_publ_section_title
;
Structure prediction by ZEFSAII (Michael W. Deem and Ramdas Pophale) SiO2 
 PCOD8167974
Probable space group: P M A 2
;
_chemical_formula_sum "Si O2"
_cell_formula_units_Z 32
_cell_length_a 8.638956
_cell_length_b 9.545379
_cell_length_c 21.059415
_cell_angle_alpha 90.000000
_cell_angle_beta 90.000000
_cell_angle_gamma 90.000000
_cell_volume 1736.603779
_symmetry_space_group_name_H-M "P M A 2"
_symmetry_group_IT_number 28
_symmetry_cell_setting 'orthorhombic'
loop_
_space_group_symop_operation_xyz
x,y,z
-x,-y,z
1/2-x,y,z
1/2+x,-y,z
loop_
_atom_site_type_symbol
_atom_site_label
_atom_site_fract_x
_atom_site_fract_y
_atom_site_fract_z
Si Si1 0.428746 0.848776 0.340480
Si Si2 0.068929 0.346623 0.977156
Si Si3 0.067898 0.346250 0.586669
Si Si4 0.067497 0.156062 0.214315
Si Si5 0.067318 0.655931 0.714878
Si Si6 0.069971 0.845818 0.480619
Si Si7 0.930602 0.653809 0.839636
Si Si8 0.432601 0.655700 0.104066
O O1 0.250000 0.860012 0.320877
O O2 0.519430 0.773738 0.282356
O O3 0.448877 0.777851 0.409781
O O4 0.500000 0.000000 0.348828
O O5 0.250000 0.355829 0.992379
O O6 0.000000 0.500000 0.971861
O O7 0.984040 0.272609 0.036769
O O8 0.040156 0.270682 0.908421
O O9 0.250000 0.358293 0.593241
O O10 0.000000 0.500000 0.576312
O O11 0.000188 0.273638 0.650913
O O12 0.024198 0.252761 0.527121
O O13 0.250000 0.151755 0.207215
O O14 0.997260 0.249662 0.159587
O O15 0.000000 0.000000 0.209800
O O16 0.250000 0.655627 0.711190
O O17 0.000000 0.500000 0.717373
O O18 0.011430 0.734302 0.779987
O O19 0.250000 0.851961 0.499730
O O20 0.000000 0.000000 0.484984
O O21 0.750000 0.642198 0.825120
O O22 0.000000 0.500000 0.844324
O O23 0.500000 0.500000 0.110107
O O24 0.250000 0.649213 0.108599
#
# Coordination Sequence:
#
# PCOD8167974 Si02
#       8
#     4   4   4   4   4   4   4   4
#     4   9  17  31  52  76 101 128 162 204 247 291
#     4   9  16  26  41  63  92 126 162 201 245 292
#     4  11  21  34  51  72 102 136 169 207 253 301
#     4  11  21  35  55  78 103 131 167 207 248 295
#     4  10  17  26  41  62  91 125 162 202 246 294
#     4  10  20  35  55  79 104 131 166 205 246 294
#     4   9  15  23  37  59  88 121 159 200 242 288
#     4  11  21  34  51  73 103 136 169 206 252 301
#
# _framework density 18.426772
#
# number of rings (size 3 to 8) (size 9 to 14) (size 15 to 20)
#    0.000    2.000    0.000    9.000    0.000    3.000 
#    0.000    0.625    0.000    3.000    0.000    0.875 
#    0.000    6.000    0.000    0.000    0.000    0.000 
#
# Total GULP energy -396465.490866 kJ/mol
# GULP energy per Si atom -12389.546590 kJ/mol
# Density = 1.838483 g / cm^3
# Si number density = 18.426772 Si / 1000 Ang^3
#
#
#
# Elastic Constant Matrix: (Units=GPa)
#
#
# Indices 1 2 3 4 5 6 
#
# 1 177.5589 28.0083 79.3476 0.0000 0.0000 0.0000
# 2 28.0083 34.5464 42.6242 0.0000 0.0000 0.0000
# 3 79.3476 42.6242 189.0070 0.0000 0.0000 0.0000
# 4 0.0000 0.0000 0.0000 -7.4481 0.0000 0.0000
# 5 0.0000 0.0000 0.0000 0.0000 38.2627 0.0000
# 6 0.0000 0.0000 0.0000 0.0000 0.0000 20.6582
#
#
#
# Elastic Compliance Matrix: (Units=1/GPa)
#
#
# Indices 1 2 3 4 5 6 
#
# 1 0.007135 -0.002894 -0.002343 0.000000 0.000000 0.000000
# 2 -0.002894 0.041280 -0.008094 0.000000 0.000000 0.000000
# 3 -0.002343 -0.008094 0.008100 0.000000 0.000000 0.000000
# 4 0.000000 0.000000 0.000000 -0.134262 0.000000 0.000000
# 5 0.000000 0.000000 0.000000 0.000000 0.026135 0.000000
# 6 0.000000 0.000000 0.000000 0.000000 0.000000 0.048407
#
#
# Mechanical properties :
#
#
# Convention : Reuss Voigt Hill
#
# Bulk Modulus (GPa) = 33.49823 77.89694 55.69759
# Shear Modulus (GPa) = 149.66109 27.03670 88.34890
#
# Velocity S-wave (km/s) = 9.02196 3.83463 6.93181
# Velocity P-wave (km/s) = 11.25816 7.87219 9.71384
#
# Compressibility (1/GPa) = 0.02985233
#
# Stress axis : x y z
#
# Youngs Moduli (GPa) = 140.14505 24.22481 123.46080
#
# Poissons Ratio (x) = 0.07012 0.28925
# Poissons Ratio (y) = 0.40564 0.99932
# Poissons Ratio (z) = 0.32834 0.19608
#
# Static dielectric constant tensor:
#      x y z
#    x 3.556840 0.000000 0.000000 
#    y 0.000000 2.725040 0.000000 
#    z 0.000000 0.000000 4.905010 
# 
# 
# High freq. dielectric constant tensor:
#      x y z
#    x 1.740130 0.000000 0.000000 
#    y 0.000000 1.631060 0.000000 
#    z 0.000000 0.000000 1.753640 
# 
# From -- ./inp_files/6933.got.cif
#   From: 2010.03.12/outbox.cif.g09.slc.cpg/sg28_4_cif.got.tgz:6933.got - 2010.04.14 03:39:34.
