data_PCOD8167324
_publ_section_title
;
Structure prediction by ZEFSAII (Michael W. Deem and Ramdas Pophale) SiO2 
 PCOD8167324
Probable space group: P M C 21
;
_chemical_formula_sum "Si O2"
_cell_formula_units_Z 32
_cell_length_a 9.228586
_cell_length_b 10.909032
_cell_length_c 16.723710
_cell_angle_alpha 90.000000
_cell_angle_beta 90.000000
_cell_angle_gamma 90.000000
_cell_volume 1683.658501
_symmetry_space_group_name_H-M "P M C 21"
_symmetry_group_IT_number 26
_symmetry_cell_setting 'orthorhombic'
loop_
_space_group_symop_operation_xyz
x,y,z
-x,-y,1/2+z
-x,y,z
x,-y,1/2+z
loop_
_atom_site_type_symbol
_atom_site_label
_atom_site_fract_x
_atom_site_fract_y
_atom_site_fract_z
Si Si1 0.660571 0.659399 0.982850
Si Si2 0.338050 0.289309 0.769210
Si Si3 0.344276 0.613255 0.430334
Si Si4 0.168254 0.187421 0.007232
Si Si5 0.170980 0.313592 0.168409
Si Si6 0.668275 0.944963 0.375919
Si Si7 0.829604 0.591582 0.131974
Si Si8 0.671687 0.209781 0.323299
O O1 0.500000 0.711858 0.003733
O O2 0.648980 0.517722 0.966735
O O3 0.724352 0.726760 0.905338
O O4 0.767432 0.668194 0.057338
O O5 0.500000 0.280500 0.731247
O O6 0.331416 0.397661 0.834610
O O7 0.295947 0.163083 0.813813
O O8 0.218391 0.323679 0.705192
O O9 0.500000 0.681575 0.449029
O O10 0.207460 0.685155 0.464551
O O11 0.208053 0.210771 0.100654
O O12 0.000000 0.160135 0.996818
O O13 0.253703 0.077559 0.962260
O O14 0.225465 0.450123 0.141331
O O15 0.250063 0.272898 0.248879
O O16 0.000000 0.318622 0.184436
O O17 0.500000 0.955479 0.396220
O O18 0.721091 0.068721 0.332562
O O19 0.000000 0.592235 0.124373
O O20 0.500000 0.224648 0.310744
#
# Coordination Sequence:
#
# PCOD8167324 Si02
#       8
#     4   4   4   4   4   4   4   4
#     4  10  20  35  56  82 113 145 181 229 282 334
#     4   9  18  34  56  81 109 141 180 229 277 325
#     4   9  17  31  54  82 110 140 178 225 276 328
#     4  10  19  34  57  83 113 148 185 227 274 332
#     4  10  22  38  56  84 119 149 184 230 281 341
#     4   9  20  40  60  81 110 144 191 238 278 329
#     4  11  22  36  54  83 118 149 183 224 278 342
#     4  10  22  40  61  84 110 148 194 238 284 333
#
# _framework density 19.006229000000001
#
# number of rings (size 3 to 8) (size 9 to 14) (size 15 to 20)
#    0.000    2.250    1.250    2.250    0.000    6.000 
#    2.250    0.000    0.000    0.000    0.000    0.000 
#    0.000    0.000    0.000    0.000    0.000    0.000 
#
# Total GULP energy -396531.330620 kJ/mol
# GULP energy per Si atom -12391.604082 kJ/mol
# Density = 1.896297 g / cm^3
# Si number density = 19.006229 Si / 1000 Ang^3
#
#
#
# Elastic Constant Matrix: (Units=GPa)
#
#
# Indices 1 2 3 4 5 6 
#
# 1 63.3726 26.3858 56.3335 0.0000 0.0000 0.0000
# 2 26.3858 38.6709 35.1224 0.0000 0.0000 0.0000
# 3 56.3335 35.1224 129.4353 0.0000 0.0000 0.0000
# 4 0.0000 0.0000 0.0000 24.8654 0.0000 0.0000
# 5 0.0000 0.0000 0.0000 0.0000 32.1477 0.0000
# 6 0.0000 0.0000 0.0000 0.0000 0.0000 21.7027
#
#
#
# Elastic Compliance Matrix: (Units=1/GPa)
#
#
# Indices 1 2 3 4 5 6 
#
# 1 0.028879 -0.011000 -0.009584 0.000000 0.000000 0.000000
# 2 -0.011000 0.038507 -0.005661 0.000000 0.000000 0.000000
# 3 -0.009584 -0.005661 0.013433 0.000000 0.000000 0.000000
# 4 0.000000 0.000000 0.000000 0.040216 0.000000 0.000000
# 5 0.000000 0.000000 0.000000 0.000000 0.031106 0.000000
# 6 0.000000 0.000000 0.000000 0.000000 0.000000 0.046077
#
#
# Mechanical properties :
#
#
# Convention : Reuss Voigt Hill
#
# Bulk Modulus (GPa) = 35.30055 51.90692 43.60373
# Shear Modulus (GPa) = 19.21945 23.31896 21.26921
#
# Velocity S-wave (km/s) = 3.18342 3.50653 3.34887
# Velocity P-wave (km/s) = 5.66795 6.61544 6.15994
#
# Compressibility (1/GPa) = 0.02832817
#
# Stress axis : x y z
#
# Youngs Moduli (GPa) = 34.62695 25.96955 74.44191
#
# Poissons Ratio (x) = 0.28567 0.71346
# Poissons Ratio (y) = 0.38090 0.42144
# Poissons Ratio (z) = 0.33187 0.14702
#
# Static dielectric constant tensor:
#      x y z
#    x 3.629890 0.000000 0.000000 
#    y 0.000000 3.498260 0.000000 
#    z 0.000000 0.000000 3.558040 
# 
# 
# High freq. dielectric constant tensor:
#      x y z
#    x 1.730930 0.000000 0.000000 
#    y 0.000000 1.725240 0.000000 
#    z 0.000000 0.000000 1.742000 
# 
# From -- ./inp_files/4288.got.cif
#   From: 2010.03.12/outbox.cif.g09.slc.cpg/sg26_3_cif.got.tgz:4288.got - 2010.04.14 03:33:09.
