data_PCOD8167809
_publ_section_title
;
Structure prediction by ZEFSAII (Michael W. Deem and Ramdas Pophale) SiO2 
 PCOD8167809
Probable space group: P C C 2
;
_chemical_formula_sum "Si O2"
_cell_formula_units_Z 24
_cell_length_a 6.043550
_cell_length_b 10.898610
_cell_length_c 18.621798
_cell_angle_alpha 90.000000
_cell_angle_beta 90.000000
_cell_angle_gamma 90.000000
_cell_volume 1226.548831
_symmetry_space_group_name_H-M "P C C 2"
_symmetry_group_IT_number 27
_symmetry_cell_setting 'orthorhombic'
loop_
_space_group_symop_operation_xyz
x,y,z
-x,-y,z
-x,y,1/2+z
x,-y,1/2+z
loop_
_atom_site_type_symbol
_atom_site_label
_atom_site_fract_x
_atom_site_fract_y
_atom_site_fract_z
Si Si1 0.889881 0.628510 0.185190
Si Si2 0.178740 0.695326 0.056289
Si Si3 0.829902 0.322820 0.440233
Si Si4 0.500000 0.500000 0.104537
Si Si5 0.444261 0.858726 0.952496
Si Si6 0.208635 0.286896 0.333721
Si Si7 0.500000 0.500000 0.884007
O O1 0.657414 0.590829 0.149943
O O2 0.839588 0.726573 0.248924
O O3 0.000000 0.500000 0.211918
O O4 0.063239 0.704879 0.134682
O O5 0.361494 0.590013 0.054185
O O6 0.291047 0.817239 0.020861
O O7 0.982915 0.649095 0.006824
O O8 0.683898 0.202758 0.453962
O O9 0.677978 0.441171 0.436318
O O10 0.970201 0.312064 0.367645
O O11 0.319261 0.827624 0.876756
O O12 0.500000 0.000000 0.958818
O O13 0.380356 0.399382 0.335441
#
# Coordination Sequence:
#
# PCOD8167809 Si02
#       7
#     4   4   4   2   4   4   2
#     4  10  20  34  54  85 122 153 182 227 294 364
#     4  10  22  35  56  85 117 150 187 233 287 348
#     4  10  21  35  56  82 111 145 188 236 285 338
#     4  10  21  35  56  88 125 157 182 224 291 365
#     4  10  23  41  60  80 109 153 204 252 290 328
#     4  10  21  35  57  84 114 150 189 234 287 347
#     4  10  19  31  52  86 117 143 178 228 287 351
#
# _framework density 19.567095999999999
#
# number of rings (size 3 to 8) (size 9 to 14) (size 15 to 20)
#    0.000    2.000    0.000    3.000    0.000   26.667 
#    0.000    0.000    0.000   15.000    0.000    0.000 
#    0.000    0.000    0.000    0.000    0.000    0.000 
#
# Total GULP energy -297382.508737 kJ/mol
# GULP energy per Si atom -12390.937864 kJ/mol
# Density = 1.952256 g / cm^3
# Si number density = 19.567096 Si / 1000 Ang^3
#
#
#
# Elastic Constant Matrix: (Units=GPa)
#
#
# Indices 1 2 3 4 5 6 
#
# 1 126.8673 36.8954 55.6983 0.0000 0.0000 0.0000
# 2 36.8954 77.8565 66.0758 0.0000 0.0000 0.0000
# 3 55.6983 66.0758 127.0359 0.0000 0.0000 0.0000
# 4 0.0000 0.0000 0.0000 19.3231 0.0000 0.0000
# 5 0.0000 0.0000 0.0000 0.0000 30.1769 0.0000
# 6 0.0000 0.0000 0.0000 0.0000 0.0000 14.9361
#
#
#
# Elastic Compliance Matrix: (Units=1/GPa)
#
#
# Indices 1 2 3 4 5 6 
#
# 1 0.009901 -0.001804 -0.003403 0.000000 0.000000 0.000000
# 2 -0.001804 0.023324 -0.011340 0.000000 0.000000 0.000000
# 3 -0.003403 -0.011340 0.015262 0.000000 0.000000 0.000000
# 4 0.000000 0.000000 0.000000 0.051752 0.000000 0.000000
# 5 0.000000 0.000000 0.000000 0.000000 0.033138 0.000000
# 6 0.000000 0.000000 0.000000 0.000000 0.000000 0.066952
#
#
# Mechanical properties :
#
#
# Convention : Reuss Voigt Hill
#
# Bulk Modulus (GPa) = 64.96758 72.12208 68.54483
# Shear Modulus (GPa) = 20.95971 24.42655 22.69313
#
# Velocity S-wave (km/s) = 3.27643 3.53703 3.40922
# Velocity P-wave (km/s) = 6.89839 7.32254 7.11363
#
# Compressibility (1/GPa) = 0.01539229
#
# Stress axis : x y z
#
# Youngs Moduli (GPa) = 101.00256 42.87511 65.52167
#
# Poissons Ratio (x) = 0.07736 0.22294
# Poissons Ratio (y) = 0.18223 0.74304
# Poissons Ratio (z) = 0.34366 0.48622
#
# Static dielectric constant tensor:
#      x y z
#    x 4.767840 0.000000 0.000000 
#    y 0.000000 3.166770 0.000000 
#    z 0.000000 0.000000 3.667100 
# 
# 
# High freq. dielectric constant tensor:
#      x y z
#    x 1.797640 0.000000 0.000000 
#    y 0.000000 1.710600 0.000000 
#    z 0.000000 0.000000 1.759950 
# 
# From -- ./inp_files/3988.got.cif
#   From: 2010.03.12/outbox.cif.g09.slc.cpg/sg27_2_cif.got.tgz:3988.got - 2010.04.14 03:36:05.
