data_PCOD8167855
_publ_section_title
;
Structure prediction by ZEFSAII (Michael W. Deem and Ramdas Pophale) SiO2 
 PCOD8167855
Probable space group: P C C 2
;
_chemical_formula_sum "Si O2"
_cell_formula_units_Z 20
_cell_length_a 21.180809
_cell_length_b 8.089636
_cell_length_c 5.221261
_cell_angle_alpha 90.000000
_cell_angle_beta 90.000000
_cell_angle_gamma 90.000000
_cell_volume 894.637149
_symmetry_space_group_name_H-M "P C C 2"
_symmetry_group_IT_number 27
_symmetry_cell_setting 'orthorhombic'
loop_
_space_group_symop_operation_xyz
x,y,z
-x,-y,z
-x,y,1/2+z
x,-y,1/2+z
loop_
_atom_site_type_symbol
_atom_site_label
_atom_site_fract_x
_atom_site_fract_y
_atom_site_fract_z
Si Si1 0.069975 0.427987 0.915480
Si Si2 0.569938 0.066572 0.627685
Si Si3 0.381556 0.402087 0.999768
Si Si4 0.762091 0.394901 0.543401
Si Si5 0.863993 0.887860 0.999710
O O1 0.105066 0.475917 0.648769
O O2 0.073838 0.230902 0.967202
O O3 0.000000 0.500000 0.871246
O O4 0.568793 0.258740 0.560671
O O5 0.500000 0.000000 0.689042
O O6 0.605338 0.967272 0.398045
O O7 0.394322 0.544168 0.208502
O O8 0.310318 0.335130 0.029209
O O9 0.775975 0.529968 0.323426
O O10 0.803859 0.232602 0.491030
O O11 0.864743 0.018077 0.769058
#
# Coordination Sequence:
#
# PCOD8167855 Si02
#       5
#     4   4   4   4   4
#     4  10  21  41  63  82 113 163 201 230 287 350
#     4  10  21  38  56  81 116 154 190 235 299 348
#     4  10  21  38  61  87 114 151 202 244 279 344
#     4  10  21  39  62  86 117 158 194 233 293 358
#     4  12  24  38  60  94 123 148 193 250 294 340
#
# _framework density 22.355430999999999
#
# number of rings (size 3 to 8) (size 9 to 14) (size 15 to 20)
#    0.000    1.600    0.000    4.800    0.000    1.600 
#    0.000   24.000    0.000    0.000    0.000    0.000 
#    0.000    0.000    0.000    0.000    0.000    0.000 
#
# Total GULP energy -247852.367101 kJ/mol
# GULP energy per Si atom -12392.618355 kJ/mol
# Density = 2.230455 g / cm^3
# Si number density = 22.355431 Si / 1000 Ang^3
#
#
#
# Elastic Constant Matrix: (Units=GPa)
#
#
# Indices 1 2 3 4 5 6 
#
# 1 53.3003 25.8238 -8.2613 0.0000 0.0000 0.0000
# 2 25.8238 110.3108 17.6954 0.0000 0.0000 0.0000
# 3 -8.2613 17.6954 162.1835 0.0000 0.0000 0.0000
# 4 0.0000 0.0000 0.0000 45.7270 0.0000 0.0000
# 5 0.0000 0.0000 0.0000 0.0000 -20.0725 0.0000
# 6 0.0000 0.0000 0.0000 0.0000 0.0000 35.4441
#
#
#
# Elastic Compliance Matrix: (Units=1/GPa)
#
#
# Indices 1 2 3 4 5 6 
#
# 1 0.021603 -0.005327 0.001682 0.000000 0.000000 0.000000
# 2 -0.005327 0.010540 -0.001421 0.000000 0.000000 0.000000
# 3 0.001682 -0.001421 0.006407 0.000000 0.000000 0.000000
# 4 0.000000 0.000000 0.000000 0.021869 0.000000 0.000000
# 5 0.000000 0.000000 0.000000 0.000000 -0.049819 0.000000
# 6 0.000000 0.000000 0.000000 0.000000 0.000000 0.028213
#
#
# Mechanical properties :
#
#
# Convention : Reuss Voigt Hill
#
# Bulk Modulus (GPa) = 35.19073 44.03449 39.61261
# Shear Modulus (GPa) = 85.58853 31.58884 58.58868
#
# Velocity S-wave (km/s) = 6.19423 3.76310 5.12491
# Velocity P-wave (km/s) = 8.18129 6.21462 7.26481
#
# Compressibility (1/GPa) = 0.02841657
#
# Stress axis : x y z
#
# Youngs Moduli (GPa) = 46.28935 94.87322 156.08906
#
# Poissons Ratio (x) = 0.50540 -0.26249
# Poissons Ratio (y) = 0.24659 0.22186
# Poissons Ratio (z) = -0.07784 0.13485
#
# Static dielectric constant tensor:
#      x y z
#    x 4.247600 0.000000 0.000000 
#    y 0.000000 3.952780 0.000000 
#    z 0.000000 0.000000 5.155610 
# 
# 
# High freq. dielectric constant tensor:
#      x y z
#    x 1.860570 0.000000 0.000000 
#    y 0.000000 1.869520 0.000000 
#    z 0.000000 0.000000 1.924590 
# 
# From -- ./inp_files/63.got.cif
#   From: 2010.03.12/outbox.cif.g09.slc.cpg/sg27_1_cif.got.tgz:63.got - 2010.04.14 03:36:05.
