data_PCOD8167395
_publ_section_title
;
Structure prediction by ZEFSAII (Michael W. Deem and Ramdas Pophale) SiO2 
 PCOD8167395
Probable space group: P M C 21
;
_chemical_formula_sum "Si O2"
_cell_formula_units_Z 32
_cell_length_a 8.668108
_cell_length_b 12.327180
_cell_length_c 14.533752
_cell_angle_alpha 90.000000
_cell_angle_beta 90.000000
_cell_angle_gamma 90.000000
_cell_volume 1552.979763
_symmetry_space_group_name_H-M "P M C 21"
_symmetry_group_IT_number 26
_symmetry_cell_setting 'orthorhombic'
loop_
_space_group_symop_operation_xyz
x,y,z
-x,-y,1/2+z
-x,y,z
x,-y,1/2+z
loop_
_atom_site_type_symbol
_atom_site_label
_atom_site_fract_x
_atom_site_fract_y
_atom_site_fract_z
Si Si1 0.822910 0.221959 0.996520
Si Si2 0.318635 0.678174 0.827614
Si Si3 0.820703 0.814801 0.129657
Si Si4 0.672606 0.964894 0.591507
Si Si5 0.327813 0.085230 0.303042
Si Si6 0.681036 0.395349 0.129622
Si Si7 0.319955 0.617764 0.029178
Si Si8 0.681988 0.847113 0.320260
O O1 0.721718 0.233077 0.903936
O O2 0.000000 0.240455 0.971871
O O3 0.796095 0.100971 0.032897
O O4 0.769661 0.305518 0.072663
O O5 0.500000 0.694397 0.816439
O O6 0.244857 0.801189 0.833277
O O7 0.261923 0.612439 0.736458
O O8 0.279727 0.609633 0.919756
O O9 0.788503 0.708933 0.070588
O O10 0.767347 0.794629 0.233694
O O11 0.000000 0.844412 0.126910
O O12 0.721023 0.910650 0.085409
O O13 0.500000 0.952742 0.549633
O O14 0.674156 0.917866 0.693438
O O15 0.500000 0.088033 0.342857
O O16 0.254045 0.971114 0.338753
O O17 0.500000 0.372661 0.121483
O O18 0.724738 0.509337 0.083650
O O19 0.500000 0.646070 0.043053
O O20 0.500000 0.850132 0.299598
#
# Coordination Sequence:
#
# PCOD8167395 Si02
#       8
#     4   4   4   4   4   4   4   4
#     4  12  24  37  57  91 127 162 203 258 325 379
#     4   9  17  34  59  88 118 151 203 262 304 351
#     4  11  23  40  59  88 129 163 196 257 327 378
#     4  10  19  36  61  86 117 161 207 251 303 374
#     4   8  15  30  56  85 112 149 200 253 300 346
#     4  10  21  40  63  88 121 165 216 264 305 363
#     4  10  22  38  63  93 118 161 217 262 307 369
#     4  10  21  37  60  89 120 166 214 253 303 378
#
# _framework density 20.605549
#
# number of rings (size 3 to 8) (size 9 to 14) (size 15 to 20)
#    0.000    2.000    1.250    3.750    1.750    1.500 
#    0.000    3.125    0.000    0.000    0.000    0.000 
#    0.000    0.000    0.000    0.000    0.000    0.000 
#
# Total GULP energy -396650.068491 kJ/mol
# GULP energy per Si atom -12395.314640 kJ/mol
# Density = 2.055865 g / cm^3
# Si number density = 20.605549 Si / 1000 Ang^3
#
#
#
# Elastic Constant Matrix: (Units=GPa)
#
#
# Indices 1 2 3 4 5 6 
#
# 1 59.6711 25.4714 19.4610 0.0000 0.0000 0.0000
# 2 25.4714 83.3048 69.5516 0.0000 0.0000 0.0000
# 3 19.4610 69.5516 109.2494 0.0000 0.0000 0.0000
# 4 0.0000 0.0000 0.0000 27.1284 0.0000 0.0000
# 5 0.0000 0.0000 0.0000 0.0000 19.5543 0.0000
# 6 0.0000 0.0000 0.0000 0.0000 0.0000 19.2111
#
#
#
# Elastic Compliance Matrix: (Units=1/GPa)
#
#
# Indices 1 2 3 4 5 6 
#
# 1 0.019298 -0.006469 0.000681 0.000000 0.000000 0.000000
# 2 -0.006469 0.027792 -0.016541 0.000000 0.000000 0.000000
# 3 0.000681 -0.016541 0.019563 0.000000 0.000000 0.000000
# 4 0.000000 0.000000 0.000000 0.036862 0.000000 0.000000
# 5 0.000000 0.000000 0.000000 0.000000 0.051140 0.000000
# 6 0.000000 0.000000 0.000000 0.000000 0.000000 0.052053
#
#
# Mechanical properties :
#
#
# Convention : Reuss Voigt Hill
#
# Bulk Modulus (GPa) = 45.46635 53.46590 49.46613
# Shear Modulus (GPa) = 19.32761 22.36152 20.84457
#
# Velocity S-wave (km/s) = 3.06597 3.29784 3.18402
# Velocity P-wave (km/s) = 5.88613 6.36433 6.12989
#
# Compressibility (1/GPa) = 0.02199429
#
# Stress axis : x y z
#
# Youngs Moduli (GPa) = 51.81924 35.98127 51.11770
#
# Poissons Ratio (x) = 0.23276 -0.03479
# Poissons Ratio (y) = 0.33521 0.84554
# Poissons Ratio (z) = -0.03527 0.59517
#
# Static dielectric constant tensor:
#      x y z
#    x 3.411980 0.000000 0.000000 
#    y 0.000000 3.803320 0.000000 
#    z 0.000000 0.000000 3.956300 
# 
# 
# High freq. dielectric constant tensor:
#      x y z
#    x 1.768970 0.000000 0.000000 
#    y 0.000000 1.799200 0.000000 
#    z 0.000000 0.000000 1.816920 
# 
# From -- ./inp_files/4180.got.cif
#   From: 2010.03.12/outbox.cif.g09.slc.cpg/sg26_3_cif.got.tgz:4180.got - 2010.04.14 03:33:09.
