data_PCOD8167418
_publ_section_title
;
Structure prediction by ZEFSAII (Michael W. Deem and Ramdas Pophale) SiO2 
 PCOD8167418
Probable space group: P M C 21
;
_chemical_formula_sum "Si O2"
_cell_formula_units_Z 24
_cell_length_a 8.775100
_cell_length_b 13.469680
_cell_length_c 10.027316
_cell_angle_alpha 90.000000
_cell_angle_beta 90.000000
_cell_angle_gamma 90.000000
_cell_volume 1185.206580
_symmetry_space_group_name_H-M "P M C 21"
_symmetry_group_IT_number 26
_symmetry_cell_setting 'orthorhombic'
loop_
_space_group_symop_operation_xyz
x,y,z
-x,-y,1/2+z
-x,y,z
x,-y,1/2+z
loop_
_atom_site_type_symbol
_atom_site_label
_atom_site_fract_x
_atom_site_fract_y
_atom_site_fract_z
Si Si1 0.319392 0.647127 0.353610
Si Si2 0.680446 0.579158 0.841216
Si Si3 0.822545 0.074117 0.201902
Si Si4 0.319145 0.276855 0.570921
Si Si5 0.176638 0.705190 0.619495
Si Si6 0.319686 0.060629 0.481559
O O1 0.500000 0.656212 0.362307
O O2 0.265894 0.533188 0.364194
O O3 0.256380 0.693371 0.215989
O O4 0.247024 0.710310 0.472327
O O5 0.500000 0.586132 0.830884
O O6 0.745781 0.616950 0.701480
O O7 0.745491 0.645544 0.962310
O O8 0.791360 0.191307 0.193405
O O9 0.763503 0.035055 0.343568
O O10 0.000000 0.048106 0.184768
O O11 0.725907 0.022368 0.086833
O O12 0.500000 0.282462 0.570716
O O13 0.262066 0.166975 0.535195
O O14 0.000000 0.682073 0.607211
O O15 0.500000 0.059484 0.457881
#
# Coordination Sequence:
#
# PCOD8167418 Si02
#       6
#     4   4   4   4   4   4
#     4  10  21  37  62  92 122 159 202 250 299 351
#     4  10  19  38  65  89 119 159 203 252 301 351
#     4  11  25  44  63  89 126 165 201 248 312 375
#     4   9  19  36  59  91 121 150 197 251 300 350
#     4  11  24  40  59  88 126 165 200 242 300 363
#     4  11  23  41  66  93 120 158 207 259 304 358
#
# _framework density 20.249635000000001
#
# number of rings (size 3 to 8) (size 9 to 14) (size 15 to 20)
#    0.000    1.667    1.667    2.500    2.333    5.333 
#    0.000    1.667    0.000    0.000    0.000    0.000 
#    0.000    0.000    0.000    0.000    0.000    0.000 
#
# Total GULP energy -297739.875329 kJ/mol
# GULP energy per Si atom -12405.828139 kJ/mol
# Density = 2.020355 g / cm^3
# Si number density = 20.249635 Si / 1000 Ang^3
#
#
#
# Elastic Constant Matrix: (Units=GPa)
#
#
# Indices 1 2 3 4 5 6 
#
# 1 34.5752 25.7776 20.3935 0.0000 0.0000 0.0000
# 2 25.7776 56.9454 20.5278 0.0000 0.0000 0.0000
# 3 20.3935 20.5278 139.6150 0.0000 0.0000 0.0000
# 4 0.0000 0.0000 0.0000 42.4667 0.0000 0.0000
# 5 0.0000 0.0000 0.0000 0.0000 22.1016 0.0000
# 6 0.0000 0.0000 0.0000 0.0000 0.0000 22.5882
#
#
#
# Elastic Compliance Matrix: (Units=1/GPa)
#
#
# Indices 1 2 3 4 5 6 
#
# 1 0.045508 -0.019223 -0.003821 0.000000 0.000000 0.000000
# 2 -0.019223 0.026663 -0.001112 0.000000 0.000000 0.000000
# 3 -0.003821 -0.001112 0.007884 0.000000 0.000000 0.000000
# 4 0.000000 0.000000 0.000000 0.023548 0.000000 0.000000
# 5 0.000000 0.000000 0.000000 0.000000 0.045246 0.000000
# 6 0.000000 0.000000 0.000000 0.000000 0.000000 0.044271
#
#
# Mechanical properties :
#
#
# Convention : Reuss Voigt Hill
#
# Bulk Modulus (GPa) = 31.50303 40.50371 36.00337
# Shear Modulus (GPa) = 19.84024 28.39375 24.11700
#
# Velocity S-wave (km/s) = 3.13354 3.74864 3.45481
# Velocity P-wave (km/s) = 5.35567 6.22752 5.80798
#
# Compressibility (1/GPa) = 0.03174298
#
# Stress axis : x y z
#
# Youngs Moduli (GPa) = 21.97428 37.50471 126.83522
#
# Poissons Ratio (x) = 0.72094 0.48463
# Poissons Ratio (y) = 0.42241 0.14110
# Poissons Ratio (z) = 0.08396 0.04172
#
# Static dielectric constant tensor:
#      x y z
#    x 3.402080 0.000000 0.000000 
#    y 0.000000 3.729800 0.000000 
#    z 0.000000 0.000000 3.814070 
# 
# 
# High freq. dielectric constant tensor:
#      x y z
#    x 1.769790 0.000000 0.000000 
#    y 0.000000 1.796460 0.000000 
#    z 0.000000 0.000000 1.808270 
# 
# From -- ./inp_files/1423.got.cif
#   From: 2010.03.12/outbox.cif.g09.slc.cpg/sg26_1_cif.got.tgz:1423.got - 2010.04.14 03:33:09.
