data_PCOD8167137
_publ_section_title
;
Structure prediction by ZEFSAII (Michael W. Deem and Ramdas Pophale) SiO2 
 PCOD8167137
Probable space group: P M C 21
;
_chemical_formula_sum "Si O2"
_cell_formula_units_Z 28
_cell_length_a 12.792876
_cell_length_b 5.164554
_cell_length_c 23.618044
_cell_angle_alpha 90.000000
_cell_angle_beta 90.000000
_cell_angle_gamma 90.000000
_cell_volume 1560.432332
_symmetry_space_group_name_H-M "P M C 21"
_symmetry_group_IT_number 26
_symmetry_cell_setting 'orthorhombic'
loop_
_space_group_symop_operation_xyz
x,y,z
-x,-y,1/2+z
-x,y,z
x,-y,1/2+z
loop_
_atom_site_type_symbol
_atom_site_label
_atom_site_fract_x
_atom_site_fract_y
_atom_site_fract_z
Si Si1 0.618756 0.747669 0.785550
Si Si2 0.745519 0.249104 0.756268
Si Si3 0.119299 0.586803 0.358028
Si Si4 0.766553 0.778314 0.456687
Si Si5 0.880492 0.731340 0.572988
Si Si6 0.880290 0.770195 0.145495
Si Si7 0.705721 0.715737 0.902716
O O1 0.500000 0.779129 0.765111
O O2 0.661476 0.476392 0.762422
O O3 0.618713 0.753224 0.854359
O O4 0.686591 0.977173 0.759038
O O5 0.832059 0.259059 0.805379
O O6 0.803161 0.278103 0.696932
O O7 0.132817 0.762569 0.414632
O O8 0.183385 0.319042 0.368660
O O9 0.000000 0.518026 0.345769
O O10 0.802432 0.765625 0.520952
O O11 0.687154 0.542547 0.440784
O O12 0.705883 0.044739 0.445621
O O13 0.860015 0.449966 0.598921
O O14 0.000000 0.757903 0.551909
O O15 0.855263 0.950983 0.618867
O O16 0.000000 0.757689 0.166996
#
# Coordination Sequence:
#
# PCOD8167137 Si02
#       7
#     4   4   4   4   4   4   4
#     4  11  21  38  58  81 107 136 175 230 280 328
#     4  11  21  37  54  82 111 135 184 217 268 338
#     4   9  19  30  49  76 112 146 166 210 264 314
#     4  10  18  33  50  75 112 139 180 220 247 303
#     4  10  20  33  51  76 107 154 195 212 243 302
#     4  10  21  36  53  77 113 152 181 215 257 309
#     4   9  19  33  47  79 108 136 171 216 267 326
#
# _framework density 17.943745
#
# number of rings (size 3 to 8) (size 9 to 14) (size 15 to 20)
#    0.857    1.143    1.429    3.000    0.000    1.143 
#    0.000    1.429    0.000    0.000    0.000   20.000 
#    0.000    0.000    0.000    0.000    0.000    0.000 
#
# Total GULP energy -347063.068123 kJ/mol
# GULP energy per Si atom -12395.109576 kJ/mol
# Density = 1.790290 g / cm^3
# Si number density = 17.943745 Si / 1000 Ang^3
#
#
#
# Elastic Constant Matrix: (Units=GPa)
#
#
# Indices 1 2 3 4 5 6 
#
# 1 52.3998 6.3016 21.1829 0.0000 0.0000 0.0000
# 2 6.3016 92.2090 7.5837 0.0000 0.0000 0.0000
# 3 21.1829 7.5837 79.9067 0.0000 0.0000 0.0000
# 4 0.0000 0.0000 0.0000 22.6197 0.0000 0.0000
# 5 0.0000 0.0000 0.0000 0.0000 15.8351 0.0000
# 6 0.0000 0.0000 0.0000 0.0000 0.0000 17.2119
#
#
#
# Elastic Compliance Matrix: (Units=1/GPa)
#
#
# Indices 1 2 3 4 5 6 
#
# 1 0.021467 -0.001007 -0.005595 0.000000 0.000000 0.000000
# 2 -0.001007 0.010977 -0.000775 0.000000 0.000000 0.000000
# 3 -0.005595 -0.000775 0.014071 0.000000 0.000000 0.000000
# 4 0.000000 0.000000 0.000000 0.044209 0.000000 0.000000
# 5 0.000000 0.000000 0.000000 0.000000 0.063151 0.000000
# 6 0.000000 0.000000 0.000000 0.000000 0.000000 0.058099
#
#
# Mechanical properties :
#
#
# Convention : Reuss Voigt Hill
#
# Bulk Modulus (GPa) = 31.48435 32.73910 32.11172
# Shear Modulus (GPa) = 21.06889 23.76316 22.41602
#
# Velocity S-wave (km/s) = 3.43032 3.64306 3.53829
# Velocity P-wave (km/s) = 5.76834 5.99841 5.88450
#
# Compressibility (1/GPa) = 0.03176181
#
# Stress axis : x y z
#
# Youngs Moduli (GPa) = 46.58309 91.09565 71.06609
#
# Poissons Ratio (x) = 0.09172 0.39763
# Poissons Ratio (y) = 0.04690 0.05507
# Poissons Ratio (z) = 0.26064 0.07059
#
# Static dielectric constant tensor:
#      x y z
#    x 2.950940 0.000000 0.000000 
#    y 0.000000 3.395610 0.000000 
#    z 0.000000 0.000000 3.123110 
# 
# 
# High freq. dielectric constant tensor:
#      x y z
#    x 1.658260 0.000000 0.000000 
#    y 0.000000 1.710500 0.000000 
#    z 0.000000 0.000000 1.684780 
# 
# From -- ./inp_files/5597.got.cif
#   From: 2010.03.12/outbox.cif.g09.slc.cpg/sg26_3_cif.got.tgz:5597.got - 2010.04.14 03:33:09.
