data_PCOD8167874
_publ_section_title
;
Structure prediction by ZEFSAII (Michael W. Deem and Ramdas Pophale) SiO2 
 PCOD8167874
Probable space group: P C C 2
;
_chemical_formula_sum "Si O2"
_cell_formula_units_Z 24
_cell_length_a 14.945319
_cell_length_b 8.078019
_cell_length_c 8.858959
_cell_angle_alpha 90.000000
_cell_angle_beta 90.000000
_cell_angle_gamma 90.000000
_cell_volume 1069.529459
_symmetry_space_group_name_H-M "P C C 2"
_symmetry_group_IT_number 27
_symmetry_cell_setting 'orthorhombic'
loop_
_space_group_symop_operation_xyz
x,y,z
-x,-y,z
-x,y,1/2+z
x,-y,1/2+z
loop_
_atom_site_type_symbol
_atom_site_label
_atom_site_fract_x
_atom_site_fract_y
_atom_site_fract_z
Si Si1 0.047361 0.677254 0.562570
Si Si2 0.500000 0.500000 0.383348
Si Si3 0.067040 0.132638 0.773836
Si Si4 0.316091 0.065042 0.473183
Si Si5 0.794941 0.870396 0.194330
Si Si6 0.428376 0.287884 0.646058
Si Si7 0.500000 0.000000 0.316828
O O1 0.075456 0.713888 0.390269
O O2 0.136466 0.716137 0.665537
O O3 0.000000 0.500000 0.580148
O O4 0.971502 0.804425 0.615031
O O5 0.462450 0.352128 0.484123
O O6 0.579533 0.433698 0.271261
O O7 0.159348 0.045315 0.735164
O O8 0.000000 0.000000 0.849087
O O9 0.266697 0.166631 0.339506
O O10 0.334541 0.195024 0.611510
O O11 0.410982 0.993815 0.418139
O O12 0.260871 0.909712 0.541668
O O13 0.502425 0.160610 0.709317
#
# Coordination Sequence:
#
# PCOD8167874 Si02
#       7
#     4   2   4   4   4   4   2
#     4  11  23  42  71 104 139 180 229 297 383 454
#     4  10  24  42  66  96 142 188 252 306 386 430
#     4  10  21  41  71  97 131 183 228 283 363 453
#     4  12  24  41  71 106 145 188 268 307 356 428
#     4  11  24  42  70 105 142 189 243 319 358 440
#     4  11  23  42  68 100 140 197 256 310 365 437
#     4  12  24  40  78 104 140 206 274 306 358 434
#
# _framework density 22.439772999999999
#
# number of rings (size 3 to 8) (size 9 to 14) (size 15 to 20)
#    0.000    1.000    5.000    2.500    2.333    0.000 
#    0.000    1.667    0.000    0.000    0.000    0.000 
#    0.000    0.000    0.000    0.000    0.000    0.000 
#
# Total GULP energy -297384.261938 kJ/mol
# GULP energy per Si atom -12391.010914 kJ/mol
# Density = 2.238870 g / cm^3
# Si number density = 22.439773 Si / 1000 Ang^3
#
#
#
# Elastic Constant Matrix: (Units=GPa)
#
#
# Indices 1 2 3 4 5 6 
#
# 1 116.1602 48.8033 46.7287 0.0000 0.0000 0.0000
# 2 48.8033 111.5498 49.9782 0.0000 0.0000 0.0000
# 3 46.7287 49.9782 123.1521 0.0000 0.0000 0.0000
# 4 0.0000 0.0000 0.0000 36.8605 0.0000 0.0000
# 5 0.0000 0.0000 0.0000 0.0000 40.1089 0.0000
# 6 0.0000 0.0000 0.0000 0.0000 0.0000 37.2174
#
#
#
# Elastic Compliance Matrix: (Units=1/GPa)
#
#
# Indices 1 2 3 4 5 6 
#
# 1 0.011277 -0.003687 -0.002783 0.000000 0.000000 0.000000
# 2 -0.003687 0.012162 -0.003537 0.000000 0.000000 0.000000
# 3 -0.002783 -0.003537 0.010611 0.000000 0.000000 0.000000
# 4 0.000000 0.000000 0.000000 0.027129 0.000000 0.000000
# 5 0.000000 0.000000 0.000000 0.000000 0.024932 0.000000
# 6 0.000000 0.000000 0.000000 0.000000 0.000000 0.026869
#
#
# Mechanical properties :
#
#
# Convention : Reuss Voigt Hill
#
# Bulk Modulus (GPa) = 71.23676 71.32028 71.27852
# Shear Modulus (GPa) = 36.31772 36.52748 36.42260
#
# Velocity S-wave (km/s) = 4.02736 4.03898 4.03318
# Velocity P-wave (km/s) = 7.31033 7.32141 7.31587
#
# Compressibility (1/GPa) = 0.01403770
#
# Stress axis : x y z
#
# Youngs Moduli (GPa) = 88.67350 82.22123 94.23986
#
# Poissons Ratio (x) = 0.30316 0.26225
# Poissons Ratio (y) = 0.32695 0.33330
# Poissons Ratio (z) = 0.24676 0.29080
#
# Static dielectric constant tensor:
#      x y z
#    x 3.981080 0.000000 0.000000 
#    y 0.000000 4.020500 0.000000 
#    z 0.000000 0.000000 4.252240 
# 
# 
# High freq. dielectric constant tensor:
#      x y z
#    x 1.864040 0.000000 0.000000 
#    y 0.000000 1.863160 0.000000 
#    z 0.000000 0.000000 1.908960 
# 
# From -- ./inp_files/1163.got.cif
#   From: 2010.03.12/outbox.cif.g09.slc.cpg/sg27_1_cif.got.tgz:1163.got - 2010.04.14 03:36:05.
