data_PCOD8167438
_publ_section_title
;
Structure prediction by ZEFSAII (Michael W. Deem and Ramdas Pophale) SiO2 
 PCOD8167438
Probable space group: P M C 21
;
_chemical_formula_sum "Si O2"
_cell_formula_units_Z 32
_cell_length_a 8.886695
_cell_length_b 14.332539
_cell_length_c 13.897785
_cell_angle_alpha 90.000000
_cell_angle_beta 90.000000
_cell_angle_gamma 90.000000
_cell_volume 1770.145625
_symmetry_space_group_name_H-M "P M C 21"
_symmetry_group_IT_number 26
_symmetry_cell_setting 'orthorhombic'
loop_
_space_group_symop_operation_xyz
x,y,z
-x,-y,1/2+z
-x,y,z
x,-y,1/2+z
loop_
_atom_site_type_symbol
_atom_site_label
_atom_site_fract_x
_atom_site_fract_y
_atom_site_fract_z
Si Si1 0.669315 0.678203 0.112900
Si Si2 0.321546 0.342447 0.957221
Si Si3 0.324541 0.867534 0.026157
Si Si4 0.824136 0.023188 0.142919
Si Si5 0.176783 0.141131 0.957964
Si Si6 0.329986 0.475816 0.123280
Si Si7 0.824291 0.585083 0.273269
Si Si8 0.677098 0.980833 0.842593
O O1 0.500000 0.700314 0.149378
O O2 0.674353 0.574998 0.063844
O O3 0.777684 0.674689 0.207046
O O4 0.719351 0.758398 0.038005
O O5 0.500000 0.330832 0.951882
O O6 0.265283 0.409219 0.872475
O O7 0.241854 0.243792 0.951009
O O8 0.270984 0.392451 0.056444
O O9 0.500000 0.886850 0.043698
O O10 0.278808 0.900436 0.919354
O O11 0.233305 0.923039 0.107177
O O12 0.742035 0.052352 0.240887
O O13 0.000000 0.016951 0.162769
O O14 0.783936 0.100502 0.062996
O O15 0.000000 0.143242 0.938960
O O16 0.251399 0.078704 0.874995
O O17 0.500000 0.454854 0.157376
O O18 0.225703 0.489159 0.218317
O O19 0.000000 0.584959 0.294024
O O20 0.500000 0.994603 0.833930
#
# Coordination Sequence:
#
# PCOD8167438 Si02
#       8
#     4   4   4   4   4   4   4   4
#     4   8  16  34  54  75 103 132 172 219 263 313
#     4  11  21  36  59  82 109 146 186 231 274 321
#     4   9  18  33  55  78 102 136 179 224 265 314
#     4  10  21  36  53  75 111 146 176 222 277 327
#     4  10  22  38  55  80 111 146 187 229 276 327
#     4   8  18  36  55  76 106 140 177 222 270 319
#     4  10  20  33  53  81 111 139 174 219 270 326
#     4  10  20  34  54  79 107 141 183 224 269 327
#
# _framework density 18.077608000000001
#
# number of rings (size 3 to 8) (size 9 to 14) (size 15 to 20)
#    0.750    1.750    0.000    2.250    1.750    3.500 
#    0.000    1.250    0.000    3.000    0.000    0.000 
#    0.000    0.000    0.000    0.000    0.000    0.000 
#
# Total GULP energy -396597.205394 kJ/mol
# GULP energy per Si atom -12393.662669 kJ/mol
# Density = 1.803646 g / cm^3
# Si number density = 18.077608 Si / 1000 Ang^3
#
#
#
# Elastic Constant Matrix: (Units=GPa)
#
#
# Indices 1 2 3 4 5 6 
#
# 1 60.4153 6.8548 28.2389 0.0000 0.0000 0.0000
# 2 6.8548 31.0499 5.1611 0.0000 0.0000 0.0000
# 3 28.2389 5.1611 79.7595 0.0000 0.0000 0.0000
# 4 0.0000 0.0000 0.0000 20.5671 0.0000 0.0000
# 5 0.0000 0.0000 0.0000 0.0000 29.1231 0.0000
# 6 0.0000 0.0000 0.0000 0.0000 0.0000 22.4905
#
#
#
# Elastic Compliance Matrix: (Units=1/GPa)
#
#
# Indices 1 2 3 4 5 6 
#
# 1 0.020164 -0.003300 -0.006925 0.000000 0.000000 0.000000
# 2 -0.003300 0.033097 -0.000973 0.000000 0.000000 0.000000
# 3 -0.006925 -0.000973 0.015053 0.000000 0.000000 0.000000
# 4 0.000000 0.000000 0.000000 0.048621 0.000000 0.000000
# 5 0.000000 0.000000 0.000000 0.000000 0.034337 0.000000
# 6 0.000000 0.000000 0.000000 0.000000 0.000000 0.044463
#
#
# Mechanical properties :
#
#
# Convention : Reuss Voigt Hill
#
# Bulk Modulus (GPa) = 21.77934 27.97048 24.87491
# Shear Modulus (GPa) = 21.41905 23.16745 22.29325
#
# Velocity S-wave (km/s) = 3.44588 3.58377 3.51550
# Velocity P-wave (km/s) = 5.28261 5.71231 5.50166
#
# Compressibility (1/GPa) = 0.04591507
#
# Stress axis : x y z
#
# Youngs Moduli (GPa) = 49.59439 30.21462 66.43371
#
# Poissons Ratio (x) = 0.09972 0.46008
# Poissons Ratio (y) = 0.16368 0.06465
# Poissons Ratio (z) = 0.34346 0.02940
#
# Static dielectric constant tensor:
#      x y z
#    x 3.318690 0.000000 0.000000 
#    y 0.000000 3.248650 0.000000 
#    z 0.000000 0.000000 3.278690 
# 
# 
# High freq. dielectric constant tensor:
#      x y z
#    x 1.705590 0.000000 0.000000 
#    y 0.000000 1.684840 0.000000 
#    z 0.000000 0.000000 1.689280 
# 
# From -- ./inp_files/4340.got.cif
#   From: 2010.03.12/outbox.cif.g09.slc.cpg/sg26_3_cif.got.tgz:4340.got - 2010.04.14 03:33:09.
