data_PCOD8167257
_publ_section_title
;
Structure prediction by ZEFSAII (Michael W. Deem and Ramdas Pophale) SiO2 
 PCOD8167257
Probable space group: P M C 21
;
_chemical_formula_sum "Si O2"
_cell_formula_units_Z 24
_cell_length_a 8.915634
_cell_length_b 9.154807
_cell_length_c 16.483038
_cell_angle_alpha 90.000000
_cell_angle_beta 90.000000
_cell_angle_gamma 90.000000
_cell_volume 1345.360537
_symmetry_space_group_name_H-M "P M C 21"
_symmetry_group_IT_number 26
_symmetry_cell_setting 'orthorhombic'
loop_
_space_group_symop_operation_xyz
x,y,z
-x,-y,1/2+z
-x,y,z
x,-y,1/2+z
loop_
_atom_site_type_symbol
_atom_site_label
_atom_site_fract_x
_atom_site_fract_y
_atom_site_fract_z
Si Si1 0.668543 0.909820 0.678940
Si Si2 0.175476 0.337829 0.606949
Si Si3 0.821263 0.667607 0.583397
Si Si4 0.665092 0.100328 0.518045
Si Si5 0.821902 0.839149 0.264198
Si Si6 0.320921 0.819829 0.431492
O O1 0.500000 0.873939 0.709813
O O2 0.757164 0.761478 0.658379
O O3 0.660689 0.006316 0.599188
O O4 0.758576 0.998270 0.747790
O O5 0.232769 0.502692 0.599901
O O6 0.233324 0.242787 0.530443
O O7 0.229038 0.269938 0.692348
O O8 0.000000 0.331244 0.600868
O O9 0.751853 0.714164 0.497821
O O10 0.000000 0.684494 0.580339
O O11 0.500000 0.157217 0.495432
O O12 0.724848 0.989549 0.448761
O O13 0.746574 0.775086 0.345049
O O14 0.000000 0.846494 0.273811
O O15 0.500000 0.800724 0.433901
#
# Coordination Sequence:
#
# PCOD8167257 Si02
#       6
#     4   4   4   4   4   4
#     4   9  17  31  50  73  98 127 163 203 242 291
#     4   9  19  33  51  75 102 130 166 206 247 298
#     4  10  19  33  52  75 102 134 168 205 248 300
#     4   8  16  30  49  70  94 124 160 198 240 290
#     4  10  19  33  53  76 100 131 168 210 256 301
#     4  10  20  34  51  75 102 130 167 212 255 300
#
# _framework density 17.839085000000001
#
# number of rings (size 3 to 8) (size 9 to 14) (size 15 to 20)
#    0.000    2.667    0.000    3.000    0.000    6.667 
#    0.000    1.667    0.000    2.000    0.000    0.000 
#    0.000    0.000    0.000    0.000    0.000    0.000 
#
# Total GULP energy -297518.637239 kJ/mol
# GULP energy per Si atom -12396.609885 kJ/mol
# Density = 1.779848 g / cm^3
# Si number density = 17.839085 Si / 1000 Ang^3
#
#
#
# Elastic Constant Matrix: (Units=GPa)
#
#
# Indices 1 2 3 4 5 6 
#
# 1 76.5260 52.0777 35.5669 0.0000 0.0000 0.0000
# 2 52.0777 136.3254 46.4024 0.0000 0.0000 0.0000
# 3 35.5669 46.4024 78.0606 0.0000 0.0000 0.0000
# 4 0.0000 0.0000 0.0000 18.5739 0.0000 0.0000
# 5 0.0000 0.0000 0.0000 0.0000 26.9080 0.0000
# 6 0.0000 0.0000 0.0000 0.0000 0.0000 24.2256
#
#
#
# Elastic Compliance Matrix: (Units=1/GPa)
#
#
# Indices 1 2 3 4 5 6 
#
# 1 0.019410 -0.005522 -0.005561 0.000000 0.000000 0.000000
# 2 -0.005522 0.010767 -0.003884 0.000000 0.000000 0.000000
# 3 -0.005561 -0.003884 0.017654 0.000000 0.000000 0.000000
# 4 0.000000 0.000000 0.000000 0.053839 0.000000 0.000000
# 5 0.000000 0.000000 0.000000 0.000000 0.037164 0.000000
# 6 0.000000 0.000000 0.000000 0.000000 0.000000 0.041279
#
#
# Mechanical properties :
#
#
# Convention : Reuss Voigt Hill
#
# Bulk Modulus (GPa) = 55.88084 62.11180 58.99632
# Shear Modulus (GPa) = 23.14686 24.39917 23.77302
#
# Velocity S-wave (km/s) = 3.60604 3.70230 3.65449
# Velocity P-wave (km/s) = 6.98076 7.29174 7.13794
#
# Compressibility (1/GPa) = 0.01789522
#
# Stress axis : x y z
#
# Youngs Moduli (GPa) = 51.51999 92.87679 56.64580
#
# Poissons Ratio (x) = 0.51285 0.31503
# Poissons Ratio (y) = 0.28448 0.22004
# Poissons Ratio (z) = 0.28652 0.36077
#
# Static dielectric constant tensor:
#      x y z
#    x 3.390580 0.000000 0.000000 
#    y 0.000000 3.477980 0.000000 
#    z 0.000000 0.000000 3.260080 
# 
# 
# High freq. dielectric constant tensor:
#      x y z
#    x 1.699950 0.000000 0.000000 
#    y 0.000000 1.679650 0.000000 
#    z 0.000000 0.000000 1.671060 
# 
# From -- ./inp_files/3912.got.cif
#   From: 2010.03.12/outbox.cif.g09.slc.cpg/sg26_2_cif.got.tgz:3912.got - 2010.04.14 03:33:09.
