data_PCOD8167284
_publ_section_title
;
Structure prediction by ZEFSAII (Michael W. Deem and Ramdas Pophale) SiO2 
 PCOD8167284
Probable space group: P M C 21
;
_chemical_formula_sum "Si O2"
_cell_formula_units_Z 32
_cell_length_a 9.012622
_cell_length_b 11.462725
_cell_length_c 16.110484
_cell_angle_alpha 90.000000
_cell_angle_beta 90.000000
_cell_angle_gamma 90.000000
_cell_volume 1664.361335
_symmetry_space_group_name_H-M "P M C 21"
_symmetry_group_IT_number 26
_symmetry_cell_setting 'orthorhombic'
loop_
_space_group_symop_operation_xyz
x,y,z
-x,-y,1/2+z
-x,y,z
x,-y,1/2+z
loop_
_atom_site_type_symbol
_atom_site_label
_atom_site_fract_x
_atom_site_fract_y
_atom_site_fract_z
Si Si1 0.674890 0.062741 0.050390
Si Si2 0.825466 0.424611 0.288437
Si Si3 0.825268 0.690222 0.257947
Si Si4 0.162266 0.773945 0.669900
Si Si5 0.836371 0.925471 0.828587
Si Si6 0.327540 0.725167 0.920338
Si Si7 0.675087 0.137919 0.869454
Si Si8 0.327386 0.805284 0.099836
O O1 0.500000 0.056631 0.049604
O O2 0.723822 0.172878 0.104906
O O3 0.734964 0.936271 0.080402
O O4 0.732673 0.095236 0.958970
O O5 0.783975 0.554417 0.261837
O O6 0.773331 0.344731 0.210703
O O7 0.743927 0.386635 0.373966
O O8 0.000000 0.406663 0.304485
O O9 0.751046 0.742188 0.341016
O O10 0.761966 0.748366 0.174953
O O11 0.000000 0.711298 0.260054
O O12 0.140926 0.866258 0.741555
O O13 0.000000 0.751304 0.628550
O O14 0.749424 0.844198 0.892595
O O15 0.000000 0.956885 0.864833
O O16 0.736615 0.038535 0.807926
O O17 0.500000 0.731742 0.896551
O O18 0.306233 0.720496 0.019918
O O19 0.500000 0.151791 0.863284
O O20 0.500000 0.812277 0.124987
#
# Coordination Sequence:
#
# PCOD8167284 Si02
#       8
#     4   4   4   4   4   4   4   4
#     4  10  21  37  56  84 119 150 184 231 291 353
#     4   9  21  42  60  80 116 154 197 246 291 348
#     4  11  24  41  60  85 116 157 203 246 299 352
#     4   9  19  35  56  82 110 144 186 234 282 337
#     4  10  19  33  56  86 117 149 189 233 288 350
#     4  10  19  35  61  89 116 151 195 241 290 346
#     4  11  22  38  57  81 119 156 191 240 295 349
#     4  10  21  39  60  87 121 153 191 239 296 359
#
# _framework density 19.226593999999999
#
# number of rings (size 3 to 8) (size 9 to 14) (size 15 to 20)
#    0.000    2.000    1.250    3.000    0.000    8.000 
#    2.250    0.000    0.000    0.000    0.000    0.000 
#    0.000    0.000    0.000    0.000    0.000    0.000 
#
# Total GULP energy -396684.997020 kJ/mol
# GULP energy per Si atom -12396.406157 kJ/mol
# Density = 1.918283 g / cm^3
# Si number density = 19.226594 Si / 1000 Ang^3
#
#
#
# Elastic Constant Matrix: (Units=GPa)
#
#
# Indices 1 2 3 4 5 6 
#
# 1 72.7399 48.9789 41.0177 0.0000 0.0000 0.0000
# 2 48.9789 140.0974 67.1569 0.0000 0.0000 0.0000
# 3 41.0177 67.1569 86.7520 0.0000 0.0000 0.0000
# 4 0.0000 0.0000 0.0000 25.5453 0.0000 0.0000
# 5 0.0000 0.0000 0.0000 0.0000 15.4266 0.0000
# 6 0.0000 0.0000 0.0000 0.0000 0.0000 31.1886
#
#
#
# Elastic Compliance Matrix: (Units=1/GPa)
#
#
# Indices 1 2 3 4 5 6 
#
# 1 0.020009 -0.003912 -0.006432 0.000000 0.000000 0.000000
# 2 -0.003912 0.012114 -0.007528 0.000000 0.000000 0.000000
# 3 -0.006432 -0.007528 0.020396 0.000000 0.000000 0.000000
# 4 0.000000 0.000000 0.000000 0.039146 0.000000 0.000000
# 5 0.000000 0.000000 0.000000 0.000000 0.064823 0.000000
# 6 0.000000 0.000000 0.000000 0.000000 0.000000 0.032063
#
#
# Mechanical properties :
#
#
# Convention : Reuss Voigt Hill
#
# Bulk Modulus (GPa) = 59.61453 68.21070 63.91261
# Shear Modulus (GPa) = 21.74973 23.92781 22.83877
#
# Velocity S-wave (km/s) = 3.36703 3.53160 3.45029
# Velocity P-wave (km/s) = 6.79628 7.22384 7.01332
#
# Compressibility (1/GPa) = 0.01677443
#
# Stress axis : x y z
#
# Youngs Moduli (GPa) = 49.97823 82.54712 49.02857
#
# Poissons Ratio (x) = 0.32291 0.31536
# Poissons Ratio (y) = 0.19551 0.36911
# Poissons Ratio (z) = 0.32147 0.62145
#
# Static dielectric constant tensor:
#      x y z
#    x 3.557740 0.000000 0.000000 
#    y 0.000000 3.648520 0.000000 
#    z 0.000000 0.000000 3.604780 
# 
# 
# High freq. dielectric constant tensor:
#      x y z
#    x 1.751480 0.000000 0.000000 
#    y 0.000000 1.742140 0.000000 
#    z 0.000000 0.000000 1.743040 
# 
# From -- ./inp_files/4202.got.cif
#   From: 2010.03.12/outbox.cif.g09.slc.cpg/sg26_3_cif.got.tgz:4202.got - 2010.04.14 03:33:09.
