data_PCOD8167047
_publ_section_title
;
Structure prediction by ZEFSAII (Michael W. Deem and Ramdas Pophale) SiO2 
 PCOD8167047
Probable space group: P M C 21
;
_chemical_formula_sum "Si O2"
_cell_formula_units_Z 26
_cell_length_a 20.806842
_cell_length_b 16.400813
_cell_length_c 5.248239
_cell_angle_alpha 90.000000
_cell_angle_beta 90.000000
_cell_angle_gamma 90.000000
_cell_volume 1790.956965
_symmetry_space_group_name_H-M "P M C 21"
_symmetry_group_IT_number 26
_symmetry_cell_setting 'orthorhombic'
loop_
_space_group_symop_operation_xyz
x,y,z
-x,-y,1/2+z
-x,y,z
x,-y,1/2+z
loop_
_atom_site_type_symbol
_atom_site_label
_atom_site_fract_x
_atom_site_fract_y
_atom_site_fract_z
Si Si1 0.129707 0.914658 0.627190
Si Si2 0.279493 0.949625 0.643202
Si Si3 0.423693 0.455584 0.647184
Si Si4 0.613696 0.824415 0.673024
Si Si5 0.074920 0.094288 0.627018
Si Si6 0.423575 0.268684 0.675209
Si Si7 0.500000 0.051231 0.192146
O O1 0.204401 0.931905 0.651241
O O2 0.112349 0.866035 0.368311
O O3 0.089681 0.998387 0.604066
O O4 0.104023 0.864221 0.871286
O O5 0.315712 0.863315 0.652243
O O6 0.299507 0.996689 0.386840
O O7 0.500000 0.462448 0.649548
O O8 0.395386 0.499643 0.396719
O O9 0.402243 0.361967 0.645768
O O10 0.603379 0.760607 0.445848
O O11 0.563033 0.896526 0.644508
O O12 0.607648 0.780833 0.944454
O O13 0.000000 0.111738 0.650823
O O14 0.500000 0.257534 0.665375
O O15 0.500000 0.020185 0.482784
#
# Coordination Sequence:
#
# PCOD8167047 Si02
#       7
#     4   4   4   4   4   4   2
#     4  10  16  27  39  56  77  99 127 167 218 261
#     4  12  21  35  45  57  78 109 149 189 223 263
#     4   9  17  29  49  73  90 106 122 145 196 267
#     4  12  23  34  49  62  80 112 142 181 234 254
#     4  10  16  25  41  60  78  96 123 163 229 274
#     4  11  20  36  50  66  90 106 129 171 217 273
#     4  12  22  36  46  60  74  98 150 196 226 260
#
# _framework density 14.517378000000001
#
# number of rings (size 3 to 8) (size 9 to 14) (size 15 to 20)
#    0.000    1.231    4.615    6.000    0.000    2.462 
#    0.000    0.000    0.000    0.000    0.000    0.000 
#    0.000    0.000    0.000    0.000    0.000    0.000 
#
# Total GULP energy -322357.420954 kJ/mol
# GULP energy per Si atom -12398.362344 kJ/mol
# Density = 1.448434 g / cm^3
# Si number density = 14.517378 Si / 1000 Ang^3
#
#
#
# Elastic Constant Matrix: (Units=GPa)
#
#
# Indices 1 2 3 4 5 6 
#
# 1 35.0791 19.4949 14.8717 0.0000 0.0000 0.0000
# 2 19.4949 51.5125 15.1652 0.0000 0.0000 0.0000
# 3 14.8717 15.1652 96.3802 0.0000 0.0000 0.0000
# 4 0.0000 0.0000 0.0000 25.1746 0.0000 0.0000
# 5 0.0000 0.0000 0.0000 0.0000 16.1163 0.0000
# 6 0.0000 0.0000 0.0000 0.0000 0.0000 -18.1596
#
#
#
# Elastic Compliance Matrix: (Units=1/GPa)
#
#
# Indices 1 2 3 4 5 6 
#
# 1 0.037322 -0.013033 -0.003708 0.000000 0.000000 0.000000
# 2 -0.013033 0.024907 -0.001908 0.000000 0.000000 0.000000
# 3 -0.003708 -0.001908 0.011248 0.000000 0.000000 0.000000
# 4 0.000000 0.000000 0.000000 0.039723 0.000000 0.000000
# 5 0.000000 0.000000 0.000000 0.000000 0.062049 0.000000
# 6 0.000000 0.000000 0.000000 0.000000 0.000000 -0.055067
#
#
# Mechanical properties :
#
#
# Convention : Reuss Voigt Hill
#
# Bulk Modulus (GPa) = 27.64061 31.33727 29.48894
# Shear Modulus (GPa) = 29.49179 13.52224 21.50702
#
# Velocity S-wave (km/s) = 4.51209 3.05528 3.85316
# Velocity P-wave (km/s) = 6.79899 5.83774 6.33662
#
# Compressibility (1/GPa) = 0.03617866
#
# Stress axis : x y z
#
# Youngs Moduli (GPa) = 26.79389 40.14977 88.90477
#
# Poissons Ratio (x) = 0.52326 0.32968
# Poissons Ratio (y) = 0.34920 0.16963
# Poissons Ratio (z) = 0.09936 0.07661
#
# Static dielectric constant tensor:
#      x y z
#    x 2.671360 0.000000 0.000000 
#    y 0.000000 2.526940 0.000000 
#    z 0.000000 0.000000 4.519430 
# 
# 
# High freq. dielectric constant tensor:
#      x y z
#    x 1.531410 0.000000 0.000000 
#    y 0.000000 1.500050 0.000000 
#    z 0.000000 0.000000 1.593960 
# 
# From -- ./inp_files/775.got.cif
#   From: 2010.03.12/outbox.cif.g09.slc.cpg/sg26_1_cif.got.tgz:775.got - 2010.04.14 03:33:09.
