data_PCOD8167876
_publ_section_title
;
Structure prediction by ZEFSAII (Michael W. Deem and Ramdas Pophale) SiO2 
 PCOD8167876
Probable space group: P C C 2
;
_chemical_formula_sum "Si O2"
_cell_formula_units_Z 32
_cell_length_a 11.891964
_cell_length_b 14.169864
_cell_length_c 8.965573
_cell_angle_alpha 90.000000
_cell_angle_beta 90.000000
_cell_angle_gamma 90.000000
_cell_volume 1510.766405
_symmetry_space_group_name_H-M "P C C 2"
_symmetry_group_IT_number 27
_symmetry_cell_setting 'orthorhombic'
loop_
_space_group_symop_operation_xyz
x,y,z
-x,-y,z
-x,y,1/2+z
x,-y,1/2+z
loop_
_atom_site_type_symbol
_atom_site_label
_atom_site_fract_x
_atom_site_fract_y
_atom_site_fract_z
Si Si1 0.270938 0.111268 0.887060
Si Si2 0.794891 0.626879 0.083810
Si Si3 0.874495 0.533419 0.388817
Si Si4 0.608169 0.935433 0.366840
Si Si5 0.391722 0.779457 0.629603
Si Si6 0.361343 0.200291 0.605244
Si Si7 0.070666 0.229811 0.895398
Si Si8 0.869780 0.282651 0.060614
O O1 0.320092 0.187992 0.773310
O O2 0.138122 0.131001 0.909423
O O3 0.284295 0.002790 0.835082
O O4 0.346463 0.133321 0.030940
O O5 0.825460 0.579181 0.239819
O O6 0.679020 0.683685 0.111112
O O7 0.790477 0.547980 0.951943
O O8 0.886256 0.701231 0.026747
O O9 0.885766 0.608334 0.522121
O O10 0.000000 0.500000 0.352205
O O11 0.609051 0.832347 0.289333
O O12 0.618156 0.904927 0.539423
O O13 0.500000 0.000000 0.332939
O O14 0.519299 0.745550 0.595835
O O15 0.260319 0.257660 0.527506
O O16 0.086629 0.270687 0.729747
O O17 0.940320 0.217249 0.942202
#
# Coordination Sequence:
#
# PCOD8167876 Si02
#       8
#     4   4   4   4   4   4   4   4
#     4  10  22  36  62  93 132 166 220 273 322 392
#     4  11  24  40  65 100 134 169 220 280 338 389
#     4  12  23  39  66 101 124 172 230 279 322 405
#     4  12  21  36  65  99 129 171 229 272 318 390
#     4  11  22  40  63  98 139 171 217 280 338 391
#     4  11  22  39  62  97 130 174 216 275 335 398
#     4  10  22  41  60  95 130 172 210 274 338 391
#     4  11  23  40  66  92 133 170 221 272 343 396
#
# _framework density 21.181303
#
# number of rings (size 3 to 8) (size 9 to 14) (size 15 to 20)
#    0.000    1.000    3.750    3.375    0.000    1.000 
#    0.000    1.250    0.000    4.500    0.000    0.000 
#    0.000    0.000    0.000    0.000    0.000    0.000 
#
# Total GULP energy -396484.950370 kJ/mol
# GULP energy per Si atom -12390.154699 kJ/mol
# Density = 2.113309 g / cm^3
# Si number density = 21.181303 Si / 1000 Ang^3
#
#
#
# Elastic Constant Matrix: (Units=GPa)
#
#
# Indices 1 2 3 4 5 6 
#
# 1 155.4858 74.6711 40.8649 0.0000 0.0000 0.0000
# 2 74.6711 101.4558 36.5556 0.0000 0.0000 0.0000
# 3 40.8649 36.5556 88.8870 0.0000 0.0000 0.0000
# 4 0.0000 0.0000 0.0000 31.2478 0.0000 0.0000
# 5 0.0000 0.0000 0.0000 0.0000 26.5509 0.0000
# 6 0.0000 0.0000 0.0000 0.0000 0.0000 35.8598
#
#
#
# Elastic Compliance Matrix: (Units=1/GPa)
#
#
# Indices 1 2 3 4 5 6 
#
# 1 0.010209 -0.006835 -0.001882 0.000000 0.000000 0.000000
# 2 -0.006835 0.016148 -0.003498 0.000000 0.000000 0.000000
# 3 -0.001882 -0.003498 0.013554 0.000000 0.000000 0.000000
# 4 0.000000 0.000000 0.000000 0.032002 0.000000 0.000000
# 5 0.000000 0.000000 0.000000 0.000000 0.037664 0.000000
# 6 0.000000 0.000000 0.000000 0.000000 0.000000 0.027886
#
#
# Mechanical properties :
#
#
# Convention : Reuss Voigt Hill
#
# Bulk Modulus (GPa) = 64.60462 72.22353 68.41408
# Shear Modulus (GPa) = 29.93022 31.64750 30.78886
#
# Velocity S-wave (km/s) = 3.76313 3.86958 3.81673
# Velocity P-wave (km/s) = 7.03197 7.35777 7.19671
#
# Compressibility (1/GPa) = 0.01547877
#
# Stress axis : x y z
#
# Youngs Moduli (GPa) = 97.95424 61.92749 73.77707
#
# Poissons Ratio (x) = 0.42330 0.13887
# Poissons Ratio (y) = 0.66956 0.25810
# Poissons Ratio (z) = 0.18438 0.21665
#
# Static dielectric constant tensor:
#      x y z
#    x 4.062860 0.000000 0.000000 
#    y 0.000000 3.763450 0.000000 
#    z 0.000000 0.000000 3.927180 
# 
# 
# High freq. dielectric constant tensor:
#      x y z
#    x 1.823970 0.000000 0.000000 
#    y 0.000000 1.808120 0.000000 
#    z 0.000000 0.000000 1.850230 
# 
# From -- ./inp_files/1473.got.cif
#   From: 2010.03.12/outbox.cif.g09.slc.cpg/sg27_1_cif.got.tgz:1473.got - 2010.04.14 03:36:05.
