data_PCOD8167487
_publ_section_title
;
Structure prediction by ZEFSAII (Michael W. Deem and Ramdas Pophale) SiO2 
 PCOD8167487
Probable space group: P M C 21
;
_chemical_formula_sum "Si O2"
_cell_formula_units_Z 32
_cell_length_a 13.970064
_cell_length_b 13.798347
_cell_length_c 9.947754
_cell_angle_alpha 90.000000
_cell_angle_beta 90.000000
_cell_angle_gamma 90.000000
_cell_volume 1917.566770
_symmetry_space_group_name_H-M "P M C 21"
_symmetry_group_IT_number 26
_symmetry_cell_setting 'orthorhombic'
loop_
_space_group_symop_operation_xyz
x,y,z
-x,-y,1/2+z
-x,y,z
x,-y,1/2+z
loop_
_atom_site_type_symbol
_atom_site_label
_atom_site_fract_x
_atom_site_fract_y
_atom_site_fract_z
Si Si1 0.610953 0.927785 0.676320
Si Si2 0.106573 0.443412 0.549750
Si Si3 0.612884 0.571769 0.525967
Si Si4 0.700652 0.360474 0.522521
Si Si5 0.106810 0.390343 0.845298
Si Si6 0.613681 0.718565 0.755371
Si Si7 0.611745 0.090423 0.873394
Si Si8 0.298909 0.292935 0.813258
O O1 0.500000 0.922396 0.713284
O O2 0.655905 0.822858 0.710932
O O3 0.627411 0.954300 0.521102
O O4 0.655116 0.013303 0.767666
O O5 0.184489 0.364997 0.499781
O O6 0.117165 0.457152 0.711196
O O7 0.125896 0.545626 0.477437
O O8 0.000000 0.405332 0.512585
O O9 0.500000 0.555268 0.527195
O O10 0.663642 0.469360 0.538232
O O11 0.648495 0.637664 0.650129
O O12 0.641594 0.623133 0.387379
O O13 0.652050 0.304385 0.401980
O O14 0.676015 0.300656 0.656203
O O15 0.185340 0.305280 0.841224
O O16 0.000000 0.344350 0.850860
O O17 0.500000 0.720100 0.758267
O O18 0.500000 0.114467 0.847943
O O19 0.671135 0.188494 0.865182
#
# Coordination Sequence:
#
# PCOD8167487 Si02
#       8
#     4   4   4   4   4   4   4   4
#     4   9  19  35  53  72  97 130 167 213 258 293
#     4   9  18  32  49  70  98 131 171 214 250 287
#     4  11  21  34  47  66 105 144 172 202 241 290
#     4  11  22  31  48  75 102 138 175 200 242 303
#     4   9  18  33  52  74 100 132 170 213 257 298
#     4  10  21  35  49  70 103 137 169 208 249 292
#     4  10  20  35  54  75  99 129 169 216 260 300
#     4  11  21  33  51  76 102 133 172 210 254 305
#
# _framework density 16.687815000000001
#
# number of rings (size 3 to 8) (size 9 to 14) (size 15 to 20)
#    0.000    2.000    2.500    1.500    3.500    3.000 
#    0.000    0.000    0.000    0.000    0.000    1.750 
#    0.000    0.000    0.000    0.000    0.000    0.000 
#
# Total GULP energy -396767.150430 kJ/mol
# GULP energy per Si atom -12398.973451 kJ/mol
# Density = 1.664983 g / cm^3
# Si number density = 16.687815 Si / 1000 Ang^3
#
#
#
# Elastic Constant Matrix: (Units=GPa)
#
#
# Indices 1 2 3 4 5 6 
#
# 1 38.3426 24.4223 23.8067 0.0000 0.0000 0.0000
# 2 24.4223 73.2737 29.9606 0.0000 0.0000 0.0000
# 3 23.8067 29.9606 88.1939 0.0000 0.0000 0.0000
# 4 0.0000 0.0000 0.0000 28.7733 0.0000 0.0000
# 5 0.0000 0.0000 0.0000 0.0000 20.6788 0.0000
# 6 0.0000 0.0000 0.0000 0.0000 0.0000 12.9981
#
#
#
# Elastic Compliance Matrix: (Units=1/GPa)
#
#
# Indices 1 2 3 4 5 6 
#
# 1 0.036118 -0.009350 -0.006573 0.000000 0.000000 0.000000
# 2 -0.009350 0.018270 -0.003682 0.000000 0.000000 0.000000
# 3 -0.006573 -0.003682 0.014364 0.000000 0.000000 0.000000
# 4 0.000000 0.000000 0.000000 0.034754 0.000000 0.000000
# 5 0.000000 0.000000 0.000000 0.000000 0.048359 0.000000
# 6 0.000000 0.000000 0.000000 0.000000 0.000000 0.076934
#
#
# Mechanical properties :
#
#
# Convention : Reuss Voigt Hill
#
# Bulk Modulus (GPa) = 33.85306 39.57660 36.71483
# Shear Modulus (GPa) = 17.99489 20.59808 19.29649
#
# Velocity S-wave (km/s) = 3.28735 3.51710 3.40416
# Velocity P-wave (km/s) = 5.89398 6.34513 6.12371
#
# Compressibility (1/GPa) = 0.02953943
#
# Stress axis : x y z
#
# Youngs Moduli (GPa) = 27.68740 54.73550 69.61897
#
# Poissons Ratio (x) = 0.51180 0.45760
# Poissons Ratio (y) = 0.25889 0.25637
# Poissons Ratio (z) = 0.18199 0.20156
#
# Static dielectric constant tensor:
#      x y z
#    x 3.177950 0.000000 0.000000 
#    y 0.000000 3.039090 0.000000 
#    z 0.000000 0.000000 3.324260 
# 
# 
# High freq. dielectric constant tensor:
#      x y z
#    x 1.625270 0.000000 0.000000 
#    y 0.000000 1.617000 0.000000 
#    z 0.000000 0.000000 1.662010 
# 
# From -- ./inp_files/2238.got.cif
#   From: 2010.03.12/outbox.cif.g09.slc.cpg/sg26_2_cif.got.tgz:2238.got - 2010.04.14 03:33:09.
