data_PCOD8167592
_publ_section_title
;
Structure prediction by ZEFSAII (Michael W. Deem and Ramdas Pophale) SiO2 
 PCOD8167592
Probable space group: P M C 21
;
_chemical_formula_sum "Si O2"
_cell_formula_units_Z 32
_cell_length_a 9.083308
_cell_length_b 11.881916
_cell_length_c 15.278270
_cell_angle_alpha 90.000000
_cell_angle_beta 90.000000
_cell_angle_gamma 90.000000
_cell_volume 1648.939415
_symmetry_space_group_name_H-M "P M C 21"
_symmetry_group_IT_number 26
_symmetry_cell_setting 'orthorhombic'
loop_
_space_group_symop_operation_xyz
x,y,z
-x,-y,1/2+z
-x,y,z
x,-y,1/2+z
loop_
_atom_site_type_symbol
_atom_site_label
_atom_site_fract_x
_atom_site_fract_y
_atom_site_fract_z
Si Si1 0.332689 0.749104 0.625000
Si Si2 0.165642 0.762830 0.456511
Si Si3 0.674220 0.981530 0.394689
Si Si4 0.325368 0.850593 0.047521
Si Si5 0.174088 0.389269 0.559276
Si Si6 0.667040 0.518026 0.713094
Si Si7 0.674345 0.016499 0.200473
Si Si8 0.834017 0.475866 0.886415
O O1 0.500000 0.766771 0.590947
O O2 0.225364 0.713824 0.547302
O O3 0.325163 0.650395 0.695095
O O4 0.269386 0.863454 0.666489
O O5 0.269901 0.862032 0.426438
O O6 0.171268 0.659221 0.389897
O O7 0.000000 0.808134 0.467334
O O8 0.500000 0.975125 0.392470
O O9 0.723644 0.079513 0.461387
O O10 0.740718 0.000693 0.297715
O O11 0.500000 0.830305 0.048420
O O12 0.242373 0.733114 0.044993
O O13 0.273750 0.918538 0.134272
O O14 0.236212 0.444101 0.647517
O O15 0.218088 0.467005 0.477016
O O16 0.000000 0.378335 0.569937
O O17 0.500000 0.473227 0.707023
O O18 0.722624 0.510592 0.811559
O O19 0.500000 0.017496 0.206074
O O20 0.000000 0.515836 0.864346
#
# Coordination Sequence:
#
# PCOD8167592 Si02
#       8
#     4   4   4   4   4   4   4   4
#     4  10  20  39  64  89 116 151 197 249 302 352
#     4  11  22  39  62  87 118 156 201 246 292 358
#     4  10  21  38  62  87 119 157 193 247 302 348
#     4  10  21  38  60  87 120 157 201 247 296 353
#     4  11  24  43  62  84 126 168 201 245 304 368
#     4  11  24  39  65  96 119 152 205 260 302 356
#     4   9  19  37  60  87 117 151 191 238 298 354
#     4  10  24  43  61  85 123 168 201 242 306 365
#
# _framework density 19.406414999999999
#
# number of rings (size 3 to 8) (size 9 to 14) (size 15 to 20)
#    0.000    1.750    2.500    1.125    3.500    3.000 
#    0.000    0.625    0.000    0.000    0.000    0.000 
#    0.000    0.000    0.000    0.000    0.000    0.000 
#
# Total GULP energy -396846.301243 kJ/mol
# GULP energy per Si atom -12401.446914 kJ/mol
# Density = 1.936224 g / cm^3
# Si number density = 19.406415 Si / 1000 Ang^3
#
#
#
# Elastic Constant Matrix: (Units=GPa)
#
#
# Indices 1 2 3 4 5 6 
#
# 1 44.3731 36.4079 37.5685 0.0000 0.0000 0.0000
# 2 36.4079 116.3797 35.2991 0.0000 0.0000 0.0000
# 3 37.5685 35.2991 117.7551 0.0000 0.0000 0.0000
# 4 0.0000 0.0000 0.0000 27.4335 0.0000 0.0000
# 5 0.0000 0.0000 0.0000 0.0000 26.2821 0.0000
# 6 0.0000 0.0000 0.0000 0.0000 0.0000 27.6072
#
#
#
# Elastic Compliance Matrix: (Units=1/GPa)
#
#
# Indices 1 2 3 4 5 6 
#
# 1 0.037864 -0.008999 -0.009382 0.000000 0.000000 0.000000
# 2 -0.008999 0.011591 -0.000603 0.000000 0.000000 0.000000
# 3 -0.009382 -0.000603 0.011666 0.000000 0.000000 0.000000
# 4 0.000000 0.000000 0.000000 0.036452 0.000000 0.000000
# 5 0.000000 0.000000 0.000000 0.000000 0.038049 0.000000
# 6 0.000000 0.000000 0.000000 0.000000 0.000000 0.036222
#
#
# Mechanical properties :
#
#
# Convention : Reuss Voigt Hill
#
# Bulk Modulus (GPa) = 43.19506 55.22876 49.21191
# Shear Modulus (GPa) = 22.98522 27.54673 25.26598
#
# Velocity S-wave (km/s) = 3.44526 3.77167 3.61215
# Velocity P-wave (km/s) = 6.17519 6.89116 6.54297
#
# Compressibility (1/GPa) = 0.02315080
#
# Stress axis : x y z
#
# Youngs Moduli (GPa) = 26.41053 86.27426 85.71631
#
# Poissons Ratio (x) = 0.77642 0.80421
# Poissons Ratio (y) = 0.23768 0.05172
# Poissons Ratio (z) = 0.24779 0.05206
#
# Static dielectric constant tensor:
#      x y z
#    x 3.429230 0.000000 0.000000 
#    y 0.000000 3.571580 0.000000 
#    z 0.000000 0.000000 3.783760 
# 
# 
# High freq. dielectric constant tensor:
#      x y z
#    x 1.741000 0.000000 0.000000 
#    y 0.000000 1.766460 0.000000 
#    z 0.000000 0.000000 1.762710 
# 
# From -- ./inp_files/4133.got.cif
#   From: 2010.03.12/outbox.cif.g09.slc.cpg/sg26_3_cif.got.tgz:4133.got - 2010.04.14 03:33:09.
