data_PCOD8167825
_publ_section_title
;
Structure prediction by ZEFSAII (Michael W. Deem and Ramdas Pophale) SiO2 
 PCOD8167825
Probable space group: P C C 2
;
_chemical_formula_sum "Si O2"
_cell_formula_units_Z 30
_cell_length_a 7.772717
_cell_length_b 12.283577
_cell_length_c 14.942538
_cell_angle_alpha 90.000000
_cell_angle_beta 90.000000
_cell_angle_gamma 90.000000
_cell_volume 1426.665231
_symmetry_space_group_name_H-M "P C C 2"
_symmetry_group_IT_number 27
_symmetry_cell_setting 'orthorhombic'
loop_
_space_group_symop_operation_xyz
x,y,z
-x,-y,z
-x,y,1/2+z
x,-y,1/2+z
loop_
_atom_site_type_symbol
_atom_site_label
_atom_site_fract_x
_atom_site_fract_y
_atom_site_fract_z
Si Si1 0.948946 0.874833 0.272960
Si Si2 0.457766 0.734012 0.093591
Si Si3 0.559683 0.118464 0.751266
Si Si4 0.000000 0.500000 0.581543
Si Si5 0.121828 0.764126 0.437915
Si Si6 0.443908 0.878062 0.441077
Si Si7 0.932004 0.727190 0.616918
Si Si8 0.662584 0.566662 0.991366
O O1 0.748750 0.879648 0.291554
O O2 0.033592 0.794401 0.344962
O O3 0.995385 0.825251 0.176276
O O4 0.000000 0.000000 0.279356
O O5 0.557636 0.801018 0.168562
O O6 0.269799 0.712206 0.131474
O O7 0.570716 0.625951 0.076371
O O8 0.436095 0.801306 0.001399
O O9 0.445085 0.154787 0.835967
O O10 0.500000 0.000000 0.716547
O O11 0.014577 0.609096 0.641830
O O12 0.822021 0.510301 0.522774
O O13 0.245012 0.862929 0.470491
O O14 0.248566 0.657795 0.426927
O O15 0.977707 0.747466 0.513034
O O16 0.500000 0.000000 0.457459
O O17 0.500000 0.500000 0.945760
#
# Coordination Sequence:
#
# PCOD8167825 Si02
#       8
#     4   4   4   2   4   4   4   4
#     4  12  24  41  64  95 134 173 218 282 332 401
#     4  11  21  37  64  92 121 169 215 264 333 389
#     4  11  22  38  59  89 130 172 216 267 329 399
#     4  10  20  40  66  96 132 164 222 270 326 396
#     4  10  23  40  64  97 130 168 224 272 333 397
#     4  10  20  36  57  86 126 165 206 262 319 393
#     4  11  23  40  65  93 128 172 219 271 332 393
#     4  10  20  40  68  94 126 173 216 278 332 390
#
# _framework density 21.02806
#
# number of rings (size 3 to 8) (size 9 to 14) (size 15 to 20)
#    0.000    1.333    1.333    6.800    0.000    1.600 
#    0.000    2.667    8.800    0.000    0.000    0.000 
#    0.000    0.000    0.000    0.000    0.000    0.000 
#
# Total GULP energy -371758.436630 kJ/mol
# GULP energy per Si atom -12391.947888 kJ/mol
# Density = 2.098020 g / cm^3
# Si number density = 21.028060 Si / 1000 Ang^3
#
#
#
# Elastic Constant Matrix: (Units=GPa)
#
#
# Indices 1 2 3 4 5 6 
#
# 1 131.1998 37.2878 9.8219 0.0000 0.0000 0.0000
# 2 37.2878 105.1922 42.3970 0.0000 0.0000 0.0000
# 3 9.8219 42.3970 74.6969 0.0000 0.0000 0.0000
# 4 0.0000 0.0000 0.0000 23.4577 0.0000 0.0000
# 5 0.0000 0.0000 0.0000 0.0000 -20.2147 0.0000
# 6 0.0000 0.0000 0.0000 0.0000 0.0000 37.5158
#
#
#
# Elastic Compliance Matrix: (Units=1/GPa)
#
#
# Indices 1 2 3 4 5 6 
#
# 1 0.008510 -0.003326 0.000769 0.000000 0.000000 0.000000
# 2 -0.003326 0.013626 -0.007297 0.000000 0.000000 0.000000
# 3 0.000769 -0.007297 0.017428 0.000000 0.000000 0.000000
# 4 0.000000 0.000000 0.000000 0.042630 0.000000 0.000000
# 5 0.000000 0.000000 0.000000 0.000000 -0.049469 0.000000
# 6 0.000000 0.000000 0.000000 0.000000 0.000000 0.026655
#
#
# Mechanical properties :
#
#
# Convention : Reuss Voigt Hill
#
# Bulk Modulus (GPa) = 50.36314 54.45582 52.40948
# Shear Modulus (GPa) = 58.33802 22.92392 40.63097
#
# Velocity S-wave (km/s) = 5.27287 3.30534 4.40048
# Velocity P-wave (km/s) = 7.81494 6.36553 7.12718
#
# Compressibility (1/GPa) = 0.01985579
#
# Stress axis : x y z
#
# Youngs Moduli (GPa) = 117.51168 73.38643 57.37926
#
# Poissons Ratio (x) = 0.24412 -0.04413
# Poissons Ratio (y) = 0.39090 0.41869
# Poissons Ratio (z) = -0.09038 0.53549
#
# Static dielectric constant tensor:
#      x y z
#    x 4.086230 0.000000 0.000000 
#    y 0.000000 3.967480 0.000000 
#    z 0.000000 0.000000 3.521160 
# 
# 
# High freq. dielectric constant tensor:
#      x y z
#    x 1.847720 0.000000 0.000000 
#    y 0.000000 1.829140 0.000000 
#    z 0.000000 0.000000 1.791250 
# 
# From -- ./inp_files/3395.got.cif
#   From: 2010.03.12/outbox.cif.g09.slc.cpg/sg27_2_cif.got.tgz:3395.got - 2010.04.14 03:36:05.
