data_PCOD8167003
_publ_section_title
;
Structure prediction by ZEFSAII (Michael W. Deem and Ramdas Pophale) SiO2 
 PCOD8167003
Probable space group: P M M 2
;
_chemical_formula_sum "Si O2"
_cell_formula_units_Z 32
_cell_length_a 9.524839
_cell_length_b 9.769610
_cell_length_c 20.623799
_cell_angle_alpha 90.000000
_cell_angle_beta 90.000000
_cell_angle_gamma 90.000000
_cell_volume 1919.126216
_symmetry_space_group_name_H-M "P M M 2"
_symmetry_group_IT_number 25
_symmetry_cell_setting 'orthorhombic'
loop_
_space_group_symop_operation_xyz
x,y,z
-x,-y,z
-x,y,z
x,-y,z
loop_
_atom_site_type_symbol
_atom_site_label
_atom_site_fract_x
_atom_site_fract_y
_atom_site_fract_z
Si Si1 0.667442 0.157028 0.063800
Si Si2 0.665298 0.844276 0.403640
Si Si3 0.340001 0.162633 0.784223
Si Si4 0.839488 0.341891 0.159365
Si Si5 0.656057 0.162760 0.548113
Si Si6 0.158374 0.836458 0.665636
Si Si7 0.838983 0.657132 0.309084
Si Si8 0.655099 0.837885 0.924029
O O1 0.500000 0.173693 0.065781
O O2 0.735680 0.250254 0.117927
O O3 0.709967 0.000000 0.077302
O O4 0.726571 0.206372 0.992389
O O5 0.500000 0.833470 0.392600
O O6 0.704140 0.792176 0.476114
O O7 0.740786 0.750946 0.351817
O O8 0.716310 0.000000 0.393872
O O9 0.500000 0.216646 0.775576
O O10 0.240530 0.223239 0.728175
O O11 0.274609 0.206525 0.855147
O O12 0.341939 0.000000 0.778730
O O13 0.807488 0.500000 0.144707
O O14 0.810657 0.308392 0.234230
O O15 0.000000 0.307085 0.141488
O O16 0.500000 0.220013 0.563707
O O17 0.765278 0.219990 0.601027
O O18 0.650039 0.000000 0.550572
O O19 0.000000 0.779576 0.666663
O O20 0.158752 0.000000 0.666225
O O21 0.801643 0.500000 0.323376
O O22 0.000000 0.687120 0.326823
O O23 0.500000 0.774060 0.922214
O O24 0.643038 0.000000 0.926327
#
# Coordination Sequence:
#
# PCOD8167003 Si02
#       8
#     4   4   4   4   4   4   4   4
#     4   9  17  29  46  69  94 117 145 185 228 267
#     4   9  18  31  47  69  94 117 145 184 226 266
#     4   8  12  19  32  47  67 103 144 172 201 249
#     4   9  19  35  50  64  87 119 152 184 218 261
#     4   8  14  25  38  52  76 110 142 171 208 256
#     4   9  15  20  28  47  75 105 139 178 213 245
#     4   9  19  35  51  66  87 117 151 184 219 263
#     4   7  11  21  36  54  78 108 140 173 211 256
#
# _framework density 16.674256
#
# number of rings (size 3 to 8) (size 9 to 14) (size 15 to 20)
#    0.000    3.500    0.000    3.375    0.000    4.000 
#    0.000    5.625    0.000    2.250    0.000    0.000 
#    0.000    1.000    0.000    9.500    0.000   13.000 
#
# Total GULP energy -396423.397931 kJ/mol
# GULP energy per Si atom -12388.231185 kJ/mol
# Density = 1.663630 g / cm^3
# Si number density = 16.674256 Si / 1000 Ang^3
#
#
#
# Elastic Constant Matrix: (Units=GPa)
#
#
# Indices 1 2 3 4 5 6 
#
# 1 74.3320 29.6274 67.0144 0.0000 0.0000 0.0000
# 2 29.6274 36.2623 47.6411 0.0000 0.0000 0.0000
# 3 67.0144 47.6411 139.9364 0.0000 0.0000 0.0000
# 4 0.0000 0.0000 0.0000 -4.2071 0.0000 0.0000
# 5 0.0000 0.0000 0.0000 0.0000 7.9658 0.0000
# 6 0.0000 0.0000 0.0000 0.0000 0.0000 20.0551
#
#
#
# Elastic Compliance Matrix: (Units=1/GPa)
#
#
# Indices 1 2 3 4 5 6 
#
# 1 0.025048 -0.008513 -0.009097 0.000000 0.000000 0.000000
# 2 -0.008513 0.052786 -0.013894 0.000000 0.000000 0.000000
# 3 -0.009097 -0.013894 0.016233 0.000000 0.000000 0.000000
# 4 0.000000 0.000000 0.000000 -0.237696 0.000000 0.000000
# 5 0.000000 0.000000 0.000000 0.000000 0.125537 0.000000
# 6 0.000000 0.000000 0.000000 0.000000 0.000000 0.049863
#
#
# Mechanical properties :
#
#
# Convention : Reuss Voigt Hill
#
# Bulk Modulus (GPa) = 32.19750 59.89960 46.04855
# Shear Modulus (GPa) = 47.55928 11.84595 29.70261
#
# Velocity S-wave (km/s) = 5.34645 2.66829 4.22518
# Velocity P-wave (km/s) = 7.58052 6.74495 7.17491
#
# Compressibility (1/GPa) = 0.03105831
#
# Stress axis : x y z
#
# Youngs Moduli (GPa) = 39.92388 18.94427 61.60431
#
# Poissons Ratio (x) = 0.16128 0.56040
# Poissons Ratio (y) = 0.33989 0.85593
# Poissons Ratio (z) = 0.36318 0.26321
#
# Static dielectric constant tensor:
#      x y z
#    x 3.045450 0.000000 0.000000 
#    y 0.000000 2.591790 0.000000 
#    z 0.000000 0.000000 3.524820 
# 
# 
# High freq. dielectric constant tensor:
#      x y z
#    x 1.626640 0.000000 0.000000 
#    y 0.000000 1.579630 0.000000 
#    z 0.000000 0.000000 1.663830 
# 
# From -- ./inp_files/6530.got.cif
#   From: 2010.03.12/outbox.cif.g09.slc.cpg/sg25_4_cif.got.tgz:6530.got - 2010.04.14 03:30:10.
