data_PCOD8167504
_publ_section_title
;
Structure prediction by ZEFSAII (Michael W. Deem and Ramdas Pophale) SiO2 
 PCOD8167504
Probable space group: P M C 21
;
_chemical_formula_sum "Si O2"
_cell_formula_units_Z 32
_cell_length_a 8.987672
_cell_length_b 14.400202
_cell_length_c 12.132511
_cell_angle_alpha 90.000000
_cell_angle_beta 90.000000
_cell_angle_gamma 90.000000
_cell_volume 1570.241650
_symmetry_space_group_name_H-M "P M C 21"
_symmetry_group_IT_number 26
_symmetry_cell_setting 'orthorhombic'
loop_
_space_group_symop_operation_xyz
x,y,z
-x,-y,1/2+z
-x,y,z
x,-y,1/2+z
loop_
_atom_site_type_symbol
_atom_site_label
_atom_site_fract_x
_atom_site_fract_y
_atom_site_fract_z
Si Si1 0.173293 0.877674 0.353770
Si Si2 0.167133 0.311804 0.166497
Si Si3 0.172994 0.769518 0.897198
Si Si4 0.825517 0.330653 0.793292
Si Si5 0.675866 0.358633 0.564618
Si Si6 0.830814 0.462632 0.997037
Si Si7 0.664712 0.848886 0.565240
Si Si8 0.332804 0.942776 0.795055
O O1 0.222425 0.775588 0.314239
O O2 0.217454 0.891079 0.480786
O O3 0.000000 0.894019 0.338037
O O4 0.260618 0.955984 0.287604
O O5 0.198338 0.304364 0.297266
O O6 0.287220 0.253586 0.099952
O O7 0.000000 0.273601 0.142039
O O8 0.181459 0.415653 0.118733
O O9 0.237394 0.870487 0.867158
O O10 0.000000 0.781457 0.925190
O O11 0.256108 0.731772 0.005080
O O12 0.736167 0.368009 0.688482
O O13 0.783302 0.391258 0.900699
O O14 0.000000 0.337911 0.768116
O O15 0.500000 0.349582 0.565894
O O16 0.722918 0.449314 0.495140
O O17 0.000000 0.496706 0.977320
O O18 0.500000 0.842772 0.512425
O O19 0.664007 0.914873 0.669096
O O20 0.500000 0.946704 0.844192
#
# Coordination Sequence:
#
# PCOD8167504 Si02
#       8
#     4   4   4   4   4   4   4   4
#     4  11  22  39  64  92 121 161 212 262 307 368
#     4   9  18  36  63  90 114 149 203 258 304 360
#     4  10  21  40  65  91 122 165 213 259 307 368
#     4  10  23  44  67  91 123 164 214 262 309 371
#     4  12  27  42  60  92 133 170 207 260 320 381
#     4  10  21  41  66  91 120 160 209 260 309 372
#     4  10  20  35  57  86 122 159 197 250 314 374
#     4  10  22  39  60  91 127 166 207 255 318 378
#
# _framework density 20.379028999999999
#
# number of rings (size 3 to 8) (size 9 to 14) (size 15 to 20)
#    0.000    1.750    1.250    2.625    1.750    5.000 
#    0.000    2.500    0.000    0.000    0.000    0.000 
#    0.000    0.000    0.000    0.000    0.000    0.000 
#
# Total GULP energy -396830.009871 kJ/mol
# GULP energy per Si atom -12400.937808 kJ/mol
# Density = 2.033265 g / cm^3
# Si number density = 20.379029 Si / 1000 Ang^3
#
#
#
# Elastic Constant Matrix: (Units=GPa)
#
#
# Indices 1 2 3 4 5 6 
#
# 1 113.5761 56.3119 43.1884 0.0000 0.0000 0.0000
# 2 56.3119 108.7689 31.5043 0.0000 0.0000 0.0000
# 3 43.1884 31.5043 70.4996 0.0000 0.0000 0.0000
# 4 0.0000 0.0000 0.0000 19.0191 0.0000 0.0000
# 5 0.0000 0.0000 0.0000 0.0000 29.9146 0.0000
# 6 0.0000 0.0000 0.0000 0.0000 0.0000 28.3356
#
#
#
# Elastic Compliance Matrix: (Units=1/GPa)
#
#
# Indices 1 2 3 4 5 6 
#
# 1 0.013764 -0.005380 -0.006028 0.000000 0.000000 0.000000
# 2 -0.005380 0.012664 -0.002363 0.000000 0.000000 0.000000
# 3 -0.006028 -0.002363 0.018933 0.000000 0.000000 0.000000
# 4 0.000000 0.000000 0.000000 0.052579 0.000000 0.000000
# 5 0.000000 0.000000 0.000000 0.000000 0.033429 0.000000
# 6 0.000000 0.000000 0.000000 0.000000 0.000000 0.035291
#
#
# Mechanical properties :
#
#
# Convention : Reuss Voigt Hill
#
# Bulk Modulus (GPa) = 56.12011 61.65041 58.88526
# Shear Modulus (GPa) = 24.98228 26.24317 25.61273
#
# Velocity S-wave (km/s) = 3.50506 3.59242 3.54901
# Velocity P-wave (km/s) = 6.63163 6.89383 6.76400
#
# Compressibility (1/GPa) = 0.01781892
#
# Stress axis : x y z
#
# Youngs Moduli (GPa) = 72.65153 78.96588 52.81730
#
# Poissons Ratio (x) = 0.42485 0.31838
# Poissons Ratio (y) = 0.39088 0.12481
# Poissons Ratio (z) = 0.43793 0.18661
#
# Static dielectric constant tensor:
#      x y z
#    x 3.819640 0.000000 0.000000 
#    y 0.000000 3.622430 0.000000 
#    z 0.000000 0.000000 3.725330 
# 
# 
# High freq. dielectric constant tensor:
#      x y z
#    x 1.797890 0.000000 0.000000 
#    y 0.000000 1.792920 0.000000 
#    z 0.000000 0.000000 1.794650 
# 
# From -- ./inp_files/2982.got.cif
#   From: 2010.03.12/outbox.cif.g09.slc.cpg/sg26_2_cif.got.tgz:2982.got - 2010.04.14 03:33:09.
