data_PCOD8167005
_publ_section_title
;
Structure prediction by ZEFSAII (Michael W. Deem and Ramdas Pophale) SiO2 
 PCOD8167005
Probable space group: P M M 2
;
_chemical_formula_sum "Si O2"
_cell_formula_units_Z 32
_cell_length_a 9.517070
_cell_length_b 9.531927
_cell_length_c 20.851962
_cell_angle_alpha 90.000000
_cell_angle_beta 90.000000
_cell_angle_gamma 90.000000
_cell_volume 1891.606929
_symmetry_space_group_name_H-M "P M M 2"
_symmetry_group_IT_number 25
_symmetry_cell_setting 'orthorhombic'
loop_
_space_group_symop_operation_xyz
x,y,z
-x,-y,z
-x,y,z
x,-y,z
loop_
_atom_site_type_symbol
_atom_site_label
_atom_site_fract_x
_atom_site_fract_y
_atom_site_fract_z
Si Si1 0.332726 0.158040 0.712350
Si Si2 0.837101 0.662744 0.956867
Si Si3 0.164975 0.161161 0.213137
Si Si4 0.336562 0.662314 0.833219
Si Si5 0.337398 0.663100 0.453338
Si Si6 0.167670 0.159066 0.075697
Si Si7 0.836591 0.166020 0.351487
Si Si8 0.332964 0.344259 0.597245
O O1 0.500000 0.156406 0.709865
O O2 0.281842 0.244205 0.774286
O O3 0.271995 0.233669 0.648658
O O4 0.272689 0.000000 0.715410
O O5 0.813920 0.500000 0.971431
O O6 0.750427 0.711045 0.894993
O O7 0.000000 0.698018 0.944446
O O8 0.775161 0.745860 0.017938
O O9 0.220333 0.224379 0.144904
O O10 0.222004 0.220714 0.281354
O O11 0.000000 0.180159 0.217114
O O12 0.206237 0.000000 0.209261
O O13 0.500000 0.688649 0.847519
O O14 0.307987 0.500000 0.816223
O O15 0.500000 0.700964 0.444000
O O16 0.310460 0.500000 0.439013
O O17 0.248213 0.756727 0.406014
O O18 0.287901 0.700424 0.525609
O O19 0.000000 0.160031 0.075923
O O20 0.222329 0.000000 0.065931
O O21 0.000000 0.203318 0.359721
O O22 0.813014 0.000000 0.357418
O O23 0.500000 0.349206 0.601110
O O24 0.274595 0.500000 0.613243
#
# Coordination Sequence:
#
# PCOD8167005 Si02
#       8
#     4   4   4   4   4   4   4   4
#     4   9  16  25  40  64  88 106 132 175 216 244
#     4   9  17  28  42  62  86 108 134 172 210 242
#     4   7  11  22  40  61  84 109 139 175 212 251
#     4   9  17  29  44  60  81 112 142 164 197 250
#     4   9  18  31  46  66  92 120 150 184 221 263
#     4   8  13  23  41  62  82 107 139 173 210 251
#     4   9  17  29  46  68  92 118 149 185 224 266
#     4   8  14  26  43  61  83 112 143 174 210 253
#
# _framework density 16.916833
#
# number of rings (size 3 to 8) (size 9 to 14) (size 15 to 20)
#    0.000    3.500    0.000    2.625    0.000    3.000 
#    0.000    1.875    0.000    3.750    0.000    5.250 
#    0.000    0.000    0.000    0.000    0.000    0.000 
#
# Total GULP energy -396431.056967 kJ/mol
# GULP energy per Si atom -12388.470530 kJ/mol
# Density = 1.687833 g / cm^3
# Si number density = 16.916833 Si / 1000 Ang^3
#
#
#
# Elastic Constant Matrix: (Units=GPa)
#
#
# Indices 1 2 3 4 5 6 
#
# 1 28.0404 25.9699 42.5828 0.0000 0.0000 0.0000
# 2 25.9699 81.0965 87.1349 0.0000 0.0000 0.0000
# 3 42.5828 87.1349 193.8176 0.0000 0.0000 0.0000
# 4 0.0000 0.0000 0.0000 30.6923 0.0000 0.0000
# 5 0.0000 0.0000 0.0000 0.0000 25.0639 0.0000
# 6 0.0000 0.0000 0.0000 0.0000 0.0000 16.5362
#
#
#
# Elastic Compliance Matrix: (Units=1/GPa)
#
#
# Indices 1 2 3 4 5 6 
#
# 1 0.056905 -0.009265 -0.008337 0.000000 0.000000 0.000000
# 2 -0.009265 0.025362 -0.009366 0.000000 0.000000 0.000000
# 3 -0.008337 -0.009366 0.011202 0.000000 0.000000 0.000000
# 4 0.000000 0.000000 0.000000 0.032581 0.000000 0.000000
# 5 0.000000 0.000000 0.000000 0.000000 0.039898 0.000000
# 6 0.000000 0.000000 0.000000 0.000000 0.000000 0.060473
#
#
# Mechanical properties :
#
#
# Convention : Reuss Voigt Hill
#
# Bulk Modulus (GPa) = 25.29628 68.25884 46.77756
# Shear Modulus (GPa) = 17.03375 24.27627 20.65501
#
# Velocity S-wave (km/s) = 3.17663 3.79230 3.49803
# Velocity P-wave (km/s) = 5.33295 7.72092 6.63525
#
# Compressibility (1/GPa) = 0.03953151
#
# Stress axis : x y z
#
# Youngs Moduli (GPa) = 17.57329 39.42947 89.27003
#
# Poissons Ratio (x) = 0.36532 0.74423
# Poissons Ratio (y) = 0.16282 0.83613
# Poissons Ratio (z) = 0.14651 0.36931
#
# Static dielectric constant tensor:
#      x y z
#    x 2.621740 0.000000 0.000000 
#    y 0.000000 3.176710 0.000000 
#    z 0.000000 0.000000 3.616390 
# 
# 
# High freq. dielectric constant tensor:
#      x y z
#    x 1.591570 0.000000 0.000000 
#    y 0.000000 1.636790 0.000000 
#    z 0.000000 0.000000 1.675880 
# 
# From -- ./inp_files/6315.got.cif
#   From: 2010.03.12/outbox.cif.g09.slc.cpg/sg25_4_cif.got.tgz:6315.got - 2010.04.14 03:30:10.
