data_PCOD8167899
_publ_section_title
;
Structure prediction by ZEFSAII (Michael W. Deem and Ramdas Pophale) SiO2 
 PCOD8167899
Probable space group: P C C 2
;
_chemical_formula_sum "Si O2"
_cell_formula_units_Z 20
_cell_length_a 13.137192
_cell_length_b 5.071055
_cell_length_c 13.171939
_cell_angle_alpha 90.000000
_cell_angle_beta 90.000000
_cell_angle_gamma 90.000000
_cell_volume 877.506978
_symmetry_space_group_name_H-M "P C C 2"
_symmetry_group_IT_number 27
_symmetry_cell_setting 'orthorhombic'
loop_
_space_group_symop_operation_xyz
x,y,z
-x,-y,z
-x,y,1/2+z
x,-y,1/2+z
loop_
_atom_site_type_symbol
_atom_site_label
_atom_site_fract_x
_atom_site_fract_y
_atom_site_fract_z
Si Si1 0.187931 0.565014 0.365720
Si Si2 0.603658 0.618951 0.409071
Si Si3 0.889010 0.932441 0.462781
Si Si4 0.328855 0.537711 0.697402
Si Si5 0.314352 0.960437 0.068577
O O1 0.294264 0.557359 0.432108
O O2 0.108500 0.351031 0.408392
O O3 0.216113 0.493832 0.248713
O O4 0.140969 0.854120 0.376282
O O5 0.500000 0.500000 0.455287
O O6 0.593673 0.635751 0.286274
O O7 0.625801 0.904119 0.461816
O O8 0.807665 0.934776 0.553981
O O9 0.000000 0.000000 0.507814
O O10 0.356312 0.255643 0.648973
O O11 0.337260 0.749640 0.608432
#
# Coordination Sequence:
#
# PCOD8167899 Si02
#       5
#     4   4   4   4   4
#     4   9  21  40  64  90 131 173 209 282 320 384
#     4   9  22  43  69  97 136 180 216 275 335 397
#     4  11  21  40  66  95 129 179 221 271 335 396
#     4  10  23  41  66  94 135 172 221 272 330 385
#     4  11  22  42  68  96 135 176 218 276 331 396
#
# _framework density 22.791841999999999
#
# number of rings (size 3 to 8) (size 9 to 14) (size 15 to 20)
#    1.200    0.800    0.000    4.200    0.000    0.800 
#    0.000   26.000    0.000    0.000    0.000    0.000 
#    0.000    0.000    0.000    0.000    0.000    0.000 
#
# Total GULP energy -247767.769741 kJ/mol
# GULP energy per Si atom -12388.388487 kJ/mol
# Density = 2.273997 g / cm^3
# Si number density = 22.791842 Si / 1000 Ang^3
#
#
#
# Elastic Constant Matrix: (Units=GPa)
#
#
# Indices 1 2 3 4 5 6 
#
# 1 113.1976 18.8842 15.6812 0.0000 0.0000 0.0000
# 2 18.8842 102.6657 27.0114 0.0000 0.0000 0.0000
# 3 15.6812 27.0114 79.8526 0.0000 0.0000 0.0000
# 4 0.0000 0.0000 0.0000 38.3831 0.0000 0.0000
# 5 0.0000 0.0000 0.0000 0.0000 17.8134 0.0000
# 6 0.0000 0.0000 0.0000 0.0000 0.0000 26.4969
#
#
#
# Elastic Compliance Matrix: (Units=1/GPa)
#
#
# Indices 1 2 3 4 5 6 
#
# 1 0.009247 -0.001343 -0.001362 0.000000 0.000000 0.000000
# 2 -0.001343 0.010887 -0.003419 0.000000 0.000000 0.000000
# 3 -0.001362 -0.003419 0.013947 0.000000 0.000000 0.000000
# 4 0.000000 0.000000 0.000000 0.026053 0.000000 0.000000
# 5 0.000000 0.000000 0.000000 0.000000 0.056137 0.000000
# 6 0.000000 0.000000 0.000000 0.000000 0.000000 0.037740
#
#
# Mechanical properties :
#
#
# Convention : Reuss Voigt Hill
#
# Bulk Modulus (GPa) = 45.80003 46.54106 46.17054
# Shear Modulus (GPa) = 28.81250 32.14798 30.48024
#
# Velocity S-wave (km/s) = 3.55936 3.75974 3.66092
# Velocity P-wave (km/s) = 6.08528 6.26992 6.17829
#
# Compressibility (1/GPa) = 0.02183405
#
# Stress axis : x y z
#
# Youngs Moduli (GPa) = 108.14647 91.85402 71.70002
#
# Poissons Ratio (x) = 0.12332 0.09763
# Poissons Ratio (y) = 0.14519 0.24514
# Poissons Ratio (z) = 0.14726 0.31405
#
# Static dielectric constant tensor:
#      x y z
#    x 3.875610 0.000000 0.000000 
#    y 0.000000 3.914030 0.000000 
#    z 0.000000 0.000000 3.936630 
# 
# 
# High freq. dielectric constant tensor:
#      x y z
#    x 1.875550 0.000000 0.000000 
#    y 0.000000 1.902430 0.000000 
#    z 0.000000 0.000000 1.883750 
# 
# From -- ./inp_files/3534.got.cif
#   From: 2010.03.12/outbox.cif.g09.slc.cpg/sg27_2_cif.got.tgz:3534.got - 2010.04.14 03:36:05.
