data_PCOD8167537
_publ_section_title
;
Structure prediction by ZEFSAII (Michael W. Deem and Ramdas Pophale) SiO2 
 PCOD8167537
Probable space group: P M C 21
;
_chemical_formula_sum "Si O2"
_cell_formula_units_Z 32
_cell_length_a 9.152038
_cell_length_b 14.450299
_cell_length_c 12.306670
_cell_angle_alpha 90.000000
_cell_angle_beta 90.000000
_cell_angle_gamma 90.000000
_cell_volume 1627.553238
_symmetry_space_group_name_H-M "P M C 21"
_symmetry_group_IT_number 26
_symmetry_cell_setting 'orthorhombic'
loop_
_space_group_symop_operation_xyz
x,y,z
-x,-y,1/2+z
-x,y,z
x,-y,1/2+z
loop_
_atom_site_type_symbol
_atom_site_label
_atom_site_fract_x
_atom_site_fract_y
_atom_site_fract_z
Si Si1 0.667418 0.263520 0.533280
Si Si2 0.831581 0.148360 0.364829
Si Si3 0.666168 0.635437 0.552552
Si Si4 0.336626 0.442029 0.657186
Si Si5 0.828073 0.359724 0.845259
Si Si6 0.327364 0.184287 0.763670
Si Si7 0.170165 0.943734 0.415405
Si Si8 0.171488 0.181647 0.119575
O O1 0.500000 0.245479 0.506751
O O2 0.752668 0.232290 0.426301
O O3 0.698440 0.372625 0.556430
O O4 0.715441 0.202307 0.638239
O O5 0.787100 0.141408 0.237902
O O6 0.000000 0.172447 0.373883
O O7 0.794106 0.052422 0.425755
O O8 0.500000 0.657961 0.516623
O O9 0.667158 0.549980 0.634512
O O10 0.765549 0.596992 0.455103
O O11 0.737010 0.724928 0.606967
O O12 0.500000 0.413928 0.699217
O O13 0.214628 0.426955 0.747841
O O14 0.749994 0.260891 0.837960
O O15 0.000000 0.345794 0.850772
O O16 0.500000 0.187814 0.780636
O O17 0.262555 0.089191 0.810310
O O18 0.216741 0.893321 0.527593
O O19 0.000000 0.927670 0.389575
O O20 0.000000 0.204812 0.109604
#
# Coordination Sequence:
#
# PCOD8167537 Si02
#       8
#     4   4   4   4   4   4   4   4
#     4   9  20  39  59  83 117 153 194 249 298 348
#     4  10  23  39  59  87 122 163 198 243 303 363
#     4  11  22  38  62  88 118 160 202 245 302 361
#     4   9  21  40  60  84 117 158 204 249 296 356
#     4  11  21  35  57  86 117 151 193 247 302 352
#     4  10  20  36  59  85 113 147 195 250 295 346
#     4  10  21  37  60  86 115 155 197 244 300 357
#     4  10  22  40  58  87 125 155 199 255 300 353
#
# _framework density 19.661415000000002
#
# number of rings (size 3 to 8) (size 9 to 14) (size 15 to 20)
#    0.000    2.000    1.250    2.625    1.750    5.500 
#    0.000    3.750    0.000    0.000    0.000    0.000 
#    0.000    0.000    0.000    0.000    0.000    0.000 
#
# Total GULP energy -396738.849532 kJ/mol
# GULP energy per Si atom -12398.089048 kJ/mol
# Density = 1.961666 g / cm^3
# Si number density = 19.661415 Si / 1000 Ang^3
#
#
#
# Elastic Constant Matrix: (Units=GPa)
#
#
# Indices 1 2 3 4 5 6 
#
# 1 86.7493 38.7864 40.8022 0.0000 0.0000 0.0000
# 2 38.7864 100.2539 42.3390 0.0000 0.0000 0.0000
# 3 40.8022 42.3390 91.2045 0.0000 0.0000 0.0000
# 4 0.0000 0.0000 0.0000 22.9212 0.0000 0.0000
# 5 0.0000 0.0000 0.0000 0.0000 34.8868 0.0000
# 6 0.0000 0.0000 0.0000 0.0000 0.0000 25.7591
#
#
#
# Elastic Compliance Matrix: (Units=1/GPa)
#
#
# Indices 1 2 3 4 5 6 
#
# 1 0.015721 -0.003871 -0.005236 0.000000 0.000000 0.000000
# 2 -0.003871 0.013360 -0.004470 0.000000 0.000000 0.000000
# 3 -0.005236 -0.004470 0.015382 0.000000 0.000000 0.000000
# 4 0.000000 0.000000 0.000000 0.043628 0.000000 0.000000
# 5 0.000000 0.000000 0.000000 0.000000 0.028664 0.000000
# 6 0.000000 0.000000 0.000000 0.000000 0.000000 0.038821
#
#
# Mechanical properties :
#
#
# Convention : Reuss Voigt Hill
#
# Bulk Modulus (GPa) = 57.77510 58.00700 57.89105
# Shear Modulus (GPa) = 26.52511 27.13209 26.82860
#
# Velocity S-wave (km/s) = 3.67699 3.71882 3.69796
# Velocity P-wave (km/s) = 6.89027 6.92867 6.90950
#
# Compressibility (1/GPa) = 0.01730849
#
# Stress axis : x y z
#
# Youngs Moduli (GPa) = 63.60929 74.84952 65.01055
#
# Poissons Ratio (x) = 0.28973 0.34041
# Poissons Ratio (y) = 0.24622 0.29062
# Poissons Ratio (z) = 0.33307 0.33460
#
# Static dielectric constant tensor:
#      x y z
#    x 3.597710 0.000000 0.000000 
#    y 0.000000 3.472600 0.000000 
#    z 0.000000 0.000000 3.575880 
# 
# 
# High freq. dielectric constant tensor:
#      x y z
#    x 1.765180 0.000000 0.000000 
#    y 0.000000 1.762210 0.000000 
#    z 0.000000 0.000000 1.763440 
# 
# From -- ./inp_files/2993.got.cif
#   From: 2010.03.12/outbox.cif.g09.slc.cpg/sg26_2_cif.got.tgz:2993.got - 2010.04.14 03:33:09.
