data_PCOD8167084
_publ_section_title
;
Structure prediction by ZEFSAII (Michael W. Deem and Ramdas Pophale) SiO2 
 PCOD8167084
Probable space group: P M C 21
;
_chemical_formula_sum "Si O2"
_cell_formula_units_Z 32
_cell_length_a 8.962246
_cell_length_b 21.366427
_cell_length_c 9.683659
_cell_angle_alpha 90.000000
_cell_angle_beta 90.000000
_cell_angle_gamma 90.000000
_cell_volume 1854.335239
_symmetry_space_group_name_H-M "P M C 21"
_symmetry_group_IT_number 26
_symmetry_cell_setting 'orthorhombic'
loop_
_space_group_symop_operation_xyz
x,y,z
-x,-y,1/2+z
-x,y,z
x,-y,1/2+z
loop_
_atom_site_type_symbol
_atom_site_label
_atom_site_fract_x
_atom_site_fract_y
_atom_site_fract_z
Si Si1 0.826648 0.403491 0.850230
Si Si2 0.673404 0.464421 0.355113
Si Si3 0.673821 0.639331 0.078220
Si Si4 0.168286 0.043535 0.606077
Si Si5 0.825703 0.729343 0.871666
Si Si6 0.324175 0.009645 0.349116
Si Si7 0.169046 0.869214 0.872887
Si Si8 0.171361 0.373826 0.156114
O O1 0.767118 0.473150 0.869831
O O2 0.743227 0.366744 0.729488
O O3 0.000000 0.406748 0.812732
O O4 0.797958 0.366325 0.993250
O O5 0.500000 0.481119 0.338816
O O6 0.706009 0.423568 0.491395
O O7 0.723634 0.427634 0.218190
O O8 0.500000 0.651716 0.093999
O O9 0.744009 0.698554 0.001496
O O10 0.246976 0.996003 0.496889
O O11 0.169541 0.112977 0.537343
O O12 0.000000 0.020973 0.637290
O O13 0.265294 0.043442 0.745019
O O14 0.764691 0.799863 0.852205
O O15 0.791616 0.691930 0.730477
O O16 0.000000 0.730627 0.906979
O O17 0.500000 0.006165 0.363643
O O18 0.271547 0.079015 0.294655
O O19 0.000000 0.873317 0.814738
O O20 0.000000 0.393228 0.184079
#
# Coordination Sequence:
#
# PCOD8167084 Si02
#       8
#     4   4   4   4   4   4   4   4
#     4  11  21  32  48  71  98 126 159 202 253 300
#     4  10  20  33  49  71  96 125 161 199 246 304
#     4  10  21  34  50  73  99 130 163 201 251 298
#     4   9  17  31  50  75 105 136 169 202 247 299
#     4   9  17  35  57  74  94 126 173 212 240 288
#     4  10  18  29  49  78 107 134 165 206 251 293
#     4   8  17  31  53  76  99 133 171 206 246 296
#     4   9  19  33  52  74  96 124 161 206 248 290
#
# _framework density 17.256857
#
# number of rings (size 3 to 8) (size 9 to 14) (size 15 to 20)
#    0.750    1.750    0.000    3.000    0.000    5.000 
#    0.000    0.000    2.750    0.000    0.000    0.000 
#    0.000    0.000    0.000    0.000    0.000    0.000 
#
# Total GULP energy -396642.738389 kJ/mol
# GULP energy per Si atom -12395.085575 kJ/mol
# Density = 1.721758 g / cm^3
# Si number density = 17.256857 Si / 1000 Ang^3
#
#
#
# Elastic Constant Matrix: (Units=GPa)
#
#
# Indices 1 2 3 4 5 6 
#
# 1 80.9107 15.5893 26.8006 0.0000 0.0000 0.0000
# 2 15.5893 50.1567 4.6536 0.0000 0.0000 0.0000
# 3 26.8006 4.6536 78.2727 0.0000 0.0000 0.0000
# 4 0.0000 0.0000 0.0000 13.2933 0.0000 0.0000
# 5 0.0000 0.0000 0.0000 0.0000 26.7386 0.0000
# 6 0.0000 0.0000 0.0000 0.0000 0.0000 18.8777
#
#
#
# Elastic Compliance Matrix: (Units=1/GPa)
#
#
# Indices 1 2 3 4 5 6 
#
# 1 0.014748 -0.004138 -0.004804 0.000000 0.000000 0.000000
# 2 -0.004138 0.021209 0.000156 0.000000 0.000000 0.000000
# 3 -0.004804 0.000156 0.014411 0.000000 0.000000 0.000000
# 4 0.000000 0.000000 0.000000 0.075226 0.000000 0.000000
# 5 0.000000 0.000000 0.000000 0.000000 0.037399 0.000000
# 6 0.000000 0.000000 0.000000 0.000000 0.000000 0.052973
#
#
# Mechanical properties :
#
#
# Convention : Reuss Voigt Hill
#
# Bulk Modulus (GPa) = 30.49088 33.71415 32.10252
# Shear Modulus (GPa) = 20.45245 22.60169 21.52707
#
# Velocity S-wave (km/s) = 3.44638 3.62293 3.53576
# Velocity P-wave (km/s) = 5.79171 6.08933 5.94238
#
# Compressibility (1/GPa) = 0.03279669
#
# Stress axis : x y z
#
# Youngs Moduli (GPa) = 67.80701 47.14933 69.38986
#
# Poissons Ratio (x) = 0.19511 0.33332
# Poissons Ratio (y) = 0.28059 -0.01082
# Poissons Ratio (z) = 0.32572 -0.00735
#
# Static dielectric constant tensor:
#      x y z
#    x 3.237970 0.000000 0.000000 
#    y 0.000000 3.020790 0.000000 
#    z 0.000000 0.000000 3.159400 
# 
# 
# High freq. dielectric constant tensor:
#      x y z
#    x 1.675190 0.000000 0.000000 
#    y 0.000000 1.636990 0.000000 
#    z 0.000000 0.000000 1.658720 
# 
# From -- ./inp_files/1604.got.cif
#   From: 2010.03.12/outbox.cif.g09.slc.cpg/sg26_1_cif.got.tgz:1604.got - 2010.04.14 03:33:09.
