data_PCOD8167781
_publ_section_title
;
Structure prediction by ZEFSAII (Michael W. Deem and Ramdas Pophale) SiO2 
 PCOD8167781
Probable space group: P C C 2
;
_chemical_formula_sum "Si O2"
_cell_formula_units_Z 32
_cell_length_a 12.664130
_cell_length_b 27.683055
_cell_length_c 5.290564
_cell_angle_alpha 90.000000
_cell_angle_beta 90.000000
_cell_angle_gamma 90.000000
_cell_volume 1854.775489
_symmetry_space_group_name_H-M "P C C 2"
_symmetry_group_IT_number 27
_symmetry_cell_setting 'orthorhombic'
loop_
_space_group_symop_operation_xyz
x,y,z
-x,-y,z
-x,y,1/2+z
x,-y,1/2+z
loop_
_atom_site_type_symbol
_atom_site_label
_atom_site_fract_x
_atom_site_fract_y
_atom_site_fract_z
Si Si1 0.779141 0.181670 0.125000
Si Si2 0.553339 0.897083 0.126356
Si Si3 0.118395 0.020493 0.125751
Si Si4 0.208024 0.120658 0.125398
Si Si5 0.120466 0.520218 0.110766
Si Si6 0.068062 0.730405 0.099086
Si Si7 0.936384 0.375209 0.166370
Si Si8 0.536052 0.791802 0.625021
O O1 0.809585 0.152097 0.374582
O O2 0.656424 0.193204 0.123563
O O3 0.810491 0.152490 0.874680
O O4 0.838230 0.232240 0.130583
O O5 0.499889 0.920437 0.376226
O O6 0.678515 0.905932 0.126902
O O7 0.537368 0.839504 0.126356
O O8 0.119985 0.078676 0.125512
O O9 0.177079 0.000032 0.375825
O O10 0.000000 0.000000 0.125979
O O11 0.178182 0.498803 0.358384
O O12 0.134968 0.578100 0.113930
O O13 0.000000 0.500000 0.110189
O O14 0.016023 0.737718 0.824220
O O15 0.119741 0.676589 0.119783
O O16 0.969815 0.378196 0.459793
O O17 0.499594 0.761973 0.375349
#
# Coordination Sequence:
#
# PCOD8167781 Si02
#       8
#     4   4   4   4   4   4   4   4
#     4  12  21  35  55  85  99 129 168 197 239 283
#     4  10  16  30  51  84 106 120 140 186 242 292
#     4  10  23  45  59  75  97 125 161 196 238 284
#     4  12  21  35  63  79  97 126 156 202 238 283
#     4  10  14  20  36  63  74  98 161 220 239 288
#     4  10  23  38  44  64 107 139 173 203 230 294
#     4  10  16  27  42  53  85 128 152 203 256 271
#     4  10  16  30  51  80 110 120 145 197 243 290
#
# _framework density 17.252761
#
# number of rings (size 3 to 8) (size 9 to 14) (size 15 to 20)
#    0.000    1.500    7.500    1.500    0.000    0.000 
#   13.500    0.000    0.000    2.250    0.000    0.000 
#    0.000    0.000    0.000    0.000    0.000    3.750 
#
# Total GULP energy -396491.605349 kJ/mol
# GULP energy per Si atom -12390.362667 kJ/mol
# Density = 1.721349 g / cm^3
# Si number density = 17.252761 Si / 1000 Ang^3
#
#
#
# Elastic Constant Matrix: (Units=GPa)
#
#
# Indices 1 2 3 4 5 6 
#
# 1 41.4857 37.6599 13.5944 0.0000 0.0000 0.0000
# 2 37.6599 117.8546 49.7244 0.0000 0.0000 0.0000
# 3 13.5944 49.7244 178.3148 0.0000 0.0000 0.0000
# 4 0.0000 0.0000 0.0000 19.8204 0.0000 0.0000
# 5 0.0000 0.0000 0.0000 0.0000 11.9013 0.0000
# 6 0.0000 0.0000 0.0000 0.0000 0.0000 1.8761
#
#
#
# Elastic Compliance Matrix: (Units=1/GPa)
#
#
# Indices 1 2 3 4 5 6 
#
# 1 0.033993 -0.011071 0.000496 0.000000 0.000000 0.000000
# 2 -0.011071 0.013222 -0.002843 0.000000 0.000000 0.000000
# 3 0.000496 -0.002843 0.006363 0.000000 0.000000 0.000000
# 4 0.000000 0.000000 0.000000 0.050453 0.000000 0.000000
# 5 0.000000 0.000000 0.000000 0.000000 0.084024 0.000000
# 6 0.000000 0.000000 0.000000 0.000000 0.000000 0.533018
#
#
# Mechanical properties :
#
#
# Convention : Reuss Voigt Hill
#
# Bulk Modulus (GPa) = 37.39612 59.95696 48.67654
# Shear Modulus (GPa) = 6.60655 22.49800 14.55227
#
# Velocity S-wave (km/s) = 1.95898 3.61504 2.90741
# Velocity P-wave (km/s) = 5.18066 7.22857 6.28854
#
# Compressibility (1/GPa) = 0.02674074
#
# Stress axis : x y z
#
# Youngs Moduli (GPa) = 29.41814 75.62932 157.15660
#
# Poissons Ratio (x) = 0.83732 -0.07792
# Poissons Ratio (y) = 0.32570 0.44681
# Poissons Ratio (z) = -0.01459 0.21502
#
# Static dielectric constant tensor:
#      x y z
#    x 2.042790 0.000000 0.000000 
#    y 0.000000 3.149480 0.000000 
#    z 0.000000 0.000000 5.325380 
# 
# 
# High freq. dielectric constant tensor:
#      x y z
#    x 1.604800 0.000000 0.000000 
#    y 0.000000 1.637460 0.000000 
#    z 0.000000 0.000000 1.713430 
# 
# From -- ./inp_files/399.got.cif
#   From: 2010.03.12/outbox.cif.g09.slc.cpg/sg27_1_cif.got.tgz:399.got - 2010.04.14 03:36:05.
