data_PCOD8167806
_publ_section_title
;
Structure prediction by ZEFSAII (Michael W. Deem and Ramdas Pophale) SiO2 
 PCOD8167806
Probable space group: P C C 2
;
_chemical_formula_sum "Si O2"
_cell_formula_units_Z 24
_cell_length_a 8.041942
_cell_length_b 8.745573
_cell_length_c 16.657158
_cell_angle_alpha 90.000000
_cell_angle_beta 90.000000
_cell_angle_gamma 90.000000
_cell_volume 1171.521089
_symmetry_space_group_name_H-M "P C C 2"
_symmetry_group_IT_number 27
_symmetry_cell_setting 'orthorhombic'
loop_
_space_group_symop_operation_xyz
x,y,z
-x,-y,z
-x,y,1/2+z
x,-y,1/2+z
loop_
_atom_site_type_symbol
_atom_site_label
_atom_site_fract_x
_atom_site_fract_y
_atom_site_fract_z
Si Si1 0.457742 0.679669 0.905340
Si Si2 0.264841 0.645049 0.755442
Si Si3 0.043603 0.826591 0.183372
Si Si4 0.250296 0.334146 0.548134
Si Si5 0.212954 0.314493 0.822202
Si Si6 0.000000 0.500000 0.935466
Si Si7 0.500000 0.500000 0.654007
O O1 0.500000 0.500000 0.912663
O O2 0.306633 0.715174 0.842742
O O3 0.630194 0.751402 0.872993
O O4 0.391744 0.747842 0.990967
O O5 0.236290 0.463199 0.766108
O O6 0.437748 0.648058 0.705105
O O7 0.118500 0.725871 0.705832
O O8 0.132006 0.775251 0.100217
O O9 0.164270 0.820006 0.260503
O O10 0.000000 0.000000 0.166849
O O11 0.149362 0.440922 0.488392
O O12 0.340129 0.453041 0.604613
O O13 0.061636 0.356949 0.881719
#
# Coordination Sequence:
#
# PCOD8167806 Si02
#       7
#     4   4   4   4   4   2   2
#     4  10  18  36  62  95 124 145 214 283 322 354
#     4  11  19  39  65  92 116 162 219 270 303 372
#     4  12  26  41  60  94 142 175 206 250 330 411
#     4  12  22  35  58 100 128 164 204 273 339 371
#     4  11  19  39  67  95 113 165 225 275 309 362
#     4  12  20  34  68  96 126 152 224 284 316 358
#     4  12  20  34  66  94 124 154 220 280 314 360
#
# _framework density 20.486189
#
# number of rings (size 3 to 8) (size 9 to 14) (size 15 to 20)
#    0.000    0.667   10.000    1.000    0.000    0.000 
#    0.000    6.667    0.000    4.000    0.000    0.000 
#    0.000    0.000    0.000    0.000    0.000    0.000 
#
# Total GULP energy -297331.585094 kJ/mol
# GULP energy per Si atom -12388.816046 kJ/mol
# Density = 2.043956 g / cm^3
# Si number density = 20.486189 Si / 1000 Ang^3
#
#
#
# Elastic Constant Matrix: (Units=GPa)
#
#
# Indices 1 2 3 4 5 6 
#
# 1 114.7257 25.9378 59.4638 0.0000 0.0000 0.0000
# 2 25.9378 56.3807 32.7698 0.0000 0.0000 0.0000
# 3 59.4638 32.7698 141.1086 0.0000 0.0000 0.0000
# 4 0.0000 0.0000 0.0000 8.2799 0.0000 0.0000
# 5 0.0000 0.0000 0.0000 0.0000 53.0237 0.0000
# 6 0.0000 0.0000 0.0000 0.0000 0.0000 14.8578
#
#
#
# Elastic Compliance Matrix: (Units=1/GPa)
#
#
# Indices 1 2 3 4 5 6 
#
# 1 0.011541 -0.002870 -0.004197 0.000000 0.000000 0.000000
# 2 -0.002870 0.021218 -0.003718 0.000000 0.000000 0.000000
# 3 -0.004197 -0.003718 0.009719 0.000000 0.000000 0.000000
# 4 0.000000 0.000000 0.000000 0.120774 0.000000 0.000000
# 5 0.000000 0.000000 0.000000 0.000000 0.018859 0.000000
# 6 0.000000 0.000000 0.000000 0.000000 0.000000 0.067305
#
#
# Mechanical properties :
#
#
# Convention : Reuss Voigt Hill
#
# Bulk Modulus (GPa) = 47.82932 60.95086 54.39009
# Shear Modulus (GPa) = 17.98860 28.16852 23.07856
#
# Velocity S-wave (km/s) = 2.96646 3.71212 3.36004
# Velocity P-wave (km/s) = 5.92714 6.94189 6.45449
#
# Compressibility (1/GPa) = 0.02090768
#
# Stress axis : x y z
#
# Youngs Moduli (GPa) = 86.65121 47.12999 102.89422
#
# Poissons Ratio (x) = 0.13526 0.43182
# Poissons Ratio (y) = 0.24868 0.38257
# Poissons Ratio (z) = 0.36365 0.17523
#
# Static dielectric constant tensor:
#      x y z
#    x 4.331240 0.000000 0.000000 
#    y 0.000000 2.985020 0.000000 
#    z 0.000000 0.000000 4.244540 
# 
# 
# High freq. dielectric constant tensor:
#      x y z
#    x 1.830380 0.000000 0.000000 
#    y 0.000000 1.710700 0.000000 
#    z 0.000000 0.000000 1.829310 
# 
# From -- ./inp_files/4269.got.cif
#   From: 2010.03.12/outbox.cif.g09.slc.cpg/sg27_3_cif.got.tgz:4269.got - 2010.04.14 03:36:05.
