data_PCOD8167897
_publ_section_title
;
Structure prediction by ZEFSAII (Michael W. Deem and Ramdas Pophale) SiO2 
 PCOD8167897
Probable space group: P C C 2
;
_chemical_formula_sum "Si O2"
_cell_formula_units_Z 18
_cell_length_a 5.343214
_cell_length_b 5.317033
_cell_length_c 24.481933
_cell_angle_alpha 90.000000
_cell_angle_beta 90.000000
_cell_angle_gamma 90.000000
_cell_volume 695.532822
_symmetry_space_group_name_H-M "P C C 2"
_symmetry_group_IT_number 27
_symmetry_cell_setting 'orthorhombic'
loop_
_space_group_symop_operation_xyz
x,y,z
-x,-y,z
-x,y,1/2+z
x,-y,1/2+z
loop_
_atom_site_type_symbol
_atom_site_label
_atom_site_fract_x
_atom_site_fract_y
_atom_site_fract_z
Si Si1 0.500000 0.000000 0.495360
Si Si2 0.155111 0.759411 0.417615
Si Si3 0.762808 0.350479 0.070768
Si Si4 0.651504 0.242922 0.184746
Si Si5 0.751878 0.342022 0.300062
O O1 0.395139 0.767936 0.458098
O O2 0.723219 0.893923 0.533392
O O3 0.250820 0.818039 0.355843
O O4 0.000000 0.500000 0.423112
O O5 0.000000 0.000000 0.436529
O O6 0.500000 0.500000 0.071813
O O7 0.839463 0.278981 0.133512
O O8 0.000000 0.500000 0.045762
O O9 0.500000 0.500000 0.193142
O O10 0.775233 0.179557 0.243927
O O11 0.500000 0.000000 0.166541
O O12 0.500000 0.500000 0.300209
O O13 0.000000 0.500000 0.302388
#
# Coordination Sequence:
#
# PCOD8167897 Si02
#       5
#     2   4   4   4   4
#     4  12  30  48  80 112 162 218 272 340 394 488
#     4  11  30  50  78 113 158 207 267 327 401 476
#     4  11  27  50  77 113 156 208 269 329 402 476
#     4  10  22  46  77 112 154 199 255 326 399 478
#     4  10  24  47  77 113 153 199 255 324 399 477
#
# _framework density 25.879441
#
# number of rings (size 3 to 8) (size 9 to 14) (size 15 to 20)
#    0.000    1.333    1.111    0.667   14.000    3.556 
#    0.000    6.667    0.000    0.000    0.000    0.000 
#    0.000    0.000    0.000    0.000    0.000    0.000 
#
# Total GULP energy -223029.847310 kJ/mol
# GULP energy per Si atom -12390.547073 kJ/mol
# Density = 2.582054 g / cm^3
# Si number density = 25.879441 Si / 1000 Ang^3
#
#
#
# Elastic Constant Matrix: (Units=GPa)
#
#
# Indices 1 2 3 4 5 6 
#
# 1 137.2374 37.6875 43.9741 0.0000 0.0000 0.0000
# 2 37.6875 131.3039 37.4938 0.0000 0.0000 0.0000
# 3 43.9741 37.4938 221.8481 0.0000 0.0000 0.0000
# 4 0.0000 0.0000 0.0000 38.9353 0.0000 0.0000
# 5 0.0000 0.0000 0.0000 0.0000 19.4991 0.0000
# 6 0.0000 0.0000 0.0000 0.0000 0.0000 39.9971
#
#
#
# Elastic Compliance Matrix: (Units=1/GPa)
#
#
# Indices 1 2 3 4 5 6 
#
# 1 0.008251 -0.001998 -0.001298 0.000000 0.000000 0.000000
# 2 -0.001998 0.008486 -0.001038 0.000000 0.000000 0.000000
# 3 -0.001298 -0.001038 0.004940 0.000000 0.000000 0.000000
# 4 0.000000 0.000000 0.000000 0.025684 0.000000 0.000000
# 5 0.000000 0.000000 0.000000 0.000000 0.051284 0.000000
# 6 0.000000 0.000000 0.000000 0.000000 0.000000 0.025002
#
#
# Mechanical properties :
#
#
# Convention : Reuss Voigt Hill
#
# Bulk Modulus (GPa) = 76.86566 80.96667 78.91617
# Shear Modulus (GPa) = 36.58953 44.43523 40.51238
#
# Velocity S-wave (km/s) = 3.76419 4.14818 3.96084
# Velocity P-wave (km/s) = 6.97554 7.36866 7.17479
#
# Compressibility (1/GPa) = 0.01300971
#
# Stress axis : x y z
#
# Youngs Moduli (GPa) = 121.19580 117.84458 202.41639
#
# Poissons Ratio (x) = 0.23541 0.26271
# Poissons Ratio (y) = 0.24211 0.21014
# Poissons Ratio (z) = 0.15730 0.12234
#
# Static dielectric constant tensor:
#      x y z
#    x 4.484520 0.000000 0.000000 
#    y 0.000000 4.311320 0.000000 
#    z 0.000000 0.000000 6.025490 
# 
# 
# High freq. dielectric constant tensor:
#      x y z
#    x 2.019700 0.000000 0.000000 
#    y 0.000000 2.015520 0.000000 
#    z 0.000000 0.000000 2.082010 
# 
# From -- ./inp_files/4914.got.cif
#   From: 2010.03.12/outbox.cif.g09.slc.cpg/sg27_3_cif.got.tgz:4914.got - 2010.04.14 03:36:05.
