data_PCOD8167819
_publ_section_title
;
Structure prediction by ZEFSAII (Michael W. Deem and Ramdas Pophale) SiO2 
 PCOD8167819
Probable space group: P C C 2
;
_chemical_formula_sum "Si O2"
_cell_formula_units_Z 32
_cell_length_a 12.614851
_cell_length_b 12.044138
_cell_length_c 10.108855
_cell_angle_alpha 90.000000
_cell_angle_beta 90.000000
_cell_angle_gamma 90.000000
_cell_volume 1535.888948
_symmetry_space_group_name_H-M "P C C 2"
_symmetry_group_IT_number 27
_symmetry_cell_setting 'orthorhombic'
loop_
_space_group_symop_operation_xyz
x,y,z
-x,-y,z
-x,y,1/2+z
x,-y,1/2+z
loop_
_atom_site_type_symbol
_atom_site_label
_atom_site_fract_x
_atom_site_fract_y
_atom_site_fract_z
Si Si1 0.751488 0.493996 0.794290
Si Si2 0.481147 0.176836 0.901930
Si Si3 0.374236 0.509165 0.054082
Si Si4 0.422248 0.262064 0.642288
Si Si5 0.053831 0.618847 0.906523
Si Si6 0.320984 0.020074 0.387166
Si Si7 0.242709 0.906662 0.147981
Si Si8 0.104154 0.695748 0.197703
O O1 0.685147 0.441289 0.671364
O O2 0.828953 0.397678 0.846492
O O3 0.812436 0.604333 0.747424
O O4 0.671223 0.526081 0.912774
O O5 0.466924 0.272680 0.790704
O O6 0.593090 0.117538 0.869716
O O7 0.383398 0.093555 0.917535
O O8 0.482702 0.246663 0.037552
O O9 0.500000 0.500000 0.062071
O O10 0.348013 0.636743 0.095856
O O11 0.358077 0.148222 0.643282
O O12 0.000000 0.500000 0.918205
O O13 0.990251 0.698782 0.805956
O O14 0.057835 0.668483 0.053227
O O15 0.232189 0.042891 0.500632
O O16 0.250050 0.005632 0.255129
O O17 0.153176 0.818622 0.189300
#
# Coordination Sequence:
#
# PCOD8167819 Si02
#       8
#     4   4   4   4   4   4   4   4
#     4  11  22  42  59  87 127 170 207 250 301 358
#     4   9  18  32  54  82 112 160 219 252 285 353
#     4  12  26  37  56  86 134 181 206 239 301 363
#     4  10  20  34  52  78 121 162 209 253 285 345
#     4  10  21  39  68  94 118 154 207 259 309 358
#     4   9  18  33  58  84 116 159 198 255 313 360
#     4  10  19  37  59  86 119 148 196 253 317 371
#     4  11  22  40  68  94 117 151 207 271 314 367
#
# _framework density 20.83484
#
# number of rings (size 3 to 8) (size 9 to 14) (size 15 to 20)
#    0.000    1.750    2.500    2.250    5.250    3.000 
#    0.000    1.250    0.000    2.250    0.000    0.000 
#    0.000    0.000    0.000    0.000    0.000    0.000 
#
# Total GULP energy -396602.229914 kJ/mol
# GULP energy per Si atom -12393.819685 kJ/mol
# Density = 2.078742 g / cm^3
# Si number density = 20.834840 Si / 1000 Ang^3
#
#
#
# Elastic Constant Matrix: (Units=GPa)
#
#
# Indices 1 2 3 4 5 6 
#
# 1 87.3317 11.6700 60.1071 0.0000 0.0000 0.0000
# 2 11.6700 44.9520 31.5963 0.0000 0.0000 0.0000
# 3 60.1071 31.5963 178.7641 0.0000 0.0000 0.0000
# 4 0.0000 0.0000 0.0000 21.2949 0.0000 0.0000
# 5 0.0000 0.0000 0.0000 0.0000 39.3067 0.0000
# 6 0.0000 0.0000 0.0000 0.0000 0.0000 24.1671
#
#
#
# Elastic Compliance Matrix: (Units=1/GPa)
#
#
# Indices 1 2 3 4 5 6 
#
# 1 0.014905 -0.000396 -0.004941 0.000000 0.000000 0.000000
# 2 -0.000396 0.025412 -0.004358 0.000000 0.000000 0.000000
# 3 -0.004941 -0.004358 0.008026 0.000000 0.000000 0.000000
# 4 0.000000 0.000000 0.000000 0.046960 0.000000 0.000000
# 5 0.000000 0.000000 0.000000 0.000000 0.025441 0.000000
# 6 0.000000 0.000000 0.000000 0.000000 0.000000 0.041379
#
#
# Mechanical properties :
#
#
# Convention : Reuss Voigt Hill
#
# Bulk Modulus (GPa) = 34.54143 57.53272 46.03707
# Shear Modulus (GPa) = 26.15557 30.79869 28.47713
#
# Velocity S-wave (km/s) = 3.54697 3.84895 3.70104
# Velocity P-wave (km/s) = 5.77835 6.88667 6.35671
#
# Compressibility (1/GPa) = 0.02895074
#
# Stress axis : x y z
#
# Youngs Moduli (GPa) = 67.09365 39.35110 124.59815
#
# Poissons Ratio (x) = 0.01559 0.61570
# Poissons Ratio (y) = 0.02657 0.54305
# Poissons Ratio (z) = 0.33154 0.17151
#
# Static dielectric constant tensor:
#      x y z
#    x 3.667370 0.000000 0.000000 
#    y 0.000000 3.545210 0.000000 
#    z 0.000000 0.000000 4.272220 
# 
# 
# High freq. dielectric constant tensor:
#      x y z
#    x 1.794220 0.000000 0.000000 
#    y 0.000000 1.786050 0.000000 
#    z 0.000000 0.000000 1.841100 
# 
# From -- ./inp_files/1626.got.cif
#   From: 2010.03.12/outbox.cif.g09.slc.cpg/sg27_1_cif.got.tgz:1626.got - 2010.04.14 03:36:05.
