data_PCOD8167396
_publ_section_title
;
Structure prediction by ZEFSAII (Michael W. Deem and Ramdas Pophale) SiO2 
 PCOD8167396
Probable space group: P M C 21
;
_chemical_formula_sum "Si O2"
_cell_formula_units_Z 32
_cell_length_a 8.820157
_cell_length_b 20.557760
_cell_length_c 9.105588
_cell_angle_alpha 90.000000
_cell_angle_beta 90.000000
_cell_angle_gamma 90.000000
_cell_volume 1651.049535
_symmetry_space_group_name_H-M "P M C 21"
_symmetry_group_IT_number 26
_symmetry_cell_setting 'orthorhombic'
loop_
_space_group_symop_operation_xyz
x,y,z
-x,-y,1/2+z
-x,y,z
x,-y,1/2+z
loop_
_atom_site_type_symbol
_atom_site_label
_atom_site_fract_x
_atom_site_fract_y
_atom_site_fract_z
Si Si1 0.678931 0.692133 0.701980
Si Si2 0.319383 0.926744 0.707191
Si Si3 0.679563 0.053610 0.538185
Si Si4 0.824803 0.559155 0.721880
Si Si5 0.321379 0.299724 0.536105
Si Si6 0.179604 0.809161 0.539277
Si Si7 0.680573 0.176659 0.722346
Si Si8 0.173659 0.568456 0.063831
O O1 0.500000 0.701331 0.684157
O O2 0.725819 0.618792 0.660368
O O3 0.764053 0.738565 0.588715
O O4 0.734714 0.708157 0.867926
O O5 0.500000 0.917987 0.700286
O O6 0.241824 0.860999 0.655051
O O7 0.261677 0.986024 0.606103
O O8 0.262041 0.940382 0.872086
O O9 0.500000 0.054215 0.540645
O O10 0.739519 0.113604 0.634785
O O11 0.759917 0.492735 0.652717
O O12 0.000000 0.570288 0.677400
O O13 0.803816 0.552427 0.894436
O O14 0.500000 0.303104 0.537656
O O15 0.262536 0.239338 0.631732
O O16 0.260276 0.365888 0.608670
O O17 0.243178 0.825265 0.379824
O O18 0.000000 0.810943 0.536029
O O19 0.500000 0.176394 0.741749
O O20 0.000000 0.579728 0.106418
#
# Coordination Sequence:
#
# PCOD8167396 Si02
#       8
#     4   4   4   4   4   4   4   4
#     4  10  20  37  59  81 105 139 180 227 276 324
#     4  10  19  36  61  87 112 143 182 224 268 319
#     4   9  18  34  62  90 111 141 183 225 268 318
#     4   9  18  33  51  75 106 142 180 219 262 317
#     4   9  19  35  57  82 107 136 179 229 275 320
#     4  12  25  38  53  79 112 147 183 223 270 324
#     4  10  20  37  58  82 110 142 181 227 272 319
#     4   9  18  32  51  74 107 146 180 214 261 319
#
# _framework density 19.381612000000001
#
# number of rings (size 3 to 8) (size 9 to 14) (size 15 to 20)
#    0.000    2.250    0.000    3.000    0.000    6.500 
#    0.000    5.625    0.000    0.000    0.000    0.000 
#    0.000    0.000    0.000    0.000    0.000    0.000 
#
# Total GULP energy -396884.112319 kJ/mol
# GULP energy per Si atom -12402.628510 kJ/mol
# Density = 1.933750 g / cm^3
# Si number density = 19.381612 Si / 1000 Ang^3
#
#
#
# Elastic Constant Matrix: (Units=GPa)
#
#
# Indices 1 2 3 4 5 6 
#
# 1 40.2667 18.3917 21.0346 0.0000 0.0000 0.0000
# 2 18.3917 99.1505 23.0430 0.0000 0.0000 0.0000
# 3 21.0346 23.0430 74.1814 0.0000 0.0000 0.0000
# 4 0.0000 0.0000 0.0000 43.2088 0.0000 0.0000
# 5 0.0000 0.0000 0.0000 0.0000 16.1669 0.0000
# 6 0.0000 0.0000 0.0000 0.0000 0.0000 20.9718
#
#
#
# Elastic Compliance Matrix: (Units=1/GPa)
#
#
# Indices 1 2 3 4 5 6 
#
# 1 0.030512 -0.003933 -0.007430 0.000000 0.000000 0.000000
# 2 -0.003933 0.011377 -0.002419 0.000000 0.000000 0.000000
# 3 -0.007430 -0.002419 0.016339 0.000000 0.000000 0.000000
# 4 0.000000 0.000000 0.000000 0.023143 0.000000 0.000000
# 5 0.000000 0.000000 0.000000 0.000000 0.061855 0.000000
# 6 0.000000 0.000000 0.000000 0.000000 0.000000 0.047683
#
#
# Mechanical properties :
#
#
# Convention : Reuss Voigt Hill
#
# Bulk Modulus (GPa) = 32.61148 37.61524 35.11336
# Shear Modulus (GPa) = 21.86315 26.14479 24.00397
#
# Velocity S-wave (km/s) = 3.36227 3.67679 3.52304
# Velocity P-wave (km/s) = 5.65116 6.12167 5.89112
#
# Compressibility (1/GPa) = 0.03066405
#
# Stress axis : x y z
#
# Youngs Moduli (GPa) = 32.77377 87.89364 61.20418
#
# Poissons Ratio (x) = 0.34568 0.45476
# Poissons Ratio (y) = 0.12890 0.14805
# Poissons Ratio (z) = 0.24352 0.21261
#
# Static dielectric constant tensor:
#      x y z
#    x 3.291490 0.000000 0.000000 
#    y 0.000000 3.809840 0.000000 
#    z 0.000000 0.000000 3.638630 
# 
# 
# High freq. dielectric constant tensor:
#      x y z
#    x 1.727450 0.000000 0.000000 
#    y 0.000000 1.771570 0.000000 
#    z 0.000000 0.000000 1.757300 
# 
# From -- ./inp_files/1581.got.cif
#   From: 2010.03.12/outbox.cif.g09.slc.cpg/sg26_1_cif.got.tgz:1581.got - 2010.04.14 03:33:09.
