data_PCOD8167326
_publ_section_title
;
Structure prediction by ZEFSAII (Michael W. Deem and Ramdas Pophale) SiO2 
 PCOD8167326
Probable space group: P M C 21
;
_chemical_formula_sum "Si O2"
_cell_formula_units_Z 32
_cell_length_a 9.251584
_cell_length_b 12.512008
_cell_length_c 13.840480
_cell_angle_alpha 90.000000
_cell_angle_beta 90.000000
_cell_angle_gamma 90.000000
_cell_volume 1602.117122
_symmetry_space_group_name_H-M "P M C 21"
_symmetry_group_IT_number 26
_symmetry_cell_setting 'orthorhombic'
loop_
_space_group_symop_operation_xyz
x,y,z
-x,-y,1/2+z
-x,y,z
x,-y,1/2+z
loop_
_atom_site_type_symbol
_atom_site_label
_atom_site_fract_x
_atom_site_fract_y
_atom_site_fract_z
Si Si1 0.659430 0.920442 0.161970
Si Si2 0.836389 0.117817 0.171776
Si Si3 0.668965 0.585500 0.963117
Si Si4 0.829720 0.159068 0.954482
Si Si5 0.338709 0.044118 0.438076
Si Si6 0.331914 0.683170 0.162858
Si Si7 0.166754 0.760352 0.857516
Si Si8 0.666207 0.641132 0.376214
O O1 0.500000 0.916630 0.209401
O O2 0.735535 0.803323 0.170922
O O3 0.748763 0.015388 0.213821
O O4 0.649210 0.957803 0.052445
O O5 0.788344 0.159857 0.067424
O O6 0.816496 0.217913 0.243397
O O7 0.000000 0.077149 0.167998
O O8 0.500000 0.612387 0.951500
O O9 0.757180 0.649113 0.882008
O O10 0.698877 0.461709 0.941576
O O11 0.728209 0.616558 0.070559
O O12 0.000000 0.146229 0.936406
O O13 0.775584 0.268733 0.909741
O O14 0.745212 0.062076 0.901942
O O15 0.500000 0.048443 0.392288
O O16 0.246146 0.147477 0.415408
O O17 0.500000 0.700565 0.142538
O O18 0.303669 0.618246 0.262084
O O19 0.000000 0.756828 0.889421
O O20 0.500000 0.678382 0.389776
#
# Coordination Sequence:
#
# PCOD8167326 Si02
#       8
#     4   4   4   4   4   4   4   4
#     4   9  17  32  55  80 111 150 190 232 281 337
#     4   9  21  37  53  80 120 157 188 230 286 346
#     4  10  21  40  61  83 116 155 196 241 287 339
#     4  10  21  39  58  81 118 155 188 235 291 344
#     4  10  19  34  57  84 114 150 190 234 285 340
#     4   9  18  36  57  83 115 147 188 239 289 338
#     4  11  22  36  56  85 117 152 193 236 286 342
#     4  10  22  38  61  88 113 150 197 243 289 340
#
# _framework density 19.973569999999999
#
# number of rings (size 3 to 8) (size 9 to 14) (size 15 to 20)
#    0.000    2.250    1.250    1.125    1.750    3.500 
#    0.000    1.875    0.000    0.000    0.000    0.000 
#    0.000    0.000    0.000    0.000    0.000    0.000 
#
# Total GULP energy -396720.083846 kJ/mol
# GULP energy per Si atom -12397.502620 kJ/mol
# Density = 1.992811 g / cm^3
# Si number density = 19.973570 Si / 1000 Ang^3
#
#
#
# Elastic Constant Matrix: (Units=GPa)
#
#
# Indices 1 2 3 4 5 6 
#
# 1 86.7353 41.0606 20.0035 0.0000 0.0000 0.0000
# 2 41.0606 94.5732 24.9139 0.0000 0.0000 0.0000
# 3 20.0035 24.9139 59.9649 0.0000 0.0000 0.0000
# 4 0.0000 0.0000 0.0000 30.0484 0.0000 0.0000
# 5 0.0000 0.0000 0.0000 0.0000 21.3714 0.0000
# 6 0.0000 0.0000 0.0000 0.0000 0.0000 21.4534
#
#
#
# Elastic Compliance Matrix: (Units=1/GPa)
#
#
# Indices 1 2 3 4 5 6 
#
# 1 0.014853 -0.005775 -0.002555 0.000000 0.000000 0.000000
# 2 -0.005775 0.014119 -0.003940 0.000000 0.000000 0.000000
# 3 -0.002555 -0.003940 0.019166 0.000000 0.000000 0.000000
# 4 0.000000 0.000000 0.000000 0.033280 0.000000 0.000000
# 5 0.000000 0.000000 0.000000 0.000000 0.046791 0.000000
# 6 0.000000 0.000000 0.000000 0.000000 0.000000 0.046613
#
#
# Mechanical properties :
#
#
# Convention : Reuss Voigt Hill
#
# Bulk Modulus (GPa) = 42.37792 45.91439 44.14616
# Shear Modulus (GPa) = 24.12812 24.92768 24.52790
#
# Velocity S-wave (km/s) = 3.47940 3.53658 3.50811
# Velocity P-wave (km/s) = 6.11594 6.30191 6.20962
#
# Compressibility (1/GPa) = 0.02359720
#
# Stress axis : x y z
#
# Youngs Moduli (GPa) = 67.32778 70.82581 52.17694
#
# Poissons Ratio (x) = 0.40905 0.13332
# Poissons Ratio (y) = 0.38885 0.20555
# Poissons Ratio (z) = 0.17203 0.27902
#
# Static dielectric constant tensor:
#      x y z
#    x 3.681120 0.000000 0.000000 
#    y 0.000000 3.531980 0.000000 
#    z 0.000000 0.000000 3.721400 
# 
# 
# High freq. dielectric constant tensor:
#      x y z
#    x 1.764120 0.000000 0.000000 
#    y 0.000000 1.769560 0.000000 
#    z 0.000000 0.000000 1.785370 
# 
# From -- ./inp_files/4181.got.cif
#   From: 2010.03.12/outbox.cif.g09.slc.cpg/sg26_3_cif.got.tgz:4181.got - 2010.04.14 03:33:09.
