data_PCOD8167915
_publ_section_title
;
Structure prediction by ZEFSAII (Michael W. Deem and Ramdas Pophale) SiO2 
 PCOD8167915
Probable space group: P C C 2
;
_chemical_formula_sum "Si O2"
_cell_formula_units_Z 32
_cell_length_a 11.418422
_cell_length_b 8.741544
_cell_length_c 13.885993
_cell_angle_alpha 90.000000
_cell_angle_beta 90.000000
_cell_angle_gamma 90.000000
_cell_volume 1386.025369
_symmetry_space_group_name_H-M "P C C 2"
_symmetry_group_IT_number 27
_symmetry_cell_setting 'orthorhombic'
loop_
_space_group_symop_operation_xyz
x,y,z
-x,-y,z
-x,y,1/2+z
x,-y,1/2+z
loop_
_atom_site_type_symbol
_atom_site_label
_atom_site_fract_x
_atom_site_fract_y
_atom_site_fract_z
Si Si1 0.947903 0.661663 0.060550
Si Si2 0.792950 0.307734 0.387059
Si Si3 0.680686 0.625637 0.695647
Si Si4 0.867622 0.971858 0.381943
Si Si5 0.827455 0.146573 0.077396
Si Si6 0.466867 0.175302 0.185537
Si Si7 0.399830 0.393922 0.040238
Si Si8 0.793901 0.160509 0.695756
O O1 0.835547 0.698506 0.128133
O O2 0.000000 0.500000 0.092472
O O3 0.038598 0.796334 0.084411
O O4 0.912413 0.654122 0.946628
O O5 0.770507 0.398693 0.286342
O O6 0.797379 0.128621 0.359120
O O7 0.692063 0.358822 0.458804
O O8 0.740358 0.723639 0.611830
O O9 0.565991 0.717833 0.736291
O O10 0.647331 0.469568 0.641244
O O11 0.798096 0.885920 0.466195
O O12 0.873232 0.860128 0.290108
O O13 0.000000 0.000000 0.416460
O O14 0.805599 0.993189 0.135005
O O15 0.454948 0.232508 0.074540
O O16 0.338088 0.190277 0.233236
O O17 0.500000 0.000000 0.187316
O O18 0.500000 0.500000 0.993681
#
# Coordination Sequence:
#
# PCOD8167915 Si02
#       8
#     4   4   4   4   4   4   4   4
#     4  12  26  45  73 106 150 193 247 305 373 446
#     4  12  23  48  73 105 146 192 250 304 366 447
#     4  11  26  46  74 104 150 195 245 309 380 438
#     4  12  23  43  71 106 140 189 247 301 363 445
#     4  12  22  44  70 102 143 194 242 302 362 446
#     4  11  21  46  71 109 143 188 247 304 367 452
#     4  10  24  46  72 104 147 195 241 307 372 442
#     4  12  24  45  75 106 144 194 243 308 373 436
#
# _framework density 23.087599999999998
#
# number of rings (size 3 to 8) (size 9 to 14) (size 15 to 20)
#    0.000    0.500    6.250    1.875    0.000    1.500 
#    9.000    3.125    0.000    0.000    0.000    0.000 
#    0.000    0.000    0.000    0.000    0.000    0.000 
#
# Total GULP energy -396621.294377 kJ/mol
# GULP energy per Si atom -12394.415449 kJ/mol
# Density = 2.303505 g / cm^3
# Si number density = 23.087600 Si / 1000 Ang^3
#
#
#
# Elastic Constant Matrix: (Units=GPa)
#
#
# Indices 1 2 3 4 5 6 
#
# 1 104.2254 29.8891 23.8077 0.0000 0.0000 0.0000
# 2 29.8891 60.2040 23.2543 0.0000 0.0000 0.0000
# 3 23.8077 23.2543 119.6822 0.0000 0.0000 0.0000
# 4 0.0000 0.0000 0.0000 26.5393 0.0000 0.0000
# 5 0.0000 0.0000 0.0000 0.0000 34.6425 0.0000
# 6 0.0000 0.0000 0.0000 0.0000 0.0000 44.7334
#
#
#
# Elastic Compliance Matrix: (Units=1/GPa)
#
#
# Indices 1 2 3 4 5 6 
#
# 1 0.011360 -0.005154 -0.001258 0.000000 0.000000 0.000000
# 2 -0.005154 0.020296 -0.002918 0.000000 0.000000 0.000000
# 3 -0.001258 -0.002918 0.009173 0.000000 0.000000 0.000000
# 4 0.000000 0.000000 0.000000 0.037680 0.000000 0.000000
# 5 0.000000 0.000000 0.000000 0.000000 0.028866 0.000000
# 6 0.000000 0.000000 0.000000 0.000000 0.000000 0.022355
#
#
# Mechanical properties :
#
#
# Convention : Reuss Voigt Hill
#
# Bulk Modulus (GPa) = 45.11023 48.66820 46.88921
# Shear Modulus (GPa) = 32.09654 34.99375 33.54514
#
# Velocity S-wave (km/s) = 3.73259 3.89742 3.81589
# Velocity P-wave (km/s) = 6.17717 6.43263 6.30619
#
# Compressibility (1/GPa) = 0.02216792
#
# Stress axis : x y z
#
# Youngs Moduli (GPa) = 88.02818 49.27062 109.01764
#
# Poissons Ratio (x) = 0.25393 0.13719
# Poissons Ratio (y) = 0.45368 0.31815
# Poissons Ratio (z) = 0.11078 0.14379
#
# Static dielectric constant tensor:
#      x y z
#    x 4.523520 0.000000 0.000000 
#    y 0.000000 4.296880 0.000000 
#    z 0.000000 0.000000 4.189970 
# 
# 
# High freq. dielectric constant tensor:
#      x y z
#    x 1.922320 0.000000 0.000000 
#    y 0.000000 1.917340 0.000000 
#    z 0.000000 0.000000 1.894790 
# 
# From -- ./inp_files/3652.got.cif
#   From: 2010.03.12/outbox.cif.g09.slc.cpg/sg27_2_cif.got.tgz:3652.got - 2010.04.14 03:36:05.
