data_PCOD8167867
_publ_section_title
;
Structure prediction by ZEFSAII (Michael W. Deem and Ramdas Pophale) SiO2 
 PCOD8167867
Probable space group: P C C 2
;
_chemical_formula_sum "Si O2"
_cell_formula_units_Z 32
_cell_length_a 9.143529
_cell_length_b 15.353160
_cell_length_c 10.637087
_cell_angle_alpha 90.000000
_cell_angle_beta 90.000000
_cell_angle_gamma 90.000000
_cell_volume 1493.256225
_symmetry_space_group_name_H-M "P C C 2"
_symmetry_group_IT_number 27
_symmetry_cell_setting 'orthorhombic'
loop_
_space_group_symop_operation_xyz
x,y,z
-x,-y,z
-x,y,1/2+z
x,-y,1/2+z
loop_
_atom_site_type_symbol
_atom_site_label
_atom_site_fract_x
_atom_site_fract_y
_atom_site_fract_z
Si Si1 0.188141 0.874217 0.716250
Si Si2 0.359018 0.827850 0.474502
Si Si3 0.875991 0.151701 0.130865
Si Si4 0.426405 0.315483 0.490188
Si Si5 0.826552 0.302532 0.321740
Si Si6 0.130959 0.736907 0.905114
Si Si7 0.652263 0.035866 0.253261
Si Si8 0.437521 0.596093 0.251392
O O1 0.287672 0.874649 0.592568
O O2 0.202816 0.779450 0.780821
O O3 0.018283 0.893704 0.689278
O O4 0.249580 0.953975 0.800233
O O5 0.515655 0.783762 0.509655
O O6 0.255641 0.747989 0.433103
O O7 0.380910 0.899969 0.368121
O O8 0.834562 0.240894 0.201293
O O9 0.740059 0.085542 0.142279
O O10 0.914970 0.178658 0.988320
O O11 0.250518 0.318972 0.480000
O O12 0.481867 0.348020 0.356092
O O13 0.475381 0.372709 0.610005
O O14 0.736969 0.390380 0.281570
O O15 0.990917 0.323756 0.371412
O O16 0.500000 0.000000 0.197110
O O17 0.500000 0.500000 0.265394
#
# Coordination Sequence:
#
# PCOD8167867 Si02
#       8
#     4   4   4   4   4   4   4   4
#     4  11  23  38  60  88 128 174 231 286 348 399
#     4  10  22  40  60  90 126 173 227 278 339 413
#     4  10  21  40  60  89 125 174 227 280 339 407
#     4  11  23  41  71 100 138 178 228 278 343 427
#     4   9  20  41  65  92 129 167 222 272 328 419
#     4  11  21  38  68  95 124 178 229 275 339 406
#     4  11  25  39  56  86 126 170 226 295 345 385
#     4  11  23  43  70 104 139 177 217 279 350 419
#
# _framework density 21.429677000000002
#
# number of rings (size 3 to 8) (size 9 to 14) (size 15 to 20)
#    0.000    1.500    2.500    2.250    3.500    0.500 
#    0.000    0.625    0.000    1.500    0.000    0.000 
#    0.000    0.000    0.000    0.000    0.000    0.000 
#
# Total GULP energy -396629.792415 kJ/mol
# GULP energy per Si atom -12394.681013 kJ/mol
# Density = 2.138090 g / cm^3
# Si number density = 21.429677 Si / 1000 Ang^3
#
#
#
# Elastic Constant Matrix: (Units=GPa)
#
#
# Indices 1 2 3 4 5 6 
#
# 1 147.2510 62.8976 29.1667 0.0000 0.0000 0.0000
# 2 62.8976 92.3528 15.3681 0.0000 0.0000 0.0000
# 3 29.1667 15.3681 77.0240 0.0000 0.0000 0.0000
# 4 0.0000 0.0000 0.0000 23.2046 0.0000 0.0000
# 5 0.0000 0.0000 0.0000 0.0000 29.9832 0.0000
# 6 0.0000 0.0000 0.0000 0.0000 0.0000 39.0979
#
#
#
# Elastic Compliance Matrix: (Units=1/GPa)
#
#
# Indices 1 2 3 4 5 6 
#
# 1 0.010028 -0.006411 -0.002518 0.000000 0.000000 0.000000
# 2 -0.006411 0.015298 -0.000625 0.000000 0.000000 0.000000
# 3 -0.002518 -0.000625 0.014061 0.000000 0.000000 0.000000
# 4 0.000000 0.000000 0.000000 0.043095 0.000000 0.000000
# 5 0.000000 0.000000 0.000000 0.000000 0.033352 0.000000
# 6 0.000000 0.000000 0.000000 0.000000 0.000000 0.025577
#
#
# Mechanical properties :
#
#
# Convention : Reuss Voigt Hill
#
# Bulk Modulus (GPa) = 49.30984 59.05475 54.18229
# Shear Modulus (GPa) = 29.89018 32.40350 31.14684
#
# Velocity S-wave (km/s) = 3.73876 3.89277 3.81654
# Velocity P-wave (km/s) = 6.45738 6.91536 6.69029
#
# Compressibility (1/GPa) = 0.02027993
#
# Stress axis : x y z
#
# Youngs Moduli (GPa) = 99.71800 65.36750 71.11750
#
# Poissons Ratio (x) = 0.41906 0.17910
# Poissons Ratio (y) = 0.63927 0.04443
# Poissons Ratio (z) = 0.25112 0.04084
#
# Static dielectric constant tensor:
#      x y z
#    x 4.157980 0.000000 0.000000 
#    y 0.000000 3.567410 0.000000 
#    z 0.000000 0.000000 3.843040 
# 
# 
# High freq. dielectric constant tensor:
#      x y z
#    x 1.853910 0.000000 0.000000 
#    y 0.000000 1.801090 0.000000 
#    z 0.000000 0.000000 1.846580 
# 
# From -- ./inp_files/2446.got.cif
#   From: 2010.03.12/outbox.cif.g09.slc.cpg/sg27_2_cif.got.tgz:2446.got - 2010.04.14 03:36:05.
