data_PCOD8167435
_publ_section_title
;
Structure prediction by ZEFSAII (Michael W. Deem and Ramdas Pophale) SiO2 
 PCOD8167435
Probable space group: P M C 21
;
_chemical_formula_sum "Si O2"
_cell_formula_units_Z 32
_cell_length_a 8.961470
_cell_length_b 14.131930
_cell_length_c 14.082768
_cell_angle_alpha 90.000000
_cell_angle_beta 90.000000
_cell_angle_gamma 90.000000
_cell_volume 1783.482111
_symmetry_space_group_name_H-M "P M C 21"
_symmetry_group_IT_number 26
_symmetry_cell_setting 'orthorhombic'
loop_
_space_group_symop_operation_xyz
x,y,z
-x,-y,1/2+z
-x,y,z
x,-y,1/2+z
loop_
_atom_site_type_symbol
_atom_site_label
_atom_site_fract_x
_atom_site_fract_y
_atom_site_fract_z
Si Si1 0.326145 0.149930 0.190200
Si Si2 0.824152 0.141478 0.672835
Si Si3 0.824932 0.505769 0.336350
Si Si4 0.674395 0.015812 0.824940
Si Si5 0.677104 0.998211 0.539944
Si Si6 0.826119 0.640896 0.165461
Si Si7 0.675295 0.359667 0.206824
Si Si8 0.325747 0.496614 0.035515
O O1 0.500000 0.165457 0.175307
O O2 0.255075 0.254013 0.199033
O O3 0.291065 0.088420 0.283760
O O4 0.264566 0.092799 0.098886
O O5 0.764327 0.096075 0.769838
O O6 0.751436 0.092751 0.580994
O O7 0.777006 0.250682 0.672488
O O8 0.000000 0.128107 0.668479
O O9 0.785484 0.591633 0.265355
O O10 0.758213 0.409037 0.294382
O O11 0.752760 0.529483 0.437205
O O12 0.000000 0.492737 0.349876
O O13 0.500000 0.039527 0.815004
O O14 0.729353 0.016499 0.932730
O O15 0.500000 0.010563 0.549376
O O16 0.736316 0.594157 0.078818
O O17 0.000000 0.629227 0.142493
O O18 0.500000 0.360136 0.229961
O O19 0.709823 0.411597 0.107907
O O20 0.500000 0.508829 0.017045
#
# Coordination Sequence:
#
# PCOD8167435 Si02
#       8
#     4   4   4   4   4   4   4   4
#     4   8  15  30  50  72 100 130 161 201 246 290
#     4  10  20  34  52  75 103 133 169 212 251 292
#     4  10  20  35  53  72 100 134 164 201 251 307
#     4   9  18  33  53  75 101 134 168 202 246 301
#     4   9  18  33  52  75 102 134 170 204 247 301
#     4   9  20  37  53  72 102 139 172 203 248 303
#     4   9  18  33  51  72  99 130 167 210 248 287
#     4  10  20  33  52  77 101 128 167 213 253 291
#
# _framework density 17.942429000000001
#
# number of rings (size 3 to 8) (size 9 to 14) (size 15 to 20)
#    0.000    2.750    0.000    1.875    0.000    4.500 
#    0.000    5.000    0.000    0.000    0.000    0.000 
#    0.000    0.000    0.000    0.000    0.000    0.000 
#
# Total GULP energy -396819.996583 kJ/mol
# GULP energy per Si atom -12400.624893 kJ/mol
# Density = 1.790159 g / cm^3
# Si number density = 17.942429 Si / 1000 Ang^3
#
#
#
# Elastic Constant Matrix: (Units=GPa)
#
#
# Indices 1 2 3 4 5 6 
#
# 1 50.8751 26.2987 24.7929 0.0000 0.0000 0.0000
# 2 26.2987 110.5256 9.6443 0.0000 0.0000 0.0000
# 3 24.7929 9.6443 80.9855 0.0000 0.0000 0.0000
# 4 0.0000 0.0000 0.0000 13.4504 0.0000 0.0000
# 5 0.0000 0.0000 0.0000 0.0000 29.1653 0.0000
# 6 0.0000 0.0000 0.0000 0.0000 0.0000 25.7771
#
#
#
# Elastic Compliance Matrix: (Units=1/GPa)
#
#
# Indices 1 2 3 4 5 6 
#
# 1 0.026108 -0.005573 -0.007329 0.000000 0.000000 0.000000
# 2 -0.005573 0.010332 0.000476 0.000000 0.000000 0.000000
# 3 -0.007329 0.000476 0.014535 0.000000 0.000000 0.000000
# 4 0.000000 0.000000 0.000000 0.074347 0.000000 0.000000
# 5 0.000000 0.000000 0.000000 0.000000 0.034287 0.000000
# 6 0.000000 0.000000 0.000000 0.000000 0.000000 0.038794
#
#
# Mechanical properties :
#
#
# Convention : Reuss Voigt Hill
#
# Bulk Modulus (GPa) = 38.28054 40.42866 39.35460
# Shear Modulus (GPa) = 21.55504 25.78858 23.67181
#
# Velocity S-wave (km/s) = 3.46980 3.79528 3.63619
# Velocity P-wave (km/s) = 6.11835 6.46428 6.29369
#
# Compressibility (1/GPa) = 0.02612294
#
# Stress axis : x y z
#
# Youngs Moduli (GPa) = 38.30186 96.78509 68.79937
#
# Poissons Ratio (x) = 0.53936 0.50424
# Poissons Ratio (y) = 0.21345 -0.03272
# Poissons Ratio (z) = 0.28072 -0.04603
#
# Static dielectric constant tensor:
#      x y z
#    x 3.190230 0.000000 0.000000 
#    y 0.000000 3.454700 0.000000 
#    z 0.000000 0.000000 3.394730 
# 
# 
# High freq. dielectric constant tensor:
#      x y z
#    x 1.682880 0.000000 0.000000 
#    y 0.000000 1.696620 0.000000 
#    z 0.000000 0.000000 1.698330 
# 
# From -- ./inp_files/4338.got.cif
#   From: 2010.03.12/outbox.cif.g09.slc.cpg/sg26_3_cif.got.tgz:4338.got - 2010.04.14 03:33:09.
