data_PCOD8167878
_publ_section_title
;
Structure prediction by ZEFSAII (Michael W. Deem and Ramdas Pophale) SiO2 
 PCOD8167878
Probable space group: P C C 2
;
_chemical_formula_sum "Si O2"
_cell_formula_units_Z 32
_cell_length_a 13.493335
_cell_length_b 9.802116
_cell_length_c 9.688658
_cell_angle_alpha 90.000000
_cell_angle_beta 90.000000
_cell_angle_gamma 90.000000
_cell_volume 1281.453249
_symmetry_space_group_name_H-M "P C C 2"
_symmetry_group_IT_number 27
_symmetry_cell_setting 'orthorhombic'
loop_
_space_group_symop_operation_xyz
x,y,z
-x,-y,z
-x,y,1/2+z
x,-y,1/2+z
loop_
_atom_site_type_symbol
_atom_site_label
_atom_site_fract_x
_atom_site_fract_y
_atom_site_fract_z
Si Si1 0.384605 0.721401 0.371600
Si Si2 0.904461 0.216357 0.263981
Si Si3 0.844196 0.522268 0.211390
Si Si4 0.620245 0.989365 0.417138
Si Si5 0.255980 0.998070 0.175179
Si Si6 0.085979 0.795881 0.585868
Si Si7 0.539902 0.648203 0.584237
Si Si8 0.722212 0.459817 0.958820
O O1 0.328782 0.862656 0.388814
O O2 0.460266 0.730812 0.498974
O O3 0.440460 0.724083 0.226016
O O4 0.307553 0.599813 0.381956
O O5 0.900979 0.380101 0.236668
O O6 0.934044 0.194686 0.423033
O O7 0.990017 0.149887 0.168283
O O8 0.803669 0.136873 0.225678
O O9 0.905351 0.636846 0.130413
O O10 0.809058 0.592124 0.357281
O O11 0.750563 0.488160 0.115747
O O12 0.666505 0.936987 0.560557
O O13 0.500000 0.000000 0.412206
O O14 0.674857 0.918307 0.286361
O O15 0.181566 0.113565 0.120766
O O16 0.500000 0.500000 0.622695
O O17 0.630669 0.643221 0.473986
#
# Coordination Sequence:
#
# PCOD8167878 Si02
#       8
#     4   4   4   4   4   4   4   4
#     4  11  24  42  63  95 144 187 253 316 370 444
#     4  12  29  52  80 117 156 198 258 318 381 459
#     4  12  25  45  75 111 155 191 243 310 384 449
#     4  12  29  49  74 108 146 198 258 313 378 447
#     4  12  28  54  79 109 155 205 257 314 380 463
#     4  12  29  52  80 117 155 200 257 318 382 458
#     4  10  22  38  63  96 137 195 249 305 377 444
#     4  11  22  40  66 103 145 197 243 304 373 459
#
# _framework density 24.971647000000001
#
# number of rings (size 3 to 8) (size 9 to 14) (size 15 to 20)
#    0.000    0.500    3.750    3.750    8.750    3.000 
#    0.000    0.000    0.000    0.000    0.000    0.000 
#    0.000    0.000    0.000    0.000    0.000    0.000 
#
# Total GULP energy -396560.108347 kJ/mol
# GULP energy per Si atom -12392.503386 kJ/mol
# Density = 2.491481 g / cm^3
# Si number density = 24.971647 Si / 1000 Ang^3
#
#
#
# Elastic Constant Matrix: (Units=GPa)
#
#
# Indices 1 2 3 4 5 6 
#
# 1 111.6692 -1.3581 39.4323 0.0000 0.0000 0.0000
# 2 -1.3581 62.9638 17.6991 0.0000 0.0000 0.0000
# 3 39.4323 17.6991 163.3135 0.0000 0.0000 0.0000
# 4 0.0000 0.0000 0.0000 32.2512 0.0000 0.0000
# 5 0.0000 0.0000 0.0000 0.0000 41.1750 0.0000
# 6 0.0000 0.0000 0.0000 0.0000 0.0000 -12.0601
#
#
#
# Elastic Compliance Matrix: (Units=1/GPa)
#
#
# Indices 1 2 3 4 5 6 
#
# 1 0.009840 0.000908 -0.002474 0.000000 0.000000 0.000000
# 2 0.000908 0.016465 -0.002004 0.000000 0.000000 0.000000
# 3 -0.002474 -0.002004 0.006938 0.000000 0.000000 0.000000
# 4 0.000000 0.000000 0.000000 0.031007 0.000000 0.000000
# 5 0.000000 0.000000 0.000000 0.000000 0.024287 0.000000
# 6 0.000000 0.000000 0.000000 0.000000 0.000000 -0.082918
#
#
# Mechanical properties :
#
#
# Convention : Reuss Voigt Hill
#
# Bulk Modulus (GPa) = 38.31074 49.94368 44.12721
# Shear Modulus (GPa) = 233.01111 31.08477 132.04794
#
# Velocity S-wave (km/s) = 9.67020 3.53200 7.27969
# Velocity P-wave (km/s) = 11.83464 6.05615 9.40042
#
# Compressibility (1/GPa) = 0.02610234
#
# Stress axis : x y z
#
# Youngs Moduli (GPa) = 101.62867 60.73517 144.13946
#
# Poissons Ratio (x) = -0.05513 0.35663
# Poissons Ratio (y) = -0.09225 0.28879
# Poissons Ratio (z) = 0.25145 0.12169
#
# Static dielectric constant tensor:
#      x y z
#    x 4.525640 0.000000 0.000000 
#    y 0.000000 3.929870 0.000000 
#    z 0.000000 0.000000 4.705420 
# 
# 
# High freq. dielectric constant tensor:
#      x y z
#    x 2.002020 0.000000 0.000000 
#    y 0.000000 1.990110 0.000000 
#    z 0.000000 0.000000 2.014440 
# 
# From -- ./inp_files/1616.got.cif
#   From: 2010.03.12/outbox.cif.g09.slc.cpg/sg27_1_cif.got.tgz:1616.got - 2010.04.14 03:36:05.
