data_PCOD8167895
_publ_section_title
;
Structure prediction by ZEFSAII (Michael W. Deem and Ramdas Pophale) SiO2 
 PCOD8167895
Probable space group: P C C 2
;
_chemical_formula_sum "Si O2"
_cell_formula_units_Z 20
_cell_length_a 5.097319
_cell_length_b 8.768829
_cell_length_c 18.315502
_cell_angle_alpha 90.000000
_cell_angle_beta 90.000000
_cell_angle_gamma 90.000000
_cell_volume 818.657493
_symmetry_space_group_name_H-M "P C C 2"
_symmetry_group_IT_number 27
_symmetry_cell_setting 'orthorhombic'
loop_
_space_group_symop_operation_xyz
x,y,z
-x,-y,z
-x,y,1/2+z
x,-y,1/2+z
loop_
_atom_site_type_symbol
_atom_site_label
_atom_site_fract_x
_atom_site_fract_y
_atom_site_fract_z
Si Si1 0.074006 0.326849 0.930140
Si Si2 0.751723 0.607870 0.080239
Si Si3 0.250128 0.605741 0.278355
Si Si4 0.255161 0.898986 0.857421
Si Si5 0.443839 0.172671 0.200683
O O1 0.253083 0.308838 0.857361
O O2 0.000000 0.500000 0.938239
O O3 0.806543 0.229811 0.918542
O O4 0.219717 0.290328 0.006046
O O5 0.500000 0.500000 0.074878
O O6 0.726816 0.736129 0.142241
O O7 0.000000 0.500000 0.097358
O O8 0.500000 0.500000 0.270753
O O9 0.280358 0.737930 0.216595
O O10 0.000000 0.500000 0.264412
O O11 0.291240 0.823624 0.778018
O O12 0.500000 0.000000 0.883945
O O13 0.000000 0.000000 0.852799
O O14 0.500000 0.000000 0.174343
#
# Coordination Sequence:
#
# PCOD8167895 Si02
#       5
#     4   4   4   4   4
#     4  10  22  45  74 102 138 185 241 292 348 421
#     4  11  27  48  70 103 146 191 237 293 355 423
#     4  11  23  41  73 108 137 181 239 297 353 416
#     4  11  25  44  72 107 143 180 231 297 361 419
#     4  11  25  46  74 108 147 187 237 293 354 425
#
# _framework density 24.430240000000001
#
# number of rings (size 3 to 8) (size 9 to 14) (size 15 to 20)
#    0.000    1.200    0.000    6.000    0.000   15.200 
#    0.000    9.000    0.000    6.000    0.000    0.000 
#    0.000    0.000    0.000    0.000    0.000    0.000 
#
# Total GULP energy -247904.009562 kJ/mol
# GULP energy per Si atom -12395.200478 kJ/mol
# Density = 2.437464 g / cm^3
# Si number density = 24.430240 Si / 1000 Ang^3
#
#
#
# Elastic Constant Matrix: (Units=GPa)
#
#
# Indices 1 2 3 4 5 6 
#
# 1 166.9539 88.4274 58.9176 0.0000 0.0000 0.0000
# 2 88.4274 172.3986 88.5600 0.0000 0.0000 0.0000
# 3 58.9176 88.5600 149.5403 0.0000 0.0000 0.0000
# 4 0.0000 0.0000 0.0000 47.9545 0.0000 0.0000
# 5 0.0000 0.0000 0.0000 0.0000 42.1348 0.0000
# 6 0.0000 0.0000 0.0000 0.0000 0.0000 27.2007
#
#
#
# Elastic Compliance Matrix: (Units=1/GPa)
#
#
# Indices 1 2 3 4 5 6 
#
# 1 0.008344 -0.003724 -0.001082 0.000000 0.000000 0.000000
# 2 -0.003724 0.009999 -0.004454 0.000000 0.000000 0.000000
# 3 -0.001082 -0.004454 0.009751 0.000000 0.000000 0.000000
# 4 0.000000 0.000000 0.000000 0.020853 0.000000 0.000000
# 5 0.000000 0.000000 0.000000 0.000000 0.023733 0.000000
# 6 0.000000 0.000000 0.000000 0.000000 0.000000 0.036764
#
#
# Mechanical properties :
#
#
# Convention : Reuss Voigt Hill
#
# Bulk Modulus (GPa) = 104.45423 106.74475 105.59949
# Shear Modulus (GPa) = 38.12265 40.32387 39.22326
#
# Velocity S-wave (km/s) = 3.95456 4.06713 4.01124
# Velocity P-wave (km/s) = 7.98125 8.11443 8.04812
#
# Compressibility (1/GPa) = 0.00957357
#
# Stress axis : x y z
#
# Youngs Moduli (GPa) = 119.84753 100.01302 102.55036
#
# Poissons Ratio (x) = 0.37244 0.11096
# Poissons Ratio (y) = 0.44631 0.45678
# Poissons Ratio (z) = 0.12968 0.44548
#
# Static dielectric constant tensor:
#      x y z
#    x 4.541820 0.000000 0.000000 
#    y 0.000000 3.585090 0.000000 
#    z 0.000000 0.000000 5.423070 
# 
# 
# High freq. dielectric constant tensor:
#      x y z
#    x 1.976640 0.000000 0.000000 
#    y 0.000000 1.987930 0.000000 
#    z 0.000000 0.000000 1.961080 
# 
# From -- ./inp_files/3916.got.cif
#   From: 2010.03.12/outbox.cif.g09.slc.cpg/sg27_2_cif.got.tgz:3916.got - 2010.04.14 03:36:05.
