data_PCOD8167998
_publ_section_title
;
Structure prediction by ZEFSAII (Michael W. Deem and Ramdas Pophale) SiO2 
 PCOD8167998
Probable space group: P M A 2
;
_chemical_formula_sum "Si O2"
_cell_formula_units_Z 32
_cell_length_a 27.348240
_cell_length_b 12.773849
_cell_length_c 4.960009
_cell_angle_alpha 90.000000
_cell_angle_beta 90.000000
_cell_angle_gamma 90.000000
_cell_volume 1732.740893
_symmetry_space_group_name_H-M "P M A 2"
_symmetry_group_IT_number 28
_symmetry_cell_setting 'orthorhombic'
loop_
_space_group_symop_operation_xyz
x,y,z
-x,-y,z
1/2-x,y,z
1/2+x,-y,z
loop_
_atom_site_type_symbol
_atom_site_label
_atom_site_fract_x
_atom_site_fract_y
_atom_site_fract_z
Si Si1 0.193688 0.574524 0.298330
Si Si2 0.573475 0.162349 0.704948
Si Si3 0.475714 0.276758 0.811845
Si Si4 0.081510 0.461290 0.694593
Si Si5 0.919774 0.801003 0.313049
Si Si6 0.365535 0.387752 0.194232
Si Si7 0.362534 0.652673 0.798932
Si Si8 0.943099 0.026511 0.203552
O O1 0.250000 0.599586 0.246589
O O2 0.185028 0.448383 0.262596
O O3 0.178967 0.611871 0.595452
O O4 0.159595 0.640193 0.095734
O O5 0.530600 0.244746 0.755246
O O6 0.623835 0.226005 0.750372
O O7 0.572267 0.119558 0.402396
O O8 0.568693 0.063419 0.902239
O O9 0.470010 0.403405 0.765329
O O10 0.438545 0.214506 0.616429
O O11 0.461771 0.244515 0.115210
O O12 0.092780 0.444057 0.378981
O O13 0.087128 0.584096 0.765565
O O14 0.122368 0.401923 0.879189
O O15 0.868626 0.736606 0.265811
O O16 0.910698 0.923575 0.260844
O O17 0.000000 0.000000 0.240011
#
# Coordination Sequence:
#
# PCOD8167998 Si02
#       8
#     4   4   4   4   4   4   4   4
#     4  10  19  36  59  79  98 123 156 200 262 330
#     4  12  22  32  48  71 104 138 180 220 240 287
#     4  10  17  29  46  68  93 139 175 206 245 283
#     4   8  16  29  46  65  99 132 163 195 243 295
#     4  10  18  30  47  67 100 131 176 215 249 276
#     4   8  16  29  48  74  96 121 154 205 248 300
#     4  10  21  35  49  77 107 128 162 210 256 308
#     4  12  21  33  48  70  98 147 191 220 241 273
#
# _framework density 18.467852000000001
#
# number of rings (size 3 to 8) (size 9 to 14) (size 15 to 20)
#    0.000    2.000    2.500    2.250    0.000    0.500 
#    0.000    0.000    0.000   10.500    0.000    5.250 
#    0.000    0.000    0.000    0.000    0.000    0.000 
#
# Total GULP energy -396571.844059 kJ/mol
# GULP energy per Si atom -12392.870127 kJ/mol
# Density = 1.842582 g / cm^3
# Si number density = 18.467852 Si / 1000 Ang^3
#
#
#
# Elastic Constant Matrix: (Units=GPa)
#
#
# Indices 1 2 3 4 5 6 
#
# 1 41.9620 28.8259 2.2556 0.0000 0.0000 0.0000
# 2 28.8259 90.1932 3.9538 0.0000 0.0000 0.0000
# 3 2.2556 3.9538 68.1703 0.0000 0.0000 0.0000
# 4 0.0000 0.0000 0.0000 27.2083 0.0000 0.0000
# 5 0.0000 0.0000 0.0000 0.0000 13.9170 0.0000
# 6 0.0000 0.0000 0.0000 0.0000 0.0000 15.4883
#
#
#
# Elastic Compliance Matrix: (Units=1/GPa)
#
#
# Indices 1 2 3 4 5 6 
#
# 1 0.030549 -0.009744 -0.000446 0.000000 0.000000 0.000000
# 2 -0.009744 0.014223 -0.000503 0.000000 0.000000 0.000000
# 3 -0.000446 -0.000503 0.014713 0.000000 0.000000 0.000000
# 4 0.000000 0.000000 0.000000 0.036753 0.000000 0.000000
# 5 0.000000 0.000000 0.000000 0.000000 0.071855 0.000000
# 6 0.000000 0.000000 0.000000 0.000000 0.000000 0.064565
#
#
# Mechanical properties :
#
#
# Convention : Reuss Voigt Hill
#
# Bulk Modulus (GPa) = 26.24599 30.04400 28.14499
# Shear Modulus (GPa) = 18.74467 22.34207 20.54337
#
# Velocity S-wave (km/s) = 3.18935 3.48196 3.33886
# Velocity P-wave (km/s) = 5.27306 5.69816 5.48972
#
# Compressibility (1/GPa) = 0.03810106
#
# Stress axis : x y z
#
# Youngs Moduli (GPa) = 32.73472 70.30624 67.96693
#
# Poissons Ratio (x) = 0.68505 0.03029
# Poissons Ratio (y) = 0.31896 0.03416
# Poissons Ratio (z) = 0.01459 0.03533
#
# Static dielectric constant tensor:
#      x y z
#    x 2.899990 0.000000 0.000000 
#    y 0.000000 3.513700 0.000000 
#    z 0.000000 0.000000 3.508760 
# 
# 
# High freq. dielectric constant tensor:
#      x y z
#    x 1.647710 0.000000 0.000000 
#    y 0.000000 1.713970 0.000000 
#    z 0.000000 0.000000 1.741060 
# 
# From -- ./inp_files/1612.got.cif
#   From: 2010.03.12/outbox.cif.g09.slc.cpg/sg28_1_cif.got.tgz:1612.got - 2010.04.14 03:39:34.
