data_PCOD8167340
_publ_section_title
;
Structure prediction by ZEFSAII (Michael W. Deem and Ramdas Pophale) SiO2 
 PCOD8167340
Probable space group: P M C 21
;
_chemical_formula_sum "Si O2"
_cell_formula_units_Z 32
_cell_length_a 8.987385
_cell_length_b 11.997586
_cell_length_c 14.298202
_cell_angle_alpha 90.000000
_cell_angle_beta 90.000000
_cell_angle_gamma 90.000000
_cell_volume 1541.731147
_symmetry_space_group_name_H-M "P M C 21"
_symmetry_group_IT_number 26
_symmetry_cell_setting 'orthorhombic'
loop_
_space_group_symop_operation_xyz
x,y,z
-x,-y,1/2+z
-x,y,z
x,-y,1/2+z
loop_
_atom_site_type_symbol
_atom_site_label
_atom_site_fract_x
_atom_site_fract_y
_atom_site_fract_z
Si Si1 0.328526 0.662195 0.196160
Si Si2 0.667494 0.819871 0.451990
Si Si3 0.672947 0.501562 0.538722
Si Si4 0.170237 0.958554 0.963440
Si Si5 0.665597 0.281340 0.146132
Si Si6 0.830233 0.886958 0.762216
Si Si7 0.325012 0.912850 0.154831
Si Si8 0.824076 0.603011 0.374463
O O1 0.500000 0.642534 0.222882
O O2 0.298668 0.615000 0.091526
O O3 0.287019 0.792815 0.200443
O O4 0.228509 0.589220 0.267381
O O5 0.500000 0.827673 0.410435
O O6 0.661623 0.810399 0.563877
O O7 0.750437 0.716256 0.408327
O O8 0.760370 0.927480 0.425295
O O9 0.500000 0.521717 0.514021
O O10 0.727714 0.601644 0.606906
O O11 0.765245 0.503352 0.441627
O O12 0.183621 0.877187 0.874342
O O13 0.000000 0.977926 0.993440
O O14 0.258832 0.910446 0.050849
O O15 0.500000 0.297958 0.187701
O O16 0.771872 0.232276 0.225900
O O17 0.000000 0.903378 0.730626
O O18 0.739660 0.990674 0.719996
O O19 0.500000 0.931063 0.145287
O O20 0.000000 0.608310 0.380240
#
# Coordination Sequence:
#
# PCOD8167340 Si02
#       8
#     4   4   4   4   4   4   4   4
#     4  10  22  42  65  88 118 159 207 253 297 353
#     4  10  19  34  58  85 114 151 197 247 288 341
#     4   9  20  41  65  87 115 153 202 256 301 348
#     4  11  23  37  55  84 121 161 195 237 301 362
#     4   9  18  34  58  84 108 141 190 244 293 341
#     4  11  23  37  56  84 120 159 193 235 296 362
#     4  11  23  39  61  89 119 157 201 249 298 350
#     4  11  22  36  60  93 123 157 199 247 304 361
#
# _framework density 20.755889
#
# number of rings (size 3 to 8) (size 9 to 14) (size 15 to 20)
#    0.000    1.750    1.250    4.125    0.000    7.500 
#    2.250    0.000    0.000    0.000    0.000    0.000 
#    0.000    0.000    0.000    0.000    0.000    0.000 
#
# Total GULP energy -396822.540029 kJ/mol
# GULP energy per Si atom -12400.704376 kJ/mol
# Density = 2.070865 g / cm^3
# Si number density = 20.755889 Si / 1000 Ang^3
#
#
#
# Elastic Constant Matrix: (Units=GPa)
#
#
# Indices 1 2 3 4 5 6 
#
# 1 122.8002 18.3758 43.0462 0.0000 0.0000 0.0000
# 2 18.3758 35.8937 3.6196 0.0000 0.0000 0.0000
# 3 43.0462 3.6196 86.8327 0.0000 0.0000 0.0000
# 4 0.0000 0.0000 0.0000 13.2495 0.0000 0.0000
# 5 0.0000 0.0000 0.0000 0.0000 35.2482 0.0000
# 6 0.0000 0.0000 0.0000 0.0000 0.0000 18.4198
#
#
#
# Elastic Compliance Matrix: (Units=1/GPa)
#
#
# Indices 1 2 3 4 5 6 
#
# 1 0.010665 -0.004947 -0.005081 0.000000 0.000000 0.000000
# 2 -0.004947 0.030273 0.001191 0.000000 0.000000 0.000000
# 3 -0.005081 0.001191 0.013985 0.000000 0.000000 0.000000
# 4 0.000000 0.000000 0.000000 0.075475 0.000000 0.000000
# 5 0.000000 0.000000 0.000000 0.000000 0.028370 0.000000
# 6 0.000000 0.000000 0.000000 0.000000 0.000000 0.054289
#
#
# Mechanical properties :
#
#
# Convention : Reuss Voigt Hill
#
# Bulk Modulus (GPa) = 26.84696 41.73442 34.29069
# Shear Modulus (GPa) = 20.56364 25.41584 22.98974
#
# Velocity S-wave (km/s) = 3.15101 3.50310 3.33171
# Velocity P-wave (km/s) = 5.11871 6.04261 5.59975
#
# Compressibility (1/GPa) = 0.03724816
#
# Stress axis : x y z
#
# Youngs Moduli (GPa) = 93.76842 33.03298 71.50311
#
# Poissons Ratio (x) = 0.16343 0.36328
# Poissons Ratio (y) = 0.46391 -0.08514
# Poissons Ratio (z) = 0.47640 -0.03933
#
# Static dielectric constant tensor:
#      x y z
#    x 3.763490 0.000000 0.000000 
#    y 0.000000 4.025150 0.000000 
#    z 0.000000 0.000000 3.884480 
# 
# 
# High freq. dielectric constant tensor:
#      x y z
#    x 1.811410 0.000000 0.000000 
#    y 0.000000 1.795300 0.000000 
#    z 0.000000 0.000000 1.815050 
# 
# From -- ./inp_files/4300.got.cif
#   From: 2010.03.12/outbox.cif.g09.slc.cpg/sg26_3_cif.got.tgz:4300.got - 2010.04.14 03:33:09.
