data_PCOD8167624
_publ_section_title
;
Structure prediction by ZEFSAII (Michael W. Deem and Ramdas Pophale) SiO2 
 PCOD8167624
Probable space group: P M C 21
;
_chemical_formula_sum "Si O2"
_cell_formula_units_Z 32
_cell_length_a 9.355542
_cell_length_b 7.673522
_cell_length_c 23.366004
_cell_angle_alpha 90.000000
_cell_angle_beta 90.000000
_cell_angle_gamma 90.000000
_cell_volume 1677.444431
_symmetry_space_group_name_H-M "P M C 21"
_symmetry_group_IT_number 26
_symmetry_cell_setting 'orthorhombic'
loop_
_space_group_symop_operation_xyz
x,y,z
-x,-y,1/2+z
-x,y,z
x,-y,1/2+z
loop_
_atom_site_type_symbol
_atom_site_label
_atom_site_fract_x
_atom_site_fract_y
_atom_site_fract_z
Si Si1 0.836263 0.771895 0.704220
Si Si2 0.836031 0.764413 0.838994
Si Si3 0.337571 0.918869 0.531416
Si Si4 0.162465 0.413502 0.031397
Si Si5 0.164111 0.414038 0.645245
Si Si6 0.330625 0.063187 0.902502
Si Si7 0.334961 0.081253 0.648090
Si Si8 0.833124 0.584495 0.402410
O O1 0.816896 0.759267 0.771639
O O2 0.788050 0.588973 0.677269
O O3 0.000000 0.813798 0.687319
O O4 0.734601 0.920576 0.680573
O O5 0.787918 0.576211 0.862663
O O6 0.000000 0.803058 0.856869
O O7 0.734243 0.912929 0.863556
O O8 0.500000 0.855999 0.528799
O O9 0.250293 0.752504 0.551831
O O10 0.290856 0.984045 0.468409
O O11 0.314922 0.066896 0.579254
O O12 0.189189 0.567598 0.076798
O O13 0.000000 0.350740 0.033929
O O14 0.203144 0.474151 0.967507
O O15 0.260479 0.258037 0.668942
O O16 0.000000 0.369225 0.659227
O O17 0.500000 0.074014 0.892255
O O18 0.260305 0.247739 0.885169
O O19 0.500000 0.088311 0.665525
O O20 0.000000 0.632097 0.394856
#
# Coordination Sequence:
#
# PCOD8167624 Si02
#       8
#     4   4   4   4   4   4   4   4
#     4  10  22  42  61  80 111 150 193 238 284 336
#     4  10  22  39  61  84 110 149 193 236 283 339
#     4   9  19  35  54  81 119 155 185 225 284 342
#     4   9  17  32  56  84 114 146 186 235 282 330
#     4  10  21  36  57  85 114 149 190 236 286 337
#     4  10  21  37  57  85 119 153 188 231 283 340
#     4  11  23  37  57  86 117 152 190 233 285 342
#     4   9  19  36  57  85 116 148 189 236 283 334
#
# _framework density 19.076637999999999
#
# number of rings (size 3 to 8) (size 9 to 14) (size 15 to 20)
#    0.000    2.250    1.250    0.750    1.750    4.000 
#    0.000    2.500    0.000    0.000    0.000    0.000 
#    0.000    0.000    0.000    0.000    0.000    0.000 
#
# Total GULP energy -396818.083940 kJ/mol
# GULP energy per Si atom -12400.565123 kJ/mol
# Density = 1.903322 g / cm^3
# Si number density = 19.076638 Si / 1000 Ang^3
#
#
#
# Elastic Constant Matrix: (Units=GPa)
#
#
# Indices 1 2 3 4 5 6 
#
# 1 94.7283 82.4156 43.0742 0.0000 0.0000 0.0000
# 2 82.4156 149.2346 56.9652 0.0000 0.0000 0.0000
# 3 43.0742 56.9652 79.4851 0.0000 0.0000 0.0000
# 4 0.0000 0.0000 0.0000 16.5382 0.0000 0.0000
# 5 0.0000 0.0000 0.0000 0.0000 24.8196 0.0000
# 6 0.0000 0.0000 0.0000 0.0000 0.0000 36.5695
#
#
#
# Elastic Compliance Matrix: (Units=1/GPa)
#
#
# Indices 1 2 3 4 5 6 
#
# 1 0.021332 -0.010143 -0.004291 0.000000 0.000000 0.000000
# 2 -0.010143 0.014047 -0.004571 0.000000 0.000000 0.000000
# 3 -0.004291 -0.004571 0.018182 0.000000 0.000000 0.000000
# 4 0.000000 0.000000 0.000000 0.060466 0.000000 0.000000
# 5 0.000000 0.000000 0.000000 0.000000 0.040291 0.000000
# 6 0.000000 0.000000 0.000000 0.000000 0.000000 0.027345
#
#
# Mechanical properties :
#
#
# Convention : Reuss Voigt Hill
#
# Bulk Modulus (GPa) = 64.29983 76.48423 70.39203
# Shear Modulus (GPa) = 22.23641 24.98498 23.61069
#
# Velocity S-wave (km/s) = 3.41784 3.62293 3.52188
# Velocity P-wave (km/s) = 7.02530 7.59480 7.31559
#
# Compressibility (1/GPa) = 0.01555214
#
# Stress axis : x y z
#
# Youngs Moduli (GPa) = 46.87743 71.18973 54.99936
#
# Poissons Ratio (x) = 0.72207 0.23601
# Poissons Ratio (y) = 0.47547 0.25138
# Poissons Ratio (z) = 0.20116 0.32538
#
# Static dielectric constant tensor:
#      x y z
#    x 3.508940 0.000000 0.000000 
#    y 0.000000 3.338190 0.000000 
#    z 0.000000 0.000000 3.605570 
# 
# 
# High freq. dielectric constant tensor:
#      x y z
#    x 1.740000 0.000000 0.000000 
#    y 0.000000 1.734270 0.000000 
#    z 0.000000 0.000000 1.744450 
# 
# From -- ./inp_files/5575.got.cif
#   From: 2010.03.12/outbox.cif.g09.slc.cpg/sg26_3_cif.got.tgz:5575.got - 2010.04.14 03:33:09.
