data_PCOD8167862
_publ_section_title
;
Structure prediction by ZEFSAII (Michael W. Deem and Ramdas Pophale) SiO2 
 PCOD8167862
Probable space group: P C C 2
;
_chemical_formula_sum "Si O2"
_cell_formula_units_Z 28
_cell_length_a 12.609921
_cell_length_b 4.987743
_cell_length_c 22.416357
_cell_angle_alpha 90.000000
_cell_angle_beta 90.000000
_cell_angle_gamma 90.000000
_cell_volume 1409.877787
_symmetry_space_group_name_H-M "P C C 2"
_symmetry_group_IT_number 27
_symmetry_cell_setting 'orthorhombic'
loop_
_space_group_symop_operation_xyz
x,y,z
-x,-y,z
-x,y,1/2+z
x,-y,1/2+z
loop_
_atom_site_type_symbol
_atom_site_label
_atom_site_fract_x
_atom_site_fract_y
_atom_site_fract_z
Si Si1 0.120470 0.037115 0.308710
Si Si2 0.124477 0.492832 0.002904
Si Si3 0.567949 0.265901 0.340746
Si Si4 0.123777 0.003325 0.578047
Si Si5 0.199837 0.435091 0.874979
Si Si6 0.609315 0.415491 0.206275
Si Si7 0.745560 0.059319 0.693854
O O1 0.163107 0.327446 0.330279
O O2 0.193591 0.954185 0.252658
O O3 0.125708 0.820130 0.361959
O O4 0.000000 0.000000 0.286349
O O5 0.186911 0.544478 0.941738
O O6 0.000000 0.500000 0.988832
O O7 0.158716 0.707419 0.053241
O O8 0.157518 0.203933 0.027011
O O9 0.500000 0.500000 0.370305
O O10 0.684276 0.301705 0.367946
O O11 0.576850 0.297727 0.270165
O O12 0.500000 0.000000 0.356168
O O13 0.175050 0.907327 0.639393
O O14 0.000000 0.000000 0.590939
O O15 0.500000 0.500000 0.173039
O O16 0.689426 0.662909 0.209885
O O17 0.662945 0.167755 0.172185
#
# Coordination Sequence:
#
# PCOD8167862 Si02
#       7
#     4   4   4   4   4   4   4
#     4  12  23  36  56  91 127 156 186 244 317 373
#     4  10  21  39  60  84 116 161 209 243 284 356
#     4  11  21  37  59  86 120 158 200 247 299 366
#     4  10  22  39  61  86 116 161 206 242 288 358
#     4  12  23  39  60  89 122 159 199 251 306 364
#     4  11  22  37  60  87 121 154 200 242 297 367
#     4  12  21  39  59  89 122 154 195 248 304 361
#
# _framework density 19.859876
#
# number of rings (size 3 to 8) (size 9 to 14) (size 15 to 20)
#    0.000    0.857    2.857    6.429    0.000    1.143 
#    0.000    4.286    0.000    8.571    0.000    0.000 
#    0.000    0.000    0.000    0.000    0.000    0.000 
#
# Total GULP energy -347040.550607 kJ/mol
# GULP energy per Si atom -12394.305379 kJ/mol
# Density = 1.981467 g / cm^3
# Si number density = 19.859876 Si / 1000 Ang^3
#
#
#
# Elastic Constant Matrix: (Units=GPa)
#
#
# Indices 1 2 3 4 5 6 
#
# 1 84.2931 47.7348 33.9891 0.0000 0.0000 0.0000
# 2 47.7348 131.9325 19.5895 0.0000 0.0000 0.0000
# 3 33.9891 19.5895 75.2625 0.0000 0.0000 0.0000
# 4 0.0000 0.0000 0.0000 8.6724 0.0000 0.0000
# 5 0.0000 0.0000 0.0000 0.0000 18.8358 0.0000
# 6 0.0000 0.0000 0.0000 0.0000 0.0000 34.8104
#
#
#
# Elastic Compliance Matrix: (Units=1/GPa)
#
#
# Indices 1 2 3 4 5 6 
#
# 1 0.017538 -0.005377 -0.006521 0.000000 0.000000 0.000000
# 2 -0.005377 0.009533 -0.000053 0.000000 0.000000 0.000000
# 3 -0.006521 -0.000053 0.016245 0.000000 0.000000 0.000000
# 4 0.000000 0.000000 0.000000 0.115308 0.000000 0.000000
# 5 0.000000 0.000000 0.000000 0.000000 0.053090 0.000000
# 6 0.000000 0.000000 0.000000 0.000000 0.000000 0.028727
#
#
# Mechanical properties :
#
#
# Convention : Reuss Voigt Hill
#
# Bulk Modulus (GPa) = 51.50722 54.90165 53.20443
# Shear Modulus (GPa) = 18.46282 25.14204 21.80243
#
# Velocity S-wave (km/s) = 3.05233 3.56191 3.31692
# Velocity P-wave (km/s) = 6.19790 6.67988 6.44340
#
# Compressibility (1/GPa) = 0.01941476
#
# Stress axis : x y z
#
# Youngs Moduli (GPa) = 57.02005 104.89867 61.55611
#
# Poissons Ratio (x) = 0.56406 0.40138
# Poissons Ratio (y) = 0.30661 0.00326
# Poissons Ratio (z) = 0.37180 0.00555
#
# Static dielectric constant tensor:
#      x y z
#    x 4.231250 0.000000 0.000000 
#    y 0.000000 3.871110 0.000000 
#    z 0.000000 0.000000 3.255340 
# 
# 
# High freq. dielectric constant tensor:
#      x y z
#    x 1.779090 0.000000 0.000000 
#    y 0.000000 1.796460 0.000000 
#    z 0.000000 0.000000 1.743040 
# 
# From -- ./inp_files/4830.got.cif
#   From: 2010.03.12/outbox.cif.g09.slc.cpg/sg27_3_cif.got.tgz:4830.got - 2010.04.14 03:36:05.
