data_PCOD8167135
_publ_section_title
;
Structure prediction by ZEFSAII (Michael W. Deem and Ramdas Pophale) SiO2 
 PCOD8167135
Probable space group: P M C 21
;
_chemical_formula_sum "Si O2"
_cell_formula_units_Z 32
_cell_length_a 8.680972
_cell_length_b 12.095366
_cell_length_c 14.612761
_cell_angle_alpha 90.000000
_cell_angle_beta 90.000000
_cell_angle_gamma 90.000000
_cell_volume 1534.333089
_symmetry_space_group_name_H-M "P M C 21"
_symmetry_group_IT_number 26
_symmetry_cell_setting 'orthorhombic'
loop_
_space_group_symop_operation_xyz
x,y,z
-x,-y,1/2+z
-x,y,z
x,-y,1/2+z
loop_
_atom_site_type_symbol
_atom_site_label
_atom_site_fract_x
_atom_site_fract_y
_atom_site_fract_z
Si Si1 0.317823 0.316067 0.360060
Si Si2 0.671670 0.182011 0.648092
Si Si3 0.179820 0.287463 0.815497
Si Si4 0.318606 0.119964 0.944854
Si Si5 0.818956 0.037882 0.120316
Si Si6 0.330156 0.594047 0.043370
Si Si7 0.681725 0.496784 0.727019
Si Si8 0.818979 0.080397 0.328362
O O1 0.500000 0.295535 0.373511
O O2 0.252935 0.395932 0.442711
O O3 0.285037 0.380316 0.264531
O O4 0.230453 0.200732 0.363329
O O5 0.500000 0.158353 0.687355
O O6 0.788156 0.206630 0.730520
O O7 0.664483 0.280584 0.577122
O O8 0.737811 0.077411 0.594330
O O9 0.268189 0.236898 0.902114
O O10 0.240741 0.410028 0.795650
O O11 0.000000 0.290656 0.836378
O O12 0.500000 0.113844 0.953676
O O13 0.262167 0.015971 0.885079
O O14 0.244622 0.123640 0.045951
O O15 0.770243 0.073867 0.222162
O O16 0.000000 0.025613 0.109918
O O17 0.500000 0.544314 0.029229
O O18 0.249377 0.518492 0.122948
O O19 0.500000 0.468592 0.724489
O O20 0.000000 0.065645 0.341866
#
# Coordination Sequence:
#
# PCOD8167135 Si02
#       8
#     4   4   4   4   4   4   4   4
#     4  10  20  37  61  86 117 158 205 253 302 359
#     4  10  18  32  57  85 115 151 197 247 291 351
#     4  11  21  36  58  83 115 151 194 247 304 358
#     4  12  24  39  62  89 120 158 206 252 297 364
#     4  11  23  38  57  85 124 163 196 241 307 370
#     4   8  16  32  55  84 113 146 193 248 298 342
#     4   9  19  37  59  84 115 152 200 254 302 355
#     4  11  24  41  61  88 127 163 197 248 309 371
#
# _framework density 20.855968000000001
#
# number of rings (size 3 to 8) (size 9 to 14) (size 15 to 20)
#    0.000    1.750    1.250    4.875    0.000    3.000 
#    2.250    2.500    0.000    0.000    0.000    0.000 
#    0.000    0.000    0.000    0.000    0.000    0.000 
#
# Total GULP energy -396668.117579 kJ/mol
# GULP energy per Si atom -12395.878674 kJ/mol
# Density = 2.080850 g / cm^3
# Si number density = 20.855968 Si / 1000 Ang^3
#
#
#
# Elastic Constant Matrix: (Units=GPa)
#
#
# Indices 1 2 3 4 5 6 
#
# 1 77.5377 16.6746 24.5838 0.0000 0.0000 0.0000
# 2 16.6746 39.7393 4.0953 0.0000 0.0000 0.0000
# 3 24.5838 4.0953 93.7143 0.0000 0.0000 0.0000
# 4 0.0000 0.0000 0.0000 25.0052 0.0000 0.0000
# 5 0.0000 0.0000 0.0000 0.0000 27.6260 0.0000
# 6 0.0000 0.0000 0.0000 0.0000 0.0000 21.8965
#
#
#
# Elastic Compliance Matrix: (Units=1/GPa)
#
#
# Indices 1 2 3 4 5 6 
#
# 1 0.015400 -0.006073 -0.003774 0.000000 0.000000 0.000000
# 2 -0.006073 0.027673 0.000384 0.000000 0.000000 0.000000
# 3 -0.003774 0.000384 0.011644 0.000000 0.000000 0.000000
# 4 0.000000 0.000000 0.000000 0.039992 0.000000 0.000000
# 5 0.000000 0.000000 0.000000 0.000000 0.036198 0.000000
# 6 0.000000 0.000000 0.000000 0.000000 0.000000 0.045669
#
#
# Mechanical properties :
#
#
# Convention : Reuss Voigt Hill
#
# Bulk Modulus (GPa) = 27.94107 33.52208 30.73158
# Shear Modulus (GPa) = 24.10435 25.94806 25.02620
#
# Velocity S-wave (km/s) = 3.40332 3.53108 3.46779
# Velocity P-wave (km/s) = 5.37306 5.72126 5.54989
#
# Compressibility (1/GPa) = 0.03578960
#
# Stress axis : x y z
#
# Youngs Moduli (GPa) = 64.93686 36.13685 85.88062
#
# Poissons Ratio (x) = 0.21945 0.32414
# Poissons Ratio (y) = 0.39434 -0.03296
# Poissons Ratio (z) = 0.24509 -0.01387
#
# Static dielectric constant tensor:
#      x y z
#    x 3.603170 0.000000 0.000000 
#    y 0.000000 3.597470 0.000000 
#    z 0.000000 0.000000 4.106130 
# 
# 
# High freq. dielectric constant tensor:
#      x y z
#    x 1.800990 0.000000 0.000000 
#    y 0.000000 1.801990 0.000000 
#    z 0.000000 0.000000 1.826840 
# 
# From -- ./inp_files/4139.got.cif
#   From: 2010.03.12/outbox.cif.g09.slc.cpg/sg26_3_cif.got.tgz:4139.got - 2010.04.14 03:33:09.
