data_PCOD8167234
_publ_section_title
;
Structure prediction by ZEFSAII (Michael W. Deem and Ramdas Pophale) SiO2 
 PCOD8167234
Probable space group: P M C 21
;
_chemical_formula_sum "Si O2"
_cell_formula_units_Z 32
_cell_length_a 9.212472
_cell_length_b 12.242372
_cell_length_c 14.606273
_cell_angle_alpha 90.000000
_cell_angle_beta 90.000000
_cell_angle_gamma 90.000000
_cell_volume 1647.332120
_symmetry_space_group_name_H-M "P M C 21"
_symmetry_group_IT_number 26
_symmetry_cell_setting 'orthorhombic'
loop_
_space_group_symop_operation_xyz
x,y,z
-x,-y,1/2+z
-x,y,z
x,-y,1/2+z
loop_
_atom_site_type_symbol
_atom_site_label
_atom_site_fract_x
_atom_site_fract_y
_atom_site_fract_z
Si Si1 0.335304 0.301607 0.016150
Si Si2 0.828346 0.900101 0.008575
Si Si3 0.828917 0.117471 0.905935
Si Si4 0.661853 0.352624 0.214574
Si Si5 0.167598 0.463213 0.920659
Si Si6 0.170712 0.814268 0.201865
Si Si7 0.328479 0.403036 0.741188
Si Si8 0.833409 0.709110 0.884097
O O1 0.500000 0.317583 0.981125
O O2 0.333785 0.278021 0.124222
O O3 0.258342 0.209413 0.958131
O O4 0.239531 0.412174 0.010615
O O5 0.780950 0.891487 0.115757
O O6 0.000000 0.897430 0.003947
O O7 0.763753 0.796618 0.953185
O O8 0.772421 0.006628 0.954281
O O9 0.791363 0.122791 0.797111
O O10 0.000000 0.134482 0.921226
O O11 0.500000 0.358106 0.255704
O O12 0.710752 0.478951 0.196187
O O13 0.760206 0.287583 0.285422
O O14 0.260674 0.405189 0.841849
O O15 0.189129 0.591588 0.929372
O O16 0.000000 0.430463 0.908002
O O17 0.253436 0.698722 0.189581
O O18 0.000000 0.788499 0.196789
O O19 0.500000 0.381468 0.744401
O O20 0.000000 0.736402 0.865864
#
# Coordination Sequence:
#
# PCOD8167234 Si02
#       8
#     4   4   4   4   4   4   4   4
#     4  11  22  36  55  81 116 154 191 234 283 337
#     4   9  20  38  59  85 115 149 191 241 291 336
#     4  10  21  38  59  83 113 150 196 237 281 342
#     4   9  21  37  53  80 118 157 191 230 286 343
#     4  10  19  32  53  83 115 147 186 232 283 337
#     4  10  20  35  57  83 112 147 189 239 286 337
#     4  10  19  34  55  80 113 151 190 232 283 341
#     4   9  19  36  57  83 114 147 188 237 285 337
#
# _framework density 19.425350000000002
#
# number of rings (size 3 to 8) (size 9 to 14) (size 15 to 20)
#    0.000    2.250    1.250    1.125    1.750    3.000 
#    0.000    4.375    0.000    0.000    0.000    0.000 
#    0.000    0.000    0.000    0.000    0.000    0.000 
#
# Total GULP energy -396582.949982 kJ/mol
# GULP energy per Si atom -12393.217187 kJ/mol
# Density = 1.938114 g / cm^3
# Si number density = 19.425350 Si / 1000 Ang^3
#
#
#
# Elastic Constant Matrix: (Units=GPa)
#
#
# Indices 1 2 3 4 5 6 
#
# 1 68.6533 46.2311 48.1954 0.0000 0.0000 0.0000
# 2 46.2311 95.2239 71.7760 0.0000 0.0000 0.0000
# 3 48.1954 71.7760 133.0342 0.0000 0.0000 0.0000
# 4 0.0000 0.0000 0.0000 27.6343 0.0000 0.0000
# 5 0.0000 0.0000 0.0000 0.0000 22.7740 0.0000
# 6 0.0000 0.0000 0.0000 0.0000 0.0000 15.1783
#
#
#
# Elastic Compliance Matrix: (Units=1/GPa)
#
#
# Indices 1 2 3 4 5 6 
#
# 1 0.022753 -0.008146 -0.003848 0.000000 0.000000 0.000000
# 2 -0.008146 0.020616 -0.008172 0.000000 0.000000 0.000000
# 3 -0.003848 -0.008172 0.013320 0.000000 0.000000 0.000000
# 4 0.000000 0.000000 0.000000 0.036187 0.000000 0.000000
# 5 0.000000 0.000000 0.000000 0.000000 0.043910 0.000000
# 6 0.000000 0.000000 0.000000 0.000000 0.000000 0.065883
#
#
# Mechanical properties :
#
#
# Convention : Reuss Voigt Hill
#
# Bulk Modulus (GPa) = 61.13532 69.92403 65.52968
# Shear Modulus (GPa) = 20.12457 21.83125 20.97791
#
# Velocity S-wave (km/s) = 3.22218 3.35603 3.28979
# Velocity P-wave (km/s) = 6.73673 7.14784 6.94533
#
# Compressibility (1/GPa) = 0.01635716
#
# Stress axis : x y z
#
# Youngs Moduli (GPa) = 43.95085 48.50573 75.07637
#
# Poissons Ratio (x) = 0.39513 0.28887
# Poissons Ratio (y) = 0.35803 0.61351
# Poissons Ratio (z) = 0.16911 0.39638
#
# Static dielectric constant tensor:
#      x y z
#    x 3.454690 0.000000 0.000000 
#    y 0.000000 3.700600 0.000000 
#    z 0.000000 0.000000 3.659570 
# 
# 
# High freq. dielectric constant tensor:
#      x y z
#    x 1.742760 0.000000 0.000000 
#    y 0.000000 1.748820 0.000000 
#    z 0.000000 0.000000 1.758480 
# 
# From -- ./inp_files/4229.got.cif
#   From: 2010.03.12/outbox.cif.g09.slc.cpg/sg26_3_cif.got.tgz:4229.got - 2010.04.14 03:33:09.
