data_PCOD8167783
_publ_section_title
;
Structure prediction by ZEFSAII (Michael W. Deem and Ramdas Pophale) SiO2 
 PCOD8167783
Probable space group: P C C 2
;
_chemical_formula_sum "Si O2"
_cell_formula_units_Z 24
_cell_length_a 27.698646
_cell_length_b 7.079951
_cell_length_c 5.331150
_cell_angle_alpha 90.000000
_cell_angle_beta 90.000000
_cell_angle_gamma 90.000000
_cell_volume 1045.465472
_symmetry_space_group_name_H-M "P C C 2"
_symmetry_group_IT_number 27
_symmetry_cell_setting 'orthorhombic'
loop_
_space_group_symop_operation_xyz
x,y,z
-x,-y,z
-x,y,1/2+z
x,-y,1/2+z
loop_
_atom_site_type_symbol
_atom_site_label
_atom_site_fract_x
_atom_site_fract_y
_atom_site_fract_z
Si Si1 0.772079 0.792199 0.961930
Si Si2 0.373277 0.883244 0.923622
Si Si3 0.020130 0.711096 0.410535
Si Si4 0.479852 0.214238 0.451525
Si Si5 0.118311 0.881372 0.473830
Si Si6 0.268242 0.781175 0.962042
O O1 0.752193 0.683771 0.715115
O O2 0.749059 0.001016 0.966683
O O3 0.829578 0.787803 0.950793
O O4 0.754402 0.684304 0.213522
O O5 0.422134 0.765727 0.958193
O O6 0.325991 0.755060 0.958608
O O7 0.372317 0.959445 0.640120
O O8 0.078022 0.718319 0.441286
O O9 0.000000 0.500000 0.381835
O O10 0.995179 0.814270 0.649997
O O11 0.500412 0.316703 0.700514
O O12 0.500000 0.000000 0.446346
O O13 0.112051 0.031418 0.250174
#
# Coordination Sequence:
#
# PCOD8167783 Si02
#       6
#     4   4   4   4   4   4
#     4  10  16  27  38  59  86 106 127 170 221 266
#     4  12  16  20  31  42  55  91 127 151 211 281
#     4  10  23  42  57  73 102 135 160 188 231 285
#     4  10  16  22  26  35  53  75 115 173 211 247
#     4  12  21  32  55  80 100 123 157 197 238 280
#     4  10  16  25  36  51  80 107 127 165 221 289
#
# _framework density 22.956281000000001
#
# number of rings (size 3 to 8) (size 9 to 14) (size 15 to 20)
#    0.000    1.333   10.000    1.000    0.000    2.000 
#    0.000    0.000    0.000    0.000    0.000    0.000 
#    0.000    0.000    0.000    0.000    0.000    0.000 
#
# Total GULP energy -297373.486429 kJ/mol
# GULP energy per Si atom -12390.561935 kJ/mol
# Density = 2.290403 g / cm^3
# Si number density = 22.956281 Si / 1000 Ang^3
#
#
#
# Elastic Constant Matrix: (Units=GPa)
#
#
# Indices 1 2 3 4 5 6 
#
# 1 217.8934 14.8783 41.3826 0.0000 0.0000 0.0000
# 2 14.8783 24.8041 -8.3342 0.0000 0.0000 0.0000
# 3 41.3826 -8.3342 225.8592 0.0000 0.0000 0.0000
# 4 0.0000 0.0000 0.0000 -15.1266 0.0000 0.0000
# 5 0.0000 0.0000 0.0000 0.0000 45.0495 0.0000
# 6 0.0000 0.0000 0.0000 0.0000 0.0000 3.6646
#
#
#
# Elastic Compliance Matrix: (Units=1/GPa)
#
#
# Indices 1 2 3 4 5 6 
#
# 1 0.005017 -0.003360 -0.001043 0.000000 0.000000 0.000000
# 2 -0.003360 0.043072 0.002205 0.000000 0.000000 0.000000
# 3 -0.001043 0.002205 0.004700 0.000000 0.000000 0.000000
# 4 0.000000 0.000000 0.000000 -0.066109 0.000000 0.000000
# 5 0.000000 0.000000 0.000000 0.000000 0.022198 0.000000
# 6 0.000000 0.000000 0.000000 0.000000 0.000000 0.272880
#
#
# Mechanical properties :
#
#
# Convention : Reuss Voigt Hill
#
# Bulk Modulus (GPa) = 20.66416 62.71224 41.68820
# Shear Modulus (GPa) = 16.54067 34.75949 25.65008
#
# Velocity S-wave (km/s) = 2.68718 3.89544 3.34630
# Velocity P-wave (km/s) = 4.31845 6.90000 5.75582
#
# Compressibility (1/GPa) = 0.04839297
#
# Stress axis : x y z
#
# Youngs Moduli (GPa) = 199.32445 23.21685 212.76427
#
# Poissons Ratio (x) = 0.07801 0.22196
# Poissons Ratio (y) = 0.66970 -0.46914
# Poissons Ratio (z) = 0.20793 -0.05119
#
# Static dielectric constant tensor:
#      x y z
#    x 4.412580 0.000000 0.000000 
#    y 0.000000 3.119300 0.000000 
#    z 0.000000 0.000000 7.128900 
# 
# 
# High freq. dielectric constant tensor:
#      x y z
#    x 1.921290 0.000000 0.000000 
#    y 0.000000 1.820230 0.000000 
#    z 0.000000 0.000000 1.956770 
# 
# From -- ./inp_files/655.got.cif
#   From: 2010.03.12/outbox.cif.g09.slc.cpg/sg27_1_cif.got.tgz:655.got - 2010.04.14 03:36:05.
