data_PCOD8167068
_publ_section_title
;
Structure prediction by ZEFSAII (Michael W. Deem and Ramdas Pophale) SiO2 
 PCOD8167068
Probable space group: P M C 21
;
_chemical_formula_sum "Si O2"
_cell_formula_units_Z 32
_cell_length_a 8.379861
_cell_length_b 11.450854
_cell_length_c 16.641004
_cell_angle_alpha 90.000000
_cell_angle_beta 90.000000
_cell_angle_gamma 90.000000
_cell_volume 1596.813580
_symmetry_space_group_name_H-M "P M C 21"
_symmetry_group_IT_number 26
_symmetry_cell_setting 'orthorhombic'
loop_
_space_group_symop_operation_xyz
x,y,z
-x,-y,1/2+z
-x,y,z
x,-y,1/2+z
loop_
_atom_site_type_symbol
_atom_site_label
_atom_site_fract_x
_atom_site_fract_y
_atom_site_fract_z
Si Si1 0.686638 0.555307 0.403560
Si Si2 0.811985 0.228565 0.282874
Si Si3 0.181868 0.280588 0.034543
Si Si4 0.310107 0.296243 0.445193
Si Si5 0.688571 0.919797 0.637593
Si Si6 0.321614 0.351181 0.740017
Si Si7 0.309174 0.181154 0.610420
Si Si8 0.676916 0.593809 0.673055
O O1 0.500000 0.536376 0.389124
O O2 0.715708 0.660015 0.465151
O O3 0.755947 0.429986 0.433632
O O4 0.767587 0.602822 0.320415
O O5 0.757099 0.210581 0.375033
O O6 0.759467 0.124602 0.222661
O O7 0.724226 0.349567 0.258409
O O8 0.000000 0.241921 0.277523
O O9 0.256227 0.157434 0.061613
O O10 0.189442 0.366814 0.110420
O O11 0.000000 0.264130 0.006872
O O12 0.500000 0.293500 0.443656
O O13 0.245111 0.242896 0.529125
O O14 0.500000 0.918305 0.645292
O O15 0.752335 0.048880 0.617427
O O16 0.500000 0.312264 0.764813
O O17 0.238954 0.246250 0.690336
O O18 0.327399 0.455645 0.675920
O O19 0.500000 0.189073 0.611232
O O20 0.500000 0.640310 0.647827
#
# Coordination Sequence:
#
# PCOD8167068 Si02
#       8
#     4   4   4   4   4   4   4   4
#     4  10  19  34  58  87 117 146 181 226 283 345
#     4  11  21  34  55  83 115 149 184 231 279 336
#     4  11  22  35  53  80 113 148 185 230 277 332
#     4  10  19  36  60  88 115 145 187 235 286 340
#     4  10  20  38  60  80 106 147 195 240 281 326
#     4   9  17  32  56  86 114 140 176 231 287 332
#     4   9  19  35  58  86 113 141 189 246 283 323
#     4  10  17  32  58  84 109 142 183 227 280 334
#
# _framework density 20.039909999999999
#
# number of rings (size 3 to 8) (size 9 to 14) (size 15 to 20)
#    0.000    2.000    1.250    5.250    0.000    2.500 
#    2.250    1.250    0.000    4.500    0.000    0.000 
#    0.000    0.000    0.000    0.000    0.000    0.000 
#
# Total GULP energy -396561.228369 kJ/mol
# GULP energy per Si atom -12392.538387 kJ/mol
# Density = 1.999430 g / cm^3
# Si number density = 20.039910 Si / 1000 Ang^3
#
#
#
# Elastic Constant Matrix: (Units=GPa)
#
#
# Indices 1 2 3 4 5 6 
#
# 1 47.5183 16.2168 4.8184 0.0000 0.0000 0.0000
# 2 16.2168 147.4797 80.4193 0.0000 0.0000 0.0000
# 3 4.8184 80.4193 121.6831 0.0000 0.0000 0.0000
# 4 0.0000 0.0000 0.0000 29.8980 0.0000 0.0000
# 5 0.0000 0.0000 0.0000 0.0000 14.6313 0.0000
# 6 0.0000 0.0000 0.0000 0.0000 0.0000 0.3275
#
#
#
# Elastic Compliance Matrix: (Units=1/GPa)
#
#
# Indices 1 2 3 4 5 6 
#
# 1 0.021965 -0.003035 0.001136 0.000000 0.000000 0.000000
# 2 -0.003035 0.011020 -0.007163 0.000000 0.000000 0.000000
# 3 0.001136 -0.007163 0.012907 0.000000 0.000000 0.000000
# 4 0.000000 0.000000 0.000000 0.033447 0.000000 0.000000
# 5 0.000000 0.000000 0.000000 0.000000 0.068346 0.000000
# 6 0.000000 0.000000 0.000000 0.000000 0.000000 3.053876
#
#
# Mechanical properties :
#
#
# Convention : Reuss Voigt Hill
#
# Bulk Modulus (GPa) = 36.01191 57.73226 46.87208
# Shear Modulus (GPa) = 1.54849 23.31980 12.43415
#
# Velocity S-wave (km/s) = 0.87999 3.41496 2.49362
# Velocity P-wave (km/s) = 4.36367 6.66487 5.63303
#
# Compressibility (1/GPa) = 0.02776859
#
# Stress axis : x y z
#
# Youngs Moduli (GPa) = 45.52703 90.74262 77.47710
#
# Poissons Ratio (x) = 0.27537 -0.08799
# Poissons Ratio (y) = 0.13816 0.55497
# Poissons Ratio (z) = -0.05171 0.64999
#
# Static dielectric constant tensor:
#      x y z
#    x 3.250780 0.000000 0.000000 
#    y 0.000000 3.722440 0.000000 
#    z 0.000000 0.000000 3.825820 
# 
# 
# High freq. dielectric constant tensor:
#      x y z
#    x 1.748770 0.000000 0.000000 
#    y 0.000000 1.772980 0.000000 
#    z 0.000000 0.000000 1.787520 
# 
# From -- ./inp_files/5059.got.cif
#   From: 2010.03.12/outbox.cif.g09.slc.cpg/sg26_3_cif.got.tgz:5059.got - 2010.04.14 03:33:09.
