data_PCOD8167917
_publ_section_title
;
Structure prediction by ZEFSAII (Michael W. Deem and Ramdas Pophale) SiO2 
 PCOD8167917
Probable space group: P C C 2
;
_chemical_formula_sum "Si O2"
_cell_formula_units_Z 24
_cell_length_a 10.991830
_cell_length_b 8.009071
_cell_length_c 11.686991
_cell_angle_alpha 90.000000
_cell_angle_beta 90.000000
_cell_angle_gamma 90.000000
_cell_volume 1028.856620
_symmetry_space_group_name_H-M "P C C 2"
_symmetry_group_IT_number 27
_symmetry_cell_setting 'orthorhombic'
loop_
_space_group_symop_operation_xyz
x,y,z
-x,-y,z
-x,y,1/2+z
x,-y,1/2+z
loop_
_atom_site_type_symbol
_atom_site_label
_atom_site_fract_x
_atom_site_fract_y
_atom_site_fract_z
Si Si1 0.069238 0.332610 0.691090
Si Si2 0.278035 0.834766 0.299423
Si Si3 0.234545 0.358783 0.485758
Si Si4 0.704471 0.725487 0.035354
Si Si5 0.164019 0.180764 0.251897
Si Si6 0.542627 0.309656 0.140571
O O1 0.192670 0.321266 0.764000
O O2 0.108012 0.333305 0.556782
O O3 0.000000 0.500000 0.727077
O O4 0.982504 0.180087 0.735839
O O5 0.272575 0.862181 0.436219
O O6 0.414957 0.785050 0.257387
O O7 0.223507 0.999334 0.240502
O O8 0.280297 0.548749 0.471121
O O9 0.214153 0.274790 0.363261
O O10 0.346454 0.275743 0.553485
O O11 0.799672 0.718280 0.137862
O O12 0.574216 0.776984 0.086314
O O13 0.500000 0.500000 0.165903
#
# Coordination Sequence:
#
# PCOD8167917 Si02
#       6
#     4   4   4   4   4   4
#     4  11  23  47  74 102 141 195 248 300 360 440
#     4  11  27  46  71 108 152 185 244 307 372 431
#     4  10  24  46  73 104 141 186 252 295 354 443
#     4  11  25  45  75 103 142 193 245 295 366 437
#     4  12  27  45  72 110 148 189 241 303 377 429
#     4   9  23  46  74 102 139 193 241 298 356 429
#
# _framework density 23.326865000000002
#
# number of rings (size 3 to 8) (size 9 to 14) (size 15 to 20)
#    0.000    1.333    1.667    1.500   14.000    2.000 
#    0.000    0.000    0.000    0.000    0.000    0.000 
#    0.000    0.000    0.000    0.000    0.000    0.000 
#
# Total GULP energy -297437.873057 kJ/mol
# GULP energy per Si atom -12393.244711 kJ/mol
# Density = 2.327377 g / cm^3
# Si number density = 23.326865 Si / 1000 Ang^3
#
#
#
# Elastic Constant Matrix: (Units=GPa)
#
#
# Indices 1 2 3 4 5 6 
#
# 1 110.6069 25.9047 40.9182 0.0000 0.0000 0.0000
# 2 25.9047 61.1812 27.2095 0.0000 0.0000 0.0000
# 3 40.9182 27.2095 143.7493 0.0000 0.0000 0.0000
# 4 0.0000 0.0000 0.0000 30.7695 0.0000 0.0000
# 5 0.0000 0.0000 0.0000 0.0000 31.1999 0.0000
# 6 0.0000 0.0000 0.0000 0.0000 0.0000 38.2615
#
#
#
# Elastic Compliance Matrix: (Units=1/GPa)
#
#
# Indices 1 2 3 4 5 6 
#
# 1 0.010744 -0.003482 -0.002399 0.000000 0.000000 0.000000
# 2 -0.003482 0.018976 -0.002601 0.000000 0.000000 0.000000
# 3 -0.002399 -0.002601 0.008132 0.000000 0.000000 0.000000
# 4 0.000000 0.000000 0.000000 0.032500 0.000000 0.000000
# 5 0.000000 0.000000 0.000000 0.000000 0.032051 0.000000
# 6 0.000000 0.000000 0.000000 0.000000 0.000000 0.026136
#
#
# Mechanical properties :
#
#
# Convention : Reuss Voigt Hill
#
# Bulk Modulus (GPa) = 47.87494 55.95582 51.91538
# Shear Modulus (GPa) = 32.79433 34.81318 33.80376
#
# Velocity S-wave (km/s) = 3.75355 3.86736 3.81088
# Velocity P-wave (km/s) = 6.27324 6.63187 6.45505
#
# Compressibility (1/GPa) = 0.02088775
#
# Stress axis : x y z
#
# Youngs Moduli (GPa) = 93.07400 52.69849 122.97483
#
# Poissons Ratio (x) = 0.18350 0.29504
# Poissons Ratio (y) = 0.32410 0.31981
# Poissons Ratio (z) = 0.22330 0.13705
#
# Static dielectric constant tensor:
#      x y z
#    x 4.453260 0.000000 0.000000 
#    y 0.000000 3.881940 0.000000 
#    z 0.000000 0.000000 4.149950 
# 
# 
# High freq. dielectric constant tensor:
#      x y z
#    x 1.933270 0.000000 0.000000 
#    y 0.000000 1.907620 0.000000 
#    z 0.000000 0.000000 1.922540 
# 
# From -- ./inp_files/2320.got.cif
#   From: 2010.03.12/outbox.cif.g09.slc.cpg/sg27_2_cif.got.tgz:2320.got - 2010.04.14 03:36:05.
