data_PCOD8167886
_publ_section_title
;
Structure prediction by ZEFSAII (Michael W. Deem and Ramdas Pophale) SiO2 
 PCOD8167886
Probable space group: P C C 2
;
_chemical_formula_sum "Si O2"
_cell_formula_units_Z 32
_cell_length_a 6.586607
_cell_length_b 17.269123
_cell_length_c 13.609539
_cell_angle_alpha 90.000000
_cell_angle_beta 90.000000
_cell_angle_gamma 90.000000
_cell_volume 1548.016012
_symmetry_space_group_name_H-M "P C C 2"
_symmetry_group_IT_number 27
_symmetry_cell_setting 'orthorhombic'
loop_
_space_group_symop_operation_xyz
x,y,z
-x,-y,z
-x,y,1/2+z
x,-y,1/2+z
loop_
_atom_site_type_symbol
_atom_site_label
_atom_site_fract_x
_atom_site_fract_y
_atom_site_fract_z
Si Si1 0.031747 0.083355 0.330300
Si Si2 0.748931 0.164900 0.191225
Si Si3 0.937348 0.162644 0.525579
Si Si4 0.031747 0.416645 0.330299
Si Si5 0.635923 0.578328 0.163190
Si Si6 0.364077 0.078328 0.163189
Si Si7 0.251068 0.335101 0.691224
Si Si8 0.062654 0.337355 0.025579
O O1 0.234072 0.080997 0.263649
O O2 0.838612 0.099768 0.261946
O O3 0.024499 0.144875 0.417532
O O4 0.000000 0.000000 0.379233
O O5 0.513224 0.150428 0.174098
O O6 0.778458 0.250000 0.238233
O O7 0.859406 0.159437 0.087859
O O8 0.776138 0.098959 0.567992
O O9 0.843991 0.250000 0.527044
O O10 0.234075 0.419003 0.263651
O O11 0.000000 0.500000 0.379233
O O12 0.838617 0.400233 0.261942
O O13 0.024491 0.355125 0.417530
O O14 0.500000 0.500000 0.147754
O O15 0.486775 0.650428 0.174098
O O16 0.776140 0.598959 0.067993
O O17 0.500000 0.000000 0.147753
O O18 0.140595 0.340562 0.587856
#
# Coordination Sequence:
#
# PCOD8167886 Si02
#       8
#     4   4   4   4   4   4   4   4
#     4  11  23  40  65  95 129 168 215 265 324 383
#     4  10  22  42  65  92 129 168 212 266 325 387
#     4  10  24  42  65  95 130 172 214 264 328 389
#     4  11  23  40  65  95 129 168 215 265 324 383
#     4  11  23  42  66  95 127 170 218 269 324 385
#     4  11  23  42  66  95 127 170 218 269 324 385
#     4  10  22  42  65  92 129 168 212 266 325 387
#     4  10  24  42  65  95 130 172 214 264 328 389
#
# _framework density 20.671623
#
# number of rings (size 3 to 8) (size 9 to 14) (size 15 to 20)
#    0.000    1.500    2.500    1.500    3.500    5.000 
#    0.000    2.500    0.000    0.000    0.000    0.000 
#    0.000    0.000    0.000    0.000    0.000    0.000 
#
# Total GULP energy -396504.850347 kJ/mol
# GULP energy per Si atom -12390.776573 kJ/mol
# Density = 2.062457 g / cm^3
# Si number density = 20.671623 Si / 1000 Ang^3
#
#
#
# Elastic Constant Matrix: (Units=GPa)
#
#
# Indices 1 2 3 4 5 6 
#
# 1 114.0107 58.7720 33.3907 0.0000 0.0000 0.0000
# 2 58.7720 99.6737 59.8797 0.0000 0.0000 0.0000
# 3 33.3907 59.8797 109.2019 0.0000 0.0000 0.0000
# 4 0.0000 0.0000 0.0000 34.9635 0.0000 0.0000
# 5 0.0000 0.0000 0.0000 0.0000 18.0479 0.0000
# 6 0.0000 0.0000 0.0000 0.0000 0.0000 35.8226
#
#
#
# Elastic Compliance Matrix: (Units=1/GPa)
#
#
# Indices 1 2 3 4 5 6 
#
# 1 0.012609 -0.007633 0.000330 0.000000 0.000000 0.000000
# 2 -0.007633 0.019582 -0.008404 0.000000 0.000000 0.000000
# 3 0.000330 -0.008404 0.013664 0.000000 0.000000 0.000000
# 4 0.000000 0.000000 0.000000 0.028601 0.000000 0.000000
# 5 0.000000 0.000000 0.000000 0.000000 0.055408 0.000000
# 6 0.000000 0.000000 0.000000 0.000000 0.000000 0.027915
#
#
# Mechanical properties :
#
#
# Convention : Reuss Voigt Hill
#
# Bulk Modulus (GPa) = 69.24123 69.66347 69.45235
# Shear Modulus (GPa) = 25.77205 29.15640 27.46423
#
# Velocity S-wave (km/s) = 3.53475 3.75968 3.64894
# Velocity P-wave (km/s) = 7.08715 7.25397 7.17105
#
# Compressibility (1/GPa) = 0.01444226
#
# Stress axis : x y z
#
# Youngs Moduli (GPa) = 79.30598 51.06665 73.18243
#
# Poissons Ratio (x) = 0.38981 -0.02416
# Poissons Ratio (y) = 0.60537 0.61500
# Poissons Ratio (z) = -0.02618 0.42915
#
# Static dielectric constant tensor:
#      x y z
#    x 3.746770 0.000000 0.000000 
#    y 0.000000 3.953700 0.000000 
#    z 0.000000 0.000000 3.616320 
# 
# 
# High freq. dielectric constant tensor:
#      x y z
#    x 1.808250 0.000000 0.000000 
#    y 0.000000 1.826470 0.000000 
#    z 0.000000 0.000000 1.799400 
# 
# From -- ./inp_files/3157.got.cif
#   From: 2010.03.12/outbox.cif.g09.slc.cpg/sg27_2_cif.got.tgz:3157.got - 2010.04.14 03:36:05.
