data_PCOD8167684
_publ_section_title
;
Structure prediction by ZEFSAII (Michael W. Deem and Ramdas Pophale) SiO2 
 PCOD8167684
Probable space group: P M C 21
;
_chemical_formula_sum "Si O2"
_cell_formula_units_Z 24
_cell_length_a 8.983359
_cell_length_b 11.834167
_cell_length_c 11.747074
_cell_angle_alpha 90.000000
_cell_angle_beta 90.000000
_cell_angle_gamma 90.000000
_cell_volume 1248.838140
_symmetry_space_group_name_H-M "P M C 21"
_symmetry_group_IT_number 26
_symmetry_cell_setting 'orthorhombic'
loop_
_space_group_symop_operation_xyz
x,y,z
-x,-y,1/2+z
-x,y,z
x,-y,1/2+z
loop_
_atom_site_type_symbol
_atom_site_label
_atom_site_fract_x
_atom_site_fract_y
_atom_site_fract_z
Si Si1 0.169524 0.213507 0.754250
Si Si2 0.671533 0.350581 0.350590
Si Si3 0.673739 0.721202 0.596324
Si Si4 0.826713 0.579359 0.410696
Si Si5 0.827716 0.076959 0.977508
Si Si6 0.326970 0.844966 0.026918
O O1 0.206180 0.335589 0.807040
O O2 0.196556 0.117686 0.848654
O O3 0.283536 0.192442 0.653213
O O4 0.000000 0.208877 0.709137
O O5 0.500000 0.388439 0.359565
O O6 0.708734 0.301001 0.227539
O O7 0.775564 0.456572 0.373720
O O8 0.711757 0.256334 0.442526
O O9 0.500000 0.727846 0.570594
O O10 0.741144 0.618649 0.523535
O O11 0.745171 0.841136 0.565465
O O12 0.000000 0.578819 0.441259
O O13 0.000000 0.078527 0.011291
O O14 0.765904 0.951918 0.986891
O O15 0.500000 0.876293 0.024078
#
# Coordination Sequence:
#
# PCOD8167684 Si02
#       6
#     4   4   4   4   4   4
#     4   9  21  41  61  87 119 155 198 245 297 353
#     4  10  24  41  59  89 123 157 199 245 295 352
#     4  10  21  40  64  89 120 158 200 246 298 354
#     4  10  22  40  63  90 120 157 200 246 299 354
#     4  10  22  41  63  89 120 156 200 247 299 354
#     4  11  24  39  60  90 122 157 199 245 296 353
#
# _framework density 19.217862
#
# number of rings (size 3 to 8) (size 9 to 14) (size 15 to 20)
#    0.000    2.000    0.000    3.000    4.667    6.667 
#    0.000    0.000    0.000    0.000    0.000    0.000 
#    0.000    0.000    0.000    0.000    0.000    0.000 
#
# Total GULP energy -297732.503300 kJ/mol
# GULP energy per Si atom -12405.520971 kJ/mol
# Density = 1.917412 g / cm^3
# Si number density = 19.217862 Si / 1000 Ang^3
#
#
#
# Elastic Constant Matrix: (Units=GPa)
#
#
# Indices 1 2 3 4 5 6 
#
# 1 112.0254 68.6504 65.9027 0.0000 0.0000 0.0000
# 2 68.6504 127.4758 64.7515 0.0000 0.0000 0.0000
# 3 65.9027 64.7515 116.3479 0.0000 0.0000 0.0000
# 4 0.0000 0.0000 0.0000 17.8913 0.0000 0.0000
# 5 0.0000 0.0000 0.0000 0.0000 27.5819 0.0000
# 6 0.0000 0.0000 0.0000 0.0000 0.0000 40.0197
#
#
#
# Elastic Compliance Matrix: (Units=1/GPa)
#
#
# Indices 1 2 3 4 5 6 
#
# 1 0.015744 -0.005505 -0.005854 0.000000 0.000000 0.000000
# 2 -0.005505 0.012861 -0.004039 0.000000 0.000000 0.000000
# 3 -0.005854 -0.004039 0.014159 0.000000 0.000000 0.000000
# 4 0.000000 0.000000 0.000000 0.055893 0.000000 0.000000
# 5 0.000000 0.000000 0.000000 0.000000 0.036256 0.000000
# 6 0.000000 0.000000 0.000000 0.000000 0.000000 0.024988
#
#
# Mechanical properties :
#
#
# Convention : Reuss Voigt Hill
#
# Bulk Modulus (GPa) = 83.56416 83.82868 83.69642
# Shear Modulus (GPa) = 25.68228 27.53488 26.60858
#
# Velocity S-wave (km/s) = 3.65961 3.78931 3.72502
# Velocity P-wave (km/s) = 7.83798 7.92843 7.88334
#
# Compressibility (1/GPa) = 0.01196685
#
# Stress axis : x y z
#
# Youngs Moduli (GPa) = 63.51627 77.75334 70.62714
#
# Poissons Ratio (x) = 0.42804 0.41345
# Poissons Ratio (y) = 0.34967 0.28529
# Poissons Ratio (z) = 0.37183 0.31408
#
# Static dielectric constant tensor:
#      x y z
#    x 3.591450 0.000000 0.000000 
#    y 0.000000 3.564960 0.000000 
#    z 0.000000 0.000000 3.508760 
# 
# 
# High freq. dielectric constant tensor:
#      x y z
#    x 1.758900 0.000000 0.000000 
#    y 0.000000 1.756140 0.000000 
#    z 0.000000 0.000000 1.752900 
# 
# From -- ./inp_files/2806.got.cif
#   From: 2010.03.12/outbox.cif.g09.slc.cpg/sg26_2_cif.got.tgz:2806.got - 2010.04.14 03:33:09.
