data_PCOD8167828
_publ_section_title
;
Structure prediction by ZEFSAII (Michael W. Deem and Ramdas Pophale) SiO2 
 PCOD8167828
Probable space group: P C C 2
;
_chemical_formula_sum "Si O2"
_cell_formula_units_Z 22
_cell_length_a 7.547389
_cell_length_b 15.376745
_cell_length_c 8.886222
_cell_angle_alpha 90.000000
_cell_angle_beta 90.000000
_cell_angle_gamma 90.000000
_cell_volume 1031.284061
_symmetry_space_group_name_H-M "P C C 2"
_symmetry_group_IT_number 27
_symmetry_cell_setting 'orthorhombic'
loop_
_space_group_symop_operation_xyz
x,y,z
-x,-y,z
-x,y,1/2+z
x,-y,1/2+z
loop_
_atom_site_type_symbol
_atom_site_label
_atom_site_fract_x
_atom_site_fract_y
_atom_site_fract_z
Si Si1 0.360510 0.258630 0.897340
Si Si2 0.000000 0.500000 0.035024
Si Si3 0.787244 0.076351 0.406653
Si Si4 0.922726 0.378049 0.284913
Si Si5 0.164639 0.909454 0.757308
Si Si6 0.714638 0.719182 0.244113
O O1 0.354541 0.153674 0.877206
O O2 0.204376 0.295242 0.790283
O O3 0.541404 0.303158 0.841891
O O4 0.326671 0.286072 0.068053
O O5 0.120112 0.563084 0.139007
O O6 0.118934 0.438043 0.929807
O O7 0.833281 0.069710 0.581242
O O8 0.963233 0.093503 0.311209
O O9 0.718347 0.982482 0.346651
O O10 0.127946 0.347198 0.283890
O O11 0.242146 0.816231 0.795521
#
# Coordination Sequence:
#
# PCOD8167828 Si02
#       6
#     4   2   4   4   4   4
#     4  11  25  41  66  97 132 173 213 262 318 377
#     4  10  24  42  78  90 126 168 204 262 330 394
#     4  10  20  36  59  92 127 172 216 260 310 364
#     4  11  22  48  67  98 126 166 211 260 326 387
#     4  10  20  36  59  92 127 172 216 260 310 364
#     4  11  25  41  66  97 132 173 213 262 318 377
#
# _framework density 21.332629000000001
#
# number of rings (size 3 to 8) (size 9 to 14) (size 15 to 20)
#    0.000    1.455    3.636    2.182    2.545    3.636 
#    0.000    9.091    0.000    0.000    0.000    0.000 
#    0.000    0.000    0.000    0.000    0.000    0.000 
#
# Total GULP energy -272706.683961 kJ/mol
# GULP energy per Si atom -12395.758362 kJ/mol
# Density = 2.128408 g / cm^3
# Si number density = 21.332629 Si / 1000 Ang^3
#
#
#
# Elastic Constant Matrix: (Units=GPa)
#
#
# Indices 1 2 3 4 5 6 
#
# 1 91.2999 34.7995 22.6259 0.0000 0.0000 0.0000
# 2 34.7995 110.2203 48.7975 0.0000 0.0000 0.0000
# 3 22.6259 48.7975 107.7486 0.0000 0.0000 0.0000
# 4 0.0000 0.0000 0.0000 31.7868 0.0000 0.0000
# 5 0.0000 0.0000 0.0000 0.0000 21.9194 0.0000
# 6 0.0000 0.0000 0.0000 0.0000 0.0000 14.2402
#
#
#
# Elastic Compliance Matrix: (Units=1/GPa)
#
#
# Indices 1 2 3 4 5 6 
#
# 1 0.012546 -0.003496 -0.001051 0.000000 0.000000 0.000000
# 2 -0.003496 0.012322 -0.004846 0.000000 0.000000 0.000000
# 3 -0.001051 -0.004846 0.011696 0.000000 0.000000 0.000000
# 4 0.000000 0.000000 0.000000 0.031460 0.000000 0.000000
# 5 0.000000 0.000000 0.000000 0.000000 0.045622 0.000000
# 6 0.000000 0.000000 0.000000 0.000000 0.000000 0.070224
#
#
# Mechanical properties :
#
#
# Convention : Reuss Voigt Hill
#
# Bulk Modulus (GPa) = 56.25052 57.96828 57.10940
# Shear Modulus (GPa) = 23.97141 27.12569 25.54855
#
# Velocity S-wave (km/s) = 3.35580 3.56976 3.46443
# Velocity P-wave (km/s) = 6.43744 6.65007 6.54462
#
# Compressibility (1/GPa) = 0.01777761
#
# Stress axis : x y z
#
# Youngs Moduli (GPa) = 79.70776 81.15553 85.49570
#
# Poissons Ratio (x) = 0.28369 0.08989
# Poissons Ratio (y) = 0.27862 0.41435
# Poissons Ratio (z) = 0.08380 0.39331
#
# Static dielectric constant tensor:
#      x y z
#    x 3.485480 0.000000 0.000000 
#    y 0.000000 4.320670 0.000000 
#    z 0.000000 0.000000 3.971170 
# 
# 
# High freq. dielectric constant tensor:
#      x y z
#    x 1.801340 0.000000 0.000000 
#    y 0.000000 1.852860 0.000000 
#    z 0.000000 0.000000 1.850330 
# 
# From -- ./inp_files/1141.got.cif
#   From: 2010.03.12/outbox.cif.g09.slc.cpg/sg27_1_cif.got.tgz:1141.got - 2010.04.14 03:36:05.
