data_PCOD8167881
_publ_section_title
;
Structure prediction by ZEFSAII (Michael W. Deem and Ramdas Pophale) SiO2 
 PCOD8167881
Probable space group: P C C 2
;
_chemical_formula_sum "Si O2"
_cell_formula_units_Z 32
_cell_length_a 13.437684
_cell_length_b 11.510034
_cell_length_c 9.391095
_cell_angle_alpha 90.000000
_cell_angle_beta 90.000000
_cell_angle_gamma 90.000000
_cell_volume 1452.503757
_symmetry_space_group_name_H-M "P C C 2"
_symmetry_group_IT_number 27
_symmetry_cell_setting 'orthorhombic'
loop_
_space_group_symop_operation_xyz
x,y,z
-x,-y,z
-x,y,1/2+z
x,-y,1/2+z
loop_
_atom_site_type_symbol
_atom_site_label
_atom_site_fract_x
_atom_site_fract_y
_atom_site_fract_z
Si Si1 0.537021 0.215686 0.939390
Si Si2 0.222598 0.496103 0.738182
Si Si3 0.278502 0.088144 0.308761
Si Si4 0.959870 0.374679 0.131164
Si Si5 0.694792 0.373631 0.481597
Si Si6 0.680638 0.875934 0.985437
Si Si7 0.878877 0.286029 0.844472
Si Si8 0.494495 0.363813 0.169478
O O1 0.628723 0.137727 0.895971
O O2 0.437786 0.136102 0.951342
O O3 0.522160 0.318624 0.825747
O O4 0.574258 0.283308 0.085252
O O5 0.132608 0.404166 0.735397
O O6 0.246858 0.533462 0.577749
O O7 0.200375 0.610092 0.830493
O O8 0.313892 0.431379 0.822696
O O9 0.178486 0.164179 0.329653
O O10 0.263430 0.960594 0.374626
O O11 0.306817 0.075402 0.144420
O O12 0.000000 0.500000 0.075799
O O13 0.039985 0.301256 0.219742
O O14 0.930112 0.294512 0.998520
O O15 0.743160 0.245486 0.468633
O O16 0.593973 0.338023 0.557734
O O17 0.500000 0.500000 0.173835
#
# Coordination Sequence:
#
# PCOD8167881 Si02
#       8
#     4   4   4   4   4   4   4   4
#     4  11  23  46  66  98 137 191 237 291 351 415
#     4  11  21  39  70 100 143 174 229 286 371 423
#     4  12  26  48  70  99 138 191 246 306 340 420
#     4  10  22  39  69 110 139 184 225 294 365 442
#     4  11  24  42  63 105 144 184 227 299 349 435
#     4  11  27  45  69  98 139 186 249 296 345 415
#     4  11  23  42  69 105 140 180 236 292 361 432
#     4  11  25  37  62  99 149 185 225 282 365 437
#
# _framework density 22.030923000000001
#
# number of rings (size 3 to 8) (size 9 to 14) (size 15 to 20)
#    0.000    1.000    5.000    1.875   10.500    2.000 
#    0.000    0.000    0.000    6.000    0.000    0.000 
#    0.000    0.000    0.000    0.000    0.000    0.000 
#
# Total GULP energy -396551.023748 kJ/mol
# GULP energy per Si atom -12392.219492 kJ/mol
# Density = 2.198078 g / cm^3
# Si number density = 22.030923 Si / 1000 Ang^3
#
#
#
# Elastic Constant Matrix: (Units=GPa)
#
#
# Indices 1 2 3 4 5 6 
#
# 1 85.6984 30.6204 17.9266 0.0000 0.0000 0.0000
# 2 30.6204 126.4391 68.0757 0.0000 0.0000 0.0000
# 3 17.9266 68.0757 110.7208 0.0000 0.0000 0.0000
# 4 0.0000 0.0000 0.0000 48.3095 0.0000 0.0000
# 5 0.0000 0.0000 0.0000 0.0000 31.9226 0.0000
# 6 0.0000 0.0000 0.0000 0.0000 0.0000 30.7997
#
#
#
# Elastic Compliance Matrix: (Units=1/GPa)
#
#
# Indices 1 2 3 4 5 6 
#
# 1 0.012779 -0.002961 -0.000249 0.000000 0.000000 0.000000
# 2 -0.002961 0.012509 -0.007211 0.000000 0.000000 0.000000
# 3 -0.000249 -0.007211 0.013506 0.000000 0.000000 0.000000
# 4 0.000000 0.000000 0.000000 0.020700 0.000000 0.000000
# 5 0.000000 0.000000 0.000000 0.000000 0.031326 0.000000
# 6 0.000000 0.000000 0.000000 0.000000 0.000000 0.032468
#
#
# Mechanical properties :
#
#
# Convention : Reuss Voigt Hill
#
# Bulk Modulus (GPa) = 55.70540 61.78929 58.74735
# Shear Modulus (GPa) = 33.30838 35.95542 34.63190
#
# Velocity S-wave (km/s) = 3.89252 4.04424 3.96911
# Velocity P-wave (km/s) = 6.74850 7.06508 6.90860
#
# Compressibility (1/GPa) = 0.01795158
#
# Stress axis : x y z
#
# Youngs Moduli (GPa) = 78.25488 79.94429 74.04189
#
# Poissons Ratio (x) = 0.23671 0.01840
# Poissons Ratio (y) = 0.23170 0.53395
# Poissons Ratio (z) = 0.01945 0.57652
#
# Static dielectric constant tensor:
#      x y z
#    x 4.092600 0.000000 0.000000 
#    y 0.000000 3.367910 0.000000 
#    z 0.000000 0.000000 4.164290 
# 
# 
# High freq. dielectric constant tensor:
#      x y z
#    x 1.844010 0.000000 0.000000 
#    y 0.000000 1.860500 0.000000 
#    z 0.000000 0.000000 1.885690 
# 
# From -- ./inp_files/1617.got.cif
#   From: 2010.03.12/outbox.cif.g09.slc.cpg/sg27_1_cif.got.tgz:1617.got - 2010.04.14 03:36:05.
