data_PCOD8167322
_publ_section_title
;
Structure prediction by ZEFSAII (Michael W. Deem and Ramdas Pophale) SiO2 
 PCOD8167322
Probable space group: P M C 21
;
_chemical_formula_sum "Si O2"
_cell_formula_units_Z 32
_cell_length_a 9.257162
_cell_length_b 14.513145
_cell_length_c 12.409261
_cell_angle_alpha 90.000000
_cell_angle_beta 90.000000
_cell_angle_gamma 90.000000
_cell_volume 1667.190847
_symmetry_space_group_name_H-M "P M C 21"
_symmetry_group_IT_number 26
_symmetry_cell_setting 'orthorhombic'
loop_
_space_group_symop_operation_xyz
x,y,z
-x,-y,1/2+z
-x,y,z
x,-y,1/2+z
loop_
_atom_site_type_symbol
_atom_site_label
_atom_site_fract_x
_atom_site_fract_y
_atom_site_fract_z
Si Si1 0.657100 0.371623 0.888530
Si Si2 0.663361 0.824696 0.477549
Si Si3 0.171261 0.742534 0.673351
Si Si4 0.671317 0.174148 0.591098
Si Si5 0.167571 0.447846 0.069767
Si Si6 0.670721 0.947238 0.287648
Si Si7 0.336115 0.377017 0.640947
Si Si8 0.670030 0.149556 0.346466
O O1 0.500000 0.405910 0.932644
O O2 0.663043 0.262113 0.898365
O O3 0.673696 0.398350 0.765982
O O4 0.789524 0.417673 0.950026
O O5 0.500000 0.847062 0.518795
O O6 0.763917 0.808881 0.580996
O O7 0.727698 0.905352 0.401380
O O8 0.212171 0.635443 0.650652
O O9 0.242038 0.768968 0.787648
O O10 0.000000 0.756649 0.676507
O O11 0.500000 0.174193 0.602208
O O12 0.735612 0.103136 0.680919
O O13 0.730971 0.277136 0.612836
O O14 0.718559 0.143434 0.471332
O O15 0.245562 0.543474 0.086691
O O16 0.000000 0.467117 0.075666
O O17 0.500000 0.933138 0.288640
O O18 0.712084 0.054655 0.286343
O O19 0.500000 0.382001 0.598350
O O20 0.500000 0.170923 0.337879
#
# Coordination Sequence:
#
# PCOD8167322 Si02
#       8
#     4   4   4   4   4   4   4   4
#     4   9  17  32  54  80 106 139 181 230 281 330
#     4   9  16  31  58  85 106 135 180 230 277 328
#     4  10  22  39  54  74 112 152 186 232 281 326
#     4   9  18  34  54  85 120 142 176 230 285 330
#     4  10  22  37  54  78 109 149 191 234 282 333
#     4   9  17  31  56  88 114 139 177 228 277 324
#     4  10  19  34  57  82 111 145 182 232 286 334
#     4  10  21  34  57  86 114 151 187 226 275 335
#
# _framework density 19.193964999999999
#
# number of rings (size 3 to 8) (size 9 to 14) (size 15 to 20)
#    0.000    2.500    1.250    0.750    1.750    3.000 
#    0.000    5.000    0.000    1.500    0.000    0.000 
#    0.000    0.000    0.000    0.000    0.000    0.000 
#
# Total GULP energy -396679.066185 kJ/mol
# GULP energy per Si atom -12396.220818 kJ/mol
# Density = 1.915028 g / cm^3
# Si number density = 19.193965 Si / 1000 Ang^3
#
#
#
# Elastic Constant Matrix: (Units=GPa)
#
#
# Indices 1 2 3 4 5 6 
#
# 1 45.9231 34.5271 27.4700 0.0000 0.0000 0.0000
# 2 34.5271 110.6721 45.1996 0.0000 0.0000 0.0000
# 3 27.4700 45.1996 84.8537 0.0000 0.0000 0.0000
# 4 0.0000 0.0000 0.0000 27.0198 0.0000 0.0000
# 5 0.0000 0.0000 0.0000 0.0000 9.5522 0.0000
# 6 0.0000 0.0000 0.0000 0.0000 0.0000 14.0044
#
#
#
# Elastic Compliance Matrix: (Units=1/GPa)
#
#
# Indices 1 2 3 4 5 6 
#
# 1 0.030808 -0.007078 -0.006203 0.000000 0.000000 0.000000
# 2 -0.007078 0.013174 -0.004726 0.000000 0.000000 0.000000
# 3 -0.006203 -0.004726 0.016311 0.000000 0.000000 0.000000
# 4 0.000000 0.000000 0.000000 0.037010 0.000000 0.000000
# 5 0.000000 0.000000 0.000000 0.000000 0.104688 0.000000
# 6 0.000000 0.000000 0.000000 0.000000 0.000000 0.071406
#
#
# Mechanical properties :
#
#
# Convention : Reuss Voigt Hill
#
# Bulk Modulus (GPa) = 41.18978 50.64915 45.91947
# Shear Modulus (GPa) = 15.74785 19.06541 17.40663
#
# Velocity S-wave (km/s) = 2.86747 3.15509 3.01471
# Velocity P-wave (km/s) = 5.69820 6.30223 6.00781
#
# Compressibility (1/GPa) = 0.02427787
#
# Stress axis : x y z
#
# Youngs Moduli (GPa) = 32.45953 75.90697 61.30932
#
# Poissons Ratio (x) = 0.53725 0.38032
# Poissons Ratio (y) = 0.22974 0.28976
# Poissons Ratio (z) = 0.20136 0.35875
#
# Static dielectric constant tensor:
#      x y z
#    x 3.187990 0.000000 0.000000 
#    y 0.000000 3.566580 0.000000 
#    z 0.000000 0.000000 3.513060 
# 
# 
# High freq. dielectric constant tensor:
#      x y z
#    x 1.704560 0.000000 0.000000 
#    y 0.000000 1.749880 0.000000 
#    z 0.000000 0.000000 1.749730 
# 
# From -- ./inp_files/3068.got.cif
#   From: 2010.03.12/outbox.cif.g09.slc.cpg/sg26_2_cif.got.tgz:3068.got - 2010.04.14 03:33:09.
