data_PCOD8167541
_publ_section_title
;
Structure prediction by ZEFSAII (Michael W. Deem and Ramdas Pophale) SiO2 
 PCOD8167541
Probable space group: P M C 21
;
_chemical_formula_sum "Si O2"
_cell_formula_units_Z 32
_cell_length_a 8.796122
_cell_length_b 14.242425
_cell_length_c 12.239345
_cell_angle_alpha 90.000000
_cell_angle_beta 90.000000
_cell_angle_gamma 90.000000
_cell_volume 1533.321983
_symmetry_space_group_name_H-M "P M C 21"
_symmetry_group_IT_number 26
_symmetry_cell_setting 'orthorhombic'
loop_
_space_group_symop_operation_xyz
x,y,z
-x,-y,1/2+z
-x,y,z
x,-y,1/2+z
loop_
_atom_site_type_symbol
_atom_site_label
_atom_site_fract_x
_atom_site_fract_y
_atom_site_fract_z
Si Si1 0.173690 0.439421 0.646040
Si Si2 0.332198 0.137106 0.718678
Si Si3 0.668344 0.331888 0.825176
Si Si4 0.824940 0.936684 0.427075
Si Si5 0.680668 0.772651 0.541526
Si Si6 0.824468 0.354896 0.215607
Si Si7 0.171655 0.143752 0.502941
Si Si8 0.321468 0.333329 0.444685
O O1 0.223423 0.407899 0.768188
O O2 0.194185 0.551403 0.643276
O O3 0.271192 0.393946 0.549355
O O4 0.000000 0.409158 0.628399
O O5 0.500000 0.100674 0.684327
O O6 0.340988 0.247489 0.739465
O O7 0.279917 0.083201 0.824832
O O8 0.208524 0.117861 0.626978
O O9 0.500000 0.375519 0.842242
O O10 0.733114 0.295379 0.941408
O O11 0.760323 0.874564 0.528083
O O12 0.000000 0.908282 0.408175
O O13 0.807001 0.047455 0.439251
O O14 0.500000 0.786254 0.539685
O O15 0.733653 0.728482 0.655728
O O16 0.758714 0.372128 0.336190
O O17 0.000000 0.325565 0.225811
O O18 0.283513 0.223383 0.458065
O O19 0.000000 0.181651 0.494125
O O20 0.500000 0.344986 0.431203
#
# Coordination Sequence:
#
# PCOD8167541 Si02
#       8
#     4   4   4   4   4   4   4   4
#     4  11  24  41  65  94 125 164 210 261 316 378
#     4  10  20  36  59  89 121 159 207 260 316 374
#     4   9  19  36  60  90 121 156 203 259 311 370
#     4  10  22  39  62  92 126 169 215 263 320 380
#     4  10  22  41  64  93 128 167 213 264 320 378
#     4  11  26  45  65  93 131 172 216 263 320 386
#     4  11  23  40  64  92 126 167 212 263 320 381
#     4  12  26  44  67  95 130 168 212 265 323 381
#
# _framework density 20.869720000000001
#
# number of rings (size 3 to 8) (size 9 to 14) (size 15 to 20)
#    0.000    1.500    1.250    4.125    1.750    7.500 
#    0.000    1.250    0.000    0.000    0.000    0.000 
#    0.000    0.000    0.000    0.000    0.000    0.000 
#
# Total GULP energy -396849.148591 kJ/mol
# GULP energy per Si atom -12401.535893 kJ/mol
# Density = 2.082222 g / cm^3
# Si number density = 20.869720 Si / 1000 Ang^3
#
#
#
# Elastic Constant Matrix: (Units=GPa)
#
#
# Indices 1 2 3 4 5 6 
#
# 1 104.1738 40.8322 22.8147 0.0000 0.0000 0.0000
# 2 40.8322 72.9134 19.2582 0.0000 0.0000 0.0000
# 3 22.8147 19.2582 69.9568 0.0000 0.0000 0.0000
# 4 0.0000 0.0000 0.0000 22.5364 0.0000 0.0000
# 5 0.0000 0.0000 0.0000 0.0000 37.2044 0.0000
# 6 0.0000 0.0000 0.0000 0.0000 0.0000 15.5378
#
#
#
# Elastic Compliance Matrix: (Units=1/GPa)
#
#
# Indices 1 2 3 4 5 6 
#
# 1 0.012646 -0.006462 -0.002345 0.000000 0.000000 0.000000
# 2 -0.006462 0.018093 -0.002873 0.000000 0.000000 0.000000
# 3 -0.002345 -0.002873 0.015850 0.000000 0.000000 0.000000
# 4 0.000000 0.000000 0.000000 0.044373 0.000000 0.000000
# 5 0.000000 0.000000 0.000000 0.000000 0.026879 0.000000
# 6 0.000000 0.000000 0.000000 0.000000 0.000000 0.064359
#
#
# Mechanical properties :
#
#
# Convention : Reuss Voigt Hill
#
# Bulk Modulus (GPa) = 43.05228 45.87268 44.46248
# Shear Modulus (GPa) = 23.44077 25.99831 24.71954
#
# Velocity S-wave (km/s) = 3.35505 3.53334 3.44535
# Velocity P-wave (km/s) = 5.97347 6.21886 6.09740
#
# Compressibility (1/GPa) = 0.02322758
#
# Stress axis : x y z
#
# Youngs Moduli (GPa) = 79.07651 55.27064 63.09033
#
# Poissons Ratio (x) = 0.35718 0.14796
# Poissons Ratio (y) = 0.51103 0.18127
# Poissons Ratio (z) = 0.18545 0.15880
#
# Static dielectric constant tensor:
#      x y z
#    x 3.914020 0.000000 0.000000 
#    y 0.000000 3.743610 0.000000 
#    z 0.000000 0.000000 3.705260 
# 
# 
# High freq. dielectric constant tensor:
#      x y z
#    x 1.828290 0.000000 0.000000 
#    y 0.000000 1.812220 0.000000 
#    z 0.000000 0.000000 1.815050 
# 
# From -- ./inp_files/2974.got.cif
#   From: 2010.03.12/outbox.cif.g09.slc.cpg/sg26_2_cif.got.tgz:2974.got - 2010.04.14 03:33:09.
