data_PCOD8167236
_publ_section_title
;
Structure prediction by ZEFSAII (Michael W. Deem and Ramdas Pophale) SiO2 
 PCOD8167236
Probable space group: P M C 21
;
_chemical_formula_sum "Si O2"
_cell_formula_units_Z 32
_cell_length_a 13.532222
_cell_length_b 8.940597
_cell_length_c 13.475132
_cell_angle_alpha 90.000000
_cell_angle_beta 90.000000
_cell_angle_gamma 90.000000
_cell_volume 1630.304253
_symmetry_space_group_name_H-M "P M C 21"
_symmetry_group_IT_number 26
_symmetry_cell_setting 'orthorhombic'
loop_
_space_group_symop_operation_xyz
x,y,z
-x,-y,1/2+z
-x,y,z
x,-y,1/2+z
loop_
_atom_site_type_symbol
_atom_site_label
_atom_site_fract_x
_atom_site_fract_y
_atom_site_fract_z
Si Si1 0.386250 0.241718 0.443750
Si Si2 0.234123 0.180901 0.873949
Si Si3 0.738315 0.997461 0.064257
Si Si4 0.112119 0.195136 0.690603
Si Si5 0.701490 0.912434 0.771013
Si Si6 0.239020 0.497802 0.434505
Si Si7 0.890129 0.521789 0.616019
Si Si8 0.113348 0.721978 0.803279
O O1 0.500000 0.256356 0.472297
O O2 0.337220 0.116775 0.513278
O O3 0.373977 0.198412 0.327010
O O4 0.336042 0.402464 0.460254
O O5 0.135016 0.172250 0.807223
O O6 0.271706 0.352706 0.875779
O O7 0.314785 0.080473 0.814275
O O8 0.217519 0.112670 0.983813
O O9 0.826783 0.909022 0.116233
O O10 0.682509 0.089631 0.152519
O O11 0.137059 0.365928 0.667010
O O12 0.000000 0.151597 0.671235
O O13 0.815015 0.866267 0.801243
O O14 0.189453 0.560631 0.533519
O O15 0.156357 0.398351 0.380244
O O16 0.884060 0.654330 0.694295
O O17 0.000000 0.514438 0.569797
O O18 0.000000 0.764356 0.833363
#
# Coordination Sequence:
#
# PCOD8167236 Si02
#       8
#     4   4   4   4   4   4   4   4
#     4  10  22  40  62  86 112 149 196 248 304 358
#     4  10  21  36  58  84 116 155 194 238 292 346
#     4  10  20  40  60  87 116 159 193 240 301 349
#     4  10  20  35  55  86 124 158 197 237 279 337
#     4   9  21  38  59  85 119 151 189 241 300 349
#     4  11  20  36  58  81 114 152 196 246 289 348
#     4  10  19  32  54  82 114 154 196 235 279 332
#     4  10  20  35  55  83 117 158 198 237 287 343
#
# _framework density 19.628238
#
# number of rings (size 3 to 8) (size 9 to 14) (size 15 to 20)
#    0.000    2.000    2.500    1.125    0.000    3.500 
#    0.000    2.500    0.000   15.750    0.000    0.000 
#    0.000    0.000    0.000    0.000    0.000    0.000 
#
# Total GULP energy -396631.433812 kJ/mol
# GULP energy per Si atom -12394.732307 kJ/mol
# Density = 1.958356 g / cm^3
# Si number density = 19.628238 Si / 1000 Ang^3
#
#
#
# Elastic Constant Matrix: (Units=GPa)
#
#
# Indices 1 2 3 4 5 6 
#
# 1 95.0441 35.8274 31.7279 0.0000 0.0000 0.0000
# 2 35.8274 87.0507 21.1358 0.0000 0.0000 0.0000
# 3 31.7279 21.1358 104.8721 0.0000 0.0000 0.0000
# 4 0.0000 0.0000 0.0000 29.7775 0.0000 0.0000
# 5 0.0000 0.0000 0.0000 0.0000 17.5518 0.0000
# 6 0.0000 0.0000 0.0000 0.0000 0.0000 13.6156
#
#
#
# Elastic Compliance Matrix: (Units=1/GPa)
#
#
# Indices 1 2 3 4 5 6 
#
# 1 0.013337 -0.004741 -0.003079 0.000000 0.000000 0.000000
# 2 -0.004741 0.013764 -0.001340 0.000000 0.000000 0.000000
# 3 -0.003079 -0.001340 0.010737 0.000000 0.000000 0.000000
# 4 0.000000 0.000000 0.000000 0.033582 0.000000 0.000000
# 5 0.000000 0.000000 0.000000 0.000000 0.056974 0.000000
# 6 0.000000 0.000000 0.000000 0.000000 0.000000 0.073445
#
#
# Mechanical properties :
#
#
# Convention : Reuss Voigt Hill
#
# Bulk Modulus (GPa) = 51.23618 51.59434 51.41526
# Shear Modulus (GPa) = 22.05890 25.40736 23.73313
#
# Velocity S-wave (km/s) = 3.35600 3.60172 3.48103
# Velocity P-wave (km/s) = 6.41693 6.60601 6.51215
#
# Compressibility (1/GPa) = 0.01951746
#
# Stress axis : x y z
#
# Youngs Moduli (GPa) = 74.98151 72.65231 93.13585
#
# Poissons Ratio (x) = 0.34447 0.28679
# Poissons Ratio (y) = 0.35551 0.12476
# Poissons Ratio (z) = 0.23089 0.09732
#
# Static dielectric constant tensor:
#      x y z
#    x 3.204550 0.000000 0.000000 
#    y 0.000000 3.727610 0.000000 
#    z 0.000000 0.000000 3.795340 
# 
# 
# High freq. dielectric constant tensor:
#      x y z
#    x 1.719620 0.000000 0.000000 
#    y 0.000000 1.776910 0.000000 
#    z 0.000000 0.000000 1.774910 
# 
# From -- ./inp_files/4562.got.cif
#   From: 2010.03.12/outbox.cif.g09.slc.cpg/sg26_3_cif.got.tgz:4562.got - 2010.04.14 03:33:09.
