data_PCOD8167955
_publ_section_title
;
Structure prediction by ZEFSAII (Michael W. Deem and Ramdas Pophale) SiO2 
 PCOD8167955
Probable space group: P C C 2
;
_chemical_formula_sum "Si O2"
_cell_formula_units_Z 24
_cell_length_a 8.676154
_cell_length_b 12.793519
_cell_length_c 9.241774
_cell_angle_alpha 90.000000
_cell_angle_beta 90.000000
_cell_angle_gamma 90.000000
_cell_volume 1025.823431
_symmetry_space_group_name_H-M "P C C 2"
_symmetry_group_IT_number 27
_symmetry_cell_setting 'orthorhombic'
loop_
_space_group_symop_operation_xyz
x,y,z
-x,-y,z
-x,y,1/2+z
x,-y,1/2+z
loop_
_atom_site_type_symbol
_atom_site_label
_atom_site_fract_x
_atom_site_fract_y
_atom_site_fract_z
Si Si1 0.853546 0.941159 0.695210
Si Si2 0.458101 0.265111 0.568728
Si Si3 0.888318 0.738423 0.539587
Si Si4 0.646610 0.930629 0.970636
Si Si5 0.421892 0.604109 0.337971
Si Si6 0.925209 0.611731 0.816013
O O1 0.941353 0.846695 0.611768
O O2 0.753517 0.010611 0.585565
O O3 0.742367 0.902684 0.825092
O O4 0.000000 0.000000 0.764280
O O5 0.290518 0.235187 0.506489
O O6 0.584921 0.175677 0.543632
O O7 0.500146 0.372787 0.490602
O O8 0.449973 0.294024 0.737631
O O9 0.912513 0.641673 0.648125
O O10 0.983314 0.705844 0.397035
O O11 0.500000 0.000000 0.924918
O O12 0.500000 0.500000 0.272332
O O13 0.243820 0.593115 0.377684
O O14 0.000000 0.500000 0.833091
#
# Coordination Sequence:
#
# PCOD8167955 Si02
#       6
#     4   4   4   4   4   4
#     4  12  29  47  73 110 149 193 246 302 371 441
#     4  11  25  45  74 105 143 187 247 300 362 437
#     4  11  26  46  71 106 146 193 244 301 370 437
#     4  12  26  48  76 107 147 195 246 303 362 439
#     4  11  25  45  72 108 143 190 247 305 368 438
#     4  11  25  46  72 105 147 191 243 303 374 441
#
# _framework density 23.39584
#
# number of rings (size 3 to 8) (size 9 to 14) (size 15 to 20)
#    0.000    0.667    1.667    5.000    9.333    5.333 
#    0.000    0.000    0.000    0.000    0.000    0.000 
#    0.000    0.000    0.000    0.000    0.000    0.000 
#
# Total GULP energy -297569.298040 kJ/mol
# GULP energy per Si atom -12398.720752 kJ/mol
# Density = 2.334259 g / cm^3
# Si number density = 23.395840 Si / 1000 Ang^3
#
#
#
# Elastic Constant Matrix: (Units=GPa)
#
#
# Indices 1 2 3 4 5 6 
#
# 1 117.5923 51.5851 38.0788 0.0000 0.0000 0.0000
# 2 51.5851 131.3913 29.2989 0.0000 0.0000 0.0000
# 3 38.0788 29.2989 72.0165 0.0000 0.0000 0.0000
# 4 0.0000 0.0000 0.0000 26.0279 0.0000 0.0000
# 5 0.0000 0.0000 0.0000 0.0000 32.5158 0.0000
# 6 0.0000 0.0000 0.0000 0.0000 0.0000 49.9634
#
#
#
# Elastic Compliance Matrix: (Units=1/GPa)
#
#
# Indices 1 2 3 4 5 6 
#
# 1 0.011553 -0.003490 -0.004689 0.000000 0.000000 0.000000
# 2 -0.003490 0.009425 -0.001989 0.000000 0.000000 0.000000
# 3 -0.004689 -0.001989 0.017174 0.000000 0.000000 0.000000
# 4 0.000000 0.000000 0.000000 0.038420 0.000000 0.000000
# 5 0.000000 0.000000 0.000000 0.000000 0.030754 0.000000
# 6 0.000000 0.000000 0.000000 0.000000 0.000000 0.020015
#
#
# Mechanical properties :
#
#
# Convention : Reuss Voigt Hill
#
# Bulk Modulus (GPa) = 56.12887 62.10284 59.11585
# Shear Modulus (GPa) = 32.54863 35.17056 33.85959
#
# Velocity S-wave (km/s) = 3.73395 3.88143 3.80840
# Velocity P-wave (km/s) = 6.52938 6.83296 6.68289
#
# Compressibility (1/GPa) = 0.01781614
#
# Stress axis : x y z
#
# Youngs Moduli (GPa) = 86.55404 106.10445 58.22733
#
# Poissons Ratio (x) = 0.37035 0.27302
# Poissons Ratio (y) = 0.30211 0.11580
# Poissons Ratio (z) = 0.40584 0.21102
#
# Static dielectric constant tensor:
#      x y z
#    x 4.209090 0.000000 0.000000 
#    y 0.000000 4.298130 0.000000 
#    z 0.000000 0.000000 4.093870 
# 
# 
# High freq. dielectric constant tensor:
#      x y z
#    x 1.939190 0.000000 0.000000 
#    y 0.000000 1.938370 0.000000 
#    z 0.000000 0.000000 1.921340 
# 
# From -- ./inp_files/1144.got.cif
#   From: 2010.03.12/outbox.cif.g09.slc.cpg/sg27_1_cif.got.tgz:1144.got - 2010.04.14 03:36:05.
