data_PCOD8167736
_publ_section_title
;
Structure prediction by ZEFSAII (Michael W. Deem and Ramdas Pophale) SiO2 
 PCOD8167736
Probable space group: P M C 21
;
_chemical_formula_sum "Si O2"
_cell_formula_units_Z 20
_cell_length_a 9.202775
_cell_length_b 9.550541
_cell_length_c 9.805423
_cell_angle_alpha 90.000000
_cell_angle_beta 90.000000
_cell_angle_gamma 90.000000
_cell_volume 861.813139
_symmetry_space_group_name_H-M "P M C 21"
_symmetry_group_IT_number 26
_symmetry_cell_setting 'orthorhombic'
loop_
_space_group_symop_operation_xyz
x,y,z
-x,-y,1/2+z
-x,y,z
x,-y,1/2+z
loop_
_atom_site_type_symbol
_atom_site_label
_atom_site_fract_x
_atom_site_fract_y
_atom_site_fract_z
Si Si1 0.663706 0.026754 0.347640
Si Si2 0.663141 0.423908 0.680713
Si Si3 0.250808 0.272296 0.181562
Si Si4 0.834214 0.752542 0.378713
Si Si5 0.161163 0.748024 0.968124
O O1 0.500000 0.985992 0.390492
O O2 0.755770 0.888370 0.314570
O O3 0.657835 0.130686 0.215580
O O4 0.744635 0.108032 0.472654
O O5 0.500000 0.361430 0.679172
O O6 0.647735 0.591348 0.670014
O O7 0.746404 0.379850 0.819161
O O8 0.754437 0.369671 0.551989
O O9 0.142936 0.299558 0.309720
O O10 0.164902 0.248783 0.041928
O O11 0.000000 0.750016 0.327537
O O12 0.000000 0.771563 0.029501
#
# Coordination Sequence:
#
# PCOD8167736 Si02
#       5
#     4   4   4   4   4
#     4  10  24  45  70 100 138 184 233 288 346 410
#     4  12  26  45  71 106 144 187 235 289 352 422
#     4  10  26  45  75 100 140 184 239 288 354 415
#     4  12  27  46  73 107 143 187 237 291 354 423
#     4  10  23  43  69  99 139 182 228 286 348 414
#
# _framework density 23.206887999999999
#
# number of rings (size 3 to 8) (size 9 to 14) (size 15 to 20)
#    1.200    0.000    0.000    4.800    2.800    9.600 
#    0.000    0.000    0.000    0.000    0.000    0.000 
#    0.000    0.000    0.000    0.000    0.000    0.000 
#
# Total GULP energy -247849.041096 kJ/mol
# GULP energy per Si atom -12392.452055 kJ/mol
# Density = 2.315407 g / cm^3
# Si number density = 23.206888 Si / 1000 Ang^3
#
#
#
# Elastic Constant Matrix: (Units=GPa)
#
#
# Indices 1 2 3 4 5 6 
#
# 1 204.4891 41.4703 29.3364 0.0000 0.0000 0.0000
# 2 41.4703 111.2422 15.2856 0.0000 0.0000 0.0000
# 3 29.3364 15.2856 112.0839 0.0000 0.0000 0.0000
# 4 0.0000 0.0000 0.0000 31.1738 0.0000 0.0000
# 5 0.0000 0.0000 0.0000 0.0000 21.3351 0.0000
# 6 0.0000 0.0000 0.0000 0.0000 0.0000 26.9097
#
#
#
# Elastic Compliance Matrix: (Units=1/GPa)
#
#
# Indices 1 2 3 4 5 6 
#
# 1 0.005436 -0.001866 -0.001168 0.000000 0.000000 0.000000
# 2 -0.001866 0.009802 -0.000848 0.000000 0.000000 0.000000
# 3 -0.001168 -0.000848 0.009343 0.000000 0.000000 0.000000
# 4 0.000000 0.000000 0.000000 0.032078 0.000000 0.000000
# 5 0.000000 0.000000 0.000000 0.000000 0.046871 0.000000
# 6 0.000000 0.000000 0.000000 0.000000 0.000000 0.037161
#
#
# Mechanical properties :
#
#
# Convention : Reuss Voigt Hill
#
# Bulk Modulus (GPa) = 59.46787 66.66665 63.06726
# Shear Modulus (GPa) = 32.45435 38.66526 35.55981
#
# Velocity S-wave (km/s) = 3.74368 4.08623 3.91870
# Velocity P-wave (km/s) = 6.66090 7.14510 6.90725
#
# Compressibility (1/GPa) = 0.01681580
#
# Stress axis : x y z
#
# Youngs Moduli (GPa) = 183.94893 102.02404 107.02757
#
# Poissons Ratio (x) = 0.19038 0.12505
# Poissons Ratio (y) = 0.34326 0.09079
# Poissons Ratio (z) = 0.21492 0.08655
#
# Static dielectric constant tensor:
#      x y z
#    x 3.889970 0.000000 0.000000 
#    y 0.000000 4.085660 0.000000 
#    z 0.000000 0.000000 3.965710 
# 
# 
# High freq. dielectric constant tensor:
#      x y z
#    x 1.912380 0.000000 0.000000 
#    y 0.000000 1.917050 0.000000 
#    z 0.000000 0.000000 1.911380 
# 
# From -- ./inp_files/1284.got.cif
#   From: 2010.03.12/outbox.cif.g09.slc.cpg/sg26_1_cif.got.tgz:1284.got - 2010.04.14 03:33:09.
