data_PCOD8167198
_publ_section_title
;
Structure prediction by ZEFSAII (Michael W. Deem and Ramdas Pophale) SiO2 
 PCOD8167198
Probable space group: P M C 21
;
_chemical_formula_sum "Si O2"
_cell_formula_units_Z 32
_cell_length_a 9.272227
_cell_length_b 9.418339
_cell_length_c 20.408206
_cell_angle_alpha 90.000000
_cell_angle_beta 90.000000
_cell_angle_gamma 90.000000
_cell_volume 1782.227756
_symmetry_space_group_name_H-M "P M C 21"
_symmetry_group_IT_number 26
_symmetry_cell_setting 'orthorhombic'
loop_
_space_group_symop_operation_xyz
x,y,z
-x,-y,1/2+z
-x,y,z
x,-y,1/2+z
loop_
_atom_site_type_symbol
_atom_site_label
_atom_site_fract_x
_atom_site_fract_y
_atom_site_fract_z
Si Si1 0.663903 0.481972 0.825590
Si Si2 0.333133 0.953805 0.694624
Si Si3 0.665227 0.844050 0.312459
Si Si4 0.840495 0.062077 0.072046
Si Si5 0.334993 0.411610 0.967053
Si Si6 0.169137 0.872743 0.433692
Si Si7 0.840308 0.600074 0.585984
Si Si8 0.829294 0.330681 0.226571
O O1 0.500000 0.509355 0.801815
O O2 0.710230 0.320803 0.808720
O O3 0.675701 0.514712 0.903813
O O4 0.772354 0.587280 0.789726
O O5 0.500000 0.911182 0.688325
O O6 0.274539 0.001435 0.623056
O O7 0.245692 0.821957 0.723487
O O8 0.309721 0.087688 0.741700
O O9 0.500000 0.857087 0.335378
O O10 0.761271 0.930353 0.366115
O O11 0.839177 0.231740 0.075354
O O12 0.000000 0.005401 0.090702
O O13 0.803725 0.021908 0.996056
O O14 0.500000 0.371525 0.981923
O O15 0.247041 0.273968 0.947886
O O16 0.266257 0.477159 0.033885
O O17 0.000000 0.846101 0.423872
O O18 0.792045 0.575921 0.661482
O O19 0.000000 0.538020 0.573993
O O20 0.000000 0.306083 0.232166
#
# Coordination Sequence:
#
# PCOD8167198 Si02
#       8
#     4   4   4   4   4   4   4   4
#     4   9  18  32  48  68  95 123 153 191 231 274
#     4  10  19  31  49  71  95 125 157 190 232 277
#     4   9  19  33  48  70  97 122 154 194 231 274
#     4   8  15  27  42  65  94 119 150 192 229 268
#     4   9  16  26  43  67  92 117 150 192 233 272
#     4   9  16  26  43  66  91 120 153 189 230 272
#     4   8  15  27  42  63  91 118 149 190 230 270
#     4  10  20  32  47  70  97 124 156 192 230 275
#
# _framework density 17.955055999999999
#
# number of rings (size 3 to 8) (size 9 to 14) (size 15 to 20)
#    0.000    3.000    0.000    3.750    0.000    9.000 
#    0.000    0.000    0.000    1.500    0.000    5.250 
#    0.000    0.000    0.000    0.000    0.000    0.000 
#
# Total GULP energy -396505.464392 kJ/mol
# GULP energy per Si atom -12390.795762 kJ/mol
# Density = 1.791419 g / cm^3
# Si number density = 17.955056 Si / 1000 Ang^3
#
#
#
# Elastic Constant Matrix: (Units=GPa)
#
#
# Indices 1 2 3 4 5 6 
#
# 1 77.3354 3.6735 13.5842 0.0000 0.0000 0.0000
# 2 3.6735 14.7866 -9.2852 0.0000 0.0000 0.0000
# 3 13.5842 -9.2852 32.9032 0.0000 0.0000 0.0000
# 4 0.0000 0.0000 0.0000 18.7322 0.0000 0.0000
# 5 0.0000 0.0000 0.0000 0.0000 38.9753 0.0000
# 6 0.0000 0.0000 0.0000 0.0000 0.0000 9.7420
#
#
#
# Elastic Compliance Matrix: (Units=1/GPa)
#
#
# Indices 1 2 3 4 5 6 
#
# 1 0.014904 -0.009196 -0.008748 0.000000 0.000000 0.000000
# 2 -0.009196 0.087869 0.028593 0.000000 0.000000 0.000000
# 3 -0.008748 0.028593 0.042073 0.000000 0.000000 0.000000
# 4 0.000000 0.000000 0.000000 0.053384 0.000000 0.000000
# 5 0.000000 0.000000 0.000000 0.000000 0.025657 0.000000
# 6 0.000000 0.000000 0.000000 0.000000 0.000000 0.102648
#
#
# Mechanical properties :
#
#
# Convention : Reuss Voigt Hill
#
# Bulk Modulus (GPa) = 6.01893 15.66335 10.84114
# Shear Modulus (GPa) = 13.86504 21.29341 17.57922
#
# Velocity S-wave (km/s) = 2.78188 3.44747 3.13240
# Velocity P-wave (km/s) = 3.69837 4.95876 4.37420
#
# Compressibility (1/GPa) = 0.16614243
#
# Stress axis : x y z
#
# Youngs Moduli (GPa) = 67.09519 11.38063 23.76825
#
# Poissons Ratio (x) = 0.10466 0.20793
# Poissons Ratio (y) = 0.61703 -0.67961
# Poissons Ratio (z) = 0.58698 -0.32541
#
# Static dielectric constant tensor:
#      x y z
#    x 3.569610 0.000000 0.000000 
#    y 0.000000 2.692870 0.000000 
#    z 0.000000 0.000000 4.216980 
# 
# 
# High freq. dielectric constant tensor:
#      x y z
#    x 1.705850 0.000000 0.000000 
#    y 0.000000 1.619420 0.000000 
#    z 0.000000 0.000000 1.715870 
# 
# From -- ./inp_files/5019.got.cif
#   From: 2010.03.12/outbox.cif.g09.slc.cpg/sg26_3_cif.got.tgz:5019.got - 2010.04.14 03:33:09.
