data_PCOD8167213
_publ_section_title
;
Structure prediction by ZEFSAII (Michael W. Deem and Ramdas Pophale) SiO2 
 PCOD8167213
Probable space group: P M C 21
;
_chemical_formula_sum "Si O2"
_cell_formula_units_Z 32
_cell_length_a 9.040727
_cell_length_b 14.459234
_cell_length_c 14.241779
_cell_angle_alpha 90.000000
_cell_angle_beta 90.000000
_cell_angle_gamma 90.000000
_cell_volume 1861.713652
_symmetry_space_group_name_H-M "P M C 21"
_symmetry_group_IT_number 26
_symmetry_cell_setting 'orthorhombic'
loop_
_space_group_symop_operation_xyz
x,y,z
-x,-y,1/2+z
-x,y,z
x,-y,1/2+z
loop_
_atom_site_type_symbol
_atom_site_label
_atom_site_fract_x
_atom_site_fract_y
_atom_site_fract_z
Si Si1 0.324851 0.521350 0.236370
Si Si2 0.676178 0.648027 0.399798
Si Si3 0.673394 0.354004 0.365645
Si Si4 0.832727 0.013974 0.772014
Si Si5 0.324184 0.485765 0.528747
Si Si6 0.325347 0.856082 0.417649
Si Si7 0.674739 0.906807 0.626333
Si Si8 0.833149 0.189447 0.278727
O O1 0.500000 0.527992 0.230374
O O2 0.266546 0.606368 0.300337
O O3 0.280604 0.423695 0.282406
O O4 0.254534 0.527216 0.132314
O O5 0.500000 0.647711 0.401421
O O6 0.735098 0.581467 0.483244
O O7 0.736490 0.751351 0.414123
O O8 0.500000 0.332971 0.364046
O O9 0.722240 0.398449 0.464826
O O10 0.759602 0.258517 0.352649
O O11 0.750179 0.088554 0.834322
O O12 0.000000 0.047433 0.752547
O O13 0.747896 0.999643 0.671694
O O14 0.832165 0.913830 0.824490
O O15 0.500000 0.491020 0.533622
O O16 0.500000 0.858648 0.401605
O O17 0.282004 0.900887 0.517205
O O18 0.500000 0.908880 0.640855
O O19 0.740125 0.816262 0.680753
O O20 0.000000 0.221398 0.256135
#
# Coordination Sequence:
#
# PCOD8167213 Si02
#       8
#     4   4   4   4   4   4   4   4
#     4   8  14  25  43  68 101 130 157 200 250 295
#     4   8  15  26  41  70 103 128 160 201 249 297
#     4   9  16  26  46  72  93 124 163 204 246 289
#     4   9  20  35  50  70 101 136 163 201 254 310
#     4   8  14  24  41  68  99 128 160 198 245 295
#     4  10  19  31  53  78 101 131 167 216 260 295
#     4   9  18  32  52  77  98 121 164 213 253 295
#     4   9  19  33  48  69  96 128 158 197 251 300
#
# _framework density 17.188465000000001
#
# number of rings (size 3 to 8) (size 9 to 14) (size 15 to 20)
#    0.750    2.500    0.000    2.250    1.750    1.000 
#    0.000    1.250    0.000    6.750    0.000    0.000 
#    0.000    0.000    0.000    0.000    0.000    0.000 
#
# Total GULP energy -396470.999570 kJ/mol
# GULP energy per Si atom -12389.718737 kJ/mol
# Density = 1.714934 g / cm^3
# Si number density = 17.188465 Si / 1000 Ang^3
#
#
#
# Elastic Constant Matrix: (Units=GPa)
#
#
# Indices 1 2 3 4 5 6 
#
# 1 45.2384 26.3195 24.7408 0.0000 0.0000 0.0000
# 2 26.3195 75.0893 44.4594 0.0000 0.0000 0.0000
# 3 24.7408 44.4594 125.7012 0.0000 0.0000 0.0000
# 4 0.0000 0.0000 0.0000 23.4518 0.0000 0.0000
# 5 0.0000 0.0000 0.0000 0.0000 5.7330 0.0000
# 6 0.0000 0.0000 0.0000 0.0000 0.0000 13.6918
#
#
#
# Elastic Compliance Matrix: (Units=1/GPa)
#
#
# Indices 1 2 3 4 5 6 
#
# 1 0.028434 -0.008415 -0.002620 0.000000 0.000000 0.000000
# 2 -0.008415 0.019336 -0.005183 0.000000 0.000000 0.000000
# 3 -0.002620 -0.005183 0.010304 0.000000 0.000000 0.000000
# 4 0.000000 0.000000 0.000000 0.042641 0.000000 0.000000
# 5 0.000000 0.000000 0.000000 0.000000 0.174428 0.000000
# 6 0.000000 0.000000 0.000000 0.000000 0.000000 0.073036
#
#
# Mechanical properties :
#
#
# Convention : Reuss Voigt Hill
#
# Bulk Modulus (GPa) = 39.00437 48.56318 43.78378
# Shear Modulus (GPa) = 12.84819 18.60928 15.72874
#
# Velocity S-wave (km/s) = 2.73699 3.29395 3.02830
# Velocity P-wave (km/s) = 5.72098 6.54076 6.14455
#
# Compressibility (1/GPa) = 0.02563815
#
# Stress axis : x y z
#
# Youngs Moduli (GPa) = 35.16933 51.71825 97.04884
#
# Poissons Ratio (x) = 0.43521 0.25428
# Poissons Ratio (y) = 0.29595 0.50296
# Poissons Ratio (z) = 0.09215 0.26803
#
# Static dielectric constant tensor:
#      x y z
#    x 2.841820 0.000000 0.000000 
#    y 0.000000 3.152980 0.000000 
#    z 0.000000 0.000000 3.380410 
# 
# 
# High freq. dielectric constant tensor:
#      x y z
#    x 1.629400 0.000000 0.000000 
#    y 0.000000 1.652280 0.000000 
#    z 0.000000 0.000000 1.656630 
# 
# From -- ./inp_files/4346.got.cif
#   From: 2010.03.12/outbox.cif.g09.slc.cpg/sg26_3_cif.got.tgz:4346.got - 2010.04.14 03:33:09.
