data_PCOD8167909
_publ_section_title
;
Structure prediction by ZEFSAII (Michael W. Deem and Ramdas Pophale) SiO2 
 PCOD8167909
Probable space group: P C C 2
;
_chemical_formula_sum "Si O2"
_cell_formula_units_Z 28
_cell_length_a 5.127245
_cell_length_b 26.651166
_cell_length_c 8.857679
_cell_angle_alpha 90.000000
_cell_angle_beta 90.000000
_cell_angle_gamma 90.000000
_cell_volume 1210.375773
_symmetry_space_group_name_H-M "P C C 2"
_symmetry_group_IT_number 27
_symmetry_cell_setting 'orthorhombic'
loop_
_space_group_symop_operation_xyz
x,y,z
-x,-y,z
-x,y,1/2+z
x,-y,1/2+z
loop_
_atom_site_type_symbol
_atom_site_label
_atom_site_fract_x
_atom_site_fract_y
_atom_site_fract_z
Si Si1 0.313353 0.956261 0.660280
Si Si2 0.000000 0.500000 0.397821
Si Si3 0.184434 0.807673 0.994179
Si Si4 0.000000 0.000000 0.397832
Si Si5 0.324297 0.156515 0.161798
Si Si6 0.313353 0.543739 0.660269
Si Si7 0.184457 0.692326 0.994187
Si Si8 0.675722 0.656514 0.161803
O O1 0.429696 0.900669 0.647469
O O2 0.500000 0.000000 0.722116
O O3 0.220074 0.974099 0.497248
O O4 0.092027 0.954456 0.789347
O O5 0.779926 0.474099 0.497236
O O6 0.907973 0.545544 0.289336
O O7 0.260375 0.830322 0.833349
O O8 0.102586 0.749998 0.974831
O O9 0.434540 0.810206 0.104367
O O10 0.935067 0.836744 0.061225
O O11 0.500000 0.500000 0.722104
O O12 0.429694 0.599331 0.647459
O O13 0.260385 0.669673 0.833360
O O14 0.434583 0.689798 0.104362
O O15 0.935112 0.663252 0.061250
#
# Coordination Sequence:
#
# PCOD8167909 Si02
#       8
#     4   2   4   2   4   4   4   4
#     4  11  25  42  69 100 143 182 234 282 349 425
#     4  10  24  42  66  94 144 180 232 282 340 406
#     4  12  26  49  74 107 144 187 244 305 359 425
#     4  10  24  42  66  94 144 180 232 282 340 406
#     4  12  28  45  78 106 145 190 241 292 372 426
#     4  11  25  42  69 100 143 182 234 282 349 425
#     4  12  26  49  74 107 144 187 244 305 359 425
#     4  12  28  45  78 106 145 190 241 292 372 426
#
# _framework density 23.133310999999999
#
# number of rings (size 3 to 8) (size 9 to 14) (size 15 to 20)
#    0.000    0.571    0.000    6.857   16.000    0.000 
#    0.000    0.000    0.000    0.000    0.000    0.000 
#    0.000    0.000    0.000    0.000    0.000    0.000 
#
# Total GULP energy -347197.175593 kJ/mol
# GULP energy per Si atom -12399.899128 kJ/mol
# Density = 2.308066 g / cm^3
# Si number density = 23.133311 Si / 1000 Ang^3
#
#
#
# Elastic Constant Matrix: (Units=GPa)
#
#
# Indices 1 2 3 4 5 6 
#
# 1 102.5700 23.8289 29.7049 0.0000 0.0000 0.0000
# 2 23.8289 153.5298 29.6687 0.0000 0.0000 0.0000
# 3 29.7049 29.6687 123.5387 0.0000 0.0000 0.0000
# 4 0.0000 0.0000 0.0000 15.4093 0.0000 0.0000
# 5 0.0000 0.0000 0.0000 0.0000 21.4315 0.0000
# 6 0.0000 0.0000 0.0000 0.0000 0.0000 37.6626
#
#
#
# Elastic Compliance Matrix: (Units=1/GPa)
#
#
# Indices 1 2 3 4 5 6 
#
# 1 0.010692 -0.001219 -0.002278 0.000000 0.000000 0.000000
# 2 -0.001219 0.006969 -0.001381 0.000000 0.000000 0.000000
# 3 -0.002278 -0.001381 0.008974 0.000000 0.000000 0.000000
# 4 0.000000 0.000000 0.000000 0.064896 0.000000 0.000000
# 5 0.000000 0.000000 0.000000 0.000000 0.046660 0.000000
# 6 0.000000 0.000000 0.000000 0.000000 0.000000 0.026552
#
#
# Mechanical properties :
#
#
# Convention : Reuss Voigt Hill
#
# Bulk Modulus (GPa) = 59.24258 60.67152 59.95705
# Shear Modulus (GPa) = 27.75829 34.66307 31.21068
#
# Velocity S-wave (km/s) = 3.46775 3.87512 3.67708
# Velocity P-wave (km/s) = 6.45744 6.80485 6.63342
#
# Compressibility (1/GPa) = 0.01687975
#
# Stress axis : x y z
#
# Youngs Moduli (GPa) = 93.52361 143.48386 111.43334
#
# Poissons Ratio (x) = 0.17495 0.25387
# Poissons Ratio (y) = 0.11403 0.15384
# Poissons Ratio (z) = 0.21306 0.19809
#
# Static dielectric constant tensor:
#      x y z
#    x 4.404260 0.000000 0.000000 
#    y 0.000000 4.209720 0.000000 
#    z 0.000000 0.000000 4.278390 
# 
# 
# High freq. dielectric constant tensor:
#      x y z
#    x 1.914990 0.000000 0.000000 
#    y 0.000000 1.916320 0.000000 
#    z 0.000000 0.000000 1.940990 
# 
# From -- ./inp_files/906.got.cif
#   From: 2010.03.12/outbox.cif.g09.slc.cpg/sg27_1_cif.got.tgz:906.got - 2010.04.14 03:36:05.
