data_PCOD8167596
_publ_section_title
;
Structure prediction by ZEFSAII (Michael W. Deem and Ramdas Pophale) SiO2 
 PCOD8167596
Probable space group: P M C 21
;
_chemical_formula_sum "Si O2"
_cell_formula_units_Z 20
_cell_length_a 7.758181
_cell_length_b 14.392336
_cell_length_c 8.914464
_cell_angle_alpha 90.000000
_cell_angle_beta 90.000000
_cell_angle_gamma 90.000000
_cell_volume 995.374321
_symmetry_space_group_name_H-M "P M C 21"
_symmetry_group_IT_number 26
_symmetry_cell_setting 'orthorhombic'
loop_
_space_group_symop_operation_xyz
x,y,z
-x,-y,1/2+z
-x,y,z
x,-y,1/2+z
loop_
_atom_site_type_symbol
_atom_site_label
_atom_site_fract_x
_atom_site_fract_y
_atom_site_fract_z
Si Si1 0.694147 0.399501 0.670090
Si Si2 0.806682 0.217104 0.525979
Si Si3 0.500000 0.110636 0.154470
Si Si4 0.194843 0.576339 0.495009
Si Si5 0.198099 0.244925 0.181725
Si Si6 0.500000 0.914681 0.004076
O O1 0.500000 0.393713 0.610005
O O2 0.787511 0.301725 0.641426
O O3 0.689353 0.420822 0.846943
O O4 0.791601 0.479217 0.579914
O O5 0.772149 0.255876 0.359215
O O6 0.670730 0.136583 0.566466
O O7 0.000000 0.175914 0.540601
O O8 0.326785 0.167815 0.114707
O O9 0.500000 0.081864 0.326284
O O10 0.500000 0.020043 0.054260
O O11 0.250299 0.657045 0.609606
O O12 0.000000 0.590355 0.440954
O O13 0.000000 0.216907 0.145312
#
# Coordination Sequence:
#
# PCOD8167596 Si02
#       6
#     4   4   2   4   4   2
#     4  12  24  37  58  89 121 157 200 241 290 345
#     4  10  20  40  63  85 118 155 196 243 290 346
#     4  10  22  38  63  82 123 146 191 244 298 346
#     4  11  23  39  58  85 120 160 200 238 289 347
#     4   9  21  39  62  87 114 155 198 239 291 349
#     4  10  22  40  57  92 111 154 191 240 296 356
#
# _framework density 20.092943999999999
#
# number of rings (size 3 to 8) (size 9 to 14) (size 15 to 20)
#    0.000    1.600    1.000    3.600    2.800    4.000 
#    0.000    0.000    0.000    0.000    0.000    0.000 
#    0.000    0.000    0.000    0.000    0.000    0.000 
#
# Total GULP energy -248093.423630 kJ/mol
# GULP energy per Si atom -12404.671182 kJ/mol
# Density = 2.004721 g / cm^3
# Si number density = 20.092944 Si / 1000 Ang^3
#
#
#
# Elastic Constant Matrix: (Units=GPa)
#
#
# Indices 1 2 3 4 5 6 
#
# 1 115.8655 39.6902 16.2458 0.0000 0.0000 0.0000
# 2 39.6902 73.4770 -2.8747 0.0000 0.0000 0.0000
# 3 16.2458 -2.8747 36.2748 0.0000 0.0000 0.0000
# 4 0.0000 0.0000 0.0000 36.6127 0.0000 0.0000
# 5 0.0000 0.0000 0.0000 0.0000 23.6515 0.0000
# 6 0.0000 0.0000 0.0000 0.0000 0.0000 28.2341
#
#
#
# Elastic Compliance Matrix: (Units=1/GPa)
#
#
# Indices 1 2 3 4 5 6 
#
# 1 0.011673 -0.006530 -0.005745 0.000000 0.000000 0.000000
# 2 -0.006530 0.017305 0.004296 0.000000 0.000000 0.000000
# 3 -0.005745 0.004296 0.030481 0.000000 0.000000 0.000000
# 4 0.000000 0.000000 0.000000 0.027313 0.000000 0.000000
# 5 0.000000 0.000000 0.000000 0.000000 0.042281 0.000000
# 6 0.000000 0.000000 0.000000 0.000000 0.000000 0.035418
#
#
# Mechanical properties :
#
#
# Convention : Reuss Voigt Hill
#
# Bulk Modulus (GPa) = 22.98851 36.85998 29.92424
# Shear Modulus (GPa) = 25.65014 29.20339 27.42677
#
# Velocity S-wave (km/s) = 3.57679 3.81650 3.69859
# Velocity P-wave (km/s) = 5.34077 6.14862 5.75888
#
# Compressibility (1/GPa) = 0.04350000
#
# Stress axis : x y z
#
# Youngs Moduli (GPa) = 85.66570 57.78577 32.80745
#
# Poissons Ratio (x) = 0.37736 0.18849
# Poissons Ratio (y) = 0.55943 -0.14094
# Poissons Ratio (z) = 0.49219 -0.24825
#
# Static dielectric constant tensor:
#      x y z
#    x 3.829800 0.000000 0.000000 
#    y 0.000000 3.497850 0.000000 
#    z 0.000000 0.000000 3.512070 
# 
# 
# High freq. dielectric constant tensor:
#      x y z
#    x 1.801730 0.000000 0.000000 
#    y 0.000000 1.773480 0.000000 
#    z 0.000000 0.000000 1.777100 
# 
# From -- ./inp_files/1315.got.cif
#   From: 2010.03.12/outbox.cif.g09.slc.cpg/sg26_1_cif.got.tgz:1315.got - 2010.04.14 03:33:09.
