data_PCOD8167475
_publ_section_title
;
Structure prediction by ZEFSAII (Michael W. Deem and Ramdas Pophale) SiO2 
 PCOD8167475
Probable space group: P M C 21
;
_chemical_formula_sum "Si O2"
_cell_formula_units_Z 32
_cell_length_a 8.972047
_cell_length_b 11.350397
_cell_length_c 15.781512
_cell_angle_alpha 90.000000
_cell_angle_beta 90.000000
_cell_angle_gamma 90.000000
_cell_volume 1607.130717
_symmetry_space_group_name_H-M "P M C 21"
_symmetry_group_IT_number 26
_symmetry_cell_setting 'orthorhombic'
loop_
_space_group_symop_operation_xyz
x,y,z
-x,-y,1/2+z
-x,y,z
x,-y,1/2+z
loop_
_atom_site_type_symbol
_atom_site_label
_atom_site_fract_x
_atom_site_fract_y
_atom_site_fract_z
Si Si1 0.175651 0.472734 0.625000
Si Si2 0.163903 0.832069 0.443554
Si Si3 0.176127 0.568010 0.439505
Si Si4 0.322940 0.580578 0.789092
Si Si5 0.324131 0.223019 0.633646
Si Si6 0.330503 0.849620 0.807442
Si Si7 0.331580 0.046889 0.493265
Si Si8 0.834762 0.933955 0.258424
O O1 0.218842 0.521025 0.532407
O O2 0.258318 0.545042 0.698151
O O3 0.229043 0.339974 0.629415
O O4 0.000000 0.479868 0.641489
O O5 0.235968 0.702540 0.434877
O O6 0.154081 0.897443 0.355009
O O7 0.000000 0.816240 0.483588
O O8 0.255228 0.919296 0.504409
O O9 0.257762 0.495330 0.366236
O O10 0.000000 0.560451 0.421808
O O11 0.500000 0.563735 0.788820
O O12 0.275145 0.715607 0.803529
O O13 0.500000 0.251112 0.629070
O O14 0.263526 0.140382 0.558479
O O15 0.283719 0.156452 0.719717
O O16 0.500000 0.859962 0.775009
O O17 0.227155 0.932616 0.748964
O O18 0.315593 0.894604 0.902493
O O19 0.500000 0.023036 0.518902
O O20 0.000000 0.927703 0.216738
#
# Coordination Sequence:
#
# PCOD8167475 Si02
#       8
#     4   4   4   4   4   4   4   4
#     4  11  24  40  59  86 119 156 199 245 294 354
#     4   9  19  36  56  80 110 143 183 229 280 338
#     4  10  22  40  61  85 118 158 197 244 297 350
#     4  11  23  39  62  88 117 157 200 247 299 351
#     4  11  22  37  57  82 113 147 186 234 288 343
#     4   9  19  37  57  80 112 147 186 231 283 341
#     4   9  19  35  56  81 109 142 181 229 279 333
#     4  10  20  34  56  84 112 146 186 231 282 338
#
# _framework density 19.911259999999999
#
# number of rings (size 3 to 8) (size 9 to 14) (size 15 to 20)
#    0.000    2.000    0.000    3.000    0.000    7.000 
#    0.000    5.000    0.000    0.000    0.000    0.000 
#    0.000    0.000    0.000    0.000    0.000    0.000 
#
# Total GULP energy -396753.074739 kJ/mol
# GULP energy per Si atom -12398.533586 kJ/mol
# Density = 1.986594 g / cm^3
# Si number density = 19.911260 Si / 1000 Ang^3
#
#
#
# Elastic Constant Matrix: (Units=GPa)
#
#
# Indices 1 2 3 4 5 6 
#
# 1 54.0533 31.7200 24.2847 0.0000 0.0000 0.0000
# 2 31.7200 148.7759 18.5771 0.0000 0.0000 0.0000
# 3 24.2847 18.5771 50.7869 0.0000 0.0000 0.0000
# 4 0.0000 0.0000 0.0000 21.7264 0.0000 0.0000
# 5 0.0000 0.0000 0.0000 0.0000 25.0339 0.0000
# 6 0.0000 0.0000 0.0000 0.0000 0.0000 36.6096
#
#
#
# Elastic Compliance Matrix: (Units=1/GPa)
#
#
# Indices 1 2 3 4 5 6 
#
# 1 0.025795 -0.004149 -0.010817 0.000000 0.000000 0.000000
# 2 -0.004149 0.007711 -0.000837 0.000000 0.000000 0.000000
# 3 -0.010817 -0.000837 0.025168 0.000000 0.000000 0.000000
# 4 0.000000 0.000000 0.000000 0.046027 0.000000 0.000000
# 5 0.000000 0.000000 0.000000 0.000000 0.039946 0.000000
# 6 0.000000 0.000000 0.000000 0.000000 0.000000 0.027315
#
#
# Mechanical properties :
#
#
# Convention : Reuss Voigt Hill
#
# Bulk Modulus (GPa) = 36.94212 44.75330 40.84771
# Shear Modulus (GPa) = 23.51960 28.60959 26.06460
#
# Velocity S-wave (km/s) = 3.44062 3.79470 3.62199
# Velocity P-wave (km/s) = 5.86323 6.45948 6.16856
#
# Compressibility (1/GPa) = 0.02706937
#
# Stress axis : x y z
#
# Youngs Moduli (GPa) = 38.76780 129.69228 39.73260
#
# Poissons Ratio (x) = 0.53809 0.42977
# Poissons Ratio (y) = 0.16085 0.03324
# Poissons Ratio (z) = 0.41933 0.10849
#
# Static dielectric constant tensor:
#      x y z
#    x 3.794810 0.000000 0.000000 
#    y 0.000000 3.852580 0.000000 
#    z 0.000000 0.000000 3.557240 
# 
# 
# High freq. dielectric constant tensor:
#      x y z
#    x 1.776920 0.000000 0.000000 
#    y 0.000000 1.793570 0.000000 
#    z 0.000000 0.000000 1.770530 
# 
# From -- ./inp_files/4260.got.cif
#   From: 2010.03.12/outbox.cif.g09.slc.cpg/sg26_3_cif.got.tgz:4260.got - 2010.04.14 03:33:09.
