data_PCOD8167062
_publ_section_title
;
Structure prediction by ZEFSAII (Michael W. Deem and Ramdas Pophale) SiO2 
 PCOD8167062
Probable space group: P M C 21
;
_chemical_formula_sum "Si O2"
_cell_formula_units_Z 24
_cell_length_a 16.706750
_cell_length_b 8.523774
_cell_length_c 8.928924
_cell_angle_alpha 90.000000
_cell_angle_beta 90.000000
_cell_angle_gamma 90.000000
_cell_volume 1271.519505
_symmetry_space_group_name_H-M "P M C 21"
_symmetry_group_IT_number 26
_symmetry_cell_setting 'orthorhombic'
loop_
_space_group_symop_operation_xyz
x,y,z
-x,-y,1/2+z
-x,y,z
x,-y,1/2+z
loop_
_atom_site_type_symbol
_atom_site_label
_atom_site_fract_x
_atom_site_fract_y
_atom_site_fract_z
Si Si1 0.588352 0.286000 0.700270
Si Si2 0.845404 0.999743 0.950433
Si Si3 0.236334 0.442657 0.199644
Si Si4 0.244374 0.184808 0.700470
Si Si5 0.910583 0.214371 0.200189
Si Si6 0.652834 0.499362 0.449711
O O1 0.500000 0.207931 0.700434
O O2 0.659164 0.157523 0.701118
O O3 0.596675 0.390706 0.550807
O O4 0.596418 0.392422 0.848661
O O5 0.900870 0.890131 0.848492
O O6 0.790033 0.108118 0.848846
O O7 0.789322 0.892477 0.051757
O O8 0.901169 0.108334 0.052812
O O9 0.224318 0.630626 0.200052
O O10 0.151226 0.358068 0.199282
O O11 0.288128 0.393620 0.345371
O O12 0.288237 0.394425 0.053824
O O13 0.000000 0.285413 0.200170
#
# Coordination Sequence:
#
# PCOD8167062 Si02
#       6
#     4   4   4   4   4   4
#     4  10  17  29  49  78 106 132 170 218 257 297
#     4  10  21  38  55  72 106 146 174 200 259 328
#     4  10  18  35  56  78 102 134 180 218 250 305
#     4   9  20  37  56  75 100 142 178 209 256 317
#     4  11  21  35  55  81 106 134 172 219 257 297
#     4   8  17  30  49  74 104 138 168 206 263 314
#
# _framework density 18.875053999999999
#
# number of rings (size 3 to 8) (size 9 to 14) (size 15 to 20)
#    0.000    2.667    0.000    5.000    0.000    0.000 
#    0.000   11.667    0.000    0.000    0.000    0.000 
#    0.000    0.000    0.000    0.000    0.000    0.000 
#
# Total GULP energy -297447.562452 kJ/mol
# GULP energy per Si atom -12393.648435 kJ/mol
# Density = 1.883209 g / cm^3
# Si number density = 18.875054 Si / 1000 Ang^3
#
#
#
# Elastic Constant Matrix: (Units=GPa)
#
#
# Indices 1 2 3 4 5 6 
#
# 1 158.7876 33.3386 39.9385 0.0000 0.0000 0.0000
# 2 33.3386 65.9915 22.8331 0.0000 0.0000 0.0000
# 3 39.9385 22.8331 125.8015 0.0000 0.0000 0.0000
# 4 0.0000 0.0000 0.0000 21.3979 0.0000 0.0000
# 5 0.0000 0.0000 0.0000 0.0000 23.0873 0.0000
# 6 0.0000 0.0000 0.0000 0.0000 0.0000 27.3210
#
#
#
# Elastic Compliance Matrix: (Units=1/GPa)
#
#
# Indices 1 2 3 4 5 6 
#
# 1 0.007402 -0.003122 -0.001783 0.000000 0.000000 0.000000
# 2 -0.003122 0.017486 -0.002182 0.000000 0.000000 0.000000
# 3 -0.001783 -0.002182 0.008911 0.000000 0.000000 0.000000
# 4 0.000000 0.000000 0.000000 0.046733 0.000000 0.000000
# 5 0.000000 0.000000 0.000000 0.000000 0.043314 0.000000
# 6 0.000000 0.000000 0.000000 0.000000 0.000000 0.036602
#
#
# Mechanical properties :
#
#
# Convention : Reuss Voigt Hill
#
# Bulk Modulus (GPa) = 50.96041 60.31121 55.63581
# Shear Modulus (GPa) = 27.59913 31.32596 29.46255
#
# Velocity S-wave (km/s) = 3.82802 4.07830 3.95514
# Velocity P-wave (km/s) = 6.82611 7.36199 7.09911
#
# Compressibility (1/GPa) = 0.01962308
#
# Stress axis : x y z
#
# Youngs Moduli (GPa) = 135.10254 57.18857 112.21772
#
# Poissons Ratio (x) = 0.17856 0.20010
# Poissons Ratio (y) = 0.42184 0.24491
# Poissons Ratio (z) = 0.24091 0.12481
#
# Static dielectric constant tensor:
#      x y z
#    x 3.384730 0.000000 0.000000 
#    y 0.000000 3.127290 0.000000 
#    z 0.000000 0.000000 4.217400 
# 
# 
# High freq. dielectric constant tensor:
#      x y z
#    x 1.729530 0.000000 0.000000 
#    y 0.000000 1.698320 0.000000 
#    z 0.000000 0.000000 1.762640 
# 
# From -- ./inp_files/2357.got.cif
#   From: 2010.03.12/outbox.cif.g09.slc.cpg/sg26_2_cif.got.tgz:2357.got - 2010.04.14 03:33:09.
