data_PCOD8167950
_publ_section_title
;
Structure prediction by ZEFSAII (Michael W. Deem and Ramdas Pophale) SiO2 
 PCOD8167950
Probable space group: P C C 2
;
_chemical_formula_sum "Si O2"
_cell_formula_units_Z 24
_cell_length_a 12.185587
_cell_length_b 10.684499
_cell_length_c 8.307512
_cell_angle_alpha 90.000000
_cell_angle_beta 90.000000
_cell_angle_gamma 90.000000
_cell_volume 1081.612244
_symmetry_space_group_name_H-M "P C C 2"
_symmetry_group_IT_number 27
_symmetry_cell_setting 'orthorhombic'
loop_
_space_group_symop_operation_xyz
x,y,z
-x,-y,z
-x,y,1/2+z
x,-y,1/2+z
loop_
_atom_site_type_symbol
_atom_site_label
_atom_site_fract_x
_atom_site_fract_y
_atom_site_fract_z
Si Si1 0.624406 0.518171 0.144770
Si Si2 0.129556 0.125298 0.881589
Si Si3 0.644676 0.755284 0.954645
Si Si4 0.106778 0.147299 0.503249
Si Si5 0.531172 0.142404 0.764184
Si Si6 0.300652 0.686860 0.926777
O O1 0.500000 0.500000 0.203836
O O2 0.694212 0.587352 0.281589
O O3 0.629118 0.608106 0.987174
O O4 0.675109 0.384693 0.094848
O O5 0.228376 0.207726 0.950614
O O6 0.122000 0.137655 0.692141
O O7 0.019647 0.176109 0.965241
O O8 0.147885 0.980070 0.920870
O O9 0.584031 0.782734 0.785136
O O10 0.582933 0.838741 0.089568
O O11 0.177847 0.260525 0.432548
O O12 0.614964 0.198065 0.899030
O O13 0.500000 0.000000 0.798711
#
# Coordination Sequence:
#
# PCOD8167950 Si02
#       6
#     4   4   4   4   4   4
#     4  11  24  44  67 102 145 196 243 285 362 434
#     4  11  26  46  76 105 147 188 245 305 378 443
#     4  11  26  40  70  98 146 190 242 301 356 438
#     4  11  26  47  76 106 144 190 245 303 379 440
#     4  11  24  41  65 105 145 181 243 302 377 425
#     4  11  26  43  73 101 146 191 249 293 369 431
#
# _framework density 22.189097
#
# number of rings (size 3 to 8) (size 9 to 14) (size 15 to 20)
#    0.000    1.000    1.667    4.000   18.667    0.000 
#    0.000    0.833    0.000    0.000    0.000    0.000 
#    0.000    0.000    0.000    0.000    0.000    0.000 
#
# Total GULP energy -297649.553704 kJ/mol
# GULP energy per Si atom -12402.064738 kJ/mol
# Density = 2.213859 g / cm^3
# Si number density = 22.189097 Si / 1000 Ang^3
#
#
#
# Elastic Constant Matrix: (Units=GPa)
#
#
# Indices 1 2 3 4 5 6 
#
# 1 161.6279 74.4019 57.2095 0.0000 0.0000 0.0000
# 2 74.4019 127.8758 54.6933 0.0000 0.0000 0.0000
# 3 57.2095 54.6933 100.3501 0.0000 0.0000 0.0000
# 4 0.0000 0.0000 0.0000 624.1786 0.0000 0.0000
# 5 0.0000 0.0000 0.0000 0.0000 37.4398 0.0000
# 6 0.0000 0.0000 0.0000 0.0000 0.0000 46.7257
#
#
#
# Elastic Compliance Matrix: (Units=1/GPa)
#
#
# Indices 1 2 3 4 5 6 
#
# 1 0.009094 -0.004008 -0.003000 0.000000 0.000000 0.000000
# 2 -0.004008 0.011964 -0.004236 0.000000 0.000000 0.000000
# 3 -0.003000 -0.004236 0.013984 0.000000 0.000000 0.000000
# 4 0.000000 0.000000 0.000000 0.001602 0.000000 0.000000
# 5 0.000000 0.000000 0.000000 0.000000 0.026710 0.000000
# 6 0.000000 0.000000 0.000000 0.000000 0.000000 0.021401
#
#
# Mechanical properties :
#
#
# Convention : Reuss Voigt Hill
#
# Bulk Modulus (GPa) = 79.65324 84.71813 82.18569
# Shear Modulus (GPa) = 44.87270 155.23875 100.05572
#
# Velocity S-wave (km/s) = 4.50186 8.37339 6.72236
# Velocity P-wave (km/s) = 7.93711 11.47814 9.86776
#
# Compressibility (1/GPa) = 0.01255442
#
# Stress axis : x y z
#
# Youngs Moduli (GPa) = 109.96367 83.58675 71.51102
#
# Poissons Ratio (x) = 0.33502 0.21453
# Poissons Ratio (y) = 0.44073 0.30289
# Poissons Ratio (z) = 0.32989 0.35403
#
# Static dielectric constant tensor:
#      x y z
#    x 4.425300 0.000000 0.000000 
#    y 0.000000 1.328560 0.000000 
#    z 0.000000 0.000000 4.082410 
# 
# 
# High freq. dielectric constant tensor:
#      x y z
#    x 1.864190 0.000000 0.000000 
#    y 0.000000 1.877040 0.000000 
#    z 0.000000 0.000000 1.892180 
# 
# From -- ./inp_files/1392.got.cif
#   From: 2010.03.12/outbox.cif.g09.slc.cpg/sg27_1_cif.got.tgz:1392.got - 2010.04.14 03:36:05.
