data_PCOD8167586
_publ_section_title
;
Structure prediction by ZEFSAII (Michael W. Deem and Ramdas Pophale) SiO2 
 PCOD8167586
Probable space group: P M C 21
;
_chemical_formula_sum "Si O2"
_cell_formula_units_Z 32
_cell_length_a 9.036346
_cell_length_b 14.402084
_cell_length_c 12.215318
_cell_angle_alpha 90.000000
_cell_angle_beta 90.000000
_cell_angle_gamma 90.000000
_cell_volume 1589.728531
_symmetry_space_group_name_H-M "P M C 21"
_symmetry_group_IT_number 26
_symmetry_cell_setting 'orthorhombic'
loop_
_space_group_symop_operation_xyz
x,y,z
-x,-y,1/2+z
-x,y,z
x,-y,1/2+z
loop_
_atom_site_type_symbol
_atom_site_label
_atom_site_fract_x
_atom_site_fract_y
_atom_site_fract_z
Si Si1 0.825686 0.830031 0.045320
Si Si2 0.168917 0.378759 0.512892
Si Si3 0.327996 0.441621 0.070513
Si Si4 0.161963 0.367987 0.266266
Si Si5 0.325050 0.052429 0.355525
Si Si6 0.828370 0.870744 0.294663
Si Si7 0.171929 0.724982 0.471623
Si Si8 0.834404 0.171061 0.187789
O O1 0.786253 0.863363 0.167539
O O2 0.000000 0.835929 0.021085
O O3 0.768754 0.724229 0.034566
O O4 0.742807 0.895485 0.959781
O O5 0.266756 0.454138 0.574417
O O6 0.183541 0.407133 0.386537
O O7 0.000000 0.384763 0.554254
O O8 0.500000 0.443823 0.047207
O O9 0.294511 0.402837 0.190955
O O10 0.255485 0.373717 0.979459
O O11 0.164881 0.256343 0.273073
O O12 0.000000 0.398680 0.219410
O O13 0.500000 0.057432 0.364166
O O14 0.273571 0.094472 0.238816
O O15 0.271269 0.946422 0.356088
O O16 0.796220 0.772199 0.354596
O O17 0.000000 0.897596 0.310077
O O18 0.223637 0.794510 0.569244
O O19 0.000000 0.702685 0.489241
O O20 0.000000 0.128389 0.177124
#
# Coordination Sequence:
#
# PCOD8167586 Si02
#       8
#     4   4   4   4   4   4   4   4
#     4  10  22  43  67  91 119 156 210 261 304 355
#     4  10  20  38  63  88 116 156 208 258 301 352
#     4  11  23  36  56  90 129 164 198 243 310 379
#     4   9  18  36  60  83 110 151 206 258 294 343
#     4  12  25  38  58  90 127 160 195 243 309 379
#     4  10  23  42  66  91 119 160 209 259 305 358
#     4   9  20  40  63  88 117 157 210 258 300 349
#     4   9  17  35  61  85 111 148 202 254 293 343
#
# _framework density 20.129224000000001
#
# number of rings (size 3 to 8) (size 9 to 14) (size 15 to 20)
#    0.000    2.000    1.250    3.000    1.750    5.000 
#    0.000    2.500    0.000    0.000    0.000    0.000 
#    0.000    0.000    0.000    0.000    0.000    0.000 
#
# Total GULP energy -396795.902670 kJ/mol
# GULP energy per Si atom -12399.871958 kJ/mol
# Density = 2.008341 g / cm^3
# Si number density = 20.129224 Si / 1000 Ang^3
#
#
#
# Elastic Constant Matrix: (Units=GPa)
#
#
# Indices 1 2 3 4 5 6 
#
# 1 97.7955 56.6451 38.3560 0.0000 0.0000 0.0000
# 2 56.6451 116.1549 38.6410 0.0000 0.0000 0.0000
# 3 38.3560 38.6410 74.0775 0.0000 0.0000 0.0000
# 4 0.0000 0.0000 0.0000 25.4563 0.0000 0.0000
# 5 0.0000 0.0000 0.0000 0.0000 13.4823 0.0000
# 6 0.0000 0.0000 0.0000 0.0000 0.0000 8.6264
#
#
#
# Elastic Compliance Matrix: (Units=1/GPa)
#
#
# Indices 1 2 3 4 5 6 
#
# 1 0.015637 -0.005968 -0.004983 0.000000 0.000000 0.000000
# 2 -0.005968 0.012694 -0.003532 0.000000 0.000000 0.000000
# 3 -0.004983 -0.003532 0.017922 0.000000 0.000000 0.000000
# 4 0.000000 0.000000 0.000000 0.039283 0.000000 0.000000
# 5 0.000000 0.000000 0.000000 0.000000 0.074171 0.000000
# 6 0.000000 0.000000 0.000000 0.000000 0.000000 0.115923
#
#
# Mechanical properties :
#
#
# Convention : Reuss Voigt Hill
#
# Bulk Modulus (GPa) = 57.84645 61.70134 59.77390
# Shear Modulus (GPa) = 16.11042 19.80539 17.95790
#
# Velocity S-wave (km/s) = 2.83211 3.14014 2.99010
# Velocity P-wave (km/s) = 6.28446 6.62318 6.45604
#
# Compressibility (1/GPa) = 0.01728715
#
# Stress axis : x y z
#
# Youngs Moduli (GPa) = 63.95286 78.77524 55.79734
#
# Poissons Ratio (x) = 0.47010 0.27806
# Poissons Ratio (y) = 0.38165 0.19707
# Poissons Ratio (z) = 0.31870 0.27822
#
# Static dielectric constant tensor:
#      x y z
#    x 3.390290 0.000000 0.000000 
#    y 0.000000 3.622530 0.000000 
#    z 0.000000 0.000000 3.587390 
# 
# 
# High freq. dielectric constant tensor:
#      x y z
#    x 1.760750 0.000000 0.000000 
#    y 0.000000 1.786260 0.000000 
#    z 0.000000 0.000000 1.785550 
# 
# From -- ./inp_files/3045.got.cif
#   From: 2010.03.12/outbox.cif.g09.slc.cpg/sg26_2_cif.got.tgz:3045.got - 2010.04.14 03:33:09.
