data_PCOD8167057
_publ_section_title
;
Structure prediction by ZEFSAII (Michael W. Deem and Ramdas Pophale) SiO2 
 PCOD8167057
Probable space group: P M C 21
;
_chemical_formula_sum "Si O2"
_cell_formula_units_Z 32
_cell_length_a 8.972290
_cell_length_b 9.420131
_cell_length_c 20.932483
_cell_angle_alpha 90.000000
_cell_angle_beta 90.000000
_cell_angle_gamma 90.000000
_cell_volume 1769.216544
_symmetry_space_group_name_H-M "P M C 21"
_symmetry_group_IT_number 26
_symmetry_cell_setting 'orthorhombic'
loop_
_space_group_symop_operation_xyz
x,y,z
-x,-y,1/2+z
-x,y,z
x,-y,1/2+z
loop_
_atom_site_type_symbol
_atom_site_label
_atom_site_fract_x
_atom_site_fract_y
_atom_site_fract_z
Si Si1 0.335914 0.577735 0.263970
Si Si2 0.333191 0.595075 0.537014
Si Si3 0.173581 0.417801 0.641197
Si Si4 0.330379 0.915889 0.269041
Si Si5 0.326323 0.929506 0.525553
Si Si6 0.671908 0.619313 0.398528
Si Si7 0.176063 0.911902 0.396448
Si Si8 0.822524 0.095002 0.640253
O O1 0.500000 0.529825 0.242577
O O2 0.227339 0.519230 0.209390
O O3 0.324912 0.746518 0.271526
O O4 0.299129 0.519548 0.335911
O O5 0.500000 0.562855 0.560920
O O6 0.221224 0.517723 0.583744
O O7 0.302364 0.762375 0.535716
O O8 0.308974 0.533515 0.464926
O O9 0.232571 0.257762 0.631528
O O10 0.000000 0.418350 0.643780
O O11 0.500000 0.972289 0.267118
O O12 0.247436 0.978249 0.331794
O O13 0.244229 0.968994 0.205802
O O14 0.500000 0.970453 0.525631
O O15 0.253076 0.981278 0.458915
O O16 0.241533 0.007510 0.581930
O O17 0.500000 0.680232 0.395737
O O18 0.791722 0.744667 0.398020
O O19 0.000000 0.940632 0.397384
O O20 0.000000 0.082857 0.642401
#
# Coordination Sequence:
#
# PCOD8167057 Si02
#       8
#     4   4   4   4   4   4   4   4
#     4   8  14  26  45  66  90 120 155 195 236 275
#     4   9  18  32  50  71  96 125 160 198 237 283
#     4  10  20  31  46  71 101 128 157 193 237 287
#     4   9  16  28  46  68  94 125 160 198 237 282
#     4  10  20  34  51  72  97 128 164 202 242 289
#     4   8  15  28  45  67  92 120 157 199 238 281
#     4  10  17  26  44  70  97 124 155 198 244 283
#     4  10  20  33  49  73 101 128 160 201 245 290
#
# _framework density 18.087102999999999
#
# number of rings (size 3 to 8) (size 9 to 14) (size 15 to 20)
#    0.000    2.750    0.000    4.125    0.000    7.000 
#    0.000    0.000    0.000    1.500    0.000    1.750 
#    0.000    0.000    0.000    0.000    0.000    0.000 
#
# Total GULP energy -396571.746312 kJ/mol
# GULP energy per Si atom -12392.867072 kJ/mol
# Density = 1.804594 g / cm^3
# Si number density = 18.087103 Si / 1000 Ang^3
#
#
#
# Elastic Constant Matrix: (Units=GPa)
#
#
# Indices 1 2 3 4 5 6 
#
# 1 92.0532 17.9595 61.5570 0.0000 0.0000 0.0000
# 2 17.9595 19.9019 32.8844 0.0000 0.0000 0.0000
# 3 61.5570 32.8844 192.6070 0.0000 0.0000 0.0000
# 4 0.0000 0.0000 0.0000 23.1961 0.0000 0.0000
# 5 0.0000 0.0000 0.0000 0.0000 32.9627 0.0000
# 6 0.0000 0.0000 0.0000 0.0000 0.0000 19.2713
#
#
#
# Elastic Compliance Matrix: (Units=1/GPa)
#
#
# Indices 1 2 3 4 5 6 
#
# 1 0.014600 -0.007612 -0.003366 0.000000 0.000000 0.000000
# 2 -0.007612 0.073961 -0.010195 0.000000 0.000000 0.000000
# 3 -0.003366 -0.010195 0.008008 0.000000 0.000000 0.000000
# 4 0.000000 0.000000 0.000000 0.043111 0.000000 0.000000
# 5 0.000000 0.000000 0.000000 0.000000 0.030337 0.000000
# 6 0.000000 0.000000 0.000000 0.000000 0.000000 0.051891
#
#
# Mechanical properties :
#
#
# Convention : Reuss Voigt Hill
#
# Bulk Modulus (GPa) = 18.44271 58.81819 38.63045
# Shear Modulus (GPa) = 17.70990 27.89677 22.80334
#
# Velocity S-wave (km/s) = 3.13252 3.93155 3.55456
# Velocity P-wave (km/s) = 4.82725 7.29379 6.18473
#
# Compressibility (1/GPa) = 0.05422198
#
# Stress axis : x y z
#
# Youngs Moduli (GPa) = 68.49537 13.52068 124.86965
#
# Poissons Ratio (x) = 0.10292 0.42035
# Poissons Ratio (y) = 0.52141 1.27300
# Poissons Ratio (z) = 0.23058 0.13784
#
# Static dielectric constant tensor:
#      x y z
#    x 3.367890 0.000000 0.000000 
#    y 0.000000 2.767500 0.000000 
#    z 0.000000 0.000000 3.881970 
# 
# 
# High freq. dielectric constant tensor:
#      x y z
#    x 1.707640 0.000000 0.000000 
#    y 0.000000 1.623260 0.000000 
#    z 0.000000 0.000000 1.730810 
# 
# From -- ./inp_files/5050.got.cif
#   From: 2010.03.12/outbox.cif.g09.slc.cpg/sg26_3_cif.got.tgz:5050.got - 2010.04.14 03:33:09.
