data_PCOD8167795
_publ_section_title
;
Structure prediction by ZEFSAII (Michael W. Deem and Ramdas Pophale) SiO2 
 PCOD8167795
Probable space group: P C C 2
;
_chemical_formula_sum "Si O2"
_cell_formula_units_Z 28
_cell_length_a 22.159400
_cell_length_b 12.629598
_cell_length_c 5.307240
_cell_angle_alpha 90.000000
_cell_angle_beta 90.000000
_cell_angle_gamma 90.000000
_cell_volume 1485.307081
_symmetry_space_group_name_H-M "P C C 2"
_symmetry_group_IT_number 27
_symmetry_cell_setting 'orthorhombic'
loop_
_space_group_symop_operation_xyz
x,y,z
-x,-y,z
-x,y,1/2+z
x,-y,1/2+z
loop_
_atom_site_type_symbol
_atom_site_label
_atom_site_fract_x
_atom_site_fract_y
_atom_site_fract_z
Si Si1 0.025534 0.881340 0.100480
Si Si2 0.726884 0.780329 0.578259
Si Si3 0.650706 0.207938 0.577691
Si Si4 0.371788 0.447128 0.076093
Si Si5 0.525465 0.881292 0.076142
Si Si6 0.837866 0.067266 0.101492
Si Si7 0.760056 0.463607 0.077988
O O1 0.003077 0.822955 0.356061
O O2 0.097263 0.877889 0.081194
O O3 0.000000 0.000000 0.120398
O O4 0.689444 0.809257 0.329435
O O5 0.789084 0.842078 0.570593
O O6 0.742679 0.657720 0.579944
O O7 0.690634 0.810560 0.829454
O O8 0.617460 0.321624 0.575067
O O9 0.598160 0.119894 0.576756
O O10 0.401036 0.499793 0.326331
O O11 0.299954 0.464011 0.076174
O O12 0.499887 0.822627 0.325940
O O13 0.500000 0.000000 0.075501
O O14 0.829998 0.984547 0.875165
O O15 0.797054 0.500557 0.327537
#
# Coordination Sequence:
#
# PCOD8167795 Si02
#       7
#     4   4   4   4   4   4   4
#     4  10  16  32  59  70  94 157 201 224 278 305
#     4  12  23  35  55  93 115 145 178 222 291 347
#     4  12  21  38  62  81 106 149 176 222 286 347
#     4  10  16  30  56  83 106 134 172 210 271 340
#     4  10  23  45  62  76  99 137 195 239 251 313
#     4  12  23  38  49  81 127 148 183 244 267 323
#     4  10  16  32  54  79 115 141 173 214 265 342
#
# _framework density 18.851322
#
# number of rings (size 3 to 8) (size 9 to 14) (size 15 to 20)
#    0.000    1.143    8.571    1.714    0.000    0.000 
#   15.429    0.000    0.000    2.571    0.000    0.000 
#    0.000    3.429    0.000    0.000    0.000    0.000 
#
# Total GULP energy -347046.807489 kJ/mol
# GULP energy per Si atom -12394.528839 kJ/mol
# Density = 1.880842 g / cm^3
# Si number density = 18.851322 Si / 1000 Ang^3
#
#
#
# Elastic Constant Matrix: (Units=GPa)
#
#
# Indices 1 2 3 4 5 6 
#
# 1 110.2838 43.4054 48.3581 0.0000 0.0000 0.0000
# 2 43.4054 52.9720 17.6405 0.0000 0.0000 0.0000
# 3 48.3581 17.6405 201.1787 0.0000 0.0000 0.0000
# 4 0.0000 0.0000 0.0000 9.1400 0.0000 0.0000
# 5 0.0000 0.0000 0.0000 0.0000 19.9187 0.0000
# 6 0.0000 0.0000 0.0000 0.0000 0.0000 5.3456
#
#
#
# Elastic Compliance Matrix: (Units=1/GPa)
#
#
# Indices 1 2 3 4 5 6 
#
# 1 0.014528 -0.011065 -0.002522 0.000000 0.000000 0.000000
# 2 -0.011065 0.027872 0.000216 0.000000 0.000000 0.000000
# 3 -0.002522 0.000216 0.005558 0.000000 0.000000 0.000000
# 4 0.000000 0.000000 0.000000 0.109409 0.000000 0.000000
# 5 0.000000 0.000000 0.000000 0.000000 0.050204 0.000000
# 6 0.000000 0.000000 0.000000 0.000000 0.000000 0.187071
#
#
# Mechanical properties :
#
#
# Convention : Reuss Voigt Hill
#
# Bulk Modulus (GPa) = 47.13257 64.80472 55.96864
# Shear Modulus (GPa) = 11.66980 23.88288 17.77634
#
# Velocity S-wave (km/s) = 2.49076 3.56323 3.07412
# Velocity P-wave (km/s) = 5.77307 7.16799 6.50802
#
# Compressibility (1/GPa) = 0.02121675
#
# Stress axis : x y z
#
# Youngs Moduli (GPa) = 68.83188 35.87775 179.92027
#
# Poissons Ratio (x) = 0.39697 0.45376
# Poissons Ratio (y) = 0.76159 -0.03879
# Poissons Ratio (z) = 0.17359 -0.00774
#
# Static dielectric constant tensor:
#      x y z
#    x 3.197910 0.000000 0.000000 
#    y 0.000000 3.101370 0.000000 
#    z 0.000000 0.000000 6.241020 
# 
# 
# High freq. dielectric constant tensor:
#      x y z
#    x 1.690560 0.000000 0.000000 
#    y 0.000000 1.693970 0.000000 
#    z 0.000000 0.000000 1.780620 
# 
# From -- ./inp_files/622.got.cif
#   From: 2010.03.12/outbox.cif.g09.slc.cpg/sg27_1_cif.got.tgz:622.got - 2010.04.14 03:36:05.
