data_PCOD8167469
_publ_section_title
;
Structure prediction by ZEFSAII (Michael W. Deem and Ramdas Pophale) SiO2 
 PCOD8167469
Probable space group: P M C 21
;
_chemical_formula_sum "Si O2"
_cell_formula_units_Z 32
_cell_length_a 9.115697
_cell_length_b 12.283452
_cell_length_c 14.415274
_cell_angle_alpha 90.000000
_cell_angle_beta 90.000000
_cell_angle_gamma 90.000000
_cell_volume 1614.110326
_symmetry_space_group_name_H-M "P M C 21"
_symmetry_group_IT_number 26
_symmetry_cell_setting 'orthorhombic'
loop_
_space_group_symop_operation_xyz
x,y,z
-x,-y,1/2+z
-x,y,z
x,-y,1/2+z
loop_
_atom_site_type_symbol
_atom_site_label
_atom_site_fract_x
_atom_site_fract_y
_atom_site_fract_z
Si Si1 0.663404 0.230301 0.117910
Si Si2 0.672129 0.605470 0.143760
Si Si3 0.339099 0.956765 0.747160
Si Si4 0.175346 0.334551 0.459559
Si Si5 0.672641 0.401084 0.270483
Si Si6 0.827020 0.148406 0.952582
Si Si7 0.668710 0.197127 0.768864
Si Si8 0.827635 0.906980 0.922132
O O1 0.500000 0.268224 0.087133
O O2 0.662409 0.105802 0.150699
O O3 0.720491 0.304295 0.201787
O O4 0.772348 0.231078 0.031552
O O5 0.500000 0.601686 0.119841
O O6 0.715168 0.510388 0.215369
O O7 0.721088 0.715869 0.194001
O O8 0.760890 0.598688 0.047188
O O9 0.500000 0.947294 0.795185
O O10 0.221030 0.904345 0.815443
O O11 0.305193 0.080853 0.720775
O O12 0.238002 0.389846 0.365983
O O13 0.226387 0.206725 0.468537
O O14 0.000000 0.344853 0.457826
O O15 0.500000 0.396209 0.294086
O O16 0.767884 0.203082 0.859545
O O17 0.000000 0.149934 0.950565
O O18 0.769216 0.022339 0.965427
O O19 0.500000 0.217582 0.797678
O O20 0.000000 0.908637 0.925080
#
# Coordination Sequence:
#
# PCOD8167469 Si02
#       8
#     4   4   4   4   4   4   4   4
#     4  10  20  34  55  84 114 148 191 238 285 334
#     4  10  23  41  63  87 113 152 196 237 285 341
#     4   9  17  31  54  82 110 143 184 235 285 329
#     4  11  23  39  61  88 117 150 189 238 289 340
#     4  10  22  42  63  84 114 153 197 240 283 336
#     4  10  21  35  54  83 120 159 192 229 286 351
#     4   9  19  37  57  82 114 147 189 238 287 335
#     4   9  19  35  53  80 116 152 188 227 282 344
#
# _framework density 19.825161999999999
#
# number of rings (size 3 to 8) (size 9 to 14) (size 15 to 20)
#    0.000    2.250    1.250    0.750    1.750    4.000 
#    0.000    5.000    0.000    0.000    0.000    0.000 
#    0.000    0.000    0.000    0.000    0.000    0.000 
#
# Total GULP energy -396610.446733 kJ/mol
# GULP energy per Si atom -12394.076460 kJ/mol
# Density = 1.978004 g / cm^3
# Si number density = 19.825162 Si / 1000 Ang^3
#
#
#
# Elastic Constant Matrix: (Units=GPa)
#
#
# Indices 1 2 3 4 5 6 
#
# 1 44.3871 36.2662 47.2701 0.0000 0.0000 0.0000
# 2 36.2662 94.5984 59.1987 0.0000 0.0000 0.0000
# 3 47.2701 59.1987 117.0493 0.0000 0.0000 0.0000
# 4 0.0000 0.0000 0.0000 21.3693 0.0000 0.0000
# 5 0.0000 0.0000 0.0000 0.0000 8.3593 0.0000
# 6 0.0000 0.0000 0.0000 0.0000 0.0000 22.4530
#
#
#
# Elastic Compliance Matrix: (Units=1/GPa)
#
#
# Indices 1 2 3 4 5 6 
#
# 1 0.043602 -0.008334 -0.013393 0.000000 0.000000 0.000000
# 2 -0.008334 0.017059 -0.005262 0.000000 0.000000 0.000000
# 3 -0.013393 -0.005262 0.016614 0.000000 0.000000 0.000000
# 4 0.000000 0.000000 0.000000 0.046796 0.000000 0.000000
# 5 0.000000 0.000000 0.000000 0.000000 0.119627 0.000000
# 6 0.000000 0.000000 0.000000 0.000000 0.000000 0.044537
#
#
# Mechanical properties :
#
#
# Convention : Reuss Voigt Hill
#
# Bulk Modulus (GPa) = 42.92724 60.16718 51.54721
# Shear Modulus (GPa) = 14.28657 17.98964 16.13811
#
# Velocity S-wave (km/s) = 2.68736 3.01560 2.85620
# Velocity P-wave (km/s) = 5.59724 6.52226 6.07738
#
# Compressibility (1/GPa) = 0.02329523
#
# Stress axis : x y z
#
# Youngs Moduli (GPa) = 22.93489 58.62020 60.19162
#
# Poissons Ratio (x) = 0.48855 0.80617
# Poissons Ratio (y) = 0.19114 0.31673
# Poissons Ratio (z) = 0.30718 0.30846
#
# Static dielectric constant tensor:
#      x y z
#    x 3.530150 0.000000 0.000000 
#    y 0.000000 3.868650 0.000000 
#    z 0.000000 0.000000 3.405430 
# 
# 
# High freq. dielectric constant tensor:
#      x y z
#    x 1.761180 0.000000 0.000000 
#    y 0.000000 1.776940 0.000000 
#    z 0.000000 0.000000 1.763390 
# 
# From -- ./inp_files/4217.got.cif
#   From: 2010.03.12/outbox.cif.g09.slc.cpg/sg26_3_cif.got.tgz:4217.got - 2010.04.14 03:33:09.
