data_PCOD8167154
_publ_section_title
;
Structure prediction by ZEFSAII (Michael W. Deem and Ramdas Pophale) SiO2 
 PCOD8167154
Probable space group: P M C 21
;
_chemical_formula_sum "Si O2"
_cell_formula_units_Z 32
_cell_length_a 8.968759
_cell_length_b 16.143782
_cell_length_c 10.880786
_cell_angle_alpha 90.000000
_cell_angle_beta 90.000000
_cell_angle_gamma 90.000000
_cell_volume 1575.425633
_symmetry_space_group_name_H-M "P M C 21"
_symmetry_group_IT_number 26
_symmetry_cell_setting 'orthorhombic'
loop_
_space_group_symop_operation_xyz
x,y,z
-x,-y,1/2+z
-x,y,z
x,-y,1/2+z
loop_
_atom_site_type_symbol
_atom_site_label
_atom_site_fract_x
_atom_site_fract_y
_atom_site_fract_z
Si Si1 0.173929 0.643410 0.233600
Si Si2 0.174717 0.774444 0.816143
Si Si3 0.329662 0.655948 0.985895
Si Si4 0.332708 0.337869 0.133815
Si Si5 0.177675 0.069259 0.964307
Si Si6 0.333276 0.485421 0.284975
Si Si7 0.823795 0.044738 0.240174
Si Si8 0.330990 0.762330 0.399786
O O1 0.227317 0.626990 0.096655
O O2 0.219662 0.560489 0.307652
O O3 0.250246 0.728658 0.278513
O O4 0.000000 0.656970 0.243650
O O5 0.207118 0.716028 0.700587
O O6 0.232958 0.865654 0.782817
O O7 0.000000 0.773408 0.846931
O O8 0.266585 0.742640 0.933857
O O9 0.500000 0.668010 0.028181
O O10 0.311777 0.584112 0.887071
O O11 0.500000 0.316521 0.186116
O O12 0.304161 0.436216 0.155587
O O13 0.324983 0.316447 0.990852
O O14 0.246234 0.160374 0.958611
O O15 0.000000 0.076945 0.961522
O O16 0.237879 0.019465 0.843728
O O17 0.226750 0.028205 0.097056
O O18 0.500000 0.523205 0.286531
O O19 0.000000 0.041189 0.244621
O O20 0.500000 0.788618 0.369667
#
# Coordination Sequence:
#
# PCOD8167154 Si02
#       8
#     4   4   4   4   4   4   4   4
#     4  12  26  40  58  88 122 157 199 256 309 359
#     4  10  18  33  59  90 117 150 198 249 299 355
#     4  10  22  41  61  84 118 159 200 246 303 369
#     4   9  19  36  60  85 113 154 198 240 293 357
#     4  10  20  39  61  88 122 164 210 260 315 378
#     4   9  20  39  61  85 114 157 200 243 300 363
#     4   9  19  34  59  90 124 162 206 255 316 377
#     4  11  23  40  61  88 120 161 205 249 305 372
#
# _framework density 20.311971
#
# number of rings (size 3 to 8) (size 9 to 14) (size 15 to 20)
#    0.000    2.000    1.250    3.000    1.750    4.000 
#    0.000    4.375    0.000    0.000    0.000    0.000 
#    0.000    0.000    0.000    0.000    0.000    0.000 
#
# Total GULP energy -396645.319011 kJ/mol
# GULP energy per Si atom -12395.166219 kJ/mol
# Density = 2.026574 g / cm^3
# Si number density = 20.311971 Si / 1000 Ang^3
#
#
#
# Elastic Constant Matrix: (Units=GPa)
#
#
# Indices 1 2 3 4 5 6 
#
# 1 75.8186 34.3001 33.7271 0.0000 0.0000 0.0000
# 2 34.3001 79.8978 45.8573 0.0000 0.0000 0.0000
# 3 33.7271 45.8573 99.2662 0.0000 0.0000 0.0000
# 4 0.0000 0.0000 0.0000 28.9473 0.0000 0.0000
# 5 0.0000 0.0000 0.0000 0.0000 26.5535 0.0000
# 6 0.0000 0.0000 0.0000 0.0000 0.0000 26.3878
#
#
#
# Elastic Compliance Matrix: (Units=1/GPa)
#
#
# Indices 1 2 3 4 5 6 
#
# 1 0.017126 -0.005460 -0.003296 0.000000 0.000000 0.000000
# 2 -0.005460 0.018773 -0.006817 0.000000 0.000000 0.000000
# 3 -0.003296 -0.006817 0.014343 0.000000 0.000000 0.000000
# 4 0.000000 0.000000 0.000000 0.034546 0.000000 0.000000
# 5 0.000000 0.000000 0.000000 0.000000 0.037660 0.000000
# 6 0.000000 0.000000 0.000000 0.000000 0.000000 0.037896
#
#
# Mechanical properties :
#
#
# Convention : Reuss Voigt Hill
#
# Bulk Modulus (GPa) = 52.37127 53.63906 53.00516
# Shear Modulus (GPa) = 25.27093 25.78424 25.52759
#
# Velocity S-wave (km/s) = 3.53106 3.56675 3.54895
# Velocity P-wave (km/s) = 6.51644 6.58993 6.55329
#
# Compressibility (1/GPa) = 0.01909444
#
# Stress axis : x y z
#
# Youngs Moduli (GPa) = 58.39108 53.26871 69.71958
#
# Poissons Ratio (x) = 0.29086 0.22982
# Poissons Ratio (y) = 0.31883 0.47529
# Poissons Ratio (z) = 0.19248 0.36314
#
# Static dielectric constant tensor:
#      x y z
#    x 3.528920 0.000000 0.000000 
#    y 0.000000 3.678840 0.000000 
#    z 0.000000 0.000000 3.882210 
# 
# 
# High freq. dielectric constant tensor:
#      x y z
#    x 1.777340 0.000000 0.000000 
#    y 0.000000 1.786540 0.000000 
#    z 0.000000 0.000000 1.797470 
# 
# From -- ./inp_files/3058.got.cif
#   From: 2010.03.12/outbox.cif.g09.slc.cpg/sg26_2_cif.got.tgz:3058.got - 2010.04.14 03:33:09.
