data_PCOD8167519
_publ_section_title
;
Structure prediction by ZEFSAII (Michael W. Deem and Ramdas Pophale) SiO2 
 PCOD8167519
Probable space group: P M C 21
;
_chemical_formula_sum "Si O2"
_cell_formula_units_Z 32
_cell_length_a 17.274672
_cell_length_b 5.636089
_cell_length_c 12.031113
_cell_angle_alpha 90.000000
_cell_angle_beta 90.000000
_cell_angle_gamma 90.000000
_cell_volume 1171.368277
_symmetry_space_group_name_H-M "P M C 21"
_symmetry_group_IT_number 26
_symmetry_cell_setting 'orthorhombic'
loop_
_space_group_symop_operation_xyz
x,y,z
-x,-y,1/2+z
-x,y,z
x,-y,1/2+z
loop_
_atom_site_type_symbol
_atom_site_label
_atom_site_fract_x
_atom_site_fract_y
_atom_site_fract_z
Si Si1 0.188585 0.735425 0.228710
Si Si2 0.409895 0.658115 0.428991
Si Si3 0.084619 0.106072 0.300010
Si Si4 0.808236 0.413354 0.416514
Si Si5 0.589878 0.623218 0.686844
Si Si6 0.088256 0.423033 0.089293
Si Si7 0.348474 0.840479 0.934802
Si Si8 0.648551 0.120446 0.681469
O O1 0.224224 0.521530 0.301528
O O2 0.117548 0.664966 0.148544
O O3 0.259526 0.855750 0.165889
O O4 0.149618 0.909900 0.316521
O O5 0.500000 0.720305 0.416713
O O6 0.383691 0.616486 0.557232
O O7 0.392361 0.389939 0.376226
O O8 0.359837 0.889642 0.379496
O O9 0.107992 0.295818 0.392679
O O10 0.088505 0.206631 0.174930
O O11 0.000000 0.007241 0.328781
O O12 0.839491 0.614224 0.502876
O O13 0.741270 0.232644 0.454447
O O14 0.500000 0.669905 0.697821
O O15 0.610263 0.358670 0.739878
O O16 0.631902 0.860866 0.739759
O O17 0.000000 0.455887 0.043290
O O18 0.387138 0.884725 0.056531
#
# Coordination Sequence:
#
# PCOD8167519 Si02
#       8
#     4   4   4   4   4   4   4   4
#     4  11  24  40  64  93 133 173 218 278 337 397
#     4   9  18  33  58  93 130 169 221 277 329 392
#     4  10  24  43  66  95 129 172 221 279 342 404
#     4  11  24  40  65  95 133 173 221 276 335 406
#     4   9  18  33  59  94 127 167 221 273 327 394
#     4  10  22  43  67  92 127 169 220 275 334 401
#     4  10  20  35  61  93 129 174 223 271 332 399
#     4  10  20  35  62  91 130 173 217 273 332 393
#
# _framework density 27.318477000000001
#
# number of rings (size 3 to 8) (size 9 to 14) (size 15 to 20)
#    0.000    2.000    1.250    1.500    5.250    6.500 
#    0.000    1.250    0.000    4.500    0.000    0.000 
#    0.000    0.000    0.000    0.000    0.000    0.000 
#
# Total GULP energy -396531.336030 kJ/mol
# GULP energy per Si atom -12391.604251 kJ/mol
# Density = 2.725630 g / cm^3
# Si number density = 27.318477 Si / 1000 Ang^3
#
#
#
# Elastic Constant Matrix: (Units=GPa)
#
#
# Indices 1 2 3 4 5 6 
#
# 1 150.6779 67.4490 13.9480 0.0000 0.0000 0.0000
# 2 67.4490 182.6178 61.0690 0.0000 0.0000 0.0000
# 3 13.9480 61.0690 61.1726 0.0000 0.0000 0.0000
# 4 0.0000 0.0000 0.0000 38.0573 0.0000 0.0000
# 5 0.0000 0.0000 0.0000 0.0000 24.9087 0.0000
# 6 0.0000 0.0000 0.0000 0.0000 0.0000 48.0630
#
#
#
# Elastic Compliance Matrix: (Units=1/GPa)
#
#
# Indices 1 2 3 4 5 6 
#
# 1 0.008068 -0.003550 0.001704 0.000000 0.000000 0.000000
# 2 -0.003550 0.009782 -0.008956 0.000000 0.000000 0.000000
# 3 0.001704 -0.008956 0.024899 0.000000 0.000000 0.000000
# 4 0.000000 0.000000 0.000000 0.026276 0.000000 0.000000
# 5 0.000000 0.000000 0.000000 0.000000 0.040147 0.000000
# 6 0.000000 0.000000 0.000000 0.000000 0.000000 0.020806
#
#
# Mechanical properties :
#
#
# Convention : Reuss Voigt Hill
#
# Bulk Modulus (GPa) = 47.28997 75.48893 61.38945
# Shear Modulus (GPa) = 31.51989 39.00595 35.26292
#
# Velocity S-wave (km/s) = 3.40044 3.78275 3.59668
# Velocity P-wave (km/s) = 5.72412 6.83900 6.30624
#
# Compressibility (1/GPa) = 0.02114613
#
# Stress axis : x y z
#
# Youngs Moduli (GPa) = 123.94780 102.22903 40.16154
#
# Poissons Ratio (x) = 0.36288 -0.06844
# Poissons Ratio (y) = 0.43998 0.35969
# Poissons Ratio (z) = -0.21122 0.91556
#
# Static dielectric constant tensor:
#      x y z
#    x 4.441070 0.000000 0.000000 
#    y 0.000000 5.215610 0.000000 
#    z 0.000000 0.000000 5.450580 
# 
# 
# High freq. dielectric constant tensor:
#      x y z
#    x 2.080240 0.000000 0.000000 
#    y 0.000000 2.117080 0.000000 
#    z 0.000000 0.000000 2.148910 
# 
# From -- ./inp_files/4713.got.cif
#   From: 2010.03.12/outbox.cif.g09.slc.cpg/sg26_3_cif.got.tgz:4713.got - 2010.04.14 03:33:09.
