data_PCOD8167369
_publ_section_title
;
Structure prediction by ZEFSAII (Michael W. Deem and Ramdas Pophale) SiO2 
 PCOD8167369
Probable space group: P M C 21
;
_chemical_formula_sum "Si O2"
_cell_formula_units_Z 24
_cell_length_a 8.541507
_cell_length_b 15.428608
_cell_length_c 8.877537
_cell_angle_alpha 90.000000
_cell_angle_beta 90.000000
_cell_angle_gamma 90.000000
_cell_volume 1169.913459
_symmetry_space_group_name_H-M "P M C 21"
_symmetry_group_IT_number 26
_symmetry_cell_setting 'orthorhombic'
loop_
_space_group_symop_operation_xyz
x,y,z
-x,-y,1/2+z
-x,y,z
x,-y,1/2+z
loop_
_atom_site_type_symbol
_atom_site_label
_atom_site_fract_x
_atom_site_fract_y
_atom_site_fract_z
Si Si1 0.183463 0.240701 0.750000
Si Si2 0.184381 0.420818 0.233028
Si Si3 0.681330 0.086984 0.255251
Si Si4 0.681975 0.257059 0.074640
Si Si5 0.813517 0.591536 0.069967
Si Si6 0.819574 0.066015 0.575901
O O1 0.245028 0.322465 0.654347
O O2 0.223741 0.155701 0.655460
O O3 0.000000 0.248881 0.785859
O O4 0.278208 0.234976 0.903603
O O5 0.222753 0.340373 0.127114
O O6 0.255732 0.408652 0.400261
O O7 0.253488 0.508179 0.158568
O O8 0.000000 0.430297 0.244722
O O9 0.500000 0.088136 0.302245
O O10 0.732173 0.176015 0.176383
O O11 0.789932 0.075018 0.399313
O O12 0.709836 0.008961 0.139880
O O13 0.500000 0.277192 0.090568
O O14 0.000000 0.589796 0.063750
O O15 0.000000 0.041129 0.602229
#
# Coordination Sequence:
#
# PCOD8167369 Si02
#       6
#     4   4   4   4   4   4
#     4  10  21  38  60  86 115 148 188 236 288 339
#     4  10  19  35  60  85 112 147 188 235 284 338
#     4  11  24  41  60  83 118 160 194 231 290 356
#     4  11  24  39  56  82 115 153 194 233 280 340
#     4   9  18  34  59  88 113 144 187 232 285 345
#     4  11  23  39  63  92 117 146 193 247 289 334
#
# _framework density 20.514339
#
# number of rings (size 3 to 8) (size 9 to 14) (size 15 to 20)
#    0.000    1.667    0.000    4.500    0.000   10.667 
#    0.000    4.167    0.000    0.000    0.000    0.000 
#    0.000    0.000    0.000    0.000    0.000    0.000 
#
# Total GULP energy -297740.422005 kJ/mol
# GULP energy per Si atom -12405.850917 kJ/mol
# Density = 2.046765 g / cm^3
# Si number density = 20.514339 Si / 1000 Ang^3
#
#
#
# Elastic Constant Matrix: (Units=GPa)
#
#
# Indices 1 2 3 4 5 6 
#
# 1 21.3000 21.5154 13.5884 0.0000 0.0000 0.0000
# 2 21.5154 106.0236 5.9204 0.0000 0.0000 0.0000
# 3 13.5884 5.9204 97.9490 0.0000 0.0000 0.0000
# 4 0.0000 0.0000 0.0000 45.1891 0.0000 0.0000
# 5 0.0000 0.0000 0.0000 0.0000 23.7827 0.0000
# 6 0.0000 0.0000 0.0000 0.0000 0.0000 19.8403
#
#
#
# Elastic Compliance Matrix: (Units=1/GPa)
#
#
# Indices 1 2 3 4 5 6 
#
# 1 0.065096 -0.012749 -0.008260 0.000000 0.000000 0.000000
# 2 -0.012749 0.011961 0.001046 0.000000 0.000000 0.000000
# 3 -0.008260 0.001046 0.011292 0.000000 0.000000 0.000000
# 4 0.000000 0.000000 0.000000 0.022129 0.000000 0.000000
# 5 0.000000 0.000000 0.000000 0.000000 0.042047 0.000000
# 6 0.000000 0.000000 0.000000 0.000000 0.000000 0.050402
#
#
# Mechanical properties :
#
#
# Convention : Reuss Voigt Hill
#
# Bulk Modulus (GPa) = 20.65169 34.14677 27.39923
# Shear Modulus (GPa) = 19.30546 30.04566 24.67556
#
# Velocity S-wave (km/s) = 3.07102 3.83118 3.47197
# Velocity P-wave (km/s) = 4.76064 6.02097 5.42751
#
# Compressibility (1/GPa) = 0.04842218
#
# Stress axis : x y z
#
# Youngs Moduli (GPa) = 15.36202 83.60811 88.55750
#
# Poissons Ratio (x) = 1.06589 0.73149
# Poissons Ratio (y) = 0.19585 -0.09260
# Poissons Ratio (z) = 0.12689 -0.08743
#
# Static dielectric constant tensor:
#      x y z
#    x 3.367870 0.000000 0.000000 
#    y 0.000000 3.893220 0.000000 
#    z 0.000000 0.000000 3.858030 
# 
# 
# High freq. dielectric constant tensor:
#      x y z
#    x 1.776200 0.000000 0.000000 
#    y 0.000000 1.819980 0.000000 
#    z 0.000000 0.000000 1.819110 
# 
# From -- ./inp_files/1426.got.cif
#   From: 2010.03.12/outbox.cif.g09.slc.cpg/sg26_1_cif.got.tgz:1426.got - 2010.04.14 03:33:09.
