data_PCOD8167201
_publ_section_title
;
Structure prediction by ZEFSAII (Michael W. Deem and Ramdas Pophale) SiO2 
 PCOD8167201
Probable space group: P M C 21
;
_chemical_formula_sum "Si O2"
_cell_formula_units_Z 22
_cell_length_a 28.085257
_cell_length_b 8.439930
_cell_length_c 5.019033
_cell_angle_alpha 90.000000
_cell_angle_beta 90.000000
_cell_angle_gamma 90.000000
_cell_volume 1189.699552
_symmetry_space_group_name_H-M "P M C 21"
_symmetry_group_IT_number 26
_symmetry_cell_setting 'orthorhombic'
loop_
_space_group_symop_operation_xyz
x,y,z
-x,-y,1/2+z
-x,y,z
x,-y,1/2+z
loop_
_atom_site_type_symbol
_atom_site_label
_atom_site_fract_x
_atom_site_fract_y
_atom_site_fract_z
Si Si1 0.500000 0.106162 0.363730
Si Si2 0.700860 0.108165 0.321067
Si Si3 0.598130 0.897143 0.726392
Si Si4 0.945536 0.897312 0.825401
Si Si5 0.770061 0.396632 0.322304
Si Si6 0.120396 0.601940 0.826122
O O1 0.500000 0.048450 0.668214
O O2 0.450503 0.202186 0.298630
O O3 0.648280 0.190000 0.288500
O O4 0.739734 0.240889 0.267755
O O5 0.707254 0.035696 0.613942
O O6 0.596927 0.946724 0.417295
O O7 0.912092 0.750754 0.760428
O O8 0.000000 0.840003 0.796972
O O9 0.934584 0.037888 0.618727
O O10 0.757760 0.467442 0.609670
O O11 0.824926 0.344339 0.298024
O O12 0.108833 0.461913 0.619303
#
# Coordination Sequence:
#
# PCOD8167201 Si02
#       6
#     2   4   4   4   4   4
#     4   8  12  20  34  54  84 116 140 178 236 278
#     4  10  19  31  49  73  96 122 161 203 239 283
#     4   8  14  23  37  60  88 114 146 189 233 276
#     4  10  21  36  54  78 106 132 160 198 244 289
#     4  10  21  36  51  71 100 131 162 198 243 290
#     4  10  21  36  54  75  99 130 168 203 235 282
#
# _framework density 18.492063999999999
#
# number of rings (size 3 to 8) (size 9 to 14) (size 15 to 20)
#    0.000    2.545    0.000    2.182    0.000    2.182 
#    0.000    0.000    0.000    0.000    0.000    1.273 
#    0.000    0.000    0.000    0.000    0.000    0.000 
#
# Total GULP energy -272665.197055 kJ/mol
# GULP energy per Si atom -12393.872593 kJ/mol
# Density = 1.844997 g / cm^3
# Si number density = 18.492064 Si / 1000 Ang^3
#
#
#
# Elastic Constant Matrix: (Units=GPa)
#
#
# Indices 1 2 3 4 5 6 
#
# 1 126.5280 62.5609 21.1893 0.0000 0.0000 0.0000
# 2 62.5609 56.2979 3.4349 0.0000 0.0000 0.0000
# 3 21.1893 3.4349 75.7747 0.0000 0.0000 0.0000
# 4 0.0000 0.0000 0.0000 11.6464 0.0000 0.0000
# 5 0.0000 0.0000 0.0000 0.0000 24.5427 0.0000
# 6 0.0000 0.0000 0.0000 0.0000 0.0000 -11.7881
#
#
#
# Elastic Compliance Matrix: (Units=1/GPa)
#
#
# Indices 1 2 3 4 5 6 
#
# 1 0.018863 -0.020697 -0.004337 0.000000 0.000000 0.000000
# 2 -0.020697 0.040521 0.003951 0.000000 0.000000 0.000000
# 3 -0.004337 0.003951 0.014231 0.000000 0.000000 0.000000
# 4 0.000000 0.000000 0.000000 0.085863 0.000000 0.000000
# 5 0.000000 0.000000 0.000000 0.000000 0.040745 0.000000
# 6 0.000000 0.000000 0.000000 0.000000 0.000000 -0.084831
#
#
# Mechanical properties :
#
#
# Convention : Reuss Voigt Hill
#
# Bulk Modulus (GPa) = 31.79738 48.10787 39.95262
# Shear Modulus (GPa) = 29.75471 16.30791 23.03131
#
# Velocity S-wave (km/s) = 4.01565 2.97288 3.53295
# Velocity P-wave (km/s) = 6.22359 6.15272 6.18826
#
# Compressibility (1/GPa) = 0.03144913
#
# Stress axis : x y z
#
# Youngs Moduli (GPa) = 53.01354 24.67852 70.27119
#
# Poissons Ratio (x) = 0.51077 0.30474
# Poissons Ratio (y) = 1.09722 -0.27762
# Poissons Ratio (z) = 0.22990 -0.09750
#
# Static dielectric constant tensor:
#      x y z
#    x 3.837270 0.000000 0.000000 
#    y 0.000000 2.709230 0.000000 
#    z 0.000000 0.000000 3.565090 
# 
# 
# High freq. dielectric constant tensor:
#      x y z
#    x 1.740520 0.000000 0.000000 
#    y 0.000000 1.646730 0.000000 
#    z 0.000000 0.000000 1.743570 
# 
# From -- ./inp_files/1082.got.cif
#   From: 2010.03.12/outbox.cif.g09.slc.cpg/sg26_1_cif.got.tgz:1082.got - 2010.04.14 03:33:09.
