data_PCOD8167113
_publ_section_title
;
Structure prediction by ZEFSAII (Michael W. Deem and Ramdas Pophale) SiO2 
 PCOD8167113
Probable space group: P M C 21
;
_chemical_formula_sum "Si O2"
_cell_formula_units_Z 32
_cell_length_a 8.923246
_cell_length_b 12.648168
_cell_length_c 14.413865
_cell_angle_alpha 90.000000
_cell_angle_beta 90.000000
_cell_angle_gamma 90.000000
_cell_volume 1626.787931
_symmetry_space_group_name_H-M "P M C 21"
_symmetry_group_IT_number 26
_symmetry_cell_setting 'orthorhombic'
loop_
_space_group_symop_operation_xyz
x,y,z
-x,-y,1/2+z
-x,y,z
x,-y,1/2+z
loop_
_atom_site_type_symbol
_atom_site_label
_atom_site_fract_x
_atom_site_fract_y
_atom_site_fract_z
Si Si1 0.324070 0.868522 0.656810
Si Si2 0.178121 0.919364 0.136934
Si Si3 0.821907 0.612105 0.356986
Si Si4 0.829445 0.041837 0.432693
Si Si5 0.821985 0.404924 0.459997
Si Si6 0.178323 0.679723 0.157778
Si Si7 0.827569 0.185550 0.967806
Si Si8 0.822992 0.228311 0.315798
O O1 0.500000 0.878331 0.664434
O O2 0.278281 0.833551 0.554339
O O3 0.262747 0.769719 0.718099
O O4 0.251958 0.981070 0.690692
O O5 0.231256 0.802230 0.168554
O O6 0.000000 0.932447 0.146599
O O7 0.241024 0.935408 0.032959
O O8 0.757670 0.514796 0.417949
O O9 0.765608 0.615033 0.249251
O O10 0.766245 0.717846 0.407590
O O11 0.000000 0.606922 0.355025
O O12 0.817051 0.919108 0.402938
O O13 0.000000 0.080056 0.441897
O O14 0.758857 0.117750 0.356513
O O15 0.758565 0.376236 0.563265
O O16 0.768991 0.318593 0.385744
O O17 0.000000 0.409375 0.466284
O O18 0.000000 0.679796 0.151874
O O19 0.000000 0.202562 0.000366
O O20 0.000000 0.235093 0.297516
#
# Coordination Sequence:
#
# PCOD8167113 Si02
#       8
#     4   4   4   4   4   4   4   4
#     4  11  23  35  49  76 112 146 179 223 272 321
#     4   9  16  31  54  76 101 138 182 221 262 318
#     4   9  18  29  49  83 114 138 173 223 272 311
#     4   8  14  26  48  75  99 130 172 214 257 312
#     4   9  17  30  49  80 117 142 172 221 270 310
#     4   9  16  28  49  76 106 142 177 215 263 318
#     4   9  18  34  53  77 108 140 175 218 268 323
#     4  10  18  31  53  79 107 144 180 215 262 319
#
# _framework density 19.670663999999999
#
# number of rings (size 3 to 8) (size 9 to 14) (size 15 to 20)
#    0.000    2.750    1.250    1.875    1.750    1.000 
#    0.000    6.250    0.000    0.750    0.000    1.750 
#    0.000    0.000    0.000    0.000    0.000    0.000 
#
# Total GULP energy -396426.320131 kJ/mol
# GULP energy per Si atom -12388.322504 kJ/mol
# Density = 1.962589 g / cm^3
# Si number density = 19.670664 Si / 1000 Ang^3
#
#
#
# Elastic Constant Matrix: (Units=GPa)
#
#
# Indices 1 2 3 4 5 6 
#
# 1 39.1584 21.2438 18.5487 0.0000 0.0000 0.0000
# 2 21.2438 137.0106 70.3914 0.0000 0.0000 0.0000
# 3 18.5487 70.3914 94.5131 0.0000 0.0000 0.0000
# 4 0.0000 0.0000 0.0000 34.0602 0.0000 0.0000
# 5 0.0000 0.0000 0.0000 0.0000 4.9550 0.0000
# 6 0.0000 0.0000 0.0000 0.0000 0.0000 5.3763
#
#
#
# Elastic Compliance Matrix: (Units=1/GPa)
#
#
# Indices 1 2 3 4 5 6 
#
# 1 0.028682 -0.002519 -0.003753 0.000000 0.000000 0.000000
# 2 -0.002519 0.012044 -0.008476 0.000000 0.000000 0.000000
# 3 -0.003753 -0.008476 0.017629 0.000000 0.000000 0.000000
# 4 0.000000 0.000000 0.000000 0.029360 0.000000 0.000000
# 5 0.000000 0.000000 0.000000 0.000000 0.201815 0.000000
# 6 0.000000 0.000000 0.000000 0.000000 0.000000 0.186000
#
#
# Mechanical properties :
#
#
# Convention : Reuss Voigt Hill
#
# Bulk Modulus (GPa) = 34.65008 54.56110 44.60559
# Shear Modulus (GPa) = 9.71545 19.57819 14.64682
#
# Velocity S-wave (km/s) = 2.22481 3.15826 2.73170
# Velocity P-wave (km/s) = 4.92474 6.41069 5.71621
#
# Compressibility (1/GPa) = 0.02885997
#
# Stress axis : x y z
#
# Youngs Moduli (GPa) = 34.86562 83.03068 56.72333
#
# Poissons Ratio (x) = 0.20916 0.21287
# Poissons Ratio (y) = 0.08783 0.48076
# Poissons Ratio (z) = 0.13084 0.70373
#
# Static dielectric constant tensor:
#      x y z
#    x 2.819560 0.000000 0.000000 
#    y 0.000000 3.845130 0.000000 
#    z 0.000000 0.000000 3.780170 
# 
# 
# High freq. dielectric constant tensor:
#      x y z
#    x 1.685580 0.000000 0.000000 
#    y 0.000000 1.769480 0.000000 
#    z 0.000000 0.000000 1.776060 
# 
# From -- ./inp_files/4295.got.cif
#   From: 2010.03.12/outbox.cif.g09.slc.cpg/sg26_3_cif.got.tgz:4295.got - 2010.04.14 03:33:09.
