data_PCOD8167456
_publ_section_title
;
Structure prediction by ZEFSAII (Michael W. Deem and Ramdas Pophale) SiO2 
 PCOD8167456
Probable space group: P M C 21
;
_chemical_formula_sum "Si O2"
_cell_formula_units_Z 32
_cell_length_a 9.199538
_cell_length_b 15.951919
_cell_length_c 11.067595
_cell_angle_alpha 90.000000
_cell_angle_beta 90.000000
_cell_angle_gamma 90.000000
_cell_volume 1624.172721
_symmetry_space_group_name_H-M "P M C 21"
_symmetry_group_IT_number 26
_symmetry_cell_setting 'orthorhombic'
loop_
_space_group_symop_operation_xyz
x,y,z
-x,-y,1/2+z
-x,y,z
x,-y,1/2+z
loop_
_atom_site_type_symbol
_atom_site_label
_atom_site_fract_x
_atom_site_fract_y
_atom_site_fract_z
Si Si1 0.835347 0.145907 0.801900
Si Si2 0.166550 0.735675 0.512925
Si Si3 0.336217 0.851406 0.958191
Si Si4 0.669559 0.975530 0.156383
Si Si5 0.329311 0.464640 0.688128
Si Si6 0.673488 0.430851 0.957139
Si Si7 0.664655 0.721912 0.150677
Si Si8 0.329563 0.162423 0.195346
O O1 0.772858 0.223543 0.728156
O O2 0.000000 0.129553 0.761933
O O3 0.745940 0.059989 0.778501
O O4 0.824837 0.177043 0.939313
O O5 0.252842 0.660352 0.448355
O O6 0.244599 0.759829 0.637580
O O7 0.000000 0.707898 0.533849
O O8 0.500000 0.882495 0.934348
O O9 0.260098 0.846676 0.828703
O O10 0.333200 0.758541 0.015134
O O11 0.263535 0.921315 0.045417
O O12 0.500000 0.955897 0.173532
O O13 0.698843 0.072930 0.131314
O O14 0.500000 0.473165 0.677490
O O15 0.266404 0.525799 0.581785
O O16 0.277237 0.372509 0.648965
O O17 0.283781 0.480219 0.830347
O O18 0.500000 0.419722 0.960247
O O19 0.500000 0.726208 0.203840
O O20 0.500000 0.185530 0.195428
#
# Coordination Sequence:
#
# PCOD8167456 Si02
#       8
#     4   4   4   4   4   4   4   4
#     4  10  20  34  54  78 107 144 186 226 267 324
#     4  11  24  39  54  79 115 154 192 231 275 333
#     4   8  16  31  50  79 110 135 174 227 280 333
#     4   9  19  34  56  82 108 140 182 233 284 336
#     4   9  18  32  57  88 111 140 186 240 291 342
#     4  10  20  37  60  87 115 147 191 240 295 350
#     4   9  16  32  57  81 107 139 178 228 281 334
#     4  10  21  35  56  82 109 145 185 233 289 338
#
# _framework density 19.702338000000001
#
# number of rings (size 3 to 8) (size 9 to 14) (size 15 to 20)
#    0.000    2.500    1.250    1.500    1.750    3.000 
#    0.000    7.500    0.000    0.000    0.000    0.000 
#    0.000    0.000    0.000    0.000    0.000    0.000 
#
# Total GULP energy -396456.075211 kJ/mol
# GULP energy per Si atom -12389.252350 kJ/mol
# Density = 1.965749 g / cm^3
# Si number density = 19.702338 Si / 1000 Ang^3
#
#
#
# Elastic Constant Matrix: (Units=GPa)
#
#
# Indices 1 2 3 4 5 6 
#
# 1 57.4206 20.8570 26.5647 0.0000 0.0000 0.0000
# 2 20.8570 56.0962 27.1445 0.0000 0.0000 0.0000
# 3 26.5647 27.1445 113.1999 0.0000 0.0000 0.0000
# 4 0.0000 0.0000 0.0000 31.0383 0.0000 0.0000
# 5 0.0000 0.0000 0.0000 0.0000 16.2015 0.0000
# 6 0.0000 0.0000 0.0000 0.0000 0.0000 14.4965
#
#
#
# Elastic Compliance Matrix: (Units=1/GPa)
#
#
# Indices 1 2 3 4 5 6 
#
# 1 0.021297 -0.006222 -0.003506 0.000000 0.000000 0.000000
# 2 -0.006222 0.021984 -0.003812 0.000000 0.000000 0.000000
# 3 -0.003506 -0.003812 0.010571 0.000000 0.000000 0.000000
# 4 0.000000 0.000000 0.000000 0.032218 0.000000 0.000000
# 5 0.000000 0.000000 0.000000 0.000000 0.061723 0.000000
# 6 0.000000 0.000000 0.000000 0.000000 0.000000 0.068982
#
#
# Mechanical properties :
#
#
# Convention : Reuss Voigt Hill
#
# Bulk Modulus (GPa) = 37.35055 41.76099 39.55577
# Shear Modulus (GPa) = 19.78017 22.49065 21.13541
#
# Velocity S-wave (km/s) = 3.17196 3.38231 3.27882
# Velocity P-wave (km/s) = 5.69330 6.04113 5.86979
#
# Compressibility (1/GPa) = 0.02677337
#
# Stress axis : x y z
#
# Youngs Moduli (GPa) = 46.95431 45.48703 94.60171
#
# Poissons Ratio (x) = 0.28302 0.33166
# Poissons Ratio (y) = 0.29215 0.36058
# Poissons Ratio (z) = 0.16462 0.17338
#
# Static dielectric constant tensor:
#      x y z
#    x 3.244870 0.000000 0.000000 
#    y 0.000000 3.614280 0.000000 
#    z 0.000000 0.000000 3.910270 
# 
# 
# High freq. dielectric constant tensor:
#      x y z
#    x 1.727120 0.000000 0.000000 
#    y 0.000000 1.759600 0.000000 
#    z 0.000000 0.000000 1.773180 
# 
# From -- ./inp_files/3033.got.cif
#   From: 2010.03.12/outbox.cif.g09.slc.cpg/sg26_2_cif.got.tgz:3033.got - 2010.04.14 03:33:09.
