data_PCOD8167605
_publ_section_title
;
Structure prediction by ZEFSAII (Michael W. Deem and Ramdas Pophale) SiO2 
 PCOD8167605
Probable space group: P M C 21
;
_chemical_formula_sum "Si O2"
_cell_formula_units_Z 24
_cell_length_a 15.667050
_cell_length_b 8.784927
_cell_length_c 9.175024
_cell_angle_alpha 90.000000
_cell_angle_beta 90.000000
_cell_angle_gamma 90.000000
_cell_volume 1262.794249
_symmetry_space_group_name_H-M "P M C 21"
_symmetry_group_IT_number 26
_symmetry_cell_setting 'orthorhombic'
loop_
_space_group_symop_operation_xyz
x,y,z
-x,-y,1/2+z
-x,y,z
x,-y,1/2+z
loop_
_atom_site_type_symbol
_atom_site_label
_atom_site_fract_x
_atom_site_fract_y
_atom_site_fract_z
Si Si1 0.500000 0.193290 0.777710
Si Si2 0.815182 0.894230 0.600877
Si Si3 0.185394 0.803528 0.275058
Si Si4 0.500000 0.107217 0.106369
Si Si5 0.340355 0.394502 0.823785
Si Si6 0.661009 0.693861 0.654230
Si Si7 0.000000 0.916525 0.570941
Si Si8 0.000000 0.190675 0.758470
O O1 0.417649 0.298207 0.757750
O O2 0.500000 0.068263 0.651537
O O3 0.500000 0.108432 0.932161
O O4 0.797660 0.888432 0.428165
O O5 0.749585 0.782855 0.682201
O O6 0.913069 0.838172 0.632489
O O7 0.803116 0.068445 0.651292
O O8 0.253366 0.670090 0.253413
O O9 0.090996 0.720831 0.265791
O O10 0.416302 0.188366 0.169652
O O11 0.349726 0.569636 0.779949
O O12 0.339976 0.388930 0.998225
O O13 0.000000 0.923028 0.396470
O O14 0.000000 0.093438 0.611854
#
# Coordination Sequence:
#
# PCOD8167605 Si02
#       8
#     2   4   4   2   4   4   2   2
#     4  10  21  36  54  76  98 122 157 198 238 282
#     4   9  17  30  49  72  96 124 160 199 238 281
#     4   9  17  30  49  72  96 124 160 199 238 281
#     4  10  21  36  54  76  98 122 157 198 238 282
#     4  10  21  35  50  71  99 129 160 194 235 283
#     4  10  21  35  50  71  99 129 160 194 235 283
#     4   8  14  26  45  68  94 122 154 196 239 276
#     4   8  14  26  45  68  94 122 154 196 239 276
#
# _framework density 19.005471
#
# number of rings (size 3 to 8) (size 9 to 14) (size 15 to 20)
#    0.000    2.667    0.000    1.500    0.000    2.667 
#    0.000    0.833    0.000    0.000    0.000    0.000 
#    0.000    0.000    0.000    0.000    0.000    0.000 
#
# Total GULP energy -297458.119578 kJ/mol
# GULP energy per Si atom -12394.088316 kJ/mol
# Density = 1.896221 g / cm^3
# Si number density = 19.005471 Si / 1000 Ang^3
#
#
#
# Elastic Constant Matrix: (Units=GPa)
#
#
# Indices 1 2 3 4 5 6 
#
# 1 134.8443 22.9538 10.9627 0.0000 0.0000 0.0000
# 2 22.9538 44.8464 4.6332 0.0000 0.0000 0.0000
# 3 10.9627 4.6332 17.6161 0.0000 0.0000 0.0000
# 4 0.0000 0.0000 0.0000 31.1674 0.0000 0.0000
# 5 0.0000 0.0000 0.0000 0.0000 16.9610 0.0000
# 6 0.0000 0.0000 0.0000 0.0000 0.0000 6.8690
#
#
#
# Elastic Compliance Matrix: (Units=1/GPa)
#
#
# Indices 1 2 3 4 5 6 
#
# 1 0.008418 -0.003873 -0.004220 0.000000 0.000000 0.000000
# 2 -0.003873 0.024703 -0.004087 0.000000 0.000000 0.000000
# 3 -0.004220 -0.004087 0.060467 0.000000 0.000000 0.000000
# 4 0.000000 0.000000 0.000000 0.032085 0.000000 0.000000
# 5 0.000000 0.000000 0.000000 0.000000 0.058959 0.000000
# 6 0.000000 0.000000 0.000000 0.000000 0.000000 0.145582
#
#
# Mechanical properties :
#
#
# Convention : Reuss Voigt Hill
#
# Bulk Modulus (GPa) = 14.44491 30.48958 22.46725
# Shear Modulus (GPa) = 13.23977 21.58330 17.41153
#
# Velocity S-wave (km/s) = 2.64224 3.37358 3.03005
# Velocity P-wave (km/s) = 4.11406 5.59035 4.90803
#
# Compressibility (1/GPa) = 0.06922852
#
# Stress axis : x y z
#
# Youngs Moduli (GPa) = 118.78883 40.48136 16.53787
#
# Poissons Ratio (x) = 0.15677 0.06979
# Poissons Ratio (y) = 0.46004 0.06759
# Poissons Ratio (z) = 0.50132 0.16544
#
# Static dielectric constant tensor:
#      x y z
#    x 4.030520 0.000000 0.000000 
#    y 0.000000 3.032320 0.000000 
#    z 0.000000 0.000000 3.333500 
# 
# 
# High freq. dielectric constant tensor:
#      x y z
#    x 1.769570 0.000000 0.000000 
#    y 0.000000 1.696580 0.000000 
#    z 0.000000 0.000000 1.728420 
# 
# From -- ./inp_files/2159.got.cif
#   From: 2010.03.12/outbox.cif.g09.slc.cpg/sg26_2_cif.got.tgz:2159.got - 2010.04.14 03:33:09.
