data_PCOD8167038
_publ_section_title
;
Structure prediction by ZEFSAII (Michael W. Deem and Ramdas Pophale) SiO2 
 PCOD8167038
Probable space group: P M M 2
;
_chemical_formula_sum "Si O2"
_cell_formula_units_Z 32
_cell_length_a 9.253006
_cell_length_b 9.252975
_cell_length_c 20.743362
_cell_angle_alpha 90.000000
_cell_angle_beta 90.000000
_cell_angle_gamma 90.000000
_cell_volume 1776.001708
_symmetry_space_group_name_H-M "P M M 2"
_symmetry_group_IT_number 25
_symmetry_cell_setting 'orthorhombic'
loop_
_space_group_symop_operation_xyz
x,y,z
-x,-y,z
-x,y,z
x,-y,z
loop_
_atom_site_type_symbol
_atom_site_label
_atom_site_fract_x
_atom_site_fract_y
_atom_site_fract_z
Si Si1 0.833224 0.830781 0.394880
Si Si2 0.327766 0.163409 0.772614
Si Si3 0.836767 0.827997 0.147221
Si Si4 0.669217 0.666778 0.647827
Si Si5 0.336592 0.172235 0.270094
Si Si6 0.832461 0.667539 0.521354
Si Si7 0.672002 0.663234 0.895488
Si Si8 0.331829 0.168173 0.021354
O O1 0.740570 0.772000 0.334895
O O2 0.775878 0.752873 0.459011
O O3 0.000000 0.792568 0.381171
O O4 0.810749 0.000000 0.404977
O O5 0.500000 0.164679 0.774374
O O6 0.272001 0.240572 0.707813
O O7 0.265858 0.250466 0.833979
O O8 0.268309 0.000000 0.774654
O O9 0.750466 0.765858 0.208729
O O10 0.000000 0.767482 0.148326
O O11 0.837078 0.000000 0.149804
O O12 0.757454 0.775082 0.082602
O O13 0.500000 0.689261 0.637729
O O14 0.707422 0.500000 0.661537
O O15 0.747128 0.724122 0.583697
O O16 0.500000 0.231692 0.268053
O O17 0.335322 0.000000 0.268333
O O18 0.800838 0.500000 0.509094
O O19 0.000000 0.699162 0.533613
O O20 0.500000 0.662923 0.892904
O O21 0.732517 0.500000 0.894383
O O22 0.724918 0.742548 0.960105
O O23 0.500000 0.196651 0.035501
O O24 0.303360 0.000000 0.007209
#
# Coordination Sequence:
#
# PCOD8167038 Si02
#       8
#     4   4   4   4   4   4   4   4
#     4   9  17  29  45  65  89 117 149 185 224 266
#     4   9  16  26  42  66  94 120 147 183 226 268
#     4   9  16  26  42  64  90 120 151 183 222 268
#     4   9  17  29  45  65  89 117 149 185 224 266
#     4   9  16  26  42  66  94 120 147 183 226 268
#     4   9  18  32  48  65  88 120 154 185 220 266
#     4   9  16  26  42  64  90 120 151 183 222 268
#     4   9  16  26  42  65  90 114 144 185 228 266
#
# _framework density 18.018001999999999
#
# number of rings (size 3 to 8) (size 9 to 14) (size 15 to 20)
#    0.000    3.000    0.000    1.500    0.000    7.000 
#    0.000    0.000    0.000    1.875    0.000    0.000 
#    0.000    0.000    0.000    0.000    0.000    0.000 
#
# Total GULP energy -396792.456246 kJ/mol
# GULP energy per Si atom -12399.764258 kJ/mol
# Density = 1.797699 g / cm^3
# Si number density = 18.018002 Si / 1000 Ang^3
#
#
#
# Elastic Constant Matrix: (Units=GPa)
#
#
# Indices 1 2 3 4 5 6 
#
# 1 69.2747 28.1004 70.6212 0.0000 0.0000 0.0000
# 2 28.1004 69.2683 70.6180 0.0000 0.0000 0.0000
# 3 70.6212 70.6180 209.5576 0.0000 0.0000 0.0000
# 4 0.0000 0.0000 0.0000 13.4742 0.0000 0.0000
# 5 0.0000 0.0000 0.0000 0.0000 13.4744 0.0000
# 6 0.0000 0.0000 0.0000 0.0000 0.0000 10.6080
#
#
#
# Elastic Compliance Matrix: (Units=1/GPa)
#
#
# Indices 1 2 3 4 5 6 
#
# 1 0.022189 -0.002099 -0.006770 0.000000 0.000000 0.000000
# 2 -0.002099 0.022191 -0.006770 0.000000 0.000000 0.000000
# 3 -0.006770 -0.006770 0.009335 0.000000 0.000000 0.000000
# 4 0.000000 0.000000 0.000000 0.074216 0.000000 0.000000
# 5 0.000000 0.000000 0.000000 0.000000 0.074215 0.000000
# 6 0.000000 0.000000 0.000000 0.000000 0.000000 0.094268
#
#
# Mechanical properties :
#
#
# Convention : Reuss Voigt Hill
#
# Bulk Modulus (GPa) = 44.57426 76.30888 60.44157
# Shear Modulus (GPa) = 14.91774 19.42872 17.17323
#
# Velocity S-wave (km/s) = 2.88051 3.28730 3.09061
# Velocity P-wave (km/s) = 5.98795 7.54002 6.80836
#
# Compressibility (1/GPa) = 0.02243447
#
# Stress axis : x y z
#
# Youngs Moduli (GPa) = 45.06830 45.06402 107.12297
#
# Poissons Ratio (x) = 0.09460 0.72524
# Poissons Ratio (y) = 0.09461 0.72528
# Poissons Ratio (z) = 0.30512 0.30511
#
# Static dielectric constant tensor:
#      x y z
#    x 3.103540 0.000000 0.000000 
#    y 0.000000 3.103520 0.000000 
#    z 0.000000 0.000000 3.571590 
# 
# 
# High freq. dielectric constant tensor:
#      x y z
#    x 1.666830 0.000000 0.000000 
#    y 0.000000 1.666830 0.000000 
#    z 0.000000 0.000000 1.714980 
# 
# From -- ./inp_files/6266.got.cif
#   From: 2010.03.12/outbox.cif.g09.slc.cpg/sg25_4_cif.got.tgz:6266.got - 2010.04.14 03:30:10.
