data_PCOD8167200
_publ_section_title
;
Structure prediction by ZEFSAII (Michael W. Deem and Ramdas Pophale) SiO2 
 PCOD8167200
Probable space group: P M C 21
;
_chemical_formula_sum "Si O2"
_cell_formula_units_Z 20
_cell_length_a 25.852900
_cell_length_b 8.083208
_cell_length_c 5.024282
_cell_angle_alpha 90.000000
_cell_angle_beta 90.000000
_cell_angle_gamma 90.000000
_cell_volume 1049.946156
_symmetry_space_group_name_H-M "P M C 21"
_symmetry_group_IT_number 26
_symmetry_cell_setting 'orthorhombic'
loop_
_space_group_symop_operation_xyz
x,y,z
-x,-y,1/2+z
-x,y,z
x,-y,1/2+z
loop_
_atom_site_type_symbol
_atom_site_label
_atom_site_fract_x
_atom_site_fract_y
_atom_site_fract_z
Si Si1 0.606719 0.607868 0.839140
Si Si2 0.000000 0.612108 0.719051
Si Si3 0.500000 0.610677 0.703267
Si Si4 0.083053 0.111132 0.257371
Si Si5 0.201945 0.894033 0.731996
Si Si6 0.282477 0.389071 0.237605
O O1 0.605664 0.445267 0.647322
O O2 0.553741 0.711035 0.768254
O O3 0.661097 0.700392 0.777181
O O4 0.051142 0.720418 0.761552
O O5 0.000000 0.539924 0.422676
O O6 0.500000 0.550571 0.398947
O O7 0.142897 0.164985 0.261571
O O8 0.068116 0.998885 0.506157
O O9 0.237871 0.740221 0.798939
O O10 0.213606 0.957731 0.436310
O O11 0.277133 0.542697 0.439405
#
# Coordination Sequence:
#
# PCOD8167200 Si02
#       6
#     4   2   2   4   4   4
#     4   8  14  23  37  60  88 118 151 191 240 286
#     4  12  24  36  56  86 110 128 162 210 252 286
#     4   8  12  20  34  54  84 116 148 188 232 282
#     4  10  21  39  58  74 101 140 172 197 237 296
#     4  10  21  36  54  75  99 133 172 202 237 292
#     4  10  19  31  49  73 100 127 159 205 255 292
#
# _framework density 19.048596
#
# number of rings (size 3 to 8) (size 9 to 14) (size 15 to 20)
#    0.000    2.400    0.000    3.000    0.000    1.600 
#    0.000    0.000    0.000    0.000    0.000    1.400 
#    0.000    0.000    0.000    0.000    0.000    0.000 
#
# Total GULP energy -247858.350443 kJ/mol
# GULP energy per Si atom -12392.917522 kJ/mol
# Density = 1.900524 g / cm^3
# Si number density = 19.048596 Si / 1000 Ang^3
#
#
#
# Elastic Constant Matrix: (Units=GPa)
#
#
# Indices 1 2 3 4 5 6 
#
# 1 147.5984 56.4584 20.9916 0.0000 0.0000 0.0000
# 2 56.4584 53.5331 10.5184 0.0000 0.0000 0.0000
# 3 20.9916 10.5184 92.2823 0.0000 0.0000 0.0000
# 4 0.0000 0.0000 0.0000 14.3215 0.0000 0.0000
# 5 0.0000 0.0000 0.0000 0.0000 28.6294 0.0000
# 6 0.0000 0.0000 0.0000 0.0000 0.0000 1.7123
#
#
#
# Elastic Compliance Matrix: (Units=1/GPa)
#
#
# Indices 1 2 3 4 5 6 
#
# 1 0.011498 -0.011879 -0.001262 0.000000 0.000000 0.000000
# 2 -0.011879 0.031380 -0.000875 0.000000 0.000000 0.000000
# 3 -0.001262 -0.000875 0.011223 0.000000 0.000000 0.000000
# 4 0.000000 0.000000 0.000000 0.069825 0.000000 0.000000
# 5 0.000000 0.000000 0.000000 0.000000 0.034929 0.000000
# 6 0.000000 0.000000 0.000000 0.000000 0.000000 0.584019
#
#
# Mechanical properties :
#
#
# Convention : Reuss Voigt Hill
#
# Bulk Modulus (GPa) = 38.35661 52.15006 45.25333
# Shear Modulus (GPa) = 6.41359 22.62900 14.52129
#
# Velocity S-wave (km/s) = 1.83692 3.45042 2.76403
# Velocity P-wave (km/s) = 4.96779 6.58109 5.83051
#
# Compressibility (1/GPa) = 0.02607113
#
# Stress axis : x y z
#
# Youngs Moduli (GPa) = 86.96883 31.86765 89.10289
#
# Poissons Ratio (x) = 0.37855 0.11241
# Poissons Ratio (y) = 1.03309 0.07793
# Poissons Ratio (z) = 0.10972 0.02787
#
# Static dielectric constant tensor:
#      x y z
#    x 4.039140 0.000000 0.000000 
#    y 0.000000 2.767590 0.000000 
#    z 0.000000 0.000000 3.653380 
# 
# 
# High freq. dielectric constant tensor:
#      x y z
#    x 1.773100 0.000000 0.000000 
#    y 0.000000 1.660880 0.000000 
#    z 0.000000 0.000000 1.767910 
# 
# From -- ./inp_files/1005.got.cif
#   From: 2010.03.12/outbox.cif.g09.slc.cpg/sg26_1_cif.got.tgz:1005.got - 2010.04.14 03:33:09.
