data_PCOD8167698
_publ_section_title
;
Structure prediction by ZEFSAII (Michael W. Deem and Ramdas Pophale) SiO2 
 PCOD8167698
Probable space group: P M C 21
;
_chemical_formula_sum "Si O2"
_cell_formula_units_Z 32
_cell_length_a 8.929369
_cell_length_b 11.395489
_cell_length_c 16.346725
_cell_angle_alpha 90.000000
_cell_angle_beta 90.000000
_cell_angle_gamma 90.000000
_cell_volume 1663.353258
_symmetry_space_group_name_H-M "P M C 21"
_symmetry_group_IT_number 26
_symmetry_cell_setting 'orthorhombic'
loop_
_space_group_symop_operation_xyz
x,y,z
-x,-y,1/2+z
-x,y,z
x,-y,1/2+z
loop_
_atom_site_type_symbol
_atom_site_label
_atom_site_fract_x
_atom_site_fract_y
_atom_site_fract_z
Si Si1 0.336821 0.569067 0.785860
Si Si2 0.324572 0.215822 0.174680
Si Si3 0.322247 0.927711 0.828003
Si Si4 0.823613 0.436936 0.562370
Si Si5 0.825935 0.359047 0.739868
Si Si6 0.665464 0.273538 0.440877
Si Si7 0.322640 0.807445 0.357092
Si Si8 0.821657 0.302194 0.017848
O O1 0.500000 0.513529 0.764357
O O2 0.289029 0.659188 0.715314
O O3 0.210321 0.470030 0.797851
O O4 0.352269 0.631977 0.870952
O O5 0.500000 0.199298 0.155611
O O6 0.266155 0.114311 0.237646
O O7 0.234196 0.214000 0.089419
O O8 0.500000 0.912381 0.826572
O O9 0.261921 0.844147 0.901331
O O10 0.270133 0.057929 0.849949
O O11 0.765757 0.401400 0.652010
O O12 0.774411 0.327482 0.507695
O O13 0.761304 0.564581 0.534097
O O14 0.000000 0.444680 0.562150
O O15 0.731177 0.248932 0.771829
O O16 0.000000 0.327007 0.741954
O O17 0.500000 0.248484 0.478731
O O18 0.500000 0.796627 0.367216
O O19 0.243304 0.743702 0.432529
O O20 0.000000 0.298203 0.013583
#
# Coordination Sequence:
#
# PCOD8167698 Si02
#       8
#     4   4   4   4   4   4   4   4
#     4   9  17  31  55  85 111 138 181 228 278 333
#     4   9  17  34  61  87 111 144 187 237 280 330
#     4   8  18  39  61  82 111 144 188 238 285 332
#     4  10  22  37  53  80 118 152 181 222 282 345
#     4  11  22  37  54  77 116 154 185 228 284 340
#     4   9  18  34  58  84 107 138 181 232 277 327
#     4  11  23  40  60  83 112 152 196 239 286 336
#     4  11  22  38  58  86 120 152 187 230 288 349
#
# _framework density 19.238247000000001
#
# number of rings (size 3 to 8) (size 9 to 14) (size 15 to 20)
#    0.000    2.250    1.250    3.375    0.000    4.500 
#    2.250    4.375    0.000    0.000    0.000    0.000 
#    0.000    0.000    0.000    0.000    0.000    0.000 
#
# Total GULP energy -396630.247856 kJ/mol
# GULP energy per Si atom -12394.695245 kJ/mol
# Density = 1.919446 g / cm^3
# Si number density = 19.238247 Si / 1000 Ang^3
#
#
#
# Elastic Constant Matrix: (Units=GPa)
#
#
# Indices 1 2 3 4 5 6 
#
# 1 43.9984 35.7110 32.2885 0.0000 0.0000 0.0000
# 2 35.7110 138.1119 71.5926 0.0000 0.0000 0.0000
# 3 32.2885 71.5926 96.3557 0.0000 0.0000 0.0000
# 4 0.0000 0.0000 0.0000 25.3498 0.0000 0.0000
# 5 0.0000 0.0000 0.0000 0.0000 30.2911 0.0000
# 6 0.0000 0.0000 0.0000 0.0000 0.0000 19.0163
#
#
#
# Elastic Compliance Matrix: (Units=1/GPa)
#
#
# Indices 1 2 3 4 5 6 
#
# 1 0.031685 -0.004373 -0.007368 0.000000 0.000000 0.000000
# 2 -0.004373 0.012380 -0.007733 0.000000 0.000000 0.000000
# 3 -0.007368 -0.007733 0.018593 0.000000 0.000000 0.000000
# 4 0.000000 0.000000 0.000000 0.039448 0.000000 0.000000
# 5 0.000000 0.000000 0.000000 0.000000 0.033013 0.000000
# 6 0.000000 0.000000 0.000000 0.000000 0.000000 0.052587
#
#
# Mechanical properties :
#
#
# Convention : Reuss Voigt Hill
#
# Bulk Modulus (GPa) = 42.17811 61.96114 52.06962
# Shear Modulus (GPa) = 21.31691 24.18970 22.75330
#
# Velocity S-wave (km/s) = 3.33235 3.54980 3.44279
# Velocity P-wave (km/s) = 6.06447 7.00561 6.55196
#
# Compressibility (1/GPa) = 0.02370898
#
# Stress axis : x y z
#
# Youngs Moduli (GPa) = 31.56099 80.77797 53.78469
#
# Poissons Ratio (x) = 0.35326 0.39629
# Poissons Ratio (y) = 0.13802 0.41590
# Poissons Ratio (z) = 0.23255 0.62463
#
# Static dielectric constant tensor:
#      x y z
#    x 3.412960 0.000000 0.000000 
#    y 0.000000 3.649030 0.000000 
#    z 0.000000 0.000000 3.699210 
# 
# 
# High freq. dielectric constant tensor:
#      x y z
#    x 1.730790 0.000000 0.000000 
#    y 0.000000 1.740420 0.000000 
#    z 0.000000 0.000000 1.751250 
# 
# From -- ./inp_files/4131.got.cif
#   From: 2010.03.12/outbox.cif.g09.slc.cpg/sg26_3_cif.got.tgz:4131.got - 2010.04.14 03:33:09.
