data_PCOD8167467
_publ_section_title
;
Structure prediction by ZEFSAII (Michael W. Deem and Ramdas Pophale) SiO2 
 PCOD8167467
Probable space group: P M C 21
;
_chemical_formula_sum "Si O2"
_cell_formula_units_Z 32
_cell_length_a 8.645334
_cell_length_b 11.338271
_cell_length_c 16.408288
_cell_angle_alpha 90.000000
_cell_angle_beta 90.000000
_cell_angle_gamma 90.000000
_cell_volume 1608.391908
_symmetry_space_group_name_H-M "P M C 21"
_symmetry_group_IT_number 26
_symmetry_cell_setting 'orthorhombic'
loop_
_space_group_symop_operation_xyz
x,y,z
-x,-y,1/2+z
-x,y,z
x,-y,1/2+z
loop_
_atom_site_type_symbol
_atom_site_label
_atom_site_fract_x
_atom_site_fract_y
_atom_site_fract_z
Si Si1 0.676223 0.172639 0.254670
Si Si2 0.184482 0.429118 0.629630
Si Si3 0.676792 0.778023 0.466258
Si Si4 0.178286 0.922148 0.600504
Si Si5 0.325505 0.072094 0.814659
Si Si6 0.180397 0.168790 0.657775
Si Si7 0.319233 0.437986 0.287813
Si Si8 0.179704 0.531475 0.455924
O O1 0.500000 0.175342 0.219858
O O2 0.803326 0.134627 0.189102
O O3 0.721245 0.299418 0.290098
O O4 0.690938 0.069871 0.322892
O O5 0.252883 0.295569 0.634219
O O6 0.243585 0.502501 0.707930
O O7 0.243559 0.479059 0.542103
O O8 0.000000 0.434001 0.633406
O O9 0.500000 0.733484 0.460152
O O10 0.702660 0.846193 0.549334
O O11 0.722419 0.874375 0.400016
O O12 0.793629 0.670388 0.459158
O O13 0.000000 0.909883 0.572427
O O14 0.233750 0.059654 0.600144
O O15 0.500000 0.106113 0.789841
O O16 0.216300 0.134955 0.749935
O O17 0.000000 0.183091 0.648698
O O18 0.500000 0.463043 0.281262
O O19 0.262651 0.484743 0.374923
O O20 0.000000 0.502488 0.447051
#
# Coordination Sequence:
#
# PCOD8167467 Si02
#       8
#     4   4   4   4   4   4   4   4
#     4   9  19  37  57  78 108 144 183 226 275 332
#     4  10  22  40  60  82 113 154 195 235 281 335
#     4  11  22  36  55  80 110 142 181 228 278 332
#     4  10  20  34  55  82 109 139 178 225 277 332
#     4   9  19  35  55  79 106 139 179 223 273 330
#     4   9  19  36  56  79 107 139 179 225 273 326
#     4  11  23  38  59  86 116 151 189 234 286 338
#     4  11  24  40  59  84 115 152 194 238 283 339
#
# _framework density 19.895648000000001
#
# number of rings (size 3 to 8) (size 9 to 14) (size 15 to 20)
#    0.000    2.000    0.000    3.000    0.000    9.000 
#    0.000    0.000    0.000    0.000    0.000    0.000 
#    0.000    0.000    0.000    0.000    0.000    0.000 
#
# Total GULP energy -396581.466724 kJ/mol
# GULP energy per Si atom -12393.170835 kJ/mol
# Density = 1.985036 g / cm^3
# Si number density = 19.895648 Si / 1000 Ang^3
#
#
#
# Elastic Constant Matrix: (Units=GPa)
#
#
# Indices 1 2 3 4 5 6 
#
# 1 33.4265 28.2037 22.4426 0.0000 0.0000 0.0000
# 2 28.2037 162.8613 66.9217 0.0000 0.0000 0.0000
# 3 22.4426 66.9217 116.0617 0.0000 0.0000 0.0000
# 4 0.0000 0.0000 0.0000 28.1889 0.0000 0.0000
# 5 0.0000 0.0000 0.0000 0.0000 28.3634 0.0000
# 6 0.0000 0.0000 0.0000 0.0000 0.0000 28.1740
#
#
#
# Elastic Compliance Matrix: (Units=1/GPa)
#
#
# Indices 1 2 3 4 5 6 
#
# 1 0.036748 -0.004513 -0.004503 0.000000 0.000000 0.000000
# 2 -0.004513 0.008601 -0.004087 0.000000 0.000000 0.000000
# 3 -0.004503 -0.004087 0.011843 0.000000 0.000000 0.000000
# 4 0.000000 0.000000 0.000000 0.035475 0.000000 0.000000
# 5 0.000000 0.000000 0.000000 0.000000 0.035257 0.000000
# 6 0.000000 0.000000 0.000000 0.000000 0.000000 0.035494
#
#
# Mechanical properties :
#
#
# Convention : Reuss Voigt Hill
#
# Bulk Modulus (GPa) = 32.27314 60.83173 46.55244
# Shear Modulus (GPa) = 25.00582 29.93070 27.46826
#
# Velocity S-wave (km/s) = 3.54905 3.88285 3.71970
# Velocity P-wave (km/s) = 5.74898 7.12347 6.47281
#
# Compressibility (1/GPa) = 0.03098552
#
# Stress axis : x y z
#
# Youngs Moduli (GPa) = 27.21224 116.26467 84.43571
#
# Poissons Ratio (x) = 0.52474 0.38025
# Poissons Ratio (y) = 0.12282 0.34506
# Poissons Ratio (z) = 0.12255 0.47514
#
# Static dielectric constant tensor:
#      x y z
#    x 3.497580 0.000000 0.000000 
#    y 0.000000 4.125950 0.000000 
#    z 0.000000 0.000000 3.578150 
# 
# 
# High freq. dielectric constant tensor:
#      x y z
#    x 1.769740 0.000000 0.000000 
#    y 0.000000 1.794610 0.000000 
#    z 0.000000 0.000000 1.768510 
# 
# From -- ./inp_files/4172.got.cif
#   From: 2010.03.12/outbox.cif.g09.slc.cpg/sg26_3_cif.got.tgz:4172.got - 2010.04.14 03:33:09.
