data_PCOD8167424
_publ_section_title
;
Structure prediction by ZEFSAII (Michael W. Deem and Ramdas Pophale) SiO2 
 PCOD8167424
Probable space group: P M C 21
;
_chemical_formula_sum "Si O2"
_cell_formula_units_Z 24
_cell_length_a 9.262188
_cell_length_b 9.266138
_cell_length_c 16.356045
_cell_angle_alpha 90.000000
_cell_angle_beta 90.000000
_cell_angle_gamma 90.000000
_cell_volume 1403.752855
_symmetry_space_group_name_H-M "P M C 21"
_symmetry_group_IT_number 26
_symmetry_cell_setting 'orthorhombic'
loop_
_space_group_symop_operation_xyz
x,y,z
-x,-y,1/2+z
-x,y,z
x,-y,1/2+z
loop_
_atom_site_type_symbol
_atom_site_label
_atom_site_fract_x
_atom_site_fract_y
_atom_site_fract_z
Si Si1 0.333983 0.347801 0.321580
Si Si2 0.668661 0.668522 0.292268
Si Si3 0.662241 0.071604 0.234852
Si Si4 0.168531 0.817832 0.962649
Si Si5 0.663703 0.173088 0.624075
Si Si6 0.166443 0.909499 0.366410
O O1 0.500000 0.357322 0.349676
O O2 0.274065 0.504548 0.296707
O O3 0.319642 0.245123 0.240480
O O4 0.244838 0.284338 0.396874
O O5 0.500000 0.676140 0.308722
O O6 0.707725 0.733663 0.203701
O O7 0.743975 0.760256 0.365245
O O8 0.500000 0.029381 0.267329
O O9 0.679366 0.999197 0.145207
O O10 0.786860 0.004806 0.289684
O O11 0.000000 0.781134 0.960643
O O12 0.196054 0.988658 0.945126
O O13 0.230252 0.782675 0.051741
O O14 0.500000 0.208230 0.597243
O O15 0.000000 0.868395 0.358507
#
# Coordination Sequence:
#
# PCOD8167424 Si02
#       6
#     4   4   4   4   4   4
#     4   9  17  32  53  73  95 124 157 196 240 284
#     4   9  18  32  51  74  97 123 158 197 238 286
#     4   8  15  29  49  70  90 116 154 194 230 274
#     4  10  20  32  47  70  98 127 160 197 236 280
#     4   9  17  30  48  70  96 125 158 197 238 280
#     4   9  17  29  46  67  92 123 157 191 228 274
#
# _framework density 17.097027000000001
#
# number of rings (size 3 to 8) (size 9 to 14) (size 15 to 20)
#    0.000    3.000    0.000    2.000    0.000    5.333 
#    0.000    1.667    0.000    4.000    0.000    0.000 
#    0.000    0.000    0.000    0.000    0.000    0.000 
#
# Total GULP energy -297332.665259 kJ/mol
# GULP energy per Si atom -12388.861052 kJ/mol
# Density = 1.705811 g / cm^3
# Si number density = 17.097027 Si / 1000 Ang^3
#
#
#
# Elastic Constant Matrix: (Units=GPa)
#
#
# Indices 1 2 3 4 5 6 
#
# 1 64.0147 44.2709 41.7525 0.0000 0.0000 0.0000
# 2 44.2709 140.3378 42.1517 0.0000 0.0000 0.0000
# 3 41.7525 42.1517 72.4862 0.0000 0.0000 0.0000
# 4 0.0000 0.0000 0.0000 16.6653 0.0000 0.0000
# 5 0.0000 0.0000 0.0000 0.0000 15.9940 0.0000
# 6 0.0000 0.0000 0.0000 0.0000 0.0000 21.4811
#
#
#
# Elastic Compliance Matrix: (Units=1/GPa)
#
#
# Indices 1 2 3 4 5 6 
#
# 1 0.027386 -0.004727 -0.013026 0.000000 0.000000 0.000000
# 2 -0.004727 0.009449 -0.002772 0.000000 0.000000 0.000000
# 3 -0.013026 -0.002772 0.022911 0.000000 0.000000 0.000000
# 4 0.000000 0.000000 0.000000 0.060005 0.000000 0.000000
# 5 0.000000 0.000000 0.000000 0.000000 0.062524 0.000000
# 6 0.000000 0.000000 0.000000 0.000000 0.000000 0.046553
#
#
# Mechanical properties :
#
#
# Convention : Reuss Voigt Hill
#
# Bulk Modulus (GPa) = 53.48602 59.24322 56.36462
# Shear Modulus (GPa) = 18.10870 20.73897 19.42384
#
# Velocity S-wave (km/s) = 3.25802 3.48662 3.37426
# Velocity P-wave (km/s) = 6.74572 7.13688 6.94405
#
# Compressibility (1/GPa) = 0.01869648
#
# Stress axis : x y z
#
# Youngs Moduli (GPa) = 36.51454 105.82591 43.64724
#
# Poissons Ratio (x) = 0.50022 0.56855
# Poissons Ratio (y) = 0.17260 0.12100
# Poissons Ratio (z) = 0.47564 0.29338
#
# Static dielectric constant tensor:
#      x y z
#    x 3.163270 0.000000 0.000000 
#    y 0.000000 3.483250 0.000000 
#    z 0.000000 0.000000 2.940860 
# 
# 
# High freq. dielectric constant tensor:
#      x y z
#    x 1.661470 0.000000 0.000000 
#    y 0.000000 1.658760 0.000000 
#    z 0.000000 0.000000 1.624490 
# 
# From -- ./inp_files/3919.got.cif
#   From: 2010.03.12/outbox.cif.g09.slc.cpg/sg26_2_cif.got.tgz:3919.got - 2010.04.14 03:33:09.
