data_PCOD8167478
_publ_section_title
;
Structure prediction by ZEFSAII (Michael W. Deem and Ramdas Pophale) SiO2 
 PCOD8167478
Probable space group: P M C 21
;
_chemical_formula_sum "Si O2"
_cell_formula_units_Z 32
_cell_length_a 9.209014
_cell_length_b 12.417932
_cell_length_c 14.261214
_cell_angle_alpha 90.000000
_cell_angle_beta 90.000000
_cell_angle_gamma 90.000000
_cell_volume 1630.868361
_symmetry_space_group_name_H-M "P M C 21"
_symmetry_group_IT_number 26
_symmetry_cell_setting 'orthorhombic'
loop_
_space_group_symop_operation_xyz
x,y,z
-x,-y,1/2+z
-x,y,z
x,-y,1/2+z
loop_
_atom_site_type_symbol
_atom_site_label
_atom_site_fract_x
_atom_site_fract_y
_atom_site_fract_z
Si Si1 0.332999 0.910340 0.674530
Si Si2 0.835850 0.779818 0.367178
Si Si3 0.827667 0.592334 0.492395
Si Si4 0.657413 0.047600 0.956248
Si Si5 0.334088 0.189413 0.496065
Si Si6 0.168427 0.688319 0.690024
Si Si7 0.168276 0.123312 0.678554
Si Si8 0.831377 0.624993 0.895857
O O1 0.500000 0.910887 0.710297
O O2 0.324380 0.923460 0.564075
O O3 0.258189 0.798288 0.703137
O O4 0.248834 0.014831 0.715472
O O5 0.758294 0.680849 0.420789
O O6 0.781582 0.895329 0.399424
O O7 0.818875 0.780504 0.255149
O O8 0.000000 0.773260 0.399770
O O9 0.777138 0.619572 0.599027
O O10 0.770904 0.478396 0.452754
O O11 0.000000 0.589246 0.486466
O O12 0.500000 0.087690 0.921018
O O13 0.672269 0.920900 0.937721
O O14 0.500000 0.218425 0.522625
O O15 0.241293 0.177429 0.589556
O O16 0.265513 0.276886 0.428986
O O17 0.189272 0.614316 0.782901
O O18 0.000000 0.719873 0.676262
O O19 0.000000 0.094847 0.658293
O O20 0.000000 0.646571 0.919355
#
# Coordination Sequence:
#
# PCOD8167478 Si02
#       8
#     4   4   4   4   4   4   4   4
#     4  10  20  35  55  82 118 158 195 239 293 349
#     4  10  20  34  57  87 116 150 192 238 289 342
#     4   9  19  38  60  85 118 153 193 247 298 344
#     4   9  19  34  53  79 112 151 189 231 287 346
#     4  10  22  40  57  81 118 158 194 238 297 351
#     4  10  20  36  60  86 113 152 197 245 296 350
#     4  10  21  35  56  88 121 157 197 242 291 349
#     4  10  22  38  60  88 114 151 201 246 295 353
#
# _framework density 19.621449999999999
#
# number of rings (size 3 to 8) (size 9 to 14) (size 15 to 20)
#    0.000    2.250    1.250    1.875    1.750    5.000 
#    0.000    5.000    0.000    1.500    0.000    0.000 
#    0.000    0.000    0.000    0.000    0.000    0.000 
#
# Total GULP energy -396626.158105 kJ/mol
# GULP energy per Si atom -12394.567441 kJ/mol
# Density = 1.957679 g / cm^3
# Si number density = 19.621450 Si / 1000 Ang^3
#
#
#
# Elastic Constant Matrix: (Units=GPa)
#
#
# Indices 1 2 3 4 5 6 
#
# 1 65.9428 37.3213 23.8243 0.0000 0.0000 0.0000
# 2 37.3213 94.6395 57.5481 0.0000 0.0000 0.0000
# 3 23.8243 57.5481 69.9331 0.0000 0.0000 0.0000
# 4 0.0000 0.0000 0.0000 30.2549 0.0000 0.0000
# 5 0.0000 0.0000 0.0000 0.0000 11.3215 0.0000
# 6 0.0000 0.0000 0.0000 0.0000 0.0000 6.6153
#
#
#
# Elastic Compliance Matrix: (Units=1/GPa)
#
#
# Indices 1 2 3 4 5 6 
#
# 1 0.019536 -0.007320 -0.000632 0.000000 0.000000 0.000000
# 2 -0.007320 0.023892 -0.017167 0.000000 0.000000 0.000000
# 3 -0.000632 -0.017167 0.028641 0.000000 0.000000 0.000000
# 4 0.000000 0.000000 0.000000 0.033052 0.000000 0.000000
# 5 0.000000 0.000000 0.000000 0.000000 0.088327 0.000000
# 6 0.000000 0.000000 0.000000 0.000000 0.000000 0.151164
#
#
# Mechanical properties :
#
#
# Convention : Reuss Voigt Hill
#
# Bulk Modulus (GPa) = 45.80491 51.98920 48.89705
# Shear Modulus (GPa) = 12.43387 17.09313 14.76350
#
# Velocity S-wave (km/s) = 2.52005 2.95472 2.74600
# Velocity P-wave (km/s) = 5.64469 6.18014 5.91847
#
# Compressibility (1/GPa) = 0.02183172
#
# Stress axis : x y z
#
# Youngs Moduli (GPa) = 51.18853 41.85525 34.91442
#
# Poissons Ratio (x) = 0.30637 0.02206
# Poissons Ratio (y) = 0.37469 0.59938
# Poissons Ratio (z) = 0.03234 0.71853
#
# Static dielectric constant tensor:
#      x y z
#    x 3.544720 0.000000 0.000000 
#    y 0.000000 3.621240 0.000000 
#    z 0.000000 0.000000 3.728350 
# 
# 
# High freq. dielectric constant tensor:
#      x y z
#    x 1.750970 0.000000 0.000000 
#    y 0.000000 1.754050 0.000000 
#    z 0.000000 0.000000 1.772510 
# 
# From -- ./inp_files/4177.got.cif
#   From: 2010.03.12/outbox.cif.g09.slc.cpg/sg26_3_cif.got.tgz:4177.got - 2010.04.14 03:33:09.
