data_PCOD8167427
_publ_section_title
;
Structure prediction by ZEFSAII (Michael W. Deem and Ramdas Pophale) SiO2 
 PCOD8167427
Probable space group: P M C 21
;
_chemical_formula_sum "Si O2"
_cell_formula_units_Z 24
_cell_length_a 9.425273
_cell_length_b 9.001556
_cell_length_c 16.109434
_cell_angle_alpha 90.000000
_cell_angle_beta 90.000000
_cell_angle_gamma 90.000000
_cell_volume 1366.758576
_symmetry_space_group_name_H-M "P M C 21"
_symmetry_group_IT_number 26
_symmetry_cell_setting 'orthorhombic'
loop_
_space_group_symop_operation_xyz
x,y,z
-x,-y,1/2+z
-x,y,z
x,-y,1/2+z
loop_
_atom_site_type_symbol
_atom_site_label
_atom_site_fract_x
_atom_site_fract_y
_atom_site_fract_z
Si Si1 0.834248 0.863772 0.639400
Si Si2 0.156345 0.582050 0.738718
Si Si3 0.663296 0.347424 0.819286
Si Si4 0.156551 0.603178 0.071426
Si Si5 0.834183 0.317032 0.976795
Si Si6 0.336462 0.837572 0.152808
O O1 0.798646 0.748854 0.713789
O O2 0.791961 0.793944 0.550843
O O3 0.000000 0.905795 0.640670
O O4 0.740169 0.005966 0.656646
O O5 0.269219 0.509553 0.801186
O O6 0.147431 0.487757 0.655648
O O7 0.000000 0.582291 0.780992
O O8 0.500000 0.371986 0.841637
O O9 0.742808 0.271697 0.896721
O O10 0.683329 0.239075 0.741648
O O11 0.267935 0.737330 0.079784
O O12 0.000000 0.668837 0.051336
O O13 0.204184 0.487665 0.000264
O O14 0.000000 0.302171 0.956194
O O15 0.500000 0.860364 0.130115
#
# Coordination Sequence:
#
# PCOD8167427 Si02
#       6
#     4   4   4   4   4   4
#     4   9  18  33  53  75  97 126 166 206 244 288
#     4   8  15  30  51  71  91 120 160 201 238 279
#     4  10  20  32  48  73 102 130 161 198 243 294
#     4   8  15  30  51  71  91 119 158 200 237 280
#     4   9  18  33  53  75  96 122 162 208 248 287
#     4  10  20  32  48  73 103 133 163 195 238 294
#
# _framework density 17.559795000000001
#
# number of rings (size 3 to 8) (size 9 to 14) (size 15 to 20)
#    0.000    3.000    0.000    3.000    0.000    4.000 
#    0.000    5.000    0.000    2.000    0.000    0.000 
#    0.000    0.000    0.000    0.000    0.000    0.000 
#
# Total GULP energy -297516.468104 kJ/mol
# GULP energy per Si atom -12396.519504 kJ/mol
# Density = 1.751983 g / cm^3
# Si number density = 17.559795 Si / 1000 Ang^3
#
#
#
# Elastic Constant Matrix: (Units=GPa)
#
#
# Indices 1 2 3 4 5 6 
#
# 1 112.4974 66.0951 39.9188 0.0000 0.0000 0.0000
# 2 66.0951 106.3816 16.5084 0.0000 0.0000 0.0000
# 3 39.9188 16.5084 52.7063 0.0000 0.0000 0.0000
# 4 0.0000 0.0000 0.0000 14.4242 0.0000 0.0000
# 5 0.0000 0.0000 0.0000 0.0000 25.3770 0.0000
# 6 0.0000 0.0000 0.0000 0.0000 0.0000 25.3650
#
#
#
# Elastic Compliance Matrix: (Units=1/GPa)
#
#
# Indices 1 2 3 4 5 6 
#
# 1 0.018558 -0.009826 -0.010977 0.000000 0.000000 0.000000
# 2 -0.009826 0.015083 0.002718 0.000000 0.000000 0.000000
# 3 -0.010977 0.002718 0.026436 0.000000 0.000000 0.000000
# 4 0.000000 0.000000 0.000000 0.069328 0.000000 0.000000
# 5 0.000000 0.000000 0.000000 0.000000 0.039406 0.000000
# 6 0.000000 0.000000 0.000000 0.000000 0.000000 0.039424
#
#
# Mechanical properties :
#
#
# Convention : Reuss Voigt Hill
#
# Bulk Modulus (GPa) = 41.83184 57.40334 49.61759
# Shear Modulus (GPa) = 19.81177 22.97077 21.39127
#
# Velocity S-wave (km/s) = 3.36258 3.62075 3.49405
# Velocity P-wave (km/s) = 6.24101 7.08809 6.67799
#
# Compressibility (1/GPa) = 0.02390523
#
# Stress axis : x y z
#
# Youngs Moduli (GPa) = 53.88627 66.29763 37.82741
#
# Poissons Ratio (x) = 0.65147 0.41525
# Poissons Ratio (y) = 0.52951 -0.10281
# Poissons Ratio (z) = 0.59153 -0.18019
#
# Static dielectric constant tensor:
#      x y z
#    x 3.369370 0.000000 0.000000 
#    y 0.000000 3.225010 0.000000 
#    z 0.000000 0.000000 3.139360 
# 
# 
# High freq. dielectric constant tensor:
#      x y z
#    x 1.679200 0.000000 0.000000 
#    y 0.000000 1.667410 0.000000 
#    z 0.000000 0.000000 1.659880 
# 
# From -- ./inp_files/3946.got.cif
#   From: 2010.03.12/outbox.cif.g09.slc.cpg/sg26_2_cif.got.tgz:3946.got - 2010.04.14 03:33:09.
