data_PCOD8167606
_publ_section_title
;
Structure prediction by ZEFSAII (Michael W. Deem and Ramdas Pophale) SiO2 
 PCOD8167606
Probable space group: P M C 21
;
_chemical_formula_sum "Si O2"
_cell_formula_units_Z 28
_cell_length_a 17.909604
_cell_length_b 8.722757
_cell_length_c 9.306907
_cell_angle_alpha 90.000000
_cell_angle_beta 90.000000
_cell_angle_gamma 90.000000
_cell_volume 1453.935469
_symmetry_space_group_name_H-M "P M C 21"
_symmetry_group_IT_number 26
_symmetry_cell_setting 'orthorhombic'
loop_
_space_group_symop_operation_xyz
x,y,z
-x,-y,1/2+z
-x,y,z
x,-y,1/2+z
loop_
_atom_site_type_symbol
_atom_site_label
_atom_site_fract_x
_atom_site_fract_y
_atom_site_fract_z
Si Si1 0.141251 0.389461 0.970630
Si Si2 0.000000 0.888767 0.754671
Si Si3 0.141288 0.310053 0.296226
Si Si4 0.281664 0.811058 0.428155
Si Si5 0.000000 0.809638 0.428107
Si Si6 0.584599 0.604550 0.476602
Si Si7 0.281174 0.892146 0.752916
Si Si8 0.584475 0.686765 0.798228
O O1 0.136837 0.563956 0.920115
O O2 0.217501 0.315446 0.913548
O O3 0.072478 0.294748 0.906353
O O4 0.138223 0.393380 0.142656
O O5 0.927380 0.804918 0.816471
O O6 0.000000 0.891719 0.582447
O O7 0.000000 0.063656 0.804578
O O8 0.217036 0.215552 0.316992
O O9 0.361174 0.729078 0.404883
O O10 0.277422 0.895888 0.581033
O O11 0.270304 0.934662 0.303746
O O12 0.500000 0.650040 0.434028
O O13 0.596567 0.600203 0.647284
O O14 0.603671 0.434476 0.422227
O O15 0.360609 0.830904 0.810917
O O16 0.500000 0.749096 0.813062
#
# Coordination Sequence:
#
# PCOD8167606 Si02
#       8
#     4   2   4   4   2   4   4   4
#     4  10  21  36  54  77 103 132 169 209 248 295
#     4  10  21  36  54  78 106 134 167 206 248 296
#     4  10  21  36  54  77 103 132 169 209 248 295
#     4  10  21  35  51  74 103 133 167 207 250 297
#     4  10  21  36  54  78 106 134 167 206 248 296
#     4   9  18  33  52  74 100 130 166 207 249 296
#     4  10  21  35  51  74 103 133 167 207 250 297
#     4   9  18  33  52  74 100 130 166 207 249 296
#
# _framework density 19.258075999999999
#
# number of rings (size 3 to 8) (size 9 to 14) (size 15 to 20)
#    0.000    2.286    0.000    2.143    0.000    4.000 
#    0.000    0.000    0.000    0.000    0.000    0.000 
#    0.000    0.000    0.000    0.000    0.000    0.000 
#
# Total GULP energy -347342.669455 kJ/mol
# GULP energy per Si atom -12405.095338 kJ/mol
# Density = 1.921424 g / cm^3
# Si number density = 19.258076 Si / 1000 Ang^3
#
#
#
# Elastic Constant Matrix: (Units=GPa)
#
#
# Indices 1 2 3 4 5 6 
#
# 1 106.0715 20.0826 15.0188 0.0000 0.0000 0.0000
# 2 20.0826 42.4657 5.0852 0.0000 0.0000 0.0000
# 3 15.0188 5.0852 17.2894 0.0000 0.0000 0.0000
# 4 0.0000 0.0000 0.0000 40.7626 0.0000 0.0000
# 5 0.0000 0.0000 0.0000 0.0000 12.5536 0.0000
# 6 0.0000 0.0000 0.0000 0.0000 0.0000 21.3004
#
#
#
# Elastic Compliance Matrix: (Units=1/GPa)
#
#
# Indices 1 2 3 4 5 6 
#
# 1 0.011490 -0.004393 -0.008689 0.000000 0.000000 0.000000
# 2 -0.004393 0.026088 -0.003857 0.000000 0.000000 0.000000
# 3 -0.008689 -0.003857 0.066521 0.000000 0.000000 0.000000
# 4 0.000000 0.000000 0.000000 0.024532 0.000000 0.000000
# 5 0.000000 0.000000 0.000000 0.000000 0.079659 0.000000
# 6 0.000000 0.000000 0.000000 0.000000 0.000000 0.046948
#
#
# Mechanical properties :
#
#
# Convention : Reuss Voigt Hill
#
# Bulk Modulus (GPa) = 14.24071 27.35551 20.79811
# Shear Modulus (GPa) = 15.99895 23.29932 19.64914
#
# Velocity S-wave (km/s) = 2.88543 3.48206 3.19769
# Velocity P-wave (km/s) = 4.30252 5.51379 4.94538
#
# Compressibility (1/GPa) = 0.07022122
#
# Stress axis : x y z
#
# Youngs Moduli (GPa) = 87.03544 38.33208 15.03291
#
# Poissons Ratio (x) = 0.16840 0.13061
# Poissons Ratio (y) = 0.38236 0.05798
# Poissons Ratio (z) = 0.75621 0.14784
#
# Static dielectric constant tensor:
#      x y z
#    x 3.827020 0.000000 0.000000 
#    y 0.000000 3.244620 0.000000 
#    z 0.000000 0.000000 3.372980 
# 
# 
# High freq. dielectric constant tensor:
#      x y z
#    x 1.770430 0.000000 0.000000 
#    y 0.000000 1.738630 0.000000 
#    z 0.000000 0.000000 1.739030 
# 
# From -- ./inp_files/2481.got.cif
#   From: 2010.03.12/outbox.cif.g09.slc.cpg/sg26_2_cif.got.tgz:2481.got - 2010.04.14 03:33:09.
