data_PCOD8167417
_publ_section_title
;
Structure prediction by ZEFSAII (Michael W. Deem and Ramdas Pophale) SiO2 
 PCOD8167417
Probable space group: P M C 21
;
_chemical_formula_sum "Si O2"
_cell_formula_units_Z 24
_cell_length_a 8.841883
_cell_length_b 13.727298
_cell_length_c 10.031369
_cell_angle_alpha 90.000000
_cell_angle_beta 90.000000
_cell_angle_gamma 90.000000
_cell_volume 1217.559046
_symmetry_space_group_name_H-M "P M C 21"
_symmetry_group_IT_number 26
_symmetry_cell_setting 'orthorhombic'
loop_
_space_group_symop_operation_xyz
x,y,z
-x,-y,1/2+z
-x,y,z
x,-y,1/2+z
loop_
_atom_site_type_symbol
_atom_site_label
_atom_site_fract_x
_atom_site_fract_y
_atom_site_fract_z
Si Si1 0.679966 0.219732 0.335800
Si Si2 0.676971 0.569374 0.910009
Si Si3 0.678109 0.142002 0.052572
Si Si4 0.677743 0.592740 0.210457
Si Si5 0.821493 0.792390 0.288607
Si Si6 0.678235 0.918006 0.071676
O O1 0.500000 0.219997 0.340863
O O2 0.747229 0.326880 0.365938
O O3 0.737456 0.184308 0.192501
O O4 0.739517 0.145443 0.448092
O O5 0.500000 0.573863 0.881028
O O6 0.744259 0.482379 0.819782
O O7 0.710831 0.547656 0.064658
O O8 0.500000 0.158118 0.035570
O O9 0.721831 0.029017 0.043028
O O10 0.762629 0.202302 0.939161
O O11 0.500000 0.613094 0.229762
O O12 0.763540 0.694053 0.220698
O O13 0.759095 0.884449 0.206797
O O14 0.000000 0.793816 0.287465
O O15 0.500000 0.905778 0.094032
#
# Coordination Sequence:
#
# PCOD8167417 Si02
#       6
#     4   4   4   4   4   4
#     4   9  17  32  57  88 115 139 185 249 304 348
#     4   9  18  32  58  89 111 140 187 250 307 342
#     4  10  21  36  62  91 115 149 196 248 294 341
#     4  10  20  37  61  86 113 146 195 251 299 348
#     4  12  25  39  56  84 125 166 196 229 288 357
#     4  10  19  38  64  88 113 148 197 251 298 340
#
# _framework density 19.711569999999998
#
# number of rings (size 3 to 8) (size 9 to 14) (size 15 to 20)
#    0.000    2.000    1.667    2.500    2.333    3.333 
#    0.000    1.667    0.000    0.000    0.000    0.000 
#    0.000    0.000    0.000    0.000    0.000    0.000 
#
# Total GULP energy -297667.720119 kJ/mol
# GULP energy per Si atom -12402.821672 kJ/mol
# Density = 1.966671 g / cm^3
# Si number density = 19.711570 Si / 1000 Ang^3
#
#
#
# Elastic Constant Matrix: (Units=GPa)
#
#
# Indices 1 2 3 4 5 6 
#
# 1 44.1198 22.8979 27.8324 0.0000 0.0000 0.0000
# 2 22.8979 84.4043 31.8044 0.0000 0.0000 0.0000
# 3 27.8324 31.8044 127.1233 0.0000 0.0000 0.0000
# 4 0.0000 0.0000 0.0000 44.3035 0.0000 0.0000
# 5 0.0000 0.0000 0.0000 0.0000 8.2022 0.0000
# 6 0.0000 0.0000 0.0000 0.0000 0.0000 6.2159
#
#
#
# Elastic Compliance Matrix: (Units=1/GPa)
#
#
# Indices 1 2 3 4 5 6 
#
# 1 0.028815 -0.006006 -0.004806 0.000000 0.000000 0.000000
# 2 -0.006006 0.014333 -0.002271 0.000000 0.000000 0.000000
# 3 -0.004806 -0.002271 0.009487 0.000000 0.000000 0.000000
# 4 0.000000 0.000000 0.000000 0.022572 0.000000 0.000000
# 5 0.000000 0.000000 0.000000 0.000000 0.121918 0.000000
# 6 0.000000 0.000000 0.000000 0.000000 0.000000 0.160878
#
#
# Mechanical properties :
#
#
# Convention : Reuss Voigt Hill
#
# Bulk Modulus (GPa) = 37.78133 46.74631 42.26382
# Shear Modulus (GPa) = 12.72297 23.28517 18.00407
#
# Velocity S-wave (km/s) = 2.54334 3.44073 3.02549
# Velocity P-wave (km/s) = 5.27574 6.28899 5.80452
#
# Compressibility (1/GPa) = 0.02646810
#
# Stress axis : x y z
#
# Youngs Moduli (GPa) = 34.70472 69.77002 105.41013
#
# Poissons Ratio (x) = 0.41904 0.50660
# Poissons Ratio (y) = 0.20844 0.23937
# Poissons Ratio (z) = 0.16679 0.15844
#
# Static dielectric constant tensor:
#      x y z
#    x 3.071990 0.000000 0.000000 
#    y 0.000000 3.767290 0.000000 
#    z 0.000000 0.000000 3.778090 
# 
# 
# High freq. dielectric constant tensor:
#      x y z
#    x 1.711340 0.000000 0.000000 
#    y 0.000000 1.778440 0.000000 
#    z 0.000000 0.000000 1.786910 
# 
# From -- ./inp_files/1418.got.cif
#   From: 2010.03.12/outbox.cif.g09.slc.cpg/sg26_1_cif.got.tgz:1418.got - 2010.04.14 03:33:09.
