data_PCOD8167894
_publ_section_title
;
Structure prediction by ZEFSAII (Michael W. Deem and Ramdas Pophale) SiO2 
 PCOD8167894
Probable space group: P C C 2
;
_chemical_formula_sum "Si O2"
_cell_formula_units_Z 22
_cell_length_a 8.532429
_cell_length_b 8.262231
_cell_length_c 13.930537
_cell_angle_alpha 90.000000
_cell_angle_beta 90.000000
_cell_angle_gamma 90.000000
_cell_volume 982.059665
_symmetry_space_group_name_H-M "P C C 2"
_symmetry_group_IT_number 27
_symmetry_cell_setting 'orthorhombic'
loop_
_space_group_symop_operation_xyz
x,y,z
-x,-y,z
-x,y,1/2+z
x,-y,1/2+z
loop_
_atom_site_type_symbol
_atom_site_label
_atom_site_fract_x
_atom_site_fract_y
_atom_site_fract_z
Si Si1 0.000000 0.000000 0.714471
Si Si2 0.676863 0.497293 0.871191
Si Si3 0.000000 0.500000 0.990867
Si Si4 0.500000 0.000000 0.753809
Si Si5 0.847859 0.787279 0.562379
Si Si6 0.230366 0.148708 0.349617
Si Si7 0.594552 0.663171 0.687348
O O1 0.922828 0.135181 0.782466
O O2 0.128342 0.080629 0.645006
O O3 0.500000 0.500000 0.920242
O O4 0.685834 0.318226 0.825066
O O5 0.686531 0.633579 0.788166
O O6 0.834378 0.512904 0.934333
O O7 0.995724 0.335035 0.052567
O O8 0.652542 0.003448 0.822246
O O9 0.497890 0.164617 0.690392
O O10 0.814973 0.873389 0.461031
O O11 0.704399 0.674574 0.594338
O O12 0.500000 0.500000 0.667698
#
# Coordination Sequence:
#
# PCOD8167894 Si02
#       7
#     2   4   2   2   4   4   4
#     4  12  26  48  72 100 158 186 258 312 372 466
#     4  10  22  45  72 105 144 194 247 306 374 450
#     4  10  26  42  72 110 146 192 252 306 386 442
#     4  12  22  46  76 104 146 204 230 320 378 448
#     4  11  27  43  71 113 136 201 248 309 378 451
#     4  11  25  47  70 105 148 194 250 304 389 445
#     4  11  24  44  75 110 147 195 257 301 385 450
#
# _framework density 22.401897999999999
#
# number of rings (size 3 to 8) (size 9 to 14) (size 15 to 20)
#    0.000    1.091    5.455    0.545    7.636    5.091 
#    0.000    0.000    0.000    0.000    0.000    0.000 
#    0.000    0.000    0.000    0.000    0.000    0.000 
#
# Total GULP energy -272546.861517 kJ/mol
# GULP energy per Si atom -12388.493705 kJ/mol
# Density = 2.235091 g / cm^3
# Si number density = 22.401898 Si / 1000 Ang^3
#
#
#
# Elastic Constant Matrix: (Units=GPa)
#
#
# Indices 1 2 3 4 5 6 
#
# 1 131.1177 52.7279 53.9430 0.0000 0.0000 0.0000
# 2 52.7279 133.7749 44.0386 0.0000 0.0000 0.0000
# 3 53.9430 44.0386 118.5727 0.0000 0.0000 0.0000
# 4 0.0000 0.0000 0.0000 30.0102 0.0000 0.0000
# 5 0.0000 0.0000 0.0000 0.0000 24.2363 0.0000
# 6 0.0000 0.0000 0.0000 0.0000 0.0000 29.5747
#
#
#
# Elastic Compliance Matrix: (Units=1/GPa)
#
#
# Indices 1 2 3 4 5 6 
#
# 1 0.010259 -0.002856 -0.003606 0.000000 0.000000 0.000000
# 2 -0.002856 0.009312 -0.002159 0.000000 0.000000 0.000000
# 3 -0.003606 -0.002159 0.010876 0.000000 0.000000 0.000000
# 4 0.000000 0.000000 0.000000 0.033322 0.000000 0.000000
# 5 0.000000 0.000000 0.000000 0.000000 0.041260 0.000000
# 6 0.000000 0.000000 0.000000 0.000000 0.000000 0.033813
#
#
# Mechanical properties :
#
#
# Convention : Reuss Voigt Hill
#
# Bulk Modulus (GPa) = 75.73699 76.09825 75.91762
# Shear Modulus (GPa) = 31.15519 32.28130 31.71824
#
# Velocity S-wave (km/s) = 3.73331 3.80018 3.76689
# Velocity P-wave (km/s) = 7.24328 7.30058 7.27199
#
# Compressibility (1/GPa) = 0.01320359
#
# Stress axis : x y z
#
# Youngs Moduli (GPa) = 97.47425 107.38988 91.94429
#
# Poissons Ratio (x) = 0.30676 0.33158
# Poissons Ratio (y) = 0.27843 0.19850
# Poissons Ratio (z) = 0.35152 0.23185
#
# Static dielectric constant tensor:
#      x y z
#    x 4.138880 0.000000 0.000000 
#    y 0.000000 4.302360 0.000000 
#    z 0.000000 0.000000 3.960140 
# 
# 
# High freq. dielectric constant tensor:
#      x y z
#    x 1.887770 0.000000 0.000000 
#    y 0.000000 1.891720 0.000000 
#    z 0.000000 0.000000 1.871540 
# 
# From -- ./inp_files/3290.got.cif
#   From: 2010.03.12/outbox.cif.g09.slc.cpg/sg27_2_cif.got.tgz:3290.got - 2010.04.14 03:36:05.
