data_PCOD8167450
_publ_section_title
;
Structure prediction by ZEFSAII (Michael W. Deem and Ramdas Pophale) SiO2 
 PCOD8167450
Probable space group: P M C 21
;
_chemical_formula_sum "Si O2"
_cell_formula_units_Z 24
_cell_length_a 8.817383
_cell_length_b 7.603394
_cell_length_c 18.714595
_cell_angle_alpha 90.000000
_cell_angle_beta 90.000000
_cell_angle_gamma 90.000000
_cell_volume 1254.664570
_symmetry_space_group_name_H-M "P M C 21"
_symmetry_group_IT_number 26
_symmetry_cell_setting 'orthorhombic'
loop_
_space_group_symop_operation_xyz
x,y,z
-x,-y,1/2+z
-x,y,z
x,-y,1/2+z
loop_
_atom_site_type_symbol
_atom_site_label
_atom_site_fract_x
_atom_site_fract_y
_atom_site_fract_z
Si Si1 0.321893 0.972673 0.163740
Si Si2 0.819961 0.337099 0.747068
Si Si3 0.178044 0.003990 0.012522
Si Si4 0.321969 0.704191 0.762372
Si Si5 0.822910 0.703482 0.405927
Si Si6 0.824825 0.690191 0.911001
O O1 0.500000 0.941435 0.166405
O O2 0.240713 0.793659 0.187173
O O3 0.271389 0.021093 0.084486
O O4 0.270880 0.130867 0.214898
O O5 0.761232 0.532926 0.731078
O O6 0.758653 0.276646 0.825294
O O7 0.000000 0.341091 0.744568
O O8 0.000000 0.031516 0.027998
O O9 0.210372 0.814324 0.977807
O O10 0.246659 0.152332 0.959252
O O11 0.500000 0.671157 0.758371
O O12 0.274733 0.747120 0.843407
O O13 0.785524 0.508464 0.435157
O O14 0.000000 0.739941 0.402549
O O15 0.000000 0.703873 0.886993
#
# Coordination Sequence:
#
# PCOD8167450 Si02
#       6
#     4   4   4   4   4   4
#     4  11  24  38  52  78 117 152 182 221 273 334
#     4  10  20  37  62  85 106 140 187 236 278 319
#     4  10  20  34  53  77 107 143 182 223 268 322
#     4  10  21  37  57  82 113 148 183 224 276 332
#     4   8  16  32  54  79 103 129 171 225 271 313
#     4   9  18  34  56  81 106 136 181 231 272 318
#
# _framework density 19.128619
#
# number of rings (size 3 to 8) (size 9 to 14) (size 15 to 20)
#    0.000    2.333    0.000    3.500    0.000    6.000 
#    0.000    5.833    0.000    0.000    0.000    0.000 
#    0.000    0.000    0.000    0.000    0.000    0.000 
#
# Total GULP energy -297637.016523 kJ/mol
# GULP energy per Si atom -12401.542355 kJ/mol
# Density = 1.908508 g / cm^3
# Si number density = 19.128619 Si / 1000 Ang^3
#
#
#
# Elastic Constant Matrix: (Units=GPa)
#
#
# Indices 1 2 3 4 5 6 
#
# 1 54.8326 31.1775 21.7191 0.0000 0.0000 0.0000
# 2 31.1775 92.2056 34.6536 0.0000 0.0000 0.0000
# 3 21.7191 34.6536 69.3851 0.0000 0.0000 0.0000
# 4 0.0000 0.0000 0.0000 24.1953 0.0000 0.0000
# 5 0.0000 0.0000 0.0000 0.0000 22.3763 0.0000
# 6 0.0000 0.0000 0.0000 0.0000 0.0000 24.8597
#
#
#
# Elastic Compliance Matrix: (Units=1/GPa)
#
#
# Indices 1 2 3 4 5 6 
#
# 1 0.023521 -0.006384 -0.004174 0.000000 0.000000 0.000000
# 2 -0.006384 0.015084 -0.005535 0.000000 0.000000 0.000000
# 3 -0.004174 -0.005535 0.018483 0.000000 0.000000 0.000000
# 4 0.000000 0.000000 0.000000 0.041330 0.000000 0.000000
# 5 0.000000 0.000000 0.000000 0.000000 0.044690 0.000000
# 6 0.000000 0.000000 0.000000 0.000000 0.000000 0.040226
#
#
# Mechanical properties :
#
#
# Convention : Reuss Voigt Hill
#
# Bulk Modulus (GPa) = 40.15848 43.50266 41.83057
# Shear Modulus (GPa) = 22.33914 22.87779 22.60847
#
# Velocity S-wave (km/s) = 3.42107 3.46207 3.44163
# Velocity P-wave (km/s) = 6.05347 6.22678 6.14074
#
# Compressibility (1/GPa) = 0.02490134
#
# Stress axis : x y z
#
# Youngs Moduli (GPa) = 42.51568 66.29367 54.10267
#
# Poissons Ratio (x) = 0.42324 0.22582
# Poissons Ratio (y) = 0.27144 0.29947
# Poissons Ratio (z) = 0.17746 0.36695
#
# Static dielectric constant tensor:
#      x y z
#    x 3.303400 0.000000 0.000000 
#    y 0.000000 3.737490 0.000000 
#    z 0.000000 0.000000 3.499500 
# 
# 
# High freq. dielectric constant tensor:
#      x y z
#    x 1.727240 0.000000 0.000000 
#    y 0.000000 1.758290 0.000000 
#    z 0.000000 0.000000 1.737430 
# 
# From -- ./inp_files/4876.got.cif
#   From: 2010.03.12/outbox.cif.g09.slc.cpg/sg26_3_cif.got.tgz:4876.got - 2010.04.14 03:33:09.
