data_PCOD8167995
_publ_section_title
;
Structure prediction by ZEFSAII (Michael W. Deem and Ramdas Pophale) SiO2 
 PCOD8167995
Probable space group: P M A 2
;
_chemical_formula_sum "Si O2"
_cell_formula_units_Z 32
_cell_length_a 8.908546
_cell_length_b 18.195761
_cell_length_c 11.468192
_cell_angle_alpha 90.000000
_cell_angle_beta 90.000000
_cell_angle_gamma 90.000000
_cell_volume 1858.968394
_symmetry_space_group_name_H-M "P M A 2"
_symmetry_group_IT_number 28
_symmetry_cell_setting 'orthorhombic'
loop_
_space_group_symop_operation_xyz
x,y,z
-x,-y,z
1/2-x,y,z
1/2+x,-y,z
loop_
_atom_site_type_symbol
_atom_site_label
_atom_site_fract_x
_atom_site_fract_y
_atom_site_fract_z
Si Si1 0.922216 0.171097 0.355610
Si Si2 0.425828 0.315892 0.361189
Si Si3 0.421752 0.283789 0.803924
Si Si4 0.079561 0.742509 0.570377
Si Si5 0.926305 0.424479 0.908324
Si Si6 0.420433 0.219051 0.046069
Si Si7 0.924924 0.925480 0.184461
Si Si8 0.423368 0.644142 0.147079
O O1 0.750000 0.177942 0.312570
O O2 0.928201 0.180200 0.497158
O O3 0.024655 0.237493 0.302848
O O4 0.996258 0.096375 0.307875
O O5 0.250000 0.322645 0.379918
O O6 0.507262 0.321907 0.487658
O O7 0.483404 0.375389 0.265567
O O8 0.250000 0.304886 0.781641
O O9 0.488547 0.246809 0.688286
O O10 0.508381 0.358755 0.831524
O O11 0.437789 0.223336 0.905872
O O12 0.250000 0.720121 0.598438
O O13 0.750000 0.427405 0.886623
O O14 0.000000 0.500000 0.865837
O O15 0.964505 0.413481 0.045406
O O16 0.250000 0.241665 0.082223
O O17 0.457231 0.136403 0.087041
O O18 0.538338 0.275073 0.100084
O O19 0.750000 0.938088 0.206813
O O20 0.000000 0.000000 0.138216
O O21 0.250000 0.641347 0.180540
#
# Coordination Sequence:
#
# PCOD8167995 Si02
#       8
#     4   4   4   4   4   4   4   4
#     4   9  18  31  48  71 100 128 162 209 254 301
#     4  10  17  27  47  73 100 128 160 202 251 297
#     4  10  19  32  53  77 101 132 174 218 259 301
#     4   9  18  31  49  74 100 126 161 204 249 296
#     4  10  21  35  51  74 105 138 172 210 256 307
#     4   9  18  31  47  70  97 128 167 206 246 298
#     4  11  21  32  49  73 104 137 170 209 259 314
#     4  10  18  29  49  74  99 129 163 203 251 299
#
# _framework density 17.213847999999999
#
# number of rings (size 3 to 8) (size 9 to 14) (size 15 to 20)
#    0.750    1.500    1.250    3.000    0.000    2.500 
#    0.000    0.000    0.000    1.500    0.000    7.000 
#    0.000    0.000    0.000    0.000    0.000    0.000 
#
# Total GULP energy -396528.971845 kJ/mol
# GULP energy per Si atom -12391.530370 kJ/mol
# Density = 1.717467 g / cm^3
# Si number density = 17.213848 Si / 1000 Ang^3
#
#
#
# Elastic Constant Matrix: (Units=GPa)
#
#
# Indices 1 2 3 4 5 6 
#
# 1 101.1346 31.6650 40.3155 0.0000 0.0000 0.0000
# 2 31.6650 72.7938 24.9443 0.0000 0.0000 0.0000
# 3 40.3155 24.9443 92.2218 0.0000 0.0000 0.0000
# 4 0.0000 0.0000 0.0000 16.2147 0.0000 0.0000
# 5 0.0000 0.0000 0.0000 0.0000 30.9965 0.0000
# 6 0.0000 0.0000 0.0000 0.0000 0.0000 23.8915
#
#
#
# Elastic Compliance Matrix: (Units=1/GPa)
#
#
# Indices 1 2 3 4 5 6 
#
# 1 0.012990 -0.004083 -0.004574 0.000000 0.000000 0.000000
# 2 -0.004083 0.016424 -0.002658 0.000000 0.000000 0.000000
# 3 -0.004574 -0.002658 0.013562 0.000000 0.000000 0.000000
# 4 0.000000 0.000000 0.000000 0.061672 0.000000 0.000000
# 5 0.000000 0.000000 0.000000 0.000000 0.032262 0.000000
# 6 0.000000 0.000000 0.000000 0.000000 0.000000 0.041856
#
#
# Mechanical properties :
#
#
# Convention : Reuss Voigt Hill
#
# Bulk Modulus (GPa) = 49.14894 51.11108 50.13001
# Shear Modulus (GPa) = 24.01803 25.50224 24.76013
#
# Velocity S-wave (km/s) = 3.73939 3.85320 3.79672
# Velocity P-wave (km/s) = 6.87444 7.03935 6.95739
#
# Compressibility (1/GPa) = 0.02034632
#
# Stress axis : x y z
#
# Youngs Moduli (GPa) = 76.98483 60.88590 73.73622
#
# Poissons Ratio (x) = 0.24860 0.33728
# Poissons Ratio (y) = 0.31433 0.19596
# Poissons Ratio (z) = 0.35214 0.16181
#
# Static dielectric constant tensor:
#      x y z
#    x 3.286430 0.000000 0.000000 
#    y 0.000000 2.850530 0.000000 
#    z 0.000000 0.000000 3.228080 
# 
# 
# High freq. dielectric constant tensor:
#      x y z
#    x 1.684020 0.000000 0.000000 
#    y 0.000000 1.615130 0.000000 
#    z 0.000000 0.000000 1.660520 
# 
# From -- ./inp_files/5217.got.cif
#   From: 2010.03.12/outbox.cif.g09.slc.cpg/sg28_3_cif.got.tgz:5217.got - 2010.04.14 03:39:34.
