data_PCOD8167861
_publ_section_title
;
Structure prediction by ZEFSAII (Michael W. Deem and Ramdas Pophale) SiO2 
 PCOD8167861
Probable space group: P C C 2
;
_chemical_formula_sum "Si O2"
_cell_formula_units_Z 32
_cell_length_a 13.429598
_cell_length_b 13.338694
_cell_length_c 8.208308
_cell_angle_alpha 90.000000
_cell_angle_beta 90.000000
_cell_angle_gamma 90.000000
_cell_volume 1470.381285
_symmetry_space_group_name_H-M "P C C 2"
_symmetry_group_IT_number 27
_symmetry_cell_setting 'orthorhombic'
loop_
_space_group_symop_operation_xyz
x,y,z
-x,-y,z
-x,y,1/2+z
x,-y,1/2+z
loop_
_atom_site_type_symbol
_atom_site_label
_atom_site_fract_x
_atom_site_fract_y
_atom_site_fract_z
Si Si1 0.566800 0.203968 0.349340
Si Si2 0.613669 0.467357 0.803980
Si Si3 0.376402 0.725553 0.990147
Si Si4 0.700875 0.639895 0.993564
Si Si5 0.237334 0.873153 0.867832
Si Si6 0.137188 0.796161 0.431787
Si Si7 0.970672 0.883711 0.239926
Si Si8 0.697910 0.066908 0.508794
O O1 0.603367 0.238952 0.172766
O O2 0.449497 0.217922 0.363792
O O3 0.620874 0.271949 0.485115
O O4 0.593319 0.092164 0.416194
O O5 0.500000 0.500000 0.756421
O O6 0.677208 0.412569 0.664773
O O7 0.610220 0.394147 0.963897
O O8 0.680371 0.563194 0.846631
O O9 0.267391 0.762242 0.931143
O O10 0.813438 0.686120 0.970040
O O11 0.117839 0.881335 0.873957
O O12 0.286794 0.895034 0.692406
O O13 0.283375 0.948874 0.000897
O O14 0.073499 0.836520 0.580042
O O15 0.224387 0.874467 0.392258
O O16 0.060751 0.806729 0.281702
O O17 0.000000 0.000000 0.214121
#
# Coordination Sequence:
#
# PCOD8167861 Si02
#       8
#     4   4   4   4   4   4   4   4
#     4  11  23  40  61  92 135 173 219 262 329 395
#     4  12  23  40  70  99 128 172 222 271 334 392
#     4  12  24  40  63  95 132 178 218 273 326 389
#     4  11  24  43  65 100 133 168 218 279 336 388
#     4  11  23  38  63  94 135 174 224 271 328 389
#     4  10  23  40  65  96 136 167 216 279 328 394
#     4  11  21  38  67  99 128 173 220 269 329 390
#     4  10  21  39  58  93 131 175 213 270 320 393
#
# _framework density 21.763061
#
# number of rings (size 3 to 8) (size 9 to 14) (size 15 to 20)
#    0.000    1.000    2.500    6.000    1.750    2.500 
#    0.000    3.750    0.000    6.000    0.000    0.000 
#    0.000    0.000    0.000    0.000    0.000    0.000 
#
# Total GULP energy -396471.220658 kJ/mol
# GULP energy per Si atom -12389.725646 kJ/mol
# Density = 2.171353 g / cm^3
# Si number density = 21.763061 Si / 1000 Ang^3
#
#
#
# Elastic Constant Matrix: (Units=GPa)
#
#
# Indices 1 2 3 4 5 6 
#
# 1 103.7858 55.5343 22.9088 0.0000 0.0000 0.0000
# 2 55.5343 92.7803 17.1560 0.0000 0.0000 0.0000
# 3 22.9088 17.1560 68.9516 0.0000 0.0000 0.0000
# 4 0.0000 0.0000 0.0000 34.7085 0.0000 0.0000
# 5 0.0000 0.0000 0.0000 0.0000 31.9289 0.0000
# 6 0.0000 0.0000 0.0000 0.0000 0.0000 47.0117
#
#
#
# Elastic Compliance Matrix: (Units=1/GPa)
#
#
# Indices 1 2 3 4 5 6 
#
# 1 0.014681 -0.008266 -0.002821 0.000000 0.000000 0.000000
# 2 -0.008266 0.015952 -0.001223 0.000000 0.000000 0.000000
# 3 -0.002821 -0.001223 0.015744 0.000000 0.000000 0.000000
# 4 0.000000 0.000000 0.000000 0.028811 0.000000 0.000000
# 5 0.000000 0.000000 0.000000 0.000000 0.031320 0.000000
# 6 0.000000 0.000000 0.000000 0.000000 0.000000 0.021271
#
#
# Mechanical properties :
#
#
# Convention : Reuss Voigt Hill
#
# Bulk Modulus (GPa) = 45.95996 50.74621 48.35308
# Shear Modulus (GPa) = 31.31839 34.05773 32.68806
#
# Velocity S-wave (km/s) = 3.79761 3.96022 3.87977
# Velocity P-wave (km/s) = 6.35557 6.65427 6.50664
#
# Compressibility (1/GPa) = 0.02175807
#
# Stress axis : x y z
#
# Youngs Moduli (GPa) = 68.11656 62.68932 63.51450
#
# Poissons Ratio (x) = 0.51817 0.17917
# Poissons Ratio (y) = 0.56302 0.07766
# Poissons Ratio (z) = 0.19216 0.07665
#
# Static dielectric constant tensor:
#      x y z
#    x 4.483060 0.000000 0.000000 
#    y 0.000000 4.139430 0.000000 
#    z 0.000000 0.000000 3.863280 
# 
# 
# High freq. dielectric constant tensor:
#      x y z
#    x 1.842900 0.000000 0.000000 
#    y 0.000000 1.844080 0.000000 
#    z 0.000000 0.000000 1.865380 
# 
# From -- ./inp_files/1482.got.cif
#   From: 2010.03.12/outbox.cif.g09.slc.cpg/sg27_1_cif.got.tgz:1482.got - 2010.04.14 03:36:05.
