data_PCOD8167400
_publ_section_title
;
Structure prediction by ZEFSAII (Michael W. Deem and Ramdas Pophale) SiO2 
 PCOD8167400
Probable space group: P M C 21
;
_chemical_formula_sum "Si O2"
_cell_formula_units_Z 32
_cell_length_a 8.506497
_cell_length_b 14.530760
_cell_length_c 12.441780
_cell_angle_alpha 90.000000
_cell_angle_beta 90.000000
_cell_angle_gamma 90.000000
_cell_volume 1537.876996
_symmetry_space_group_name_H-M "P M C 21"
_symmetry_group_IT_number 26
_symmetry_cell_setting 'orthorhombic'
loop_
_space_group_symop_operation_xyz
x,y,z
-x,-y,1/2+z
-x,y,z
x,-y,1/2+z
loop_
_atom_site_type_symbol
_atom_site_label
_atom_site_fract_x
_atom_site_fract_y
_atom_site_fract_z
Si Si1 0.818194 0.557963 0.454410
Si Si2 0.816053 0.863168 0.756584
Si Si3 0.819364 0.363116 0.550858
Si Si4 0.181164 0.830079 0.355555
Si Si5 0.185340 0.261611 0.069673
Si Si6 0.322319 0.343890 0.768806
Si Si7 0.682927 0.954260 0.182119
Si Si8 0.315813 0.174501 0.483390
O O1 0.788093 0.452471 0.479774
O O2 0.765195 0.631829 0.547411
O O3 0.712412 0.573264 0.349783
O O4 0.000000 0.576801 0.427195
O O5 0.757382 0.774371 0.686431
O O6 0.000000 0.857216 0.782991
O O7 0.780497 0.951325 0.681872
O O8 0.721475 0.870716 0.868169
O O9 0.702977 0.379382 0.649343
O O10 0.776697 0.270796 0.486574
O O11 0.000000 0.359209 0.587842
O O12 0.248627 0.806039 0.474449
O O13 0.198055 0.737588 0.286047
O O14 0.285176 0.907270 0.297652
O O15 0.000000 0.862007 0.356433
O O16 0.000000 0.252027 0.065638
O O17 0.500000 0.307677 0.782465
O O18 0.500000 0.976670 0.171197
O O19 0.740240 0.891735 0.081233
O O20 0.500000 0.193407 0.495132
#
# Coordination Sequence:
#
# PCOD8167400 Si02
#       8
#     4   4   4   4   4   4   4   4
#     4   9  20  39  62  88 120 162 212 261 310 370
#     4  11  24  41  64  92 125 166 211 258 313 380
#     4  11  22  38  64  92 121 163 212 263 314 368
#     4  10  19  36  63  89 115 153 206 261 306 362
#     4   8  18  38  61  89 121 154 200 258 310 360
#     4  11  21  35  56  87 123 159 200 253 316 375
#     4  11  24  41  61  89 123 162 205 258 317 373
#     4  11  25  44  63  90 130 167 206 258 318 380
#
# _framework density 20.807908000000001
#
# number of rings (size 3 to 8) (size 9 to 14) (size 15 to 20)
#    0.000    1.750    1.250    3.750    1.750    3.500 
#    0.000    8.125    0.000    0.000    0.000    0.000 
#    0.000    0.000    0.000    0.000    0.000    0.000 
#
# Total GULP energy -396714.986351 kJ/mol
# GULP energy per Si atom -12397.343323 kJ/mol
# Density = 2.076055 g / cm^3
# Si number density = 20.807908 Si / 1000 Ang^3
#
#
#
# Elastic Constant Matrix: (Units=GPa)
#
#
# Indices 1 2 3 4 5 6 
#
# 1 44.1333 16.1024 24.9799 0.0000 0.0000 0.0000
# 2 16.1024 109.0956 39.5901 0.0000 0.0000 0.0000
# 3 24.9799 39.5901 93.7983 0.0000 0.0000 0.0000
# 4 0.0000 0.0000 0.0000 19.9121 0.0000 0.0000
# 5 0.0000 0.0000 0.0000 0.0000 26.0763 0.0000
# 6 0.0000 0.0000 0.0000 0.0000 0.0000 22.7986
#
#
#
# Elastic Compliance Matrix: (Units=1/GPa)
#
#
# Indices 1 2 3 4 5 6 
#
# 1 0.026921 -0.001620 -0.006486 0.000000 0.000000 0.000000
# 2 -0.001620 0.010922 -0.004178 0.000000 0.000000 0.000000
# 3 -0.006486 -0.004178 0.014152 0.000000 0.000000 0.000000
# 4 0.000000 0.000000 0.000000 0.050221 0.000000 0.000000
# 5 0.000000 0.000000 0.000000 0.000000 0.038349 0.000000
# 6 0.000000 0.000000 0.000000 0.000000 0.000000 0.043862
#
#
# Mechanical properties :
#
#
# Convention : Reuss Voigt Hill
#
# Bulk Modulus (GPa) = 36.46113 45.37468 40.91791
# Shear Modulus (GPa) = 22.92146 24.84773 23.88459
#
# Velocity S-wave (km/s) = 3.32260 3.45939 3.39169
# Velocity P-wave (km/s) = 5.68158 6.14901 5.91991
#
# Compressibility (1/GPa) = 0.02742646
#
# Stress axis : x y z
#
# Youngs Moduli (GPa) = 37.14627 91.56105 70.66135
#
# Poissons Ratio (x) = 0.14832 0.45829
# Poissons Ratio (y) = 0.06017 0.29525
# Poissons Ratio (z) = 0.24092 0.38258
#
# Static dielectric constant tensor:
#      x y z
#    x 3.566310 0.000000 0.000000 
#    y 0.000000 3.764250 0.000000 
#    z 0.000000 0.000000 3.894890 
# 
# 
# High freq. dielectric constant tensor:
#      x y z
#    x 1.802300 0.000000 0.000000 
#    y 0.000000 1.812160 0.000000 
#    z 0.000000 0.000000 1.813670 
# 
# From -- ./inp_files/3046.got.cif
#   From: 2010.03.12/outbox.cif.g09.slc.cpg/sg26_2_cif.got.tgz:3046.got - 2010.04.14 03:33:09.
