data_PCOD8167757
_publ_section_title
;
Structure prediction by ZEFSAII (Michael W. Deem and Ramdas Pophale) SiO2 
 PCOD8167757
Probable space group: P M C 21
;
_chemical_formula_sum "Si O2"
_cell_formula_units_Z 32
_cell_length_a 14.230863
_cell_length_b 13.815825
_cell_length_c 8.672666
_cell_angle_alpha 90.000000
_cell_angle_beta 90.000000
_cell_angle_gamma 90.000000
_cell_volume 1705.142513
_symmetry_space_group_name_H-M "P M C 21"
_symmetry_group_IT_number 26
_symmetry_cell_setting 'orthorhombic'
loop_
_space_group_symop_operation_xyz
x,y,z
-x,-y,1/2+z
-x,y,z
x,-y,1/2+z
loop_
_atom_site_type_symbol
_atom_site_label
_atom_site_fract_x
_atom_site_fract_y
_atom_site_fract_z
Si Si1 0.249810 0.627607 0.979130
Si Si2 0.392305 0.282316 0.984412
Si Si3 0.749796 0.876448 0.534629
Si Si4 0.107697 0.718079 0.484460
Si Si5 0.607806 0.764072 0.129365
Si Si6 0.892191 0.235533 0.629398
Si Si7 0.250185 0.077242 0.685606
Si Si8 0.249793 0.423484 0.122517
O O1 0.249778 0.593921 0.804154
O O2 0.342996 0.690654 0.011216
O O3 0.156780 0.690895 0.011231
O O4 0.249668 0.537297 0.094345
O O5 0.500000 0.282466 0.036310
O O6 0.343354 0.379350 0.045448
O O7 0.342374 0.189394 0.061493
O O8 0.380621 0.279168 0.800396
O O9 0.842053 0.810764 0.561712
O O10 0.749874 0.922042 0.367714
O O11 0.749625 0.963982 0.652725
O O12 0.119408 0.721257 0.300448
O O13 0.156340 0.620849 0.545385
O O14 0.000000 0.718328 0.536333
O O15 0.500000 0.776730 0.080844
O O16 0.657233 0.869071 0.119828
O O17 0.842524 0.130656 0.619703
O O18 0.000000 0.222615 0.581057
#
# Coordination Sequence:
#
# PCOD8167757 Si02
#       8
#     4   4   4   4   4   4   4   4
#     4  11  22  36  55  79 107 137 171 213 260 312
#     4   9  19  37  57  76 103 139 177 217 260 306
#     4   9  18  32  51  77 107 139 173 211 258 308
#     4   9  19  37  57  76 103 139 177 217 260 306
#     4   9  19  37  57  76 103 139 177 217 260 306
#     4   9  19  37  57  76 103 139 177 217 260 306
#     4   9  18  32  51  77 107 139 173 211 258 308
#     4  11  22  36  55  79 107 137 171 213 260 312
#
# _framework density 18.766760000000001
#
# number of rings (size 3 to 8) (size 9 to 14) (size 15 to 20)
#    0.000    2.500    0.000    3.750    0.000    7.000 
#    0.000    0.000    0.000    0.000    0.000    0.000 
#    0.000    0.000    0.000    0.000    0.000    0.000 
#
# Total GULP energy -396836.594843 kJ/mol
# GULP energy per Si atom -12401.143589 kJ/mol
# Density = 1.872405 g / cm^3
# Si number density = 18.766760 Si / 1000 Ang^3
#
#
#
# Elastic Constant Matrix: (Units=GPa)
#
#
# Indices 1 2 3 4 5 6 
#
# 1 159.9566 24.2820 13.9087 0.0000 0.0000 0.0000
# 2 24.2820 58.9834 -7.1672 0.0000 0.0000 0.0000
# 3 13.9087 -7.1672 29.4781 0.0000 0.0000 0.0000
# 4 0.0000 0.0000 0.0000 36.3217 0.0000 0.0000
# 5 0.0000 0.0000 0.0000 0.0000 16.9885 0.0000
# 6 0.0000 0.0000 0.0000 0.0000 0.0000 10.9661
#
#
#
# Elastic Compliance Matrix: (Units=1/GPa)
#
#
# Indices 1 2 3 4 5 6 
#
# 1 0.007142 -0.003451 -0.004209 0.000000 0.000000 0.000000
# 2 -0.003451 0.019138 0.006282 0.000000 0.000000 0.000000
# 3 -0.004209 0.006282 0.037437 0.000000 0.000000 0.000000
# 4 0.000000 0.000000 0.000000 0.027532 0.000000 0.000000
# 5 0.000000 0.000000 0.000000 0.000000 0.058863 0.000000
# 6 0.000000 0.000000 0.000000 0.000000 0.000000 0.091190
#
#
# Mechanical properties :
#
#
# Convention : Reuss Voigt Hill
#
# Bulk Modulus (GPa) = 16.40442 34.49611 25.45026
# Shear Modulus (GPa) = 18.91227 27.34824 23.13026
#
# Velocity S-wave (km/s) = 3.17796 3.82156 3.51452
# Velocity P-wave (km/s) = 4.71445 6.15580 5.48270
#
# Compressibility (1/GPa) = 0.06095920
#
# Stress axis : x y z
#
# Youngs Moduli (GPa) = 140.02459 52.25179 26.71178
#
# Poissons Ratio (x) = 0.18034 0.11242
# Poissons Ratio (y) = 0.48329 -0.16779
# Poissons Ratio (z) = 0.58934 -0.32823
#
# Static dielectric constant tensor:
#      x y z
#    x 3.685880 0.000000 0.000000 
#    y 0.000000 3.390180 0.000000 
#    z 0.000000 0.000000 3.259650 
# 
# 
# High freq. dielectric constant tensor:
#      x y z
#    x 1.731810 0.000000 0.000000 
#    y 0.000000 1.727610 0.000000 
#    z 0.000000 0.000000 1.720340 
# 
# From -- ./inp_files/2245.got.cif
#   From: 2010.03.12/outbox.cif.g09.slc.cpg/sg26_2_cif.got.tgz:2245.got - 2010.04.14 03:33:09.
