data_PCOD8167015
_publ_section_title
;
Structure prediction by ZEFSAII (Michael W. Deem and Ramdas Pophale) SiO2 
 PCOD8167015
Probable space group: P M M 2
;
_chemical_formula_sum "Si O2"
_cell_formula_units_Z 32
_cell_length_a 9.380956
_cell_length_b 9.934519
_cell_length_c 20.600096
_cell_angle_alpha 90.000000
_cell_angle_beta 90.000000
_cell_angle_gamma 90.000000
_cell_volume 1919.831831
_symmetry_space_group_name_H-M "P M M 2"
_symmetry_group_IT_number 25
_symmetry_cell_setting 'orthorhombic'
loop_
_space_group_symop_operation_xyz
x,y,z
-x,-y,z
-x,y,z
x,-y,z
loop_
_atom_site_type_symbol
_atom_site_label
_atom_site_fract_x
_atom_site_fract_y
_atom_site_fract_z
Si Si1 0.669901 0.350137 0.509960
Si Si2 0.665376 0.843596 0.256614
Si Si3 0.339369 0.339411 0.895834
Si Si4 0.160819 0.339454 0.773173
Si Si5 0.330615 0.149003 0.402720
Si Si6 0.341071 0.660236 0.653099
Si Si7 0.168417 0.653093 0.160260
Si Si8 0.841854 0.659604 0.015200
O O1 0.500000 0.354335 0.506178
O O2 0.731204 0.500000 0.497726
O O3 0.735174 0.252499 0.454992
O O4 0.714292 0.296353 0.581528
O O5 0.500000 0.810207 0.246002
O O6 0.712734 0.807473 0.330036
O O7 0.756685 0.752744 0.209343
O O8 0.695770 0.000000 0.242168
O O9 0.500000 0.282975 0.891486
O O10 0.340849 0.500000 0.896036
O O11 0.249597 0.285335 0.834638
O O12 0.267273 0.282811 0.961684
O O13 0.160161 0.500000 0.772824
O O14 0.234068 0.283118 0.707601
O O15 0.000000 0.283420 0.777098
O O16 0.500000 0.146267 0.407816
O O17 0.270561 0.000000 0.418009
O O18 0.500000 0.717669 0.666426
O O19 0.347791 0.500000 0.655705
O O20 0.219051 0.500000 0.173494
O O21 0.211384 0.698330 0.087280
O O22 0.000000 0.663920 0.169187
O O23 0.851029 0.500000 0.009695
O O24 0.000000 0.719176 0.002051
#
# Coordination Sequence:
#
# PCOD8167015 Si02
#       8
#     4   4   4   4   4   4   4   4
#     4   8  13  21  35  55  77 103 136 171 207 249
#     4   9  18  31  46  66  91 117 147 184 223 263
#     4   9  15  21  31  49  73 102 136 170 202 241
#     4   9  15  21  30  45  68 101 136 165 197 240
#     4   8  14  25  40  59  84 110 136 171 213 253
#     4   8  13  21  32  47  69  96 127 164 201 237
#     4   9  18  31  46  65  89 117 149 184 222 266
#     4   8  14  25  38  52  75 106 137 171 211 253
#
# _framework density 16.668125
#
# number of rings (size 3 to 8) (size 9 to 14) (size 15 to 20)
#    0.000    3.500    0.000    3.000    0.000    4.500 
#    0.000    2.500    0.000    0.750    0.000    1.750 
#    0.000    1.000    0.000    5.250    0.000    5.875 
#
# Total GULP energy -396571.940973 kJ/mol
# GULP energy per Si atom -12392.873155 kJ/mol
# Density = 1.663019 g / cm^3
# Si number density = 16.668125 Si / 1000 Ang^3
#
#
#
# Elastic Constant Matrix: (Units=GPa)
#
#
# Indices 1 2 3 4 5 6 
#
# 1 79.1808 26.0552 69.5984 0.0000 0.0000 0.0000
# 2 26.0552 39.5931 54.3014 0.0000 0.0000 0.0000
# 3 69.5984 54.3014 170.8994 0.0000 0.0000 0.0000
# 4 0.0000 0.0000 0.0000 0.2556 0.0000 0.0000
# 5 0.0000 0.0000 0.0000 0.0000 11.6495 0.0000
# 6 0.0000 0.0000 0.0000 0.0000 0.0000 12.4196
#
#
#
# Elastic Compliance Matrix: (Units=1/GPa)
#
#
# Indices 1 2 3 4 5 6 
#
# 1 0.019943 -0.003518 -0.007004 0.000000 0.000000 0.000000
# 2 -0.003518 0.045385 -0.012988 0.000000 0.000000 0.000000
# 3 -0.007004 -0.012988 0.012830 0.000000 0.000000 0.000000
# 4 0.000000 0.000000 0.000000 3.912530 0.000000 0.000000
# 5 0.000000 0.000000 0.000000 0.000000 0.085841 0.000000
# 6 0.000000 0.000000 0.000000 0.000000 0.000000 0.080518
#
#
# Mechanical properties :
#
#
# Convention : Reuss Voigt Hill
#
# Bulk Modulus (GPa) = 32.11456 65.50926 48.81191
# Shear Modulus (GPa) = 1.18640 14.17948 7.68294
#
# Velocity S-wave (km/s) = 0.84458 2.91983 2.14927
# Velocity P-wave (km/s) = 4.50111 7.12423 5.95880
#
# Compressibility (1/GPa) = 0.03113853
#
# Stress axis : x y z
#
# Youngs Moduli (GPa) = 50.14172 22.03391 77.93968
#
# Poissons Ratio (x) = 0.07752 0.54589
# Poissons Ratio (y) = 0.17642 1.01225
# Poissons Ratio (z) = 0.35119 0.28617
#
# Static dielectric constant tensor:
#      x y z
#    x 3.040470 0.000000 0.000000 
#    y 0.000000 2.748250 0.000000 
#    z 0.000000 0.000000 3.479730 
# 
# 
# High freq. dielectric constant tensor:
#      x y z
#    x 1.618560 0.000000 0.000000 
#    y 0.000000 1.578810 0.000000 
#    z 0.000000 0.000000 1.659550 
# 
# From -- ./inp_files/6509.got.cif
#   From: 2010.03.12/outbox.cif.g09.slc.cpg/sg25_4_cif.got.tgz:6509.got - 2010.04.14 03:30:10.
