data_PCOD8167120
_publ_section_title
;
Structure prediction by ZEFSAII (Michael W. Deem and Ramdas Pophale) SiO2 
 PCOD8167120
Probable space group: P M C 21
;
_chemical_formula_sum "Si O2"
_cell_formula_units_Z 24
_cell_length_a 29.620273
_cell_length_b 7.552086
_cell_length_c 5.216227
_cell_angle_alpha 90.000000
_cell_angle_beta 90.000000
_cell_angle_gamma 90.000000
_cell_volume 1166.843111
_symmetry_space_group_name_H-M "P M C 21"
_symmetry_group_IT_number 26
_symmetry_cell_setting 'orthorhombic'
loop_
_space_group_symop_operation_xyz
x,y,z
-x,-y,1/2+z
-x,y,z
x,-y,1/2+z
loop_
_atom_site_type_symbol
_atom_site_label
_atom_site_fract_x
_atom_site_fract_y
_atom_site_fract_z
Si Si1 0.500000 0.608027 0.002510
Si Si2 0.400739 0.296866 0.478988
Si Si3 0.827238 0.110308 0.967844
Si Si4 0.273838 0.884772 0.420412
Si Si5 0.000000 0.609826 0.362869
Si Si6 0.638145 0.303413 0.978722
Si Si7 0.904312 0.612715 0.466088
O O1 0.500000 0.552278 0.299627
O O2 0.545360 0.717039 0.949476
O O3 0.379740 0.495785 0.501668
O O4 0.378454 0.201478 0.234782
O O5 0.385614 0.202212 0.740864
O O6 0.834147 0.042554 0.256941
O O7 0.776958 0.191467 0.938677
O O8 0.863370 0.258945 0.907303
O O9 0.307737 0.717619 0.453510
O O10 0.282141 0.028612 0.642927
O O11 0.952968 0.713104 0.423996
O O12 0.000000 0.556183 0.063280
O O13 0.901228 0.544587 0.757532
#
# Coordination Sequence:
#
# PCOD8167120 Si02
#       7
#     2   4   4   4   2   4   4
#     4  12  16  30  48  74 106 130 156 176 262 332
#     4  10  19  30  50  79 101 123 152 205 258 293
#     4  10  21  38  56  77 110 148 186 228 274 331
#     4  10  21  37  54  70  96 141 177 201 251 310
#     4   8  16  30  52  76 110 146 174 222 276 340
#     4  10  18  32  47  73 100 122 161 203 242 289
#     4  10  19  35  56  83 110 143 189 227 278 325
#
# _framework density 20.568317
#
# number of rings (size 3 to 8) (size 9 to 14) (size 15 to 20)
#    0.000    2.000    3.333    2.000    0.000    0.000 
#    6.000    0.833    0.000    0.000    0.000   19.833 
#    0.000    0.000    0.000    0.000    0.000    0.000 
#
# Total GULP energy -297325.283068 kJ/mol
# GULP energy per Si atom -12388.553461 kJ/mol
# Density = 2.052150 g / cm^3
# Si number density = 20.568317 Si / 1000 Ang^3
#
#
#
# Elastic Constant Matrix: (Units=GPa)
#
#
# Indices 1 2 3 4 5 6 
#
# 1 180.7877 34.3833 17.8309 0.0000 0.0000 0.0000
# 2 34.3833 17.9390 -4.4991 0.0000 0.0000 0.0000
# 3 17.8309 -4.4991 142.7042 0.0000 0.0000 0.0000
# 4 0.0000 0.0000 0.0000 9.7054 0.0000 0.0000
# 5 0.0000 0.0000 0.0000 0.0000 31.4944 0.0000
# 6 0.0000 0.0000 0.0000 0.0000 0.0000 8.8929
#
#
#
# Elastic Compliance Matrix: (Units=1/GPa)
#
#
# Indices 1 2 3 4 5 6 
#
# 1 0.009096 -0.017860 -0.001700 0.000000 0.000000 0.000000
# 2 -0.017860 0.091257 0.005109 0.000000 0.000000 0.000000
# 3 -0.001700 0.005109 0.007381 0.000000 0.000000 0.000000
# 4 0.000000 0.000000 0.000000 0.103036 0.000000 0.000000
# 5 0.000000 0.000000 0.000000 0.000000 0.031752 0.000000
# 6 0.000000 0.000000 0.000000 0.000000 0.000000 0.112449
#
#
# Mechanical properties :
#
#
# Convention : Reuss Voigt Hill
#
# Bulk Modulus (GPa) = 12.68516 48.54012 30.61264
# Shear Modulus (GPa) = 12.19073 29.59960 20.89516
#
# Velocity S-wave (km/s) = 2.43717 3.79765 3.19076
# Velocity P-wave (km/s) = 3.75506 6.54830 5.33763
#
# Compressibility (1/GPa) = 0.07883225
#
# Stress axis : x y z
#
# Youngs Moduli (GPa) = 109.94279 10.95809 135.48428
#
# Poissons Ratio (x) = 0.19571 0.23027
# Poissons Ratio (y) = 1.96354 -0.69215
# Poissons Ratio (z) = 0.18686 -0.05598
#
# Static dielectric constant tensor:
#      x y z
#    x 4.195250 0.000000 0.000000 
#    y 0.000000 2.867050 0.000000 
#    z 0.000000 0.000000 5.110070 
# 
# 
# High freq. dielectric constant tensor:
#      x y z
#    x 1.828550 0.000000 0.000000 
#    y 0.000000 1.718990 0.000000 
#    z 0.000000 0.000000 1.846440 
# 
# From -- ./inp_files/953.got.cif
#   From: 2010.03.12/outbox.cif.g09.slc.cpg/sg26_1_cif.got.tgz:953.got - 2010.04.14 03:33:09.
