data_PCOD8167502
_publ_section_title
;
Structure prediction by ZEFSAII (Michael W. Deem and Ramdas Pophale) SiO2 
 PCOD8167502
Probable space group: P M C 21
;
_chemical_formula_sum "Si O2"
_cell_formula_units_Z 32
_cell_length_a 8.914856
_cell_length_b 11.340117
_cell_length_c 16.106529
_cell_angle_alpha 90.000000
_cell_angle_beta 90.000000
_cell_angle_gamma 90.000000
_cell_volume 1628.297765
_symmetry_space_group_name_H-M "P M C 21"
_symmetry_group_IT_number 26
_symmetry_cell_setting 'orthorhombic'
loop_
_space_group_symop_operation_xyz
x,y,z
-x,-y,1/2+z
-x,y,z
x,-y,1/2+z
loop_
_atom_site_type_symbol
_atom_site_label
_atom_site_fract_x
_atom_site_fract_y
_atom_site_fract_z
Si Si1 0.675775 0.473380 0.072590
Si Si2 0.666714 0.798929 0.585979
Si Si3 0.322799 0.828448 0.259953
Si Si4 0.174682 0.832586 0.883260
Si Si5 0.178514 0.433176 0.403682
Si Si6 0.178129 0.576724 0.238490
Si Si7 0.173141 0.048679 0.211263
Si Si8 0.332697 0.951404 0.425430
O O1 0.500000 0.504359 0.072918
O O2 0.708298 0.335722 0.073638
O O3 0.750660 0.524963 0.155063
O O4 0.747253 0.520102 0.987569
O O5 0.500000 0.812923 0.625578
O O6 0.795129 0.858281 0.639733
O O7 0.672435 0.859018 0.497849
O O8 0.500000 0.804017 0.254186
O O9 0.232873 0.710043 0.244051
O O10 0.265889 0.879347 0.347801
O O11 0.272009 0.930561 0.195276
O O12 0.238164 0.700849 0.893498
O O13 0.220712 0.881865 0.793778
O O14 0.000000 0.828763 0.898857
O O15 0.243315 0.928032 0.947697
O O16 0.229878 0.505743 0.321435
O O17 0.000000 0.439766 0.412985
O O18 0.000000 0.571974 0.229573
O O19 0.000000 0.012512 0.211661
O O20 0.500000 0.992009 0.403430
#
# Coordination Sequence:
#
# PCOD8167502 Si02
#       8
#     4   4   4   4   4   4   4   4
#     4  11  24  40  60  87 118 155 200 248 297 355
#     4  10  21  37  55  79 112 146 184 231 284 340
#     4  10  20  37  59  83 113 148 188 234 287 345
#     4   9  19  36  56  80 110 143 183 229 280 338
#     4  10  22  40  61  85 118 158 197 244 297 350
#     4  11  23  40  62  87 118 157 199 245 297 351
#     4  10  20  35  57  84 112 145 186 232 283 340
#     4   9  19  35  56  81 109 142 181 229 279 333
#
# _framework density 19.652424
#
# number of rings (size 3 to 8) (size 9 to 14) (size 15 to 20)
#    0.000    2.000    0.000    3.000    0.000    7.000 
#    0.000    2.500    0.000    0.000    0.000    0.000 
#    0.000    0.000    0.000    0.000    0.000    0.000 
#
# Total GULP energy -396713.153016 kJ/mol
# GULP energy per Si atom -12397.286032 kJ/mol
# Density = 1.960769 g / cm^3
# Si number density = 19.652424 Si / 1000 Ang^3
#
#
#
# Elastic Constant Matrix: (Units=GPa)
#
#
# Indices 1 2 3 4 5 6 
#
# 1 56.2874 53.4601 48.8872 0.0000 0.0000 0.0000
# 2 53.4601 176.6047 67.5960 0.0000 0.0000 0.0000
# 3 48.8872 67.5960 110.1096 0.0000 0.0000 0.0000
# 4 0.0000 0.0000 0.0000 25.0235 0.0000 0.0000
# 5 0.0000 0.0000 0.0000 0.0000 29.2393 0.0000
# 6 0.0000 0.0000 0.0000 0.0000 0.0000 45.2554
#
#
#
# Elastic Compliance Matrix: (Units=1/GPa)
#
#
# Indices 1 2 3 4 5 6 
#
# 1 0.032773 -0.005688 -0.011059 0.000000 0.000000 0.000000
# 2 -0.005688 0.008389 -0.002624 0.000000 0.000000 0.000000
# 3 -0.011059 -0.002624 0.015603 0.000000 0.000000 0.000000
# 4 0.000000 0.000000 0.000000 0.039963 0.000000 0.000000
# 5 0.000000 0.000000 0.000000 0.000000 0.034201 0.000000
# 6 0.000000 0.000000 0.000000 0.000000 0.000000 0.022097
#
#
# Mechanical properties :
#
#
# Convention : Reuss Voigt Hill
#
# Bulk Modulus (GPa) = 55.48720 75.87647 65.68184
# Shear Modulus (GPa) = 25.28122 31.44086 28.36104
#
# Velocity S-wave (km/s) = 3.59056 4.00415 3.80298
# Velocity P-wave (km/s) = 6.74426 7.75052 7.26484
#
# Compressibility (1/GPa) = 0.01802217
#
# Stress axis : x y z
#
# Youngs Moduli (GPa) = 30.51257 119.20847 64.08997
#
# Poissons Ratio (x) = 0.67805 0.70878
# Poissons Ratio (y) = 0.17355 0.16820
# Poissons Ratio (z) = 0.33744 0.31285
#
# Static dielectric constant tensor:
#      x y z
#    x 3.634720 0.000000 0.000000 
#    y 0.000000 3.930180 0.000000 
#    z 0.000000 0.000000 3.580260 
# 
# 
# High freq. dielectric constant tensor:
#      x y z
#    x 1.766070 0.000000 0.000000 
#    y 0.000000 1.784600 0.000000 
#    z 0.000000 0.000000 1.761160 
# 
# From -- ./inp_files/4239.got.cif
#   From: 2010.03.12/outbox.cif.g09.slc.cpg/sg26_3_cif.got.tgz:4239.got - 2010.04.14 03:33:09.
