data_PCOD8167501
_publ_section_title
;
Structure prediction by ZEFSAII (Michael W. Deem and Ramdas Pophale) SiO2 
 PCOD8167501
Probable space group: P M C 21
;
_chemical_formula_sum "Si O2"
_cell_formula_units_Z 32
_cell_length_a 9.033103
_cell_length_b 19.886384
_cell_length_c 9.081623
_cell_angle_alpha 90.000000
_cell_angle_beta 90.000000
_cell_angle_gamma 90.000000
_cell_volume 1631.384204
_symmetry_space_group_name_H-M "P M C 21"
_symmetry_group_IT_number 26
_symmetry_cell_setting 'orthorhombic'
loop_
_space_group_symop_operation_xyz
x,y,z
-x,-y,1/2+z
-x,y,z
x,-y,1/2+z
loop_
_atom_site_type_symbol
_atom_site_label
_atom_site_fract_x
_atom_site_fract_y
_atom_site_fract_z
Si Si1 0.671819 0.687621 0.726710
Si Si2 0.672711 0.917393 0.729976
Si Si3 0.672248 0.051218 0.562638
Si Si4 0.672071 0.538873 0.793808
Si Si5 0.830650 0.287817 0.529018
Si Si6 0.175588 0.800329 0.563312
Si Si7 0.825001 0.167497 0.735333
Si Si8 0.169280 0.563747 0.095632
O O1 0.500000 0.706386 0.717183
O O2 0.697376 0.607784 0.701852
O O3 0.760205 0.726600 0.599510
O O4 0.728382 0.710732 0.886228
O O5 0.500000 0.898987 0.727865
O O6 0.765619 0.852227 0.685372
O O7 0.709430 0.975657 0.612904
O O8 0.722807 0.939772 0.893682
O O9 0.500000 0.066844 0.582068
O O10 0.758887 0.099470 0.672223
O O11 0.500000 0.524187 0.816926
O O12 0.747130 0.474335 0.723954
O O13 0.748219 0.545600 0.948460
O O14 0.771332 0.229273 0.634702
O O15 0.819986 0.356454 0.622862
O O16 0.000000 0.275440 0.477974
O O17 0.232241 0.821457 0.401627
O O18 0.000000 0.797259 0.571278
O O19 0.000000 0.161622 0.734016
O O20 0.000000 0.539454 0.087258
#
# Coordination Sequence:
#
# PCOD8167501 Si02
#       8
#     4   4   4   4   4   4   4   4
#     4  10  21  37  57  81 109 144 184 226 275 330
#     4  10  21  38  59  83 111 143 181 224 271 325
#     4  10  21  37  59  84 109 141 180 223 271 323
#     4  10  21  37  56  81 114 148 184 230 284 338
#     4   9  19  37  58  80 108 143 183 228 276 326
#     4  11  23  37  55  81 112 146 183 225 272 323
#     4  10  22  38  55  79 111 144 180 223 271 323
#     4  10  20  35  57  83 110 145 189 233 280 336
#
# _framework density 19.615245999999999
#
# number of rings (size 3 to 8) (size 9 to 14) (size 15 to 20)
#    0.000    2.000    0.000    3.000    0.000    8.500 
#    0.000    1.250    0.000    0.000    0.000    0.000 
#    0.000    0.000    0.000    0.000    0.000    0.000 
#
# Total GULP energy -396898.459020 kJ/mol
# GULP energy per Si atom -12403.076844 kJ/mol
# Density = 1.957060 g / cm^3
# Si number density = 19.615246 Si / 1000 Ang^3
#
#
#
# Elastic Constant Matrix: (Units=GPa)
#
#
# Indices 1 2 3 4 5 6 
#
# 1 68.8498 16.0599 10.7699 0.0000 0.0000 0.0000
# 2 16.0599 46.2218 -4.4271 0.0000 0.0000 0.0000
# 3 10.7699 -4.4271 50.5858 0.0000 0.0000 0.0000
# 4 0.0000 0.0000 0.0000 39.2007 0.0000 0.0000
# 5 0.0000 0.0000 0.0000 0.0000 37.8736 0.0000
# 6 0.0000 0.0000 0.0000 0.0000 0.0000 34.7909
#
#
#
# Elastic Compliance Matrix: (Units=1/GPa)
#
#
# Indices 1 2 3 4 5 6 
#
# 1 0.016598 -0.006157 -0.004072 0.000000 0.000000 0.000000
# 2 -0.006157 0.024102 0.003420 0.000000 0.000000 0.000000
# 3 -0.004072 0.003420 0.020935 0.000000 0.000000 0.000000
# 4 0.000000 0.000000 0.000000 0.025510 0.000000 0.000000
# 5 0.000000 0.000000 0.000000 0.000000 0.026404 0.000000
# 6 0.000000 0.000000 0.000000 0.000000 0.000000 0.028743
#
#
# Mechanical properties :
#
#
# Convention : Reuss Voigt Hill
#
# Bulk Modulus (GPa) = 20.82670 23.38475 22.10573
# Shear Modulus (GPa) = 29.08427 31.92336 30.50381
#
# Velocity S-wave (km/s) = 3.85481 4.03858 3.94776
# Velocity P-wave (km/s) = 5.51846 5.80469 5.66338
#
# Compressibility (1/GPa) = 0.04801530
#
# Stress axis : x y z
#
# Youngs Moduli (GPa) = 60.24977 41.49096 47.76749
#
# Poissons Ratio (x) = 0.25546 0.19453
# Poissons Ratio (y) = 0.37095 -0.16337
# Poissons Ratio (z) = 0.24537 -0.14190
#
# Static dielectric constant tensor:
#      x y z
#    x 3.540090 0.000000 0.000000 
#    y 0.000000 3.847900 0.000000 
#    z 0.000000 0.000000 3.581150 
# 
# 
# High freq. dielectric constant tensor:
#      x y z
#    x 1.766060 0.000000 0.000000 
#    y 0.000000 1.774510 0.000000 
#    z 0.000000 0.000000 1.762800 
# 
# From -- ./inp_files/1580.got.cif
#   From: 2010.03.12/outbox.cif.g09.slc.cpg/sg26_1_cif.got.tgz:1580.got - 2010.04.14 03:33:09.
