data_PCOD8167533
_publ_section_title
;
Structure prediction by ZEFSAII (Michael W. Deem and Ramdas Pophale) SiO2 
 PCOD8167533
Probable space group: P M C 21
;
_chemical_formula_sum "Si O2"
_cell_formula_units_Z 32
_cell_length_a 8.893098
_cell_length_b 14.525271
_cell_length_c 12.246642
_cell_angle_alpha 90.000000
_cell_angle_beta 90.000000
_cell_angle_gamma 90.000000
_cell_volume 1581.955798
_symmetry_space_group_name_H-M "P M C 21"
_symmetry_group_IT_number 26
_symmetry_cell_setting 'orthorhombic'
loop_
_space_group_symop_operation_xyz
x,y,z
-x,-y,1/2+z
-x,y,z
x,-y,1/2+z
loop_
_atom_site_type_symbol
_atom_site_label
_atom_site_fract_x
_atom_site_fract_y
_atom_site_fract_z
Si Si1 0.822938 0.141818 0.028420
Si Si2 0.830106 0.196391 0.616039
Si Si3 0.678056 0.174509 0.258454
Si Si4 0.171763 0.052621 0.442768
Si Si5 0.669589 0.452319 0.747655
Si Si6 0.824689 0.369841 0.308611
Si Si7 0.667085 0.641420 0.018845
Si Si8 0.825602 0.721531 0.342257
O O1 0.732457 0.140299 0.140561
O O2 0.000000 0.141118 0.054704
O O3 0.778162 0.231101 0.956135
O O4 0.778475 0.053035 0.955789
O O5 0.812213 0.094626 0.565900
O O6 0.713576 0.255198 0.546269
O O7 0.791882 0.204788 0.744701
O O8 0.000000 0.233241 0.596313
O O9 0.500000 0.178883 0.258964
O O10 0.729078 0.103628 0.352168
O O11 0.741703 0.276010 0.278468
O O12 0.000000 0.060506 0.402315
O O13 0.500000 0.473280 0.787615
O O14 0.768158 0.544206 0.738517
O O15 0.672789 0.420373 0.624363
O O16 0.735316 0.373342 0.826942
O O17 0.784299 0.399177 0.432084
O O18 0.000000 0.354681 0.290877
O O19 0.500000 0.643868 0.968115
O O20 0.000000 0.695002 0.343534
#
# Coordination Sequence:
#
# PCOD8167533 Si02
#       8
#     4   4   4   4   4   4   4   4
#     4  10  23  41  65  93 127 169 213 258 310 370
#     4   9  17  32  58  88 117 153 201 255 304 357
#     4  12  26  43  63  91 130 167 207 259 315 375
#     4  10  21  38  65  94 122 161 209 259 307 367
#     4  10  22  39  61  90 123 163 206 254 314 380
#     4  12  24  40  64  90 120 161 209 261 311 368
#     4  10  20  36  58  86 119 155 198 250 310 370
#     4   9  19  37  60  90 124 161 207 258 307 365
#
# _framework density 20.228124000000001
#
# number of rings (size 3 to 8) (size 9 to 14) (size 15 to 20)
#    0.000    1.750    1.250    3.000    1.750    3.500 
#    0.000    0.000    0.000    0.000    0.000    0.000 
#    0.000    0.000    0.000    0.000    0.000    0.000 
#
# Total GULP energy -396728.951793 kJ/mol
# GULP energy per Si atom -12397.779744 kJ/mol
# Density = 2.018208 g / cm^3
# Si number density = 20.228124 Si / 1000 Ang^3
#
#
#
# Elastic Constant Matrix: (Units=GPa)
#
#
# Indices 1 2 3 4 5 6 
#
# 1 125.4869 61.9237 48.6840 0.0000 0.0000 0.0000
# 2 61.9237 115.8073 38.9089 0.0000 0.0000 0.0000
# 3 48.6840 38.9089 79.8862 0.0000 0.0000 0.0000
# 4 0.0000 0.0000 0.0000 20.3538 0.0000 0.0000
# 5 0.0000 0.0000 0.0000 0.0000 29.8001 0.0000
# 6 0.0000 0.0000 0.0000 0.0000 0.0000 20.1186
#
#
#
# Elastic Compliance Matrix: (Units=1/GPa)
#
#
# Indices 1 2 3 4 5 6 
#
# 1 0.012385 -0.004886 -0.005168 0.000000 0.000000 0.000000
# 2 -0.004886 0.012252 -0.002990 0.000000 0.000000 0.000000
# 3 -0.005168 -0.002990 0.017123 0.000000 0.000000 0.000000
# 4 0.000000 0.000000 0.000000 0.049131 0.000000 0.000000
# 5 0.000000 0.000000 0.000000 0.000000 0.033557 0.000000
# 6 0.000000 0.000000 0.000000 0.000000 0.000000 0.049705
#
#
# Mechanical properties :
#
#
# Convention : Reuss Voigt Hill
#
# Bulk Modulus (GPa) = 63.80370 68.91263 66.35817
# Shear Modulus (GPa) = 24.33499 25.49877 24.91688
#
# Velocity S-wave (km/s) = 3.47223 3.55429 3.51350
# Velocity P-wave (km/s) = 6.90549 7.14042 7.02394
#
# Compressibility (1/GPa) = 0.01567307
#
# Stress axis : x y z
#
# Youngs Moduli (GPa) = 80.74258 81.61768 58.39976
#
# Poissons Ratio (x) = 0.39880 0.30180
# Poissons Ratio (y) = 0.39452 0.17460
# Poissons Ratio (z) = 0.41726 0.24402
#
# Static dielectric constant tensor:
#      x y z
#    x 3.822170 0.000000 0.000000 
#    y 0.000000 3.627400 0.000000 
#    z 0.000000 0.000000 3.816650 
# 
# 
# High freq. dielectric constant tensor:
#      x y z
#    x 1.787410 0.000000 0.000000 
#    y 0.000000 1.788650 0.000000 
#    z 0.000000 0.000000 1.792470 
# 
# From -- ./inp_files/3104.got.cif
#   From: 2010.03.12/outbox.cif.g09.slc.cpg/sg26_2_cif.got.tgz:3104.got - 2010.04.14 03:33:09.
