data_PCOD8167866
_publ_section_title
;
Structure prediction by ZEFSAII (Michael W. Deem and Ramdas Pophale) SiO2 
 PCOD8167866
Probable space group: P C C 2
;
_chemical_formula_sum "Si O2"
_cell_formula_units_Z 32
_cell_length_a 12.298612
_cell_length_b 9.326144
_cell_length_c 13.273517
_cell_angle_alpha 90.000000
_cell_angle_beta 90.000000
_cell_angle_gamma 90.000000
_cell_volume 1522.454169
_symmetry_space_group_name_H-M "P C C 2"
_symmetry_group_IT_number 27
_symmetry_cell_setting 'orthorhombic'
loop_
_space_group_symop_operation_xyz
x,y,z
-x,-y,z
-x,y,1/2+z
x,-y,1/2+z
loop_
_atom_site_type_symbol
_atom_site_label
_atom_site_fract_x
_atom_site_fract_y
_atom_site_fract_z
Si Si1 0.122016 0.976948 0.694590
Si Si2 0.544175 0.853296 0.406956
Si Si3 0.590426 0.618908 0.014463
Si Si4 0.144533 0.799941 0.360415
Si Si5 0.248421 0.008271 0.499222
Si Si6 0.405619 0.385336 0.247660
Si Si7 0.100407 0.785966 0.881835
Si Si8 0.225265 0.499140 0.875717
O O1 0.126318 0.836794 0.767186
O O2 0.153706 0.117767 0.756124
O O3 0.218443 0.963309 0.612980
O O4 0.000000 0.000000 0.650083
O O5 0.448647 0.768484 0.465072
O O6 0.638561 0.904092 0.485578
O O7 0.585732 0.758260 0.314501
O O8 0.500000 0.000000 0.358412
O O9 0.500000 0.500000 0.994374
O O10 0.700853 0.550197 0.970663
O O11 0.602688 0.656037 0.131517
O O12 0.157890 0.634186 0.336352
O O13 0.025211 0.810597 0.408396
O O14 0.238666 0.860449 0.435192
O O15 0.154905 0.112365 0.462296
O O16 0.500000 0.500000 0.270636
O O17 0.294689 0.458977 0.278974
O O18 0.141733 0.625285 0.903678
#
# Coordination Sequence:
#
# PCOD8167866 Si02
#       8
#     4   4   4   4   4   4   4   4
#     4   9  20  40  63  91 129 169 214 256 316 377
#     4  12  24  43  64  97 128 159 214 269 314 380
#     4  11  23  44  66  93 125 170 212 261 321 380
#     4  10  23  38  60  96 125 165 211 264 310 371
#     4  11  21  41  66  88 127 172 208 257 320 379
#     4  11  24  44  67  86 129 170 206 263 320 379
#     4  10  21  39  64  91 128 167 209 264 313 371
#     4  12  21  41  64  91 127 166 213 257 320 376
#
# _framework density 21.018695999999998
#
# number of rings (size 3 to 8) (size 9 to 14) (size 15 to 20)
#    0.000    1.250    3.750    3.000    0.000    5.500 
#    2.250    0.000    0.000    4.500    0.000    0.000 
#    0.000    0.000    0.000    0.000    0.000    0.000 
#
# Total GULP energy -396652.371929 kJ/mol
# GULP energy per Si atom -12395.386623 kJ/mol
# Density = 2.097086 g / cm^3
# Si number density = 21.018696 Si / 1000 Ang^3
#
#
#
# Elastic Constant Matrix: (Units=GPa)
#
#
# Indices 1 2 3 4 5 6 
#
# 1 67.6719 24.7038 20.4987 0.0000 0.0000 0.0000
# 2 24.7038 141.2220 33.6273 0.0000 0.0000 0.0000
# 3 20.4987 33.6273 90.6580 0.0000 0.0000 0.0000
# 4 0.0000 0.0000 0.0000 -518.7640 0.0000 0.0000
# 5 0.0000 0.0000 0.0000 0.0000 -6.4836 0.0000
# 6 0.0000 0.0000 0.0000 0.0000 0.0000 39.6355
#
#
#
# Elastic Compliance Matrix: (Units=1/GPa)
#
#
# Indices 1 2 3 4 5 6 
#
# 1 0.016457 -0.002186 -0.002910 0.000000 0.000000 0.000000
# 2 -0.002186 0.008057 -0.002494 0.000000 0.000000 0.000000
# 3 -0.002910 -0.002494 0.012614 0.000000 0.000000 0.000000
# 4 0.000000 0.000000 0.000000 -0.001928 0.000000 0.000000
# 5 0.000000 0.000000 0.000000 0.000000 -0.154236 0.000000
# 6 0.000000 0.000000 0.000000 0.000000 0.000000 0.025230
#
#
# Mechanical properties :
#
#
# Convention : Reuss Voigt Hill
#
# Bulk Modulus (GPa) = 45.56466 50.80127 48.18296
# Shear Modulus (GPa) = -70.11710 -82.40761 -76.26236
#
# Velocity S-wave (km/s) = -5.78203 -6.26833 -6.03008
# Velocity P-wave (km/s) = 4.78022 5.30728 5.05063
#
# Compressibility (1/GPa) = 0.02194683
#
# Stress axis : x y z
#
# Youngs Moduli (GPa) = 60.76568 124.10985 79.27846
#
# Poissons Ratio (x) = 0.27127 0.23072
# Poissons Ratio (y) = 0.13282 0.19776
# Poissons Ratio (z) = 0.17684 0.30959
#
# Static dielectric constant tensor:
#      x y z
#    x 3.999090 0.000000 0.000000 
#    y 0.000000 5.739630 0.000000 
#    z 0.000000 0.000000 3.610310 
# 
# 
# High freq. dielectric constant tensor:
#      x y z
#    x 1.831300 0.000000 0.000000 
#    y 0.000000 1.839440 0.000000 
#    z 0.000000 0.000000 1.803680 
# 
# From -- ./inp_files/3671.got.cif
#   From: 2010.03.12/outbox.cif.g09.slc.cpg/sg27_2_cif.got.tgz:3671.got - 2010.04.14 03:36:05.
