data_PCOD8167580
_publ_section_title
;
Structure prediction by ZEFSAII (Michael W. Deem and Ramdas Pophale) SiO2 
 PCOD8167580
Probable space group: P M C 21
;
_chemical_formula_sum "Si O2"
_cell_formula_units_Z 20
_cell_length_a 12.848761
_cell_length_b 5.194983
_cell_length_c 15.362392
_cell_angle_alpha 90.000000
_cell_angle_beta 90.000000
_cell_angle_gamma 90.000000
_cell_volume 1025.425763
_symmetry_space_group_name_H-M "P M C 21"
_symmetry_group_IT_number 26
_symmetry_cell_setting 'orthorhombic'
loop_
_space_group_symop_operation_xyz
x,y,z
-x,-y,1/2+z
-x,y,z
x,-y,1/2+z
loop_
_atom_site_type_symbol
_atom_site_label
_atom_site_fract_x
_atom_site_fract_y
_atom_site_fract_z
Si Si1 0.117724 0.508791 0.150950
Si Si2 0.203328 0.451220 0.472107
Si Si3 0.380158 0.153620 0.539556
Si Si4 0.756304 0.007142 0.195169
Si Si5 0.261808 0.042153 0.890217
O O1 0.159385 0.783061 0.183381
O O2 0.000000 0.475428 0.183997
O O3 0.187231 0.280261 0.188974
O O4 0.116525 0.502098 0.045421
O O5 0.204362 0.687459 0.405309
O O6 0.314603 0.417208 0.523657
O O7 0.182039 0.189144 0.417295
O O8 0.500000 0.221054 0.553893
O O9 0.363215 0.974710 0.453470
O O10 0.335533 0.008383 0.624449
O O11 0.703952 0.983560 0.290293
#
# Coordination Sequence:
#
# PCOD8167580 Si02
#       5
#     4   4   4   4   4
#     4  11  21  40  63  87 118 161 198 244 304 357
#     4   9  19  39  58  84 117 159 187 253 282 349
#     4   9  21  38  61  88 120 159 196 237 296 352
#     4  11  22  39  63  87 125 153 197 252 294 354
#     4  10  20  38  60  82 122 154 195 242 297 336
#
# _framework density 19.504093999999998
#
# number of rings (size 3 to 8) (size 9 to 14) (size 15 to 20)
#    1.200    0.800    2.000    1.800    0.000    1.600 
#    0.000    6.000    0.000    0.000    0.000    0.000 
#    0.000    0.000    0.000    0.000    0.000    0.000 
#
# Total GULP energy -247828.332630 kJ/mol
# GULP energy per Si atom -12391.416631 kJ/mol
# Density = 1.945970 g / cm^3
# Si number density = 19.504094 Si / 1000 Ang^3
#
#
#
# Elastic Constant Matrix: (Units=GPa)
#
#
# Indices 1 2 3 4 5 6 
#
# 1 72.3412 4.4885 24.6997 0.0000 0.0000 0.0000
# 2 4.4885 100.9357 10.0201 0.0000 0.0000 0.0000
# 3 24.6997 10.0201 144.6511 0.0000 0.0000 0.0000
# 4 0.0000 0.0000 0.0000 30.6237 0.0000 0.0000
# 5 0.0000 0.0000 0.0000 0.0000 8.1180 0.0000
# 6 0.0000 0.0000 0.0000 0.0000 0.0000 17.0899
#
#
#
# Elastic Compliance Matrix: (Units=1/GPa)
#
#
# Indices 1 2 3 4 5 6 
#
# 1 0.014696 -0.000407 -0.002481 0.000000 0.000000 0.000000
# 2 -0.000407 0.009987 -0.000622 0.000000 0.000000 0.000000
# 3 -0.002481 -0.000622 0.007380 0.000000 0.000000 0.000000
# 4 0.000000 0.000000 0.000000 0.032654 0.000000 0.000000
# 5 0.000000 0.000000 0.000000 0.000000 0.123184 0.000000
# 6 0.000000 0.000000 0.000000 0.000000 0.000000 0.058514
#
#
# Mechanical properties :
#
#
# Convention : Reuss Voigt Hill
#
# Bulk Modulus (GPa) = 39.93345 44.03829 41.98587
# Shear Modulus (GPa) = 19.09974 29.74763 24.42368
#
# Velocity S-wave (km/s) = 3.13272 3.90962 3.54253
# Velocity P-wave (km/s) = 5.79690 6.55806 6.18919
#
# Compressibility (1/GPa) = 0.02504166
#
# Stress axis : x y z
#
# Youngs Moduli (GPa) = 68.04663 100.12834 135.50212
#
# Poissons Ratio (x) = 0.04077 0.33620
# Poissons Ratio (y) = 0.02771 0.08432
# Poissons Ratio (z) = 0.16883 0.06231
#
# Static dielectric constant tensor:
#      x y z
#    x 3.026390 0.000000 0.000000 
#    y 0.000000 3.538350 0.000000 
#    z 0.000000 0.000000 3.591580 
# 
# 
# High freq. dielectric constant tensor:
#      x y z
#    x 1.711300 0.000000 0.000000 
#    y 0.000000 1.769590 0.000000 
#    z 0.000000 0.000000 1.765630 
# 
# From -- ./inp_files/4375.got.cif
#   From: 2010.03.12/outbox.cif.g09.slc.cpg/sg26_3_cif.got.tgz:4375.got - 2010.04.14 03:33:09.
