data_PCOD8167730
_publ_section_title
;
Structure prediction by ZEFSAII (Michael W. Deem and Ramdas Pophale) SiO2 
 PCOD8167730
Probable space group: P M C 21
;
_chemical_formula_sum "Si O2"
_cell_formula_units_Z 32
_cell_length_a 8.844871
_cell_length_b 9.237514
_cell_length_c 20.189234
_cell_angle_alpha 90.000000
_cell_angle_beta 90.000000
_cell_angle_gamma 90.000000
_cell_volume 1649.553686
_symmetry_space_group_name_H-M "P M C 21"
_symmetry_group_IT_number 26
_symmetry_cell_setting 'orthorhombic'
loop_
_space_group_symop_operation_xyz
x,y,z
-x,-y,1/2+z
-x,y,z
x,-y,1/2+z
loop_
_atom_site_type_symbol
_atom_site_label
_atom_site_fract_x
_atom_site_fract_y
_atom_site_fract_z
Si Si1 0.323487 0.568181 0.117400
Si Si2 0.679269 0.109076 0.627305
Si Si3 0.178699 0.908143 0.364861
Si Si4 0.177957 0.582181 0.351855
Si Si5 0.326914 0.402839 0.465481
Si Si6 0.178575 0.606198 0.729114
Si Si7 0.677002 0.930597 0.980271
Si Si8 0.320297 0.916275 0.747575
O O1 0.500000 0.550341 0.134360
O O2 0.262070 0.727197 0.137807
O O3 0.228005 0.450180 0.157273
O O4 0.294337 0.542693 0.039768
O O5 0.500000 0.116175 0.627455
O O6 0.730502 0.047309 0.556156
O O7 0.743501 0.007527 0.685190
O O8 0.240931 0.745569 0.354390
O O9 0.000000 0.919652 0.354213
O O10 0.222595 0.958757 0.438354
O O11 0.263636 0.012519 0.314583
O O12 0.225008 0.493522 0.416205
O O13 0.236748 0.506058 0.284937
O O14 0.000000 0.587976 0.351670
O O15 0.500000 0.430816 0.446580
O O16 0.288720 0.233550 0.458120
O O17 0.258226 0.756211 0.743725
O O18 0.000000 0.628270 0.731349
O O19 0.500000 0.966092 0.971469
O O20 0.500000 0.912510 0.747360
#
# Coordination Sequence:
#
# PCOD8167730 Si02
#       8
#     4   4   4   4   4   4   4   4
#     4   9  18  36  59  83 109 140 178 222 267 318
#     4   8  17  35  59  83 109 139 178 225 270 317
#     4  11  23  38  54  78 110 143 180 225 270 321
#     4  10  23  39  54  75 109 147 183 222 269 322
#     4   9  19  35  58  84 109 138 178 223 267 316
#     4  11  23  38  55  79 111 147 182 223 271 323
#     4   9  18  36  59  83 109 141 179 221 269 323
#     4  11  22  37  58  83 108 141 182 227 275 324
#
# _framework density 19.399189
#
# number of rings (size 3 to 8) (size 9 to 14) (size 15 to 20)
#    0.000    2.250    0.000    4.125    0.000    6.000 
#    0.000    7.500    0.000    0.000    0.000    0.000 
#    0.000    0.000    0.000    0.000    0.000    0.000 
#
# Total GULP energy -396862.828574 kJ/mol
# GULP energy per Si atom -12401.963393 kJ/mol
# Density = 1.935504 g / cm^3
# Si number density = 19.399189 Si / 1000 Ang^3
#
#
#
# Elastic Constant Matrix: (Units=GPa)
#
#
# Indices 1 2 3 4 5 6 
#
# 1 39.7519 18.7581 17.9976 0.0000 0.0000 0.0000
# 2 18.7581 61.6150 17.2645 0.0000 0.0000 0.0000
# 3 17.9976 17.2645 77.0048 0.0000 0.0000 0.0000
# 4 0.0000 0.0000 0.0000 40.5364 0.0000 0.0000
# 5 0.0000 0.0000 0.0000 0.0000 24.2417 0.0000
# 6 0.0000 0.0000 0.0000 0.0000 0.0000 30.7928
#
#
#
# Elastic Compliance Matrix: (Units=1/GPa)
#
#
# Indices 1 2 3 4 5 6 
#
# 1 0.031455 -0.008020 -0.005554 0.000000 0.000000 0.000000
# 2 -0.008020 0.019363 -0.002467 0.000000 0.000000 0.000000
# 3 -0.005554 -0.002467 0.014837 0.000000 0.000000 0.000000
# 4 0.000000 0.000000 0.000000 0.024669 0.000000 0.000000
# 5 0.000000 0.000000 0.000000 0.000000 0.041251 0.000000
# 6 0.000000 0.000000 0.000000 0.000000 0.000000 0.032475
#
#
# Mechanical properties :
#
#
# Convention : Reuss Voigt Hill
#
# Bulk Modulus (GPa) = 29.78477 31.82356 30.80417
# Shear Modulus (GPa) = 24.11705 27.40428 25.76066
#
# Velocity S-wave (km/s) = 3.52973 3.76260 3.64802
# Velocity P-wave (km/s) = 5.65676 5.94276 5.80152
#
# Compressibility (1/GPa) = 0.03357420
#
# Stress axis : x y z
#
# Youngs Moduli (GPa) = 31.79154 51.64600 67.39811
#
# Poissons Ratio (x) = 0.41420 0.37430
# Poissons Ratio (y) = 0.25497 0.16625
# Poissons Ratio (z) = 0.17656 0.12739
#
# Static dielectric constant tensor:
#      x y z
#    x 3.297840 0.000000 0.000000 
#    y 0.000000 3.689630 0.000000 
#    z 0.000000 0.000000 3.719240 
# 
# 
# High freq. dielectric constant tensor:
#      x y z
#    x 1.737530 0.000000 0.000000 
#    y 0.000000 1.760100 0.000000 
#    z 0.000000 0.000000 1.768500 
# 
# From -- ./inp_files/5342.got.cif
#   From: 2010.03.12/outbox.cif.g09.slc.cpg/sg26_3_cif.got.tgz:5342.got - 2010.04.14 03:33:09.
