data_PCOD8167187
_publ_section_title
;
Structure prediction by ZEFSAII (Michael W. Deem and Ramdas Pophale) SiO2 
 PCOD8167187
Probable space group: P M C 21
;
_chemical_formula_sum "Si O2"
_cell_formula_units_Z 24
_cell_length_a 20.946506
_cell_length_b 16.384309
_cell_length_c 5.043935
_cell_angle_alpha 90.000000
_cell_angle_beta 90.000000
_cell_angle_gamma 90.000000
_cell_volume 1731.048363
_symmetry_space_group_name_H-M "P M C 21"
_symmetry_group_IT_number 26
_symmetry_cell_setting 'orthorhombic'
loop_
_space_group_symop_operation_xyz
x,y,z
-x,-y,1/2+z
-x,y,z
x,-y,1/2+z
loop_
_atom_site_type_symbol
_atom_site_label
_atom_site_fract_x
_atom_site_fract_y
_atom_site_fract_z
Si Si1 0.131399 0.552428 0.363910
Si Si2 0.424023 0.048476 0.368929
Si Si3 0.500000 0.551803 0.459240
Si Si4 0.000000 0.445534 0.001339
Si Si5 0.423718 0.231721 0.457950
Si Si6 0.270208 0.556569 0.449068
Si Si7 0.613795 0.672093 0.452459
O O1 0.129402 0.472436 0.555691
O O2 0.198912 0.596263 0.425431
O O3 0.066413 0.603928 0.436914
O O4 0.500000 0.049262 0.375797
O O5 0.399120 0.140622 0.398088
O O6 0.397323 0.009361 0.100619
O O7 0.500000 0.473676 0.266649
O O8 0.562599 0.602538 0.392215
O O9 0.000000 0.524646 0.804327
O O10 0.500000 0.237941 0.449418
O O11 0.393866 0.293409 0.246731
O O12 0.397075 0.254636 0.746362
O O13 0.281551 0.513089 0.729765
O O14 0.316808 0.633023 0.417045
#
# Coordination Sequence:
#
# PCOD8167187 Si02
#       7
#     4   4   2   2   4   4   4
#     4   8  14  23  37  52  70  90 116 153 193 227
#     4   9  17  29  46  64  78  92 109 137 182 237
#     4  12  22  32  42  52  66  94 132 170 200 222
#     4   8  12  20  34  54  70  86 110 146 192 230
#     4  11  20  33  45  60  78  95 119 155 197 232
#     4  10  19  31  41  53  72 100 133 167 198 226
#     4  12  21  32  43  56  74  99 128 166 198 230
#
# _framework density 13.864428999999999
#
# number of rings (size 3 to 8) (size 9 to 14) (size 15 to 20)
#    0.000    2.000    1.667    4.000    0.000    2.667 
#    0.000    0.000    0.000    0.000    0.000    0.000 
#    0.000    0.000    0.000    0.000    0.000    0.000 
#
# Total GULP energy -297440.219366 kJ/mol
# GULP energy per Si atom -12393.342474 kJ/mol
# Density = 1.383287 g / cm^3
# Si number density = 13.864429 Si / 1000 Ang^3
#
#
#
# Elastic Constant Matrix: (Units=GPa)
#
#
# Indices 1 2 3 4 5 6 
#
# 1 90.9864 27.7683 4.8059 0.0000 0.0000 0.0000
# 2 27.7683 41.9549 1.2417 0.0000 0.0000 0.0000
# 3 4.8059 1.2417 55.1081 0.0000 0.0000 0.0000
# 4 0.0000 0.0000 0.0000 23.2348 0.0000 0.0000
# 5 0.0000 0.0000 0.0000 0.0000 16.1174 0.0000
# 6 0.0000 0.0000 0.0000 0.0000 0.0000 2.1979
#
#
#
# Elastic Compliance Matrix: (Units=1/GPa)
#
#
# Indices 1 2 3 4 5 6 
#
# 1 0.013828 -0.009122 -0.001000 0.000000 0.000000 0.000000
# 2 -0.009122 0.029869 0.000123 0.000000 0.000000 0.000000
# 3 -0.001000 0.000123 0.018231 0.000000 0.000000 0.000000
# 4 0.000000 0.000000 0.000000 0.043039 0.000000 0.000000
# 5 0.000000 0.000000 0.000000 0.000000 0.062045 0.000000
# 6 0.000000 0.000000 0.000000 0.000000 0.000000 0.454977
#
#
# Mechanical properties :
#
#
# Convention : Reuss Voigt Hill
#
# Bulk Modulus (GPa) = 23.85090 28.40901 26.12996
# Shear Modulus (GPa) = 7.62237 18.59226 13.10732
#
# Velocity S-wave (km/s) = 2.34728 3.66595 3.07806
# Velocity P-wave (km/s) = 4.95849 6.20112 5.61429
#
# Compressibility (1/GPa) = 0.04192714
#
# Stress axis : x y z
#
# Youngs Moduli (GPa) = 72.31949 33.47933 54.85275
#
# Poissons Ratio (x) = 0.30541 0.05487
# Poissons Ratio (y) = 0.65972 -0.00672
# Poissons Ratio (z) = 0.07234 -0.00410
#
# Static dielectric constant tensor:
#      x y z
#    x 2.927530 0.000000 0.000000 
#    y 0.000000 2.466970 0.000000 
#    z 0.000000 0.000000 2.940490 
# 
# 
# High freq. dielectric constant tensor:
#      x y z
#    x 1.510350 0.000000 0.000000 
#    y 0.000000 1.477840 0.000000 
#    z 0.000000 0.000000 1.557350 
# 
# From -- ./inp_files/875.got.cif
#   From: 2010.03.12/outbox.cif.g09.slc.cpg/sg26_1_cif.got.tgz:875.got - 2010.04.14 03:33:09.
