data_PCOD8167394
_publ_section_title
;
Structure prediction by ZEFSAII (Michael W. Deem and Ramdas Pophale) SiO2 
 PCOD8167394
Probable space group: P M C 21
;
_chemical_formula_sum "Si O2"
_cell_formula_units_Z 32
_cell_length_a 8.840526
_cell_length_b 11.424421
_cell_length_c 16.490512
_cell_angle_alpha 90.000000
_cell_angle_beta 90.000000
_cell_angle_gamma 90.000000
_cell_volume 1665.506932
_symmetry_space_group_name_H-M "P M C 21"
_symmetry_group_IT_number 26
_symmetry_cell_setting 'orthorhombic'
loop_
_space_group_symop_operation_xyz
x,y,z
-x,-y,1/2+z
-x,y,z
x,-y,1/2+z
loop_
_atom_site_type_symbol
_atom_site_label
_atom_site_fract_x
_atom_site_fract_y
_atom_site_fract_z
Si Si1 0.673477 0.550827 0.367680
Si Si2 0.678234 0.220697 0.254822
Si Si3 0.329681 0.288817 0.014331
Si Si4 0.179356 0.304099 0.410823
Si Si5 0.673423 0.934638 0.605457
Si Si6 0.326877 0.378261 0.690539
Si Si7 0.324085 0.187146 0.566530
Si Si8 0.828164 0.595476 0.652414
O O1 0.500000 0.508852 0.366448
O O2 0.695200 0.664776 0.424361
O O3 0.768720 0.438144 0.395571
O O4 0.726334 0.607488 0.283202
O O5 0.500000 0.209263 0.266970
O O6 0.758635 0.213200 0.342318
O O7 0.740267 0.125801 0.188224
O O8 0.719155 0.349655 0.221104
O O9 0.500000 0.322083 0.045409
O O10 0.309488 0.149035 0.026360
O O11 0.197471 0.345575 0.066474
O O12 0.236759 0.257966 0.497249
O O13 0.000000 0.301475 0.409426
O O14 0.500000 0.960679 0.625705
O O15 0.749013 0.058251 0.581081
O O16 0.500000 0.417692 0.679916
O O17 0.303899 0.249362 0.654031
O O18 0.218116 0.461665 0.638622
O O19 0.500000 0.181046 0.540706
O O20 0.000000 0.610076 0.680713
#
# Coordination Sequence:
#
# PCOD8167394 Si02
#       8
#     4   4   4   4   4   4   4   4
#     4  10  20  35  56  83 112 147 188 234 286 338
#     4  10  19  36  61  86 111 144 186 237 284 332
#     4   9  18  34  56  81 109 144 186 231 278 332
#     4  12  24  37  56  86 118 151 190 233 286 347
#     4   8  17  36  60  85 110 141 190 236 277 331
#     4  10  20  34  54  79 113 149 185 228 280 336
#     4  10  21  39  59  84 115 152 193 237 284 335
#     4  11  20  31  52  82 112 144 180 222 279 337
#
# _framework density 19.213367999999999
#
# number of rings (size 3 to 8) (size 9 to 14) (size 15 to 20)
#    0.000    2.000    1.250    4.125    0.000    4.000 
#    2.250    3.125    0.000    0.000    0.000    0.000 
#    0.000    0.000    0.000    0.000    0.000    0.000 
#
# Total GULP energy -396546.528329 kJ/mol
# GULP energy per Si atom -12392.079010 kJ/mol
# Density = 1.916964 g / cm^3
# Si number density = 19.213368 Si / 1000 Ang^3
#
#
#
# Elastic Constant Matrix: (Units=GPa)
#
#
# Indices 1 2 3 4 5 6 
#
# 1 81.4721 43.8692 38.3330 0.0000 0.0000 0.0000
# 2 43.8692 132.4899 72.9314 0.0000 0.0000 0.0000
# 3 38.3330 72.9314 108.6965 0.0000 0.0000 0.0000
# 4 0.0000 0.0000 0.0000 24.5852 0.0000 0.0000
# 5 0.0000 0.0000 0.0000 0.0000 16.6305 0.0000
# 6 0.0000 0.0000 0.0000 0.0000 0.0000 3.2726
#
#
#
# Elastic Compliance Matrix: (Units=1/GPa)
#
#
# Indices 1 2 3 4 5 6 
#
# 1 0.015622 -0.003393 -0.003233 0.000000 0.000000 0.000000
# 2 -0.003393 0.012705 -0.007328 0.000000 0.000000 0.000000
# 3 -0.003233 -0.007328 0.015257 0.000000 0.000000 0.000000
# 4 0.000000 0.000000 0.000000 0.040675 0.000000 0.000000
# 5 0.000000 0.000000 0.000000 0.000000 0.060130 0.000000
# 6 0.000000 0.000000 0.000000 0.000000 0.000000 0.305569
#
#
# Mechanical properties :
#
#
# Convention : Reuss Voigt Hill
#
# Bulk Modulus (GPa) = 63.79026 70.32509 67.05767
# Shear Modulus (GPa) = 10.34999 20.06598 15.20799
#
# Velocity S-wave (km/s) = 2.32348 3.23519 2.81647
# Velocity P-wave (km/s) = 6.36169 7.11596 6.74937
#
# Compressibility (1/GPa) = 0.01567637
#
# Stress axis : x y z
#
# Youngs Moduli (GPa) = 64.01134 78.70823 65.54473
#
# Poissons Ratio (x) = 0.26708 0.21188
# Poissons Ratio (y) = 0.21721 0.48031
# Poissons Ratio (z) = 0.20692 0.57677
#
# Static dielectric constant tensor:
#      x y z
#    x 3.286560 0.000000 0.000000 
#    y 0.000000 3.625620 0.000000 
#    z 0.000000 0.000000 3.653260 
# 
# 
# High freq. dielectric constant tensor:
#      x y z
#    x 1.724270 0.000000 0.000000 
#    y 0.000000 1.736620 0.000000 
#    z 0.000000 0.000000 1.748860 
# 
# From -- ./inp_files/5061.got.cif
#   From: 2010.03.12/outbox.cif.g09.slc.cpg/sg26_3_cif.got.tgz:5061.got - 2010.04.14 03:33:09.
