data_PCOD8167898
_publ_section_title
;
Structure prediction by ZEFSAII (Michael W. Deem and Ramdas Pophale) SiO2 
 PCOD8167898
Probable space group: P C C 2
;
_chemical_formula_sum "Si O2"
_cell_formula_units_Z 32
_cell_length_a 15.251693
_cell_length_b 11.786286
_cell_length_c 8.760464
_cell_angle_alpha 90.000000
_cell_angle_beta 90.000000
_cell_angle_gamma 90.000000
_cell_volume 1574.788154
_symmetry_space_group_name_H-M "P C C 2"
_symmetry_group_IT_number 27
_symmetry_cell_setting 'orthorhombic'
loop_
_space_group_symop_operation_xyz
x,y,z
-x,-y,z
-x,y,1/2+z
x,-y,1/2+z
loop_
_atom_site_type_symbol
_atom_site_label
_atom_site_fract_x
_atom_site_fract_y
_atom_site_fract_z
Si Si1 0.391616 0.779588 0.866770
Si Si2 0.729112 0.128343 0.282877
Si Si3 0.229112 0.371657 0.922097
Si Si4 0.891616 0.720412 0.338204
Si Si5 0.775648 0.091917 0.933508
Si Si6 0.724352 0.591917 0.271466
Si Si7 0.958934 0.620138 0.033892
Si Si8 0.458934 0.120138 0.671082
O O1 0.306375 0.857299 0.839006
O O2 0.363954 0.648852 0.838742
O O3 0.466113 0.808118 0.748288
O O4 0.427767 0.800623 0.034544
O O5 0.750000 0.250000 0.352487
O O6 0.624399 0.102603 0.282995
O O7 0.777155 0.041527 0.397827
O O8 0.768425 0.115898 0.113577
O O9 0.277155 0.458473 0.807147
O O10 0.268425 0.384102 0.091397
O O11 0.124399 0.397397 0.921978
O O12 0.863954 0.851148 0.366232
O O13 0.806375 0.642701 0.365968
O O14 0.927767 0.699377 0.170429
O O15 0.966113 0.691882 0.456686
O O16 0.000000 0.500000 0.088605
O O17 0.500000 0.000000 0.616369
#
# Coordination Sequence:
#
# PCOD8167898 Si02
#       8
#     4   4   4   4   4   4   4   4
#     4  10  23  39  66  96 135 166 221 281 331 396
#     4  11  26  42  71  97 137 183 226 281 347 411
#     4  11  26  42  71  97 137 183 226 281 347 411
#     4  10  23  39  66  96 135 166 221 281 331 396
#     4  10  24  43  65  98 136 176 227 273 349 405
#     4  10  24  43  65  98 136 176 227 273 349 405
#     4  11  22  39  68 104 130 173 228 282 334 395
#     4  11  22  39  68 104 130 173 228 282 334 395
#
# _framework density 20.320194000000001
#
# number of rings (size 3 to 8) (size 9 to 14) (size 15 to 20)
#    0.000    1.500    2.500    0.750   17.500    0.000 
#    0.000    1.250    0.000    0.000    0.000    0.000 
#    0.000    0.000    0.000    0.000    0.000    0.000 
#
# Total GULP energy -396805.442629 kJ/mol
# GULP energy per Si atom -12400.170082 kJ/mol
# Density = 2.027394 g / cm^3
# Si number density = 20.320194 Si / 1000 Ang^3
#
#
#
# Elastic Constant Matrix: (Units=GPa)
#
#
# Indices 1 2 3 4 5 6 
#
# 1 102.3780 59.2152 61.2948 0.0000 0.0000 0.0000
# 2 59.2152 173.7298 78.2348 0.0000 0.0000 0.0000
# 3 61.2948 78.2348 109.8533 0.0000 0.0000 0.0000
# 4 0.0000 0.0000 0.0000 32.3128 0.0000 0.0000
# 5 0.0000 0.0000 0.0000 0.0000 31.9291 0.0000
# 6 0.0000 0.0000 0.0000 0.0000 0.0000 36.3809
#
#
#
# Elastic Compliance Matrix: (Units=1/GPa)
#
#
# Indices 1 2 3 4 5 6 
#
# 1 0.015123 -0.001994 -0.007018 0.000000 0.000000 0.000000
# 2 -0.001994 0.008737 -0.005109 0.000000 0.000000 0.000000
# 3 -0.007018 -0.005109 0.016657 0.000000 0.000000 0.000000
# 4 0.000000 0.000000 0.000000 0.030947 0.000000 0.000000
# 5 0.000000 0.000000 0.000000 0.000000 0.031319 0.000000
# 6 0.000000 0.000000 0.000000 0.000000 0.000000 0.027487
#
#
# Mechanical properties :
#
#
# Convention : Reuss Voigt Hill
#
# Bulk Modulus (GPa) = 81.47147 87.05006 84.26076
# Shear Modulus (GPa) = 30.74938 32.60565 31.67751
#
# Velocity S-wave (km/s) = 3.89426 4.01008 3.95260
# Velocity P-wave (km/s) = 7.77182 8.02329 7.89856
#
# Compressibility (1/GPa) = 0.01227424
#
# Stress axis : x y z
#
# Youngs Moduli (GPa) = 66.12512 114.46053 60.03315
#
# Poissons Ratio (x) = 0.22827 0.42130
# Poissons Ratio (y) = 0.13187 0.30673
# Poissons Ratio (z) = 0.46405 0.58481
#
# Static dielectric constant tensor:
#      x y z
#    x 3.986940 0.000000 0.000000 
#    y 0.000000 3.677620 0.000000 
#    z 0.000000 0.000000 3.598040 
# 
# 
# High freq. dielectric constant tensor:
#      x y z
#    x 1.792250 0.000000 0.000000 
#    y 0.000000 1.788900 0.000000 
#    z 0.000000 0.000000 1.796020 
# 
# From -- ./inp_files/1497.got.cif
#   From: 2010.03.12/outbox.cif.g09.slc.cpg/sg27_1_cif.got.tgz:1497.got - 2010.04.14 03:36:05.
