data_PCOD8167155
_publ_section_title
;
Structure prediction by ZEFSAII (Michael W. Deem and Ramdas Pophale) SiO2 
 PCOD8167155
Probable space group: P M C 21
;
_chemical_formula_sum "Si O2"
_cell_formula_units_Z 32
_cell_length_a 8.906520
_cell_length_b 14.468022
_cell_length_c 12.551428
_cell_angle_alpha 90.000000
_cell_angle_beta 90.000000
_cell_angle_gamma 90.000000
_cell_volume 1617.373589
_symmetry_space_group_name_H-M "P M C 21"
_symmetry_group_IT_number 26
_symmetry_cell_setting 'orthorhombic'
loop_
_space_group_symop_operation_xyz
x,y,z
-x,-y,1/2+z
-x,y,z
x,-y,1/2+z
loop_
_atom_site_type_symbol
_atom_site_label
_atom_site_fract_x
_atom_site_fract_y
_atom_site_fract_z
Si Si1 0.832499 0.351900 0.839090
Si Si2 0.675596 0.814046 0.440188
Si Si3 0.822610 0.741301 0.643543
Si Si4 0.677586 0.173644 0.559236
Si Si5 0.167385 0.453947 0.050574
Si Si6 0.677685 0.945450 0.256405
Si Si7 0.324869 0.376651 0.629941
Si Si8 0.678090 0.146179 0.320188
O O1 0.711590 0.274520 0.868639
O O2 0.773934 0.399397 0.732858
O O3 0.000000 0.309072 0.825202
O O4 0.838449 0.430984 0.926608
O O5 0.500000 0.818510 0.466541
O O6 0.762896 0.810849 0.551970
O O7 0.729395 0.900649 0.368666
O O8 0.775528 0.635854 0.616940
O O9 0.753052 0.768901 0.757146
O O10 0.000000 0.751082 0.646383
O O11 0.500000 0.164124 0.560888
O O12 0.746084 0.106649 0.651938
O O13 0.726643 0.279231 0.579946
O O14 0.737453 0.144933 0.442247
O O15 0.285049 0.537820 0.054097
O O16 0.000000 0.482499 0.089741
O O17 0.500000 0.936339 0.249648
O O18 0.728263 0.052001 0.260591
O O19 0.500000 0.375546 0.656704
O O20 0.500000 0.159522 0.317952
#
# Coordination Sequence:
#
# PCOD8167155 Si02
#       8
#     4   4   4   4   4   4   4   4
#     4  10  20  36  56  81 115 153 193 238 294 354
#     4  10  18  33  60  87 110 144 197 248 290 342
#     4  10  22  40  57  80 120 156 190 245 303 354
#     4   9  19  36  55  86 123 146 185 245 296 340
#     4   9  21  39  57  79 110 154 199 240 292 352
#     4   9  18  33  58  88 115 146 189 243 294 342
#     4  11  21  35  58  86 118 151 190 249 299 343
#     4  10  21  36  61  87 115 158 199 238 290 355
#
# _framework density 19.785164000000002
#
# number of rings (size 3 to 8) (size 9 to 14) (size 15 to 20)
#    0.000    2.250    1.250    2.250    1.750    4.000 
#    0.000    5.000    0.000    0.000    0.000    0.000 
#    0.000    0.000    0.000    0.000    0.000    0.000 
#
# Total GULP energy -396709.154029 kJ/mol
# GULP energy per Si atom -12397.161063 kJ/mol
# Density = 1.974013 g / cm^3
# Si number density = 19.785164 Si / 1000 Ang^3
#
#
#
# Elastic Constant Matrix: (Units=GPa)
#
#
# Indices 1 2 3 4 5 6 
#
# 1 50.8471 30.3646 35.9599 0.0000 0.0000 0.0000
# 2 30.3646 109.6386 59.7607 0.0000 0.0000 0.0000
# 3 35.9599 59.7607 115.0146 0.0000 0.0000 0.0000
# 4 0.0000 0.0000 0.0000 22.8756 0.0000 0.0000
# 5 0.0000 0.0000 0.0000 0.0000 23.0909 0.0000
# 6 0.0000 0.0000 0.0000 0.0000 0.0000 12.7402
#
#
#
# Elastic Compliance Matrix: (Units=1/GPa)
#
#
# Indices 1 2 3 4 5 6 
#
# 1 0.026407 -0.003925 -0.006217 0.000000 0.000000 0.000000
# 2 -0.003925 0.013308 -0.005688 0.000000 0.000000 0.000000
# 3 -0.006217 -0.005688 0.013594 0.000000 0.000000 0.000000
# 4 0.000000 0.000000 0.000000 0.043715 0.000000 0.000000
# 5 0.000000 0.000000 0.000000 0.000000 0.043307 0.000000
# 6 0.000000 0.000000 0.000000 0.000000 0.000000 0.078492
#
#
# Mechanical properties :
#
#
# Convention : Reuss Voigt Hill
#
# Bulk Modulus (GPa) = 46.18948 58.63008 52.40978
# Shear Modulus (GPa) = 19.40253 21.70235 20.55244
#
# Velocity S-wave (km/s) = 3.13495 3.31554 3.22651
# Velocity P-wave (km/s) = 6.04153 6.65994 6.35826
#
# Compressibility (1/GPa) = 0.02164995
#
# Stress axis : x y z
#
# Youngs Moduli (GPa) = 37.86808 75.14266 73.56400
#
# Poissons Ratio (x) = 0.29492 0.45736
# Poissons Ratio (y) = 0.14863 0.41840
# Poissons Ratio (z) = 0.23543 0.42738
#
# Static dielectric constant tensor:
#      x y z
#    x 3.351980 0.000000 0.000000 
#    y 0.000000 3.549140 0.000000 
#    z 0.000000 0.000000 3.782950 
# 
# 
# High freq. dielectric constant tensor:
#      x y z
#    x 1.745270 0.000000 0.000000 
#    y 0.000000 1.765620 0.000000 
#    z 0.000000 0.000000 1.778930 
# 
# From -- ./inp_files/3039.got.cif
#   From: 2010.03.12/outbox.cif.g09.slc.cpg/sg26_2_cif.got.tgz:3039.got - 2010.04.14 03:33:09.
