data_PCOD8167252
_publ_section_title
;
Structure prediction by ZEFSAII (Michael W. Deem and Ramdas Pophale) SiO2 
 PCOD8167252
Probable space group: P M C 21
;
_chemical_formula_sum "Si O2"
_cell_formula_units_Z 20
_cell_length_a 26.363842
_cell_length_b 7.835282
_cell_length_c 4.946880
_cell_angle_alpha 90.000000
_cell_angle_beta 90.000000
_cell_angle_gamma 90.000000
_cell_volume 1021.867784
_symmetry_space_group_name_H-M "P M C 21"
_symmetry_group_IT_number 26
_symmetry_cell_setting 'orthorhombic'
loop_
_space_group_symop_operation_xyz
x,y,z
-x,-y,1/2+z
-x,y,z
x,-y,1/2+z
loop_
_atom_site_type_symbol
_atom_site_label
_atom_site_fract_x
_atom_site_fract_y
_atom_site_fract_z
Si Si1 0.107900 0.115987 0.548420
Si Si2 0.411584 0.619151 0.952139
Si Si3 0.500000 0.883420 0.949604
Si Si4 0.302442 0.390310 0.556857
Si Si5 0.805304 0.616053 0.939567
Si Si6 0.000000 0.889359 0.933253
O O1 0.151330 0.249833 0.493871
O O2 0.052682 0.208575 0.504145
O O3 0.112824 0.952833 0.352006
O O4 0.419393 0.537987 0.657873
O O5 0.450690 0.769835 0.002804
O O6 0.355299 0.704908 0.985422
O O7 0.500000 0.954492 0.646642
O O8 0.302111 0.436765 0.873621
O O9 0.249976 0.291628 0.483752
O O10 0.810270 0.547008 0.636159
O O11 0.000000 0.061844 0.117507
#
# Coordination Sequence:
#
# PCOD8167252 Si02
#       6
#     4   4   2   4   4   2
#     4  10  19  33  51  72  96 130 169 203 239 292
#     4  10  19  36  58  75  93 133 180 202 223 292
#     4  12  24  36  50  78 112 132 152 206 268 290
#     4   8  16  30  51  73  95 125 165 202 236 282
#     4  10  19  33  51  75 103 129 157 203 255 292
#     4   8  16  30  48  66  92 128 166 200 236 284
#
# _framework density 19.572002000000001
#
# number of rings (size 3 to 8) (size 9 to 14) (size 15 to 20)
#    0.000    2.400    0.000    3.000    0.000    0.000 
#    0.000    3.000    0.000    0.000    0.000    0.000 
#    0.000    0.000    0.000    0.000    0.000    0.000 
#
# Total GULP energy -247821.514225 kJ/mol
# GULP energy per Si atom -12391.075711 kJ/mol
# Density = 1.952746 g / cm^3
# Si number density = 19.572002 Si / 1000 Ang^3
#
#
#
# Elastic Constant Matrix: (Units=GPa)
#
#
# Indices 1 2 3 4 5 6 
#
# 1 214.7880 56.4564 7.8654 0.0000 0.0000 0.0000
# 2 56.4564 39.7954 1.8908 0.0000 0.0000 0.0000
# 3 7.8654 1.8908 72.1644 0.0000 0.0000 0.0000
# 4 0.0000 0.0000 0.0000 21.5370 0.0000 0.0000
# 5 0.0000 0.0000 0.0000 0.0000 26.9840 0.0000
# 6 0.0000 0.0000 0.0000 0.0000 0.0000 67.0222
#
#
#
# Elastic Compliance Matrix: (Units=1/GPa)
#
#
# Indices 1 2 3 4 5 6 
#
# 1 0.007445 -0.010536 -0.000535 0.000000 0.000000 0.000000
# 2 -0.010536 0.040071 0.000098 0.000000 0.000000 0.000000
# 3 -0.000535 0.000098 0.013913 0.000000 0.000000 0.000000
# 4 0.000000 0.000000 0.000000 0.046432 0.000000 0.000000
# 5 0.000000 0.000000 0.000000 0.000000 0.037059 0.000000
# 6 0.000000 0.000000 0.000000 0.000000 0.000000 0.014920
#
#
# Mechanical properties :
#
#
# Convention : Reuss Voigt Hill
#
# Bulk Modulus (GPa) = 25.32747 51.01922 38.17335
# Shear Modulus (GPa) = 25.64796 40.47767 33.06281
#
# Velocity S-wave (km/s) = 3.62393 4.55262 4.11456
# Velocity P-wave (km/s) = 5.52080 7.33206 6.48993
#
# Compressibility (1/GPa) = 0.03948282
#
# Stress axis : x y z
#
# Youngs Moduli (GPa) = 134.32241 24.95554 71.87515
#
# Poissons Ratio (x) = 0.26294 0.03848
# Poissons Ratio (y) = 1.41525 -0.00708
# Poissons Ratio (z) = 0.07191 -0.00246
#
# Static dielectric constant tensor:
#      x y z
#    x 4.206120 0.000000 0.000000 
#    y 0.000000 2.783130 0.000000 
#    z 0.000000 0.000000 3.796660 
# 
# 
# High freq. dielectric constant tensor:
#      x y z
#    x 1.799440 0.000000 0.000000 
#    y 0.000000 1.675300 0.000000 
#    z 0.000000 0.000000 1.789540 
# 
# From -- ./inp_files/996.got.cif
#   From: 2010.03.12/outbox.cif.g09.slc.cpg/sg26_1_cif.got.tgz:996.got - 2010.04.14 03:33:09.
