data_PCOD8167140
_publ_section_title
;
Structure prediction by ZEFSAII (Michael W. Deem and Ramdas Pophale) SiO2 
 PCOD8167140
Probable space group: P M C 21
;
_chemical_formula_sum "Si O2"
_cell_formula_units_Z 32
_cell_length_a 8.777884
_cell_length_b 12.241055
_cell_length_c 14.593496
_cell_angle_alpha 90.000000
_cell_angle_beta 90.000000
_cell_angle_gamma 90.000000
_cell_volume 1568.079330
_symmetry_space_group_name_H-M "P M C 21"
_symmetry_group_IT_number 26
_symmetry_cell_setting 'orthorhombic'
loop_
_space_group_symop_operation_xyz
x,y,z
-x,-y,1/2+z
-x,y,z
x,-y,1/2+z
loop_
_atom_site_type_symbol
_atom_site_label
_atom_site_fract_x
_atom_site_fract_y
_atom_site_fract_z
Si Si1 0.671201 0.684013 0.984680
Si Si2 0.320320 0.593777 0.284933
Si Si3 0.679950 0.609882 0.657533
Si Si4 0.820110 0.994408 0.882061
Si Si5 0.823250 0.889475 0.060318
Si Si6 0.819435 0.821613 0.252517
Si Si7 0.670457 0.792257 0.795173
Si Si8 0.820285 0.543853 0.478641
O O1 0.500000 0.691895 0.024356
O O2 0.673400 0.704295 0.876671
O O3 0.736159 0.566489 0.005331
O O4 0.778662 0.766996 0.036690
O O5 0.500000 0.588192 0.302346
O O6 0.268305 0.495721 0.217730
O O7 0.273717 0.709886 0.241050
O O8 0.235216 0.589421 0.381888
O O9 0.500000 0.603340 0.639054
O O10 0.725133 0.722808 0.707931
O O11 0.772267 0.621927 0.562595
O O12 0.777079 0.895405 0.814257
O O13 0.000000 0.998204 0.884053
O O14 0.763586 0.110897 0.842239
O O15 0.748914 0.973173 0.984793
O O16 0.779724 0.903724 0.166918
O O17 0.000000 0.903236 0.045354
O O18 0.000000 0.795453 0.254335
O O19 0.500000 0.837827 0.781593
O O20 0.000000 0.528164 0.474487
#
# Coordination Sequence:
#
# PCOD8167140 Si02
#       8
#     4   4   4   4   4   4   4   4
#     4  10  18  33  56  82 112 147 188 237 286 336
#     4  11  23  41  62  85 118 158 197 242 294 350
#     4  10  21  39  60  84 117 155 193 238 293 350
#     4   9  19  36  57  82 114 151 191 241 294 343
#     4   9  18  34  57  84 111 149 196 241 291 343
#     4  10  21  38  57  82 118 155 195 243 292 347
#     4   9  18  35  58  81 108 142 186 238 285 335
#     4  12  24  36  55  86 120 155 192 234 289 356
#
# _framework density 20.407131
#
# number of rings (size 3 to 8) (size 9 to 14) (size 15 to 20)
#    0.000    2.000    1.250    2.625    0.000    5.000 
#    2.250    0.000    0.000    0.000    0.000    0.000 
#    0.000    0.000    0.000    0.000    0.000    0.000 
#
# Total GULP energy -396611.326742 kJ/mol
# GULP energy per Si atom -12394.103961 kJ/mol
# Density = 2.036068 g / cm^3
# Si number density = 20.407131 Si / 1000 Ang^3
#
#
#
# Elastic Constant Matrix: (Units=GPa)
#
#
# Indices 1 2 3 4 5 6 
#
# 1 269.2854 27.2764 52.1334 0.0000 0.0000 0.0000
# 2 27.2764 45.4449 11.5414 0.0000 0.0000 0.0000
# 3 52.1334 11.5414 95.6933 0.0000 0.0000 0.0000
# 4 0.0000 0.0000 0.0000 21.6912 0.0000 0.0000
# 5 0.0000 0.0000 0.0000 0.0000 25.3483 0.0000
# 6 0.0000 0.0000 0.0000 0.0000 0.0000 26.8604
#
#
#
# Elastic Compliance Matrix: (Units=1/GPa)
#
#
# Indices 1 2 3 4 5 6 
#
# 1 0.004331 -0.002064 -0.002111 0.000000 0.000000 0.000000
# 2 -0.002064 0.023683 -0.001732 0.000000 0.000000 0.000000
# 3 -0.002111 -0.001732 0.011809 0.000000 0.000000 0.000000
# 4 0.000000 0.000000 0.000000 0.046102 0.000000 0.000000
# 5 0.000000 0.000000 0.000000 0.000000 0.039450 0.000000
# 6 0.000000 0.000000 0.000000 0.000000 0.000000 0.037229
#
#
# Mechanical properties :
#
#
# Convention : Reuss Voigt Hill
#
# Bulk Modulus (GPa) = 35.70116 65.81402 50.75759
# Shear Modulus (GPa) = 27.21026 36.07816 31.64421
#
# Velocity S-wave (km/s) = 3.65550 4.20922 3.94209
# Velocity P-wave (km/s) = 5.94553 7.47957 6.75623
#
# Compressibility (1/GPa) = 0.02801030
#
# Stress axis : x y z
#
# Youngs Moduli (GPa) = 230.88336 42.22417 84.68201
#
# Poissons Ratio (x) = 0.08713 0.17874
# Poissons Ratio (y) = 0.47644 0.14668
# Poissons Ratio (z) = 0.48733 0.07314
#
# Static dielectric constant tensor:
#      x y z
#    x 3.547350 0.000000 0.000000 
#    y 0.000000 3.559110 0.000000 
#    z 0.000000 0.000000 4.061390 
# 
# 
# High freq. dielectric constant tensor:
#      x y z
#    x 1.784210 0.000000 0.000000 
#    y 0.000000 1.781640 0.000000 
#    z 0.000000 0.000000 1.809530 
# 
# From -- ./inp_files/4137.got.cif
#   From: 2010.03.12/outbox.cif.g09.slc.cpg/sg26_3_cif.got.tgz:4137.got - 2010.04.14 03:33:09.
