data_PCOD8167840
_publ_section_title
;
Structure prediction by ZEFSAII (Michael W. Deem and Ramdas Pophale) SiO2 
 PCOD8167840
Probable space group: P C C 2
;
_chemical_formula_sum "Si O2"
_cell_formula_units_Z 32
_cell_length_a 11.961368
_cell_length_b 13.386399
_cell_length_c 9.410919
_cell_angle_alpha 90.000000
_cell_angle_beta 90.000000
_cell_angle_gamma 90.000000
_cell_volume 1506.873006
_symmetry_space_group_name_H-M "P C C 2"
_symmetry_group_IT_number 27
_symmetry_cell_setting 'orthorhombic'
loop_
_space_group_symop_operation_xyz
x,y,z
-x,-y,z
-x,y,1/2+z
x,-y,1/2+z
loop_
_atom_site_type_symbol
_atom_site_label
_atom_site_fract_x
_atom_site_fract_y
_atom_site_fract_z
Si Si1 0.606677 0.061845 0.108950
Si Si2 0.513649 0.248032 0.976040
Si Si3 0.668816 0.098466 0.394372
Si Si4 0.092183 0.584054 0.963464
Si Si5 0.150021 0.757684 0.476566
Si Si6 0.005695 0.294876 0.719111
Si Si7 0.334100 0.394276 0.053573
Si Si8 0.662248 0.429645 0.873105
O O1 0.587231 0.178171 0.075585
O O2 0.699012 0.066038 0.234088
O O3 0.500000 0.000000 0.168078
O O4 0.649644 0.005753 0.971504
O O5 0.425770 0.307651 0.073050
O O6 0.440307 0.171436 0.878871
O O7 0.596845 0.325458 0.896399
O O8 0.767075 0.149903 0.481506
O O9 0.221773 0.556369 0.961631
O O10 0.000000 0.500000 0.932868
O O11 0.081588 0.659769 0.831427
O O12 0.069719 0.625588 0.120934
O O13 0.094997 0.761602 0.319282
O O14 0.215822 0.652324 0.498915
O O15 0.062915 0.774043 0.606681
O O16 0.317473 0.445988 0.206453
O O17 0.393575 0.470808 0.940678
#
# Coordination Sequence:
#
# PCOD8167840 Si02
#       8
#     4   4   4   4   4   4   4   4
#     4  10  20  39  66  98 124 161 206 259 320 394
#     4  10  23  40  64  90 132 168 215 257 320 394
#     4  10  22  40  67  97 127 159 206 266 327 392
#     4  11  23  36  62  88 123 164 221 270 308 365
#     4  10  22  42  64  92 126 167 212 272 320 386
#     4  10  21  40  60  88 120 163 213 266 319 371
#     4  11  25  40  57  92 133 173 219 265 316 381
#     4  12  25  39  60  93 129 180 215 267 320 374
#
# _framework density 21.236031000000001
#
# number of rings (size 3 to 8) (size 9 to 14) (size 15 to 20)
#    0.000    1.500    1.250    4.125    5.250    5.000 
#    0.000    0.000    0.000    2.250    0.000    0.000 
#    0.000    0.000    0.000    0.000    0.000    0.000 
#
# Total GULP energy -396425.719740 kJ/mol
# GULP energy per Si atom -12388.303742 kJ/mol
# Density = 2.118770 g / cm^3
# Si number density = 21.236031 Si / 1000 Ang^3
#
#
#
# Elastic Constant Matrix: (Units=GPa)
#
#
# Indices 1 2 3 4 5 6 
#
# 1 76.8462 32.0444 34.4330 0.0000 0.0000 0.0000
# 2 32.0444 97.6166 46.5353 0.0000 0.0000 0.0000
# 3 34.4330 46.5353 153.1333 0.0000 0.0000 0.0000
# 4 0.0000 0.0000 0.0000 17.7096 0.0000 0.0000
# 5 0.0000 0.0000 0.0000 0.0000 30.9629 0.0000
# 6 0.0000 0.0000 0.0000 0.0000 0.0000 13.8483
#
#
#
# Elastic Compliance Matrix: (Units=1/GPa)
#
#
# Indices 1 2 3 4 5 6 
#
# 1 0.015742 -0.004070 -0.002303 0.000000 0.000000 0.000000
# 2 -0.004070 0.013032 -0.003045 0.000000 0.000000 0.000000
# 3 -0.002303 -0.003045 0.007973 0.000000 0.000000 0.000000
# 4 0.000000 0.000000 0.000000 0.056466 0.000000 0.000000
# 5 0.000000 0.000000 0.000000 0.000000 0.032297 0.000000
# 6 0.000000 0.000000 0.000000 0.000000 0.000000 0.072211
#
#
# Mechanical properties :
#
#
# Convention : Reuss Voigt Hill
#
# Bulk Modulus (GPa) = 55.82955 61.51348 58.67151
# Shear Modulus (GPa) = 22.46912 26.80973 24.63942
#
# Velocity S-wave (km/s) = 3.25632 3.55697 3.40996
# Velocity P-wave (km/s) = 6.36280 6.77487 6.57207
#
# Compressibility (1/GPa) = 0.01791166
#
# Stress axis : x y z
#
# Youngs Moduli (GPa) = 63.52451 76.73568 125.41621
#
# Poissons Ratio (x) = 0.31229 0.28883
# Poissons Ratio (y) = 0.25853 0.38190
# Poissons Ratio (z) = 0.14629 0.23367
#
# Static dielectric constant tensor:
#      x y z
#    x 3.805860 0.000000 0.000000 
#    y 0.000000 3.716090 0.000000 
#    z 0.000000 0.000000 3.777750 
# 
# 
# High freq. dielectric constant tensor:
#      x y z
#    x 1.822750 0.000000 0.000000 
#    y 0.000000 1.816050 0.000000 
#    z 0.000000 0.000000 1.844300 
# 
# From -- ./inp_files/1469.got.cif
#   From: 2010.03.12/outbox.cif.g09.slc.cpg/sg27_1_cif.got.tgz:1469.got - 2010.04.14 03:36:05.
