data_PCOD8167431
_publ_section_title
;
Structure prediction by ZEFSAII (Michael W. Deem and Ramdas Pophale) SiO2 
 PCOD8167431
Probable space group: P M C 21
;
_chemical_formula_sum "Si O2"
_cell_formula_units_Z 24
_cell_length_a 11.612782
_cell_length_b 12.599114
_cell_length_c 8.508948
_cell_angle_alpha 90.000000
_cell_angle_beta 90.000000
_cell_angle_gamma 90.000000
_cell_volume 1244.950685
_symmetry_space_group_name_H-M "P M C 21"
_symmetry_group_IT_number 26
_symmetry_cell_setting 'orthorhombic'
loop_
_space_group_symop_operation_xyz
x,y,z
-x,-y,1/2+z
-x,y,z
x,-y,1/2+z
loop_
_atom_site_type_symbol
_atom_site_label
_atom_site_fract_x
_atom_site_fract_y
_atom_site_fract_z
Si Si1 0.634241 0.640981 0.554380
Si Si2 0.810614 0.789325 0.684677
Si Si3 0.000000 0.448706 0.404429
Si Si4 0.000000 0.633625 0.590236
Si Si5 0.000000 0.930712 0.546031
Si Si6 0.000000 0.151423 0.687982
Si Si7 0.818022 0.289099 0.525312
Si Si8 0.365105 0.580749 0.201238
O O1 0.500000 0.662645 0.566342
O O2 0.688804 0.755226 0.606988
O O3 0.670872 0.541740 0.666383
O O4 0.669277 0.606832 0.379086
O O5 0.886685 0.698968 0.608537
O O6 0.879173 0.895463 0.631426
O O7 0.799664 0.787099 0.873446
O O8 0.000000 0.574551 0.426420
O O9 0.112067 0.391412 0.470571
O O10 0.000000 0.458155 0.218710
O O11 0.000000 0.891370 0.366029
O O12 0.000000 0.057092 0.559530
O O13 0.113983 0.221686 0.657246
O O14 0.697924 0.332384 0.591861
O O15 0.500000 0.595448 0.166431
#
# Coordination Sequence:
#
# PCOD8167431 Si02
#       8
#     4   4   2   2   2   2   4   4
#     4  10  20  33  50  75 108 146 184 218 255 303
#     4  10  20  34  51  74 103 135 173 214 259 310
#     4   9  18  28  41  65  97 129 161 201 246 298
#     4   9  18  28  41  65  97 129 161 201 246 298
#     4  11  22  38  59  81 105 133 168 213 266 318
#     4  11  22  38  59  81 105 133 168 213 266 318
#     4  10  20  34  51  74 103 135 173 214 259 310
#     4  10  20  33  50  75 108 146 184 218 255 303
#
# _framework density 19.277871999999999
#
# number of rings (size 3 to 8) (size 9 to 14) (size 15 to 20)
#    0.000    2.000    0.000    5.500    0.000    8.667 
#    0.000    0.000    0.000    1.000    0.000    0.000 
#    0.000    0.000    0.000    0.000    0.000    0.000 
#
# Total GULP energy -297334.042776 kJ/mol
# GULP energy per Si atom -12388.918449 kJ/mol
# Density = 1.923399 g / cm^3
# Si number density = 19.277872 Si / 1000 Ang^3
#
#
#
# Elastic Constant Matrix: (Units=GPa)
#
#
# Indices 1 2 3 4 5 6 
#
# 1 72.2232 18.2182 26.8780 0.0000 0.0000 0.0000
# 2 18.2182 44.5147 -3.4811 0.0000 0.0000 0.0000
# 3 26.8780 -3.4811 59.4004 0.0000 0.0000 0.0000
# 4 0.0000 0.0000 0.0000 33.0156 0.0000 0.0000
# 5 0.0000 0.0000 0.0000 0.0000 30.2890 0.0000
# 6 0.0000 0.0000 0.0000 0.0000 0.0000 19.6219
#
#
#
# Elastic Compliance Matrix: (Units=1/GPa)
#
#
# Indices 1 2 3 4 5 6 
#
# 1 0.019524 -0.008721 -0.009345 0.000000 0.000000 0.000000
# 2 -0.008721 0.026464 0.005497 0.000000 0.000000 0.000000
# 3 -0.009345 0.005497 0.021386 0.000000 0.000000 0.000000
# 4 0.000000 0.000000 0.000000 0.030289 0.000000 0.000000
# 5 0.000000 0.000000 0.000000 0.000000 0.033015 0.000000
# 6 0.000000 0.000000 0.000000 0.000000 0.000000 0.050963
#
#
# Mechanical properties :
#
#
# Convention : Reuss Voigt Hill
#
# Bulk Modulus (GPa) = 23.67747 28.81874 26.24810
# Shear Modulus (GPa) = 22.63902 25.55351 24.09627
#
# Velocity S-wave (km/s) = 3.43060 3.64474 3.53929
# Velocity P-wave (km/s) = 5.29159 5.71785 5.50884
#
# Compressibility (1/GPa) = 0.04223425
#
# Stress axis : x y z
#
# Youngs Moduli (GPa) = 51.21957 37.78771 46.76005
#
# Poissons Ratio (x) = 0.32955 0.43699
# Poissons Ratio (y) = 0.44670 -0.25705
# Poissons Ratio (z) = 0.47867 -0.20772
#
# Static dielectric constant tensor:
#      x y z
#    x 3.323180 0.000000 0.000000 
#    y 0.000000 3.352510 0.000000 
#    z 0.000000 0.000000 3.705440 
# 
# 
# High freq. dielectric constant tensor:
#      x y z
#    x 1.744560 0.000000 0.000000 
#    y 0.000000 1.719290 0.000000 
#    z 0.000000 0.000000 1.767550 
# 
# From -- ./inp_files/1880.got.cif
#   From: 2010.03.12/outbox.cif.g09.slc.cpg/sg26_1_cif.got.tgz:1880.got - 2010.04.14 03:33:09.
