data_PCOD8167010
_publ_section_title
;
Structure prediction by ZEFSAII (Michael W. Deem and Ramdas Pophale) SiO2 
 PCOD8167010
Probable space group: P M M 2
;
_chemical_formula_sum "Si O2"
_cell_formula_units_Z 32
_cell_length_a 9.705920
_cell_length_b 9.597472
_cell_length_c 20.592992
_cell_angle_alpha 90.000000
_cell_angle_beta 90.000000
_cell_angle_gamma 90.000000
_cell_volume 1918.284475
_symmetry_space_group_name_H-M "P M M 2"
_symmetry_group_IT_number 25
_symmetry_cell_setting 'orthorhombic'
loop_
_space_group_symop_operation_xyz
x,y,z
-x,-y,z
-x,y,z
x,-y,z
loop_
_atom_site_type_symbol
_atom_site_label
_atom_site_fract_x
_atom_site_fract_y
_atom_site_fract_z
Si Si1 0.336130 0.844606 0.514770
Si Si2 0.657968 0.664438 0.256857
Si Si3 0.847908 0.165231 0.014352
Si Si4 0.663783 0.843148 0.658662
Si Si5 0.336528 0.346182 0.401678
Si Si6 0.339367 0.161952 0.897457
Si Si7 0.161640 0.839957 0.159282
Si Si8 0.336019 0.657677 0.775296
O O1 0.500000 0.842928 0.510304
O O2 0.290415 0.792941 0.586600
O O3 0.271075 0.749525 0.458142
O O4 0.280320 0.000000 0.503368
O O5 0.500000 0.705403 0.242579
O O6 0.678914 0.500000 0.248670
O O7 0.700180 0.710604 0.329965
O O8 0.755712 0.744161 0.208079
O O9 0.739457 0.218202 0.961060
O O10 0.000000 0.224970 0.997759
O O11 0.854773 0.000000 0.014237
O O12 0.802330 0.212601 0.086397
O O13 0.500000 0.845966 0.663425
O O14 0.724029 0.735011 0.711398
O O15 0.718843 0.000000 0.672485
O O16 0.500000 0.352964 0.408495
O O17 0.274069 0.500000 0.411255
O O18 0.500000 0.184118 0.910760
O O19 0.286563 0.254773 0.837591
O O20 0.306736 0.000000 0.882359
O O21 0.000000 0.823021 0.172622
O O22 0.206943 0.000000 0.169008
O O23 0.500000 0.654871 0.772693
O O24 0.277581 0.500000 0.778331
#
# Coordination Sequence:
#
# PCOD8167010 Si02
#       8
#     4   4   4   4   4   4   4   4
#     4   8  13  20  31  49  73 102 137 174 209 246
#     4   9  18  31  45  64  91 121 152 184 219 263
#     4   8  15  29  47  65  85 108 136 173 213 252
#     4   8  13  21  32  47  71 104 139 172 205 244
#     4   8  14  24  36  51  76 109 141 174 211 250
#     4   9  16  26  42  62  82 107 138 169 204 249
#     4   9  18  32  49  69  91 114 144 184 226 266
#     4   9  16  24  34  51  77 107 137 170 207 244
#
# _framework density 16.681570000000001
#
# number of rings (size 3 to 8) (size 9 to 14) (size 15 to 20)
#    0.000    3.500    0.000    2.625    0.000    3.500 
#    0.000    5.625    0.000    2.625    0.000    0.000 
#    0.000    1.000    0.000    9.000    0.000   13.500 
#
# Total GULP energy -396554.141128 kJ/mol
# GULP energy per Si atom -12392.316910 kJ/mol
# Density = 1.664360 g / cm^3
# Si number density = 16.681570 Si / 1000 Ang^3
#
#
#
# Elastic Constant Matrix: (Units=GPa)
#
#
# Indices 1 2 3 4 5 6 
#
# 1 28.2105 25.9156 44.6821 0.0000 0.0000 0.0000
# 2 25.9156 80.4272 79.0962 0.0000 0.0000 0.0000
# 3 44.6821 79.0962 172.1133 0.0000 0.0000 0.0000
# 4 0.0000 0.0000 0.0000 13.6282 0.0000 0.0000
# 5 0.0000 0.0000 0.0000 0.0000 -0.9213 0.0000
# 6 0.0000 0.0000 0.0000 0.0000 0.0000 13.4227
#
#
#
# Elastic Compliance Matrix: (Units=1/GPa)
#
#
# Indices 1 2 3 4 5 6 
#
# 1 0.062682 -0.007653 -0.012756 0.000000 0.000000 0.000000
# 2 -0.007653 0.023622 -0.008869 0.000000 0.000000 0.000000
# 3 -0.012756 -0.008869 0.013197 0.000000 0.000000 0.000000
# 4 0.000000 0.000000 0.000000 0.073377 0.000000 0.000000
# 5 0.000000 0.000000 0.000000 0.000000 -1.085392 0.000000
# 6 0.000000 0.000000 0.000000 0.000000 0.000000 0.074500
#
#
# Mechanical properties :
#
#
# Convention : Reuss Voigt Hill
#
# Bulk Modulus (GPa) = 24.42257 64.45987 44.44122
# Shear Modulus (GPa) = -6.52903 13.96306 3.71702
#
# Velocity S-wave (km/s) = -1.98051 2.89630 1.49434
# Velocity P-wave (km/s) = 3.07284 7.06470 5.44758
#
# Compressibility (1/GPa) = 0.04094572
#
# Stress axis : x y z
#
# Youngs Moduli (GPa) = 15.95363 42.33426 75.77304
#
# Poissons Ratio (x) = 0.32398 0.96654
# Poissons Ratio (y) = 0.12209 0.67201
# Poissons Ratio (z) = 0.20350 0.37545
#
# Static dielectric constant tensor:
#      x y z
#    x 2.658420 0.000000 0.000000 
#    y 0.000000 3.193740 0.000000 
#    z 0.000000 0.000000 3.467640 
# 
# 
# High freq. dielectric constant tensor:
#      x y z
#    x 1.580220 0.000000 0.000000 
#    y 0.000000 1.630050 0.000000 
#    z 0.000000 0.000000 1.658720 
# 
# From -- ./inp_files/6359.got.cif
#   From: 2010.03.12/outbox.cif.g09.slc.cpg/sg25_4_cif.got.tgz:6359.got - 2010.04.14 03:30:10.
