data_PCOD8167412
_publ_section_title
;
Structure prediction by ZEFSAII (Michael W. Deem and Ramdas Pophale) SiO2 
 PCOD8167412
Probable space group: P M C 21
;
_chemical_formula_sum "Si O2"
_cell_formula_units_Z 32
_cell_length_a 8.668741
_cell_length_b 16.221361
_cell_length_c 10.974617
_cell_angle_alpha 90.000000
_cell_angle_beta 90.000000
_cell_angle_gamma 90.000000
_cell_volume 1543.237223
_symmetry_space_group_name_H-M "P M C 21"
_symmetry_group_IT_number 26
_symmetry_cell_setting 'orthorhombic'
loop_
_space_group_symop_operation_xyz
x,y,z
-x,-y,1/2+z
-x,y,z
x,-y,1/2+z
loop_
_atom_site_type_symbol
_atom_site_label
_atom_site_fract_x
_atom_site_fract_y
_atom_site_fract_z
Si Si1 0.183774 0.958921 0.588230
Si Si2 0.680265 0.521586 0.623490
Si Si3 0.821910 0.218757 0.143287
Si Si4 0.179119 0.647143 0.089432
Si Si5 0.817290 0.066991 0.814709
Si Si6 0.680132 0.241862 0.761268
Si Si7 0.183002 0.353033 0.952001
Si Si8 0.822752 0.641895 0.809376
O O1 0.255639 0.870905 0.630496
O O2 0.235628 0.974362 0.445691
O O3 0.000000 0.961905 0.594971
O O4 0.249063 0.022312 0.691877
O O5 0.500000 0.509863 0.602954
O O6 0.757278 0.434351 0.655771
O O7 0.754480 0.559469 0.499830
O O8 0.711182 0.580859 0.737616
O O9 0.791910 0.261841 0.273882
O O10 0.000000 0.203302 0.116935
O O11 0.758489 0.282425 0.044151
O O12 0.268299 0.732334 0.124932
O O13 0.000000 0.659128 0.119116
O O14 0.213191 0.632297 0.949001
O O15 0.764285 0.161455 0.812466
O O16 0.000000 0.065524 0.811524
O O17 0.500000 0.227019 0.772647
O O18 0.737699 0.325847 0.827063
O O19 0.000000 0.358644 0.937287
O O20 0.000000 0.620020 0.774337
#
# Coordination Sequence:
#
# PCOD8167412 Si02
#       8
#     4   4   4   4   4   4   4   4
#     4   9  17  31  58  92 121 151 202 258 308 368
#     4  11  23  38  59  89 125 159 195 244 307 368
#     4   8  14  30  58  88 111 140 189 250 298 343
#     4  11  24  41  61  85 117 159 209 258 306 365
#     4  10  20  37  61  91 122 161 208 260 316 379
#     4  12  25  40  59  87 122 161 204 256 319 379
#     4  10  19  37  64  87 114 152 204 252 294 356
#     4   9  20  38  60  85 114 153 205 254 300 358
#
# _framework density 20.735631999999999
#
# number of rings (size 3 to 8) (size 9 to 14) (size 15 to 20)
#    0.000    2.000    1.250    3.750    1.750    2.000 
#    0.000    4.375    0.000    0.000    0.000    0.000 
#    0.000    0.000    0.000    0.000    0.000    0.000 
#
# Total GULP energy -396545.019885 kJ/mol
# GULP energy per Si atom -12392.031871 kJ/mol
# Density = 2.068844 g / cm^3
# Si number density = 20.735632 Si / 1000 Ang^3
#
#
#
# Elastic Constant Matrix: (Units=GPa)
#
#
# Indices 1 2 3 4 5 6 
#
# 1 43.4490 10.8662 27.3082 0.0000 0.0000 0.0000
# 2 10.8662 80.5868 50.5962 0.0000 0.0000 0.0000
# 3 27.3082 50.5962 102.6433 0.0000 0.0000 0.0000
# 4 0.0000 0.0000 0.0000 33.4727 0.0000 0.0000
# 5 0.0000 0.0000 0.0000 0.0000 19.0240 0.0000
# 6 0.0000 0.0000 0.0000 0.0000 0.0000 13.3206
#
#
#
# Elastic Compliance Matrix: (Units=1/GPa)
#
#
# Indices 1 2 3 4 5 6 
#
# 1 0.027730 0.001293 -0.008015 0.000000 0.000000 0.000000
# 2 0.001293 0.018031 -0.009232 0.000000 0.000000 0.000000
# 3 -0.008015 -0.009232 0.016426 0.000000 0.000000 0.000000
# 4 0.000000 0.000000 0.000000 0.029875 0.000000 0.000000
# 5 0.000000 0.000000 0.000000 0.000000 0.052565 0.000000
# 6 0.000000 0.000000 0.000000 0.000000 0.000000 0.075071
#
#
# Mechanical properties :
#
#
# Convention : Reuss Voigt Hill
#
# Bulk Modulus (GPa) = 33.02678 44.91337 38.97007
# Shear Modulus (GPa) = 19.10598 22.35737 20.73167
#
# Velocity S-wave (km/s) = 3.03876 3.28717 3.16541
# Velocity P-wave (km/s) = 5.31735 6.00952 5.67400
#
# Compressibility (1/GPa) = 0.03027846
#
# Stress axis : x y z
#
# Youngs Moduli (GPa) = 36.06264 55.46024 60.88058
#
# Poissons Ratio (x) = -0.07172 0.48795
# Poissons Ratio (y) = -0.04663 0.56205
# Poissons Ratio (z) = 0.28904 0.51201
#
# Static dielectric constant tensor:
#      x y z
#    x 3.328800 0.000000 0.000000 
#    y 0.000000 3.904000 0.000000 
#    z 0.000000 0.000000 4.072570 
# 
# 
# High freq. dielectric constant tensor:
#      x y z
#    x 1.773630 0.000000 0.000000 
#    y 0.000000 1.809750 0.000000 
#    z 0.000000 0.000000 1.821650 
# 
# From -- ./inp_files/3061.got.cif
#   From: 2010.03.12/outbox.cif.g09.slc.cpg/sg26_2_cif.got.tgz:3061.got - 2010.04.14 03:33:09.
