data_PCOD8167644
_publ_section_title
;
Structure prediction by ZEFSAII (Michael W. Deem and Ramdas Pophale) SiO2 
 PCOD8167644
Probable space group: P M C 21
;
_chemical_formula_sum "Si O2"
_cell_formula_units_Z 32
_cell_length_a 9.378907
_cell_length_b 28.347202
_cell_length_c 5.348001
_cell_angle_alpha 90.000000
_cell_angle_beta 90.000000
_cell_angle_gamma 90.000000
_cell_volume 1421.850411
_symmetry_space_group_name_H-M "P M C 21"
_symmetry_group_IT_number 26
_symmetry_cell_setting 'orthorhombic'
loop_
_space_group_symop_operation_xyz
x,y,z
-x,-y,1/2+z
-x,y,z
x,-y,1/2+z
loop_
_atom_site_type_symbol
_atom_site_label
_atom_site_fract_x
_atom_site_fract_y
_atom_site_fract_z
Si Si1 0.332581 0.472193 0.521160
Si Si2 0.334393 0.971566 0.101118
Si Si3 0.156415 0.897937 0.855508
Si Si4 0.656452 0.244839 0.259788
Si Si5 0.655581 0.851126 0.509747
Si Si6 0.833949 0.318698 0.015081
Si Si7 0.155588 0.802005 0.105603
Si Si8 0.165790 0.375505 0.517294
O O1 0.500000 0.462328 0.522013
O O2 0.286223 0.499404 0.269349
O O3 0.253946 0.422925 0.525837
O O4 0.500000 0.957270 0.095700
O O5 0.236174 0.924639 0.084230
O O6 0.293713 0.001930 0.855481
O O7 0.264627 0.897884 0.617785
O O8 0.129751 0.842710 0.901892
O O9 0.000000 0.920953 0.800238
O O10 0.500000 0.267906 0.314687
O O11 0.629640 0.189642 0.213023
O O12 0.736479 0.271567 0.031402
O O13 0.764341 0.244731 0.497941
O O14 0.500000 0.868072 0.409114
O O15 0.750159 0.826635 0.307680
O O16 0.794076 0.348737 0.261898
O O17 0.000000 0.304797 0.016419
O O18 0.791413 0.345547 0.762165
O O19 0.000000 0.785053 0.206057
O O20 0.000000 0.388527 0.523915
#
# Coordination Sequence:
#
# PCOD8167644 Si02
#       8
#     4   4   4   4   4   4   4   4
#     4  10  21  37  59  87 118 151 192 243 300 357
#     4  10  23  42  63  90 122 160 201 243 299 363
#     4  10  22  39  59  87 118 153 197 245 301 357
#     4  10  22  38  56  84 115 153 203 249 298 357
#     4  10  21  37  59  86 117 152 197 250 298 356
#     4  10  22  39  58  84 119 159 199 246 297 355
#     4  10  21  37  59  86 117 153 196 248 303 359
#     4  10  22  39  59  86 118 155 201 244 296 358
#
# _framework density 22.505883000000001
#
# number of rings (size 3 to 8) (size 9 to 14) (size 15 to 20)
#    0.000    2.000    0.000    2.250    3.500    5.000 
#    0.000    0.000    0.000    0.000    0.000    0.000 
#    0.000    0.000    0.000    0.000    0.000    0.000 
#
# Total GULP energy -396583.162364 kJ/mol
# GULP energy per Si atom -12393.223824 kJ/mol
# Density = 2.245466 g / cm^3
# Si number density = 22.505883 Si / 1000 Ang^3
#
#
#
# Elastic Constant Matrix: (Units=GPa)
#
#
# Indices 1 2 3 4 5 6 
#
# 1 121.4271 9.6110 10.0916 0.0000 0.0000 0.0000
# 2 9.6110 70.5385 10.9132 0.0000 0.0000 0.0000
# 3 10.0916 10.9132 102.2165 0.0000 0.0000 0.0000
# 4 0.0000 0.0000 0.0000 37.8944 0.0000 0.0000
# 5 0.0000 0.0000 0.0000 0.0000 22.6723 0.0000
# 6 0.0000 0.0000 0.0000 0.0000 0.0000 36.3465
#
#
#
# Elastic Compliance Matrix: (Units=1/GPa)
#
#
# Indices 1 2 3 4 5 6 
#
# 1 0.008377 -0.001030 -0.000717 0.000000 0.000000 0.000000
# 2 -0.001030 0.014541 -0.001451 0.000000 0.000000 0.000000
# 3 -0.000717 -0.001451 0.010009 0.000000 0.000000 0.000000
# 4 0.000000 0.000000 0.000000 0.026389 0.000000 0.000000
# 5 0.000000 0.000000 0.000000 0.000000 0.044107 0.000000
# 6 0.000000 0.000000 0.000000 0.000000 0.000000 0.027513
#
#
# Mechanical properties :
#
#
# Convention : Reuss Voigt Hill
#
# Bulk Modulus (GPa) = 37.69246 39.49042 38.59144
# Shear Modulus (GPa) = 34.20545 36.95373 35.57959
#
# Velocity S-wave (km/s) = 3.90275 4.05650 3.98037
# Velocity P-wave (km/s) = 6.09038 6.28690 6.18942
#
# Compressibility (1/GPa) = 0.02653051
#
# Stress axis : x y z
#
# Youngs Moduli (GPa) = 119.38109 68.76870 99.91164
#
# Poissons Ratio (x) = 0.07086 0.07164
# Poissons Ratio (y) = 0.12301 0.14495
# Poissons Ratio (z) = 0.08559 0.09977
#
# Static dielectric constant tensor:
#      x y z
#    x 4.650450 0.000000 0.000000 
#    y 0.000000 4.176860 0.000000 
#    z 0.000000 0.000000 4.256590 
# 
# 
# High freq. dielectric constant tensor:
#      x y z
#    x 1.898370 0.000000 0.000000 
#    y 0.000000 1.871610 0.000000 
#    z 0.000000 0.000000 1.889480 
# 
# From -- ./inp_files/228.got.cif
#   From: 2010.03.12/outbox.cif.g09.slc.cpg/sg26_1_cif.got.tgz:228.got - 2010.04.14 03:33:09.
