data_PCOD8167273
_publ_section_title
;
Structure prediction by ZEFSAII (Michael W. Deem and Ramdas Pophale) SiO2 
 PCOD8167273
Probable space group: P M C 21
;
_chemical_formula_sum "Si O2"
_cell_formula_units_Z 32
_cell_length_a 8.763440
_cell_length_b 12.348347
_cell_length_c 14.396775
_cell_angle_alpha 90.000000
_cell_angle_beta 90.000000
_cell_angle_gamma 90.000000
_cell_volume 1557.932582
_symmetry_space_group_name_H-M "P M C 21"
_symmetry_group_IT_number 26
_symmetry_cell_setting 'orthorhombic'
loop_
_space_group_symop_operation_xyz
x,y,z
-x,-y,1/2+z
-x,y,z
x,-y,1/2+z
loop_
_atom_site_type_symbol
_atom_site_label
_atom_site_fract_x
_atom_site_fract_y
_atom_site_fract_z
Si Si1 0.319074 0.579975 0.403640
Si Si2 0.331910 0.048783 0.927273
Si Si3 0.320505 0.133804 0.217257
Si Si4 0.823153 0.613226 0.010666
Si Si5 0.823036 0.089523 0.743161
Si Si6 0.180147 0.332123 0.716097
Si Si7 0.669462 0.252468 0.048824
Si Si8 0.674511 0.186739 0.426729
O O1 0.500000 0.592527 0.394774
O O2 0.276508 0.463175 0.444042
O O3 0.253003 0.601471 0.301348
O O4 0.246168 0.665769 0.478090
O O5 0.500000 0.042522 0.877101
O O6 0.205389 0.083873 0.853389
O O7 0.299180 0.931231 0.972273
O O8 0.336331 0.132238 0.009375
O O9 0.500000 0.128618 0.199570
O O10 0.251529 0.228368 0.148637
O O11 0.278509 0.174072 0.319247
O O12 0.256873 0.013609 0.194896
O O13 0.777247 0.606040 0.119881
O O14 0.000000 0.584829 0.997473
O O15 0.791776 0.734548 0.977014
O O16 0.759667 0.207482 0.709962
O O17 0.000000 0.080715 0.720816
O O18 0.000000 0.330611 0.731954
O O19 0.500000 0.301017 0.062534
O O20 0.500000 0.227838 0.437801
#
# Coordination Sequence:
#
# PCOD8167273 Si02
#       8
#     4   4   4   4   4   4   4   4
#     4  11  23  41  66  92 119 153 203 257 303 355
#     4   9  17  33  56  84 117 152 191 239 298 352
#     4   9  19  35  57  86 124 162 195 241 298 356
#     4  11  25  43  62  85 120 162 204 247 301 361
#     4  10  19  33  54  84 120 156 200 243 287 348
#     4  10  23  42  61  85 119 160 200 245 299 359
#     4   9  18  34  58  88 117 151 192 240 297 351
#     4   9  19  35  56  86 120 154 199 246 295 352
#
# _framework density 20.540040999999999
#
# number of rings (size 3 to 8) (size 9 to 14) (size 15 to 20)
#    0.000    2.250    1.250    1.875    1.750    4.500 
#    0.000    3.125    0.000    0.000    0.000    0.000 
#    0.000    0.000    0.000    0.000    0.000    0.000 
#
# Total GULP energy -396533.575103 kJ/mol
# GULP energy per Si atom -12391.674222 kJ/mol
# Density = 2.049329 g / cm^3
# Si number density = 20.540041 Si / 1000 Ang^3
#
#
#
# Elastic Constant Matrix: (Units=GPa)
#
#
# Indices 1 2 3 4 5 6 
#
# 1 39.2088 21.0240 25.3004 0.0000 0.0000 0.0000
# 2 21.0240 86.9879 35.6822 0.0000 0.0000 0.0000
# 3 25.3004 35.6822 80.4955 0.0000 0.0000 0.0000
# 4 0.0000 0.0000 0.0000 30.8935 0.0000 0.0000
# 5 0.0000 0.0000 0.0000 0.0000 23.1634 0.0000
# 6 0.0000 0.0000 0.0000 0.0000 0.0000 29.3677
#
#
#
# Elastic Compliance Matrix: (Units=1/GPa)
#
#
# Indices 1 2 3 4 5 6 
#
# 1 0.033439 -0.004609 -0.008467 0.000000 0.000000 0.000000
# 2 -0.004609 0.014686 -0.005061 0.000000 0.000000 0.000000
# 3 -0.008467 -0.005061 0.017328 0.000000 0.000000 0.000000
# 4 0.000000 0.000000 0.000000 0.032369 0.000000 0.000000
# 5 0.000000 0.000000 0.000000 0.000000 0.043172 0.000000
# 6 0.000000 0.000000 0.000000 0.000000 0.000000 0.034051
#
#
# Mechanical properties :
#
#
# Convention : Reuss Voigt Hill
#
# Bulk Modulus (GPa) = 34.27184 41.18949 37.73066
# Shear Modulus (GPa) = 22.61969 24.99730 23.80850
#
# Velocity S-wave (km/s) = 3.32211 3.49234 3.40829
# Velocity P-wave (km/s) = 5.60685 6.02982 5.82218
#
# Compressibility (1/GPa) = 0.02917848
#
# Stress axis : x y z
#
# Youngs Moduli (GPa) = 29.90482 68.09246 57.70974
#
# Poissons Ratio (x) = 0.31381 0.48865
# Poissons Ratio (y) = 0.13782 0.29210
# Poissons Ratio (z) = 0.25322 0.34465
#
# Static dielectric constant tensor:
#      x y z
#    x 3.471010 0.000000 0.000000 
#    y 0.000000 3.756520 0.000000 
#    z 0.000000 0.000000 3.809800 
# 
# 
# High freq. dielectric constant tensor:
#      x y z
#    x 1.775120 0.000000 0.000000 
#    y 0.000000 1.803760 0.000000 
#    z 0.000000 0.000000 1.806560 
# 
# From -- ./inp_files/4313.got.cif
#   From: 2010.03.12/outbox.cif.g09.slc.cpg/sg26_3_cif.got.tgz:4313.got - 2010.04.14 03:33:09.
