data_PCOD8167219
_publ_section_title
;
Structure prediction by ZEFSAII (Michael W. Deem and Ramdas Pophale) SiO2 
 PCOD8167219
Probable space group: P M C 21
;
_chemical_formula_sum "Si O2"
_cell_formula_units_Z 32
_cell_length_a 13.223253
_cell_length_b 18.707845
_cell_length_c 7.522212
_cell_angle_alpha 90.000000
_cell_angle_beta 90.000000
_cell_angle_gamma 90.000000
_cell_volume 1860.834029
_symmetry_space_group_name_H-M "P M C 21"
_symmetry_group_IT_number 26
_symmetry_cell_setting 'orthorhombic'
loop_
_space_group_symop_operation_xyz
x,y,z
-x,-y,1/2+z
-x,y,z
x,-y,1/2+z
loop_
_atom_site_type_symbol
_atom_site_label
_atom_site_fract_x
_atom_site_fract_y
_atom_site_fract_z
Si Si1 0.389065 0.438095 0.631280
Si Si2 0.805839 0.085288 0.930495
Si Si3 0.882017 0.935454 0.044263
Si Si4 0.885718 0.822474 0.739860
Si Si5 0.619939 0.285920 0.662921
Si Si6 0.387743 0.412170 0.221602
Si Si7 0.616283 0.825434 0.465759
Si Si8 0.697005 0.734860 0.771719
O O1 0.500000 0.452150 0.717611
O O2 0.340228 0.366469 0.719641
O O3 0.400007 0.416996 0.429670
O O4 0.331878 0.514500 0.653777
O O5 0.870668 0.138345 0.052557
O O6 0.816111 0.004683 0.998302
O O7 0.849052 0.095103 0.733482
O O8 0.686892 0.105251 0.939699
O O9 0.000000 0.957004 0.045183
O O10 0.857664 0.876364 0.897944
O O11 0.815375 0.752854 0.753716
O O12 0.000000 0.795170 0.756100
O O13 0.500000 0.290491 0.636742
O O14 0.650905 0.232256 0.818344
O O15 0.666971 0.259709 0.477670
O O16 0.500000 0.401635 0.134768
O O17 0.319814 0.342877 0.181741
O O18 0.500000 0.848824 0.440635
O O19 0.631253 0.792589 0.661933
#
# Coordination Sequence:
#
# PCOD8167219 Si02
#       8
#     4   4   4   4   4   4   4   4
#     4   8  15  24  39  65  95 124 157 199 237 272
#     4  11  21  34  54  78 102 124 160 198 241 298
#     4  11  20  34  57  78  98 122 153 204 262 295
#     4  10  21  35  53  77  99 121 156 206 256 293
#     4   9  17  31  48  70 102 134 164 198 236 279
#     4   9  16  26  42  67  96 125 158 196 238 279
#     4  10  21  34  50  70 100 139 168 191 231 288
#     4  10  19  32  50  71  98 129 165 200 240 292
#
# _framework density 17.196587999999998
#
# number of rings (size 3 to 8) (size 9 to 14) (size 15 to 20)
#    0.000    2.250    1.250    3.750    1.750    0.000 
#    0.000    0.625    0.000    0.000    0.000    3.500 
#    0.000    0.000    0.000    0.000    0.000    0.000 
#
# Total GULP energy -396619.067721 kJ/mol
# GULP energy per Si atom -12394.345866 kJ/mol
# Density = 1.715745 g / cm^3
# Si number density = 17.196588 Si / 1000 Ang^3
#
#
#
# Elastic Constant Matrix: (Units=GPa)
#
#
# Indices 1 2 3 4 5 6 
#
# 1 80.6661 67.2867 36.4635 0.0000 0.0000 0.0000
# 2 67.2867 113.5909 39.9779 0.0000 0.0000 0.0000
# 3 36.4635 39.9779 67.3158 0.0000 0.0000 0.0000
# 4 0.0000 0.0000 0.0000 23.7916 0.0000 0.0000
# 5 0.0000 0.0000 0.0000 0.0000 18.0213 0.0000
# 6 0.0000 0.0000 0.0000 0.0000 0.0000 19.4615
#
#
#
# Elastic Compliance Matrix: (Units=1/GPa)
#
#
# Indices 1 2 3 4 5 6 
#
# 1 0.026497 -0.013457 -0.006361 0.000000 0.000000 0.000000
# 2 -0.013457 0.017964 -0.003379 0.000000 0.000000 0.000000
# 3 -0.006361 -0.003379 0.020308 0.000000 0.000000 0.000000
# 4 0.000000 0.000000 0.000000 0.042032 0.000000 0.000000
# 5 0.000000 0.000000 0.000000 0.000000 0.055490 0.000000
# 6 0.000000 0.000000 0.000000 0.000000 0.000000 0.051383
#
#
# Mechanical properties :
#
#
# Convention : Reuss Voigt Hill
#
# Bulk Modulus (GPa) = 54.42300 61.00320 57.71310
# Shear Modulus (GPa) = 18.78327 20.11120 19.44723
#
# Velocity S-wave (km/s) = 3.30853 3.42349 3.36650
# Velocity P-wave (km/s) = 6.80525 7.15388 6.98174
#
# Compressibility (1/GPa) = 0.01837458
#
# Stress axis : x y z
#
# Youngs Moduli (GPa) = 37.73976 55.66578 49.24202
#
# Poissons Ratio (x) = 0.74911 0.31323
# Poissons Ratio (y) = 0.50787 0.16640
# Poissons Ratio (z) = 0.24006 0.18811
#
# Static dielectric constant tensor:
#      x y z
#    x 3.021900 0.000000 0.000000 
#    y 0.000000 3.467190 0.000000 
#    z 0.000000 0.000000 3.322680 
# 
# 
# High freq. dielectric constant tensor:
#      x y z
#    x 1.619430 0.000000 0.000000 
#    y 0.000000 1.665280 0.000000 
#    z 0.000000 0.000000 1.679360 
# 
# From -- ./inp_files/2015.got.cif
#   From: 2010.03.12/outbox.cif.g09.slc.cpg/sg26_2_cif.got.tgz:2015.got - 2010.04.14 03:33:09.
