data_PCOD8167007
_publ_section_title
;
Structure prediction by ZEFSAII (Michael W. Deem and Ramdas Pophale) SiO2 
 PCOD8167007
Probable space group: P M M 2
;
_chemical_formula_sum "Si O2"
_cell_formula_units_Z 32
_cell_length_a 9.611032
_cell_length_b 9.678054
_cell_length_c 20.617866
_cell_angle_alpha 90.000000
_cell_angle_beta 90.000000
_cell_angle_gamma 90.000000
_cell_volume 1917.793211
_symmetry_space_group_name_H-M "P M M 2"
_symmetry_group_IT_number 25
_symmetry_cell_setting 'orthorhombic'
loop_
_space_group_symop_operation_xyz
x,y,z
-x,-y,z
-x,y,z
x,-y,z
loop_
_atom_site_type_symbol
_atom_site_label
_atom_site_fract_x
_atom_site_fract_y
_atom_site_fract_z
Si Si1 0.839515 0.840710 0.530290
Si Si2 0.156524 0.335685 0.169648
Si Si3 0.654535 0.664648 0.912339
Si Si4 0.338386 0.839969 0.653208
Si Si5 0.155413 0.664313 0.025842
Si Si6 0.342766 0.335630 0.285717
Si Si7 0.334252 0.346137 0.770338
Si Si8 0.160567 0.339557 0.407118
O O1 0.746738 0.791463 0.590521
O O2 0.795630 0.748172 0.469499
O O3 0.000000 0.817268 0.548854
O O4 0.809769 0.000000 0.512745
O O5 0.154344 0.500000 0.174141
O O6 0.264326 0.274931 0.222326
O O7 0.000000 0.280772 0.183710
O O8 0.205859 0.289171 0.097652
O O9 0.500000 0.725909 0.921309
O O10 0.649403 0.500000 0.916708
O O11 0.747602 0.728968 0.969921
O O12 0.716734 0.705389 0.841512
O O13 0.500000 0.807540 0.640303
O O14 0.279577 0.756595 0.714947
O O15 0.312873 0.000000 0.668217
O O16 0.158018 0.500000 0.021652
O O17 0.000000 0.719355 0.013740
O O18 0.500000 0.276573 0.288247
O O19 0.345625 0.500000 0.282496
O O20 0.257684 0.287227 0.348773
O O21 0.500000 0.348999 0.772084
O O22 0.277047 0.500000 0.755388
O O23 0.186373 0.500000 0.422978
O O24 0.000000 0.313385 0.387749
#
# Coordination Sequence:
#
# PCOD8167007 Si02
#       8
#     4   4   4   4   4   4   4   4
#     4   9  18  32  47  62  82 107 133 163 200 240
#     4   8  13  21  32  46  69 104 138 162 192 239
#     4   8  13  21  33  48  68  97 130 160 192 233
#     4   9  17  29  45  63  81 103 133 167 200 236
#     4   8  13  20  30  46  70 100 132 164 197 233
#     4   9  16  24  35  54  79 104 132 168 204 235
#     4   8  14  25  40  58  81 108 135 163 199 242
#     4   9  17  29  44  60  80 108 137 163 196 240
#
# _framework density 16.685843999999999
#
# number of rings (size 3 to 8) (size 9 to 14) (size 15 to 20)
#    0.000    3.500    0.000    1.875    0.000    3.000 
#    0.000    3.125    0.000    0.750    0.000    0.000 
#    0.000    1.000    0.000    5.750    0.000    9.000 
#
# Total GULP energy -396600.839494 kJ/mol
# GULP energy per Si atom -12393.776234 kJ/mol
# Density = 1.664787 g / cm^3
# Si number density = 16.685844 Si / 1000 Ang^3
#
#
#
# Elastic Constant Matrix: (Units=GPa)
#
#
# Indices 1 2 3 4 5 6 
#
# 1 86.8459 23.3870 87.8922 0.0000 0.0000 0.0000
# 2 23.3870 27.4072 44.9945 0.0000 0.0000 0.0000
# 3 87.8922 44.9945 185.6915 0.0000 0.0000 0.0000
# 4 0.0000 0.0000 0.0000 1.3331 0.0000 0.0000
# 5 0.0000 0.0000 0.0000 0.0000 33.8769 0.0000
# 6 0.0000 0.0000 0.0000 0.0000 0.0000 9.5683
#
#
#
# Elastic Compliance Matrix: (Units=1/GPa)
#
#
# Indices 1 2 3 4 5 6 
#
# 1 0.022232 -0.002815 -0.009841 0.000000 0.000000 0.000000
# 2 -0.002815 0.060946 -0.013435 0.000000 0.000000 0.000000
# 3 -0.009841 -0.013435 0.013299 0.000000 0.000000 0.000000
# 4 0.000000 0.000000 0.000000 0.750150 0.000000 0.000000
# 5 0.000000 0.000000 0.000000 0.000000 0.029519 0.000000
# 6 0.000000 0.000000 0.000000 0.000000 0.000000 0.104512
#
#
# Mechanical properties :
#
#
# Convention : Reuss Voigt Hill
#
# Bulk Modulus (GPa) = 22.57642 68.05466 45.31554
# Shear Modulus (GPa) = 4.77280 18.53370 11.65325
#
# Velocity S-wave (km/s) = 1.69310 3.33640 2.64558
# Velocity P-wave (km/s) = 4.16915 7.46435 6.04559
#
# Compressibility (1/GPa) = 0.04429400
#
# Stress axis : x y z
#
# Youngs Moduli (GPa) = 44.97982 16.40808 75.19583
#
# Poissons Ratio (x) = 0.04619 0.73999
# Poissons Ratio (y) = 0.12663 1.01026
# Poissons Ratio (z) = 0.44264 0.22044
#
# Static dielectric constant tensor:
#      x y z
#    x 3.203720 0.000000 0.000000 
#    y 0.000000 2.654360 0.000000 
#    z 0.000000 0.000000 3.455870 
# 
# 
# High freq. dielectric constant tensor:
#      x y z
#    x 1.630690 0.000000 0.000000 
#    y 0.000000 1.579950 0.000000 
#    z 0.000000 0.000000 1.657490 
# 
# From -- ./inp_files/6301.got.cif
#   From: 2010.03.12/outbox.cif.g09.slc.cpg/sg25_4_cif.got.tgz:6301.got - 2010.04.14 03:30:10.
