data_PCOD8167765
_publ_section_title
;
Structure prediction by ZEFSAII (Michael W. Deem and Ramdas Pophale) SiO2 
 PCOD8167765
Probable space group: P M C 21
;
_chemical_formula_sum "Si O2"
_cell_formula_units_Z 32
_cell_length_a 9.043908
_cell_length_b 14.054649
_cell_length_c 13.911105
_cell_angle_alpha 90.000000
_cell_angle_beta 90.000000
_cell_angle_gamma 90.000000
_cell_volume 1768.225985
_symmetry_space_group_name_H-M "P M C 21"
_symmetry_group_IT_number 26
_symmetry_cell_setting 'orthorhombic'
loop_
_space_group_symop_operation_xyz
x,y,z
-x,-y,1/2+z
-x,y,z
x,-y,1/2+z
loop_
_atom_site_type_symbol
_atom_site_label
_atom_site_fract_x
_atom_site_fract_y
_atom_site_fract_z
Si Si1 0.171331 0.516568 0.317700
Si Si2 0.830729 0.647057 0.488749
Si Si3 0.323951 0.356440 0.436238
Si Si4 0.667709 0.966307 0.069762
Si Si5 0.174771 0.465280 0.599486
Si Si6 0.335085 0.824218 0.558973
Si Si7 0.669237 0.919454 0.747485
Si Si8 0.826107 0.157057 0.423822
O O1 0.199096 0.611126 0.380556
O O2 0.270916 0.430380 0.355310
O O3 0.217532 0.544357 0.210408
O O4 0.000000 0.484467 0.323829
O O5 0.768091 0.568083 0.562669
O O6 0.765738 0.750701 0.503439
O O7 0.000000 0.659959 0.511639
O O8 0.500000 0.354103 0.439453
O O9 0.260101 0.383822 0.540886
O O10 0.262160 0.253929 0.407676
O O11 0.500000 0.928995 0.055196
O O12 0.686628 0.068969 0.016240
O O13 0.698348 0.983911 0.184308
O O14 0.781331 0.890799 0.025274
O O15 0.000000 0.452856 0.580270
O O16 0.500000 0.788229 0.540703
O O17 0.305041 0.829719 0.674539
O O18 0.500000 0.919024 0.785111
O O19 0.780711 0.913417 0.836763
O O20 0.000000 0.175969 0.423174
#
# Coordination Sequence:
#
# PCOD8167765 Si02
#       8
#     4   4   4   4   4   4   4   4
#     4   9  19  36  55  78 109 146 184 225 277 328
#     4   9  17  29  50  79 107 137 174 221 272 320
#     4  11  23  37  55  82 113 147 189 231 273 329
#     4   8  18  37  56  76 106 141 177 225 277 322
#     4   9  19  37  56  76 108 145 183 228 277 326
#     4   8  17  33  53  76 103 134 170 216 265 315
#     4   8  18  36  56  79 106 138 177 222 271 321
#     4  12  23  35  57  84 112 146 184 230 278 329
#
# _framework density 18.097234
#
# number of rings (size 3 to 8) (size 9 to 14) (size 15 to 20)
#    0.750    2.000    0.000    3.000    1.750    4.000 
#    0.000    1.250    0.000    3.000    0.000    0.000 
#    0.000    0.000    0.000    0.000    0.000    0.000 
#
# Total GULP energy -396544.652885 kJ/mol
# GULP energy per Si atom -12392.020403 kJ/mol
# Density = 1.805604 g / cm^3
# Si number density = 18.097234 Si / 1000 Ang^3
#
#
#
# Elastic Constant Matrix: (Units=GPa)
#
#
# Indices 1 2 3 4 5 6 
#
# 1 87.4694 25.6456 36.7562 0.0000 0.0000 0.0000
# 2 25.6456 38.3064 12.1770 0.0000 0.0000 0.0000
# 3 36.7562 12.1770 89.4527 0.0000 0.0000 0.0000
# 4 0.0000 0.0000 0.0000 18.6074 0.0000 0.0000
# 5 0.0000 0.0000 0.0000 0.0000 28.8291 0.0000
# 6 0.0000 0.0000 0.0000 0.0000 0.0000 33.7841
#
#
#
# Elastic Compliance Matrix: (Units=1/GPa)
#
#
# Indices 1 2 3 4 5 6 
#
# 1 0.016464 -0.009273 -0.005503 0.000000 0.000000 0.000000
# 2 -0.009273 0.032509 -0.000615 0.000000 0.000000 0.000000
# 3 -0.005503 -0.000615 0.013524 0.000000 0.000000 0.000000
# 4 0.000000 0.000000 0.000000 0.053742 0.000000 0.000000
# 5 0.000000 0.000000 0.000000 0.000000 0.034687 0.000000
# 6 0.000000 0.000000 0.000000 0.000000 0.000000 0.029600
#
#
# Mechanical properties :
#
#
# Convention : Reuss Voigt Hill
#
# Bulk Modulus (GPa) = 31.53078 40.48735 36.00907
# Shear Modulus (GPa) = 22.53486 25.62076 24.07781
#
# Velocity S-wave (km/s) = 3.53258 3.76670 3.65152
# Velocity P-wave (km/s) = 5.83949 6.42947 6.14157
#
# Compressibility (1/GPa) = 0.03171504
#
# Stress axis : x y z
#
# Youngs Moduli (GPa) = 60.73981 30.76079 73.94340
#
# Poissons Ratio (x) = 0.28524 0.40688
# Poissons Ratio (y) = 0.56324 0.04548
# Poissons Ratio (z) = 0.33423 0.01892
#
# Static dielectric constant tensor:
#      x y z
#    x 3.184080 0.000000 0.000000 
#    y 0.000000 3.130340 0.000000 
#    z 0.000000 0.000000 3.292670 
# 
# 
# High freq. dielectric constant tensor:
#      x y z
#    x 1.693570 0.000000 0.000000 
#    y 0.000000 1.683370 0.000000 
#    z 0.000000 0.000000 1.695170 
# 
# From -- ./inp_files/4345.got.cif
#   From: 2010.03.12/outbox.cif.g09.slc.cpg/sg26_3_cif.got.tgz:4345.got - 2010.04.14 03:33:09.
