data_PCOD8167164
_publ_section_title
;
Structure prediction by ZEFSAII (Michael W. Deem and Ramdas Pophale) SiO2 
 PCOD8167164
Probable space group: P M C 21
;
_chemical_formula_sum "Si O2"
_cell_formula_units_Z 32
_cell_length_a 8.981094
_cell_length_b 11.841547
_cell_length_c 15.277417
_cell_angle_alpha 90.000000
_cell_angle_beta 90.000000
_cell_angle_gamma 90.000000
_cell_volume 1624.754012
_symmetry_space_group_name_H-M "P M C 21"
_symmetry_group_IT_number 26
_symmetry_cell_setting 'orthorhombic'
loop_
_space_group_symop_operation_xyz
x,y,z
-x,-y,1/2+z
-x,y,z
x,-y,1/2+z
loop_
_atom_site_type_symbol
_atom_site_label
_atom_site_fract_x
_atom_site_fract_y
_atom_site_fract_z
Si Si1 0.328930 0.283819 0.290190
Si Si2 0.824759 0.743625 0.299197
Si Si3 0.172451 0.499204 0.848420
Si Si4 0.675554 0.138088 0.452525
Si Si5 0.171077 0.269482 0.603924
Si Si6 0.168804 0.484505 0.049055
Si Si7 0.328540 0.259433 0.093325
Si Si8 0.176604 0.103167 0.955113
O O1 0.500000 0.309930 0.309990
O O2 0.245671 0.402818 0.291559
O O3 0.267257 0.197755 0.363548
O O4 0.306034 0.227773 0.195207
O O5 0.755280 0.621686 0.323407
O O6 0.786044 0.778373 0.199814
O O7 0.762988 0.837717 0.366182
O O8 0.000000 0.733885 0.313222
O O9 0.000000 0.501024 0.823784
O O10 0.201561 0.522931 0.950184
O O11 0.500000 0.118698 0.451756
O O12 0.718053 0.214829 0.534939
O O13 0.755225 0.019520 0.461694
O O14 0.191993 0.404826 0.608462
O O15 0.000000 0.240051 0.579452
O O16 0.282685 0.388972 0.078620
O O17 0.000000 0.437675 0.057024
O O18 0.500000 0.245051 0.065295
O O19 0.226191 0.175975 0.038246
O O20 0.000000 0.093282 0.956312
#
# Coordination Sequence:
#
# PCOD8167164 Si02
#       8
#     4   4   4   4   4   4   4   4
#     4  10  23  40  58  85 122 158 194 236 287 350
#     4   9  19  36  59  87 119 149 187 239 288 339
#     4  10  18  34  61  90 119 152 191 238 288 341
#     4  11  24  42  60  82 115 153 195 245 296 346
#     4  10  20  37  61  89 118 153 194 237 287 344
#     4  10  19  34  60  91 122 154 193 239 288 343
#     4  11  23  39  60  88 122 158 195 237 290 350
#     4  11  23  42  63  84 113 151 199 247 292 345
#
# _framework density 19.69529
#
# number of rings (size 3 to 8) (size 9 to 14) (size 15 to 20)
#    0.000    1.750    2.500    1.875    0.000    4.500 
#    0.000    4.375    0.000    0.000    0.000    0.000 
#    0.000    0.000    0.000    0.000    0.000    0.000 
#
# Total GULP energy -396895.299532 kJ/mol
# GULP energy per Si atom -12402.978110 kJ/mol
# Density = 1.965046 g / cm^3
# Si number density = 19.695290 Si / 1000 Ang^3
#
#
#
# Elastic Constant Matrix: (Units=GPa)
#
#
# Indices 1 2 3 4 5 6 
#
# 1 60.1272 35.8946 33.8378 0.0000 0.0000 0.0000
# 2 35.8946 106.4762 40.9098 0.0000 0.0000 0.0000
# 3 33.8378 40.9098 99.5409 0.0000 0.0000 0.0000
# 4 0.0000 0.0000 0.0000 13.3990 0.0000 0.0000
# 5 0.0000 0.0000 0.0000 0.0000 26.9736 0.0000
# 6 0.0000 0.0000 0.0000 0.0000 0.0000 22.8783
#
#
#
# Elastic Compliance Matrix: (Units=1/GPa)
#
#
# Indices 1 2 3 4 5 6 
#
# 1 0.023131 -0.005672 -0.005532 0.000000 0.000000 0.000000
# 2 -0.005672 0.012544 -0.003227 0.000000 0.000000 0.000000
# 3 -0.005532 -0.003227 0.013253 0.000000 0.000000 0.000000
# 4 0.000000 0.000000 0.000000 0.074632 0.000000 0.000000
# 5 0.000000 0.000000 0.000000 0.000000 0.037073 0.000000
# 6 0.000000 0.000000 0.000000 0.000000 0.000000 0.043710
#
#
# Mechanical properties :
#
#
# Convention : Reuss Voigt Hill
#
# Bulk Modulus (GPa) = 49.83774 54.15873 51.99823
# Shear Modulus (GPa) = 20.84259 23.01700 21.92980
#
# Velocity S-wave (km/s) = 3.25661 3.42227 3.34047
# Velocity P-wave (km/s) = 6.28490 6.57069 6.42938
#
# Compressibility (1/GPa) = 0.02006512
#
# Stress axis : x y z
#
# Youngs Moduli (GPa) = 43.23242 79.72007 75.45520
#
# Poissons Ratio (x) = 0.45220 0.41740
# Poissons Ratio (y) = 0.24523 0.24350
# Poissons Ratio (z) = 0.23915 0.25727
#
# Static dielectric constant tensor:
#      x y z
#    x 3.409820 0.000000 0.000000 
#    y 0.000000 3.532800 0.000000 
#    z 0.000000 0.000000 3.760010 
# 
# 
# High freq. dielectric constant tensor:
#      x y z
#    x 1.749850 0.000000 0.000000 
#    y 0.000000 1.763500 0.000000 
#    z 0.000000 0.000000 1.782620 
# 
# From -- ./inp_files/4311.got.cif
#   From: 2010.03.12/outbox.cif.g09.slc.cpg/sg26_3_cif.got.tgz:4311.got - 2010.04.14 03:33:09.
