data_PCOD8167834
_publ_section_title
;
Structure prediction by ZEFSAII (Michael W. Deem and Ramdas Pophale) SiO2 
 PCOD8167834
Probable space group: P C C 2
;
_chemical_formula_sum "Si O2"
_cell_formula_units_Z 20
_cell_length_a 7.787557
_cell_length_b 11.491766
_cell_length_c 10.020287
_cell_angle_alpha 90.000000
_cell_angle_beta 90.000000
_cell_angle_gamma 90.000000
_cell_volume 896.743368
_symmetry_space_group_name_H-M "P C C 2"
_symmetry_group_IT_number 27
_symmetry_cell_setting 'orthorhombic'
loop_
_space_group_symop_operation_xyz
x,y,z
-x,-y,z
-x,y,1/2+z
x,-y,1/2+z
loop_
_atom_site_type_symbol
_atom_site_label
_atom_site_fract_x
_atom_site_fract_y
_atom_site_fract_z
Si Si1 0.977443 0.249355 0.790530
Si Si2 0.087389 0.376805 0.545962
Si Si3 0.176654 0.946137 0.939709
Si Si4 0.348321 0.822963 0.372351
Si Si5 0.393673 0.763249 0.092394
O O1 0.972214 0.287856 0.636300
O O2 0.168890 0.237499 0.846682
O O3 0.871018 0.129488 0.807257
O O4 0.905527 0.349008 0.888899
O O5 0.287848 0.360290 0.593439
O O6 0.000000 0.500000 0.572659
O O7 0.253947 0.861621 0.051291
O O8 0.320921 0.040052 0.900643
O O9 0.000000 0.000000 0.998435
O O10 0.444415 0.759949 0.494369
O O11 0.462329 0.799997 0.239036
#
# Coordination Sequence:
#
# PCOD8167834 Si02
#       5
#     4   4   4   4   4
#     4   9  20  36  58  84 111 147 196 241 286 345
#     4  10  20  38  61  84 109 146 197 249 291 333
#     4   9  19  34  55  83 116 153 193 239 287 341
#     4  10  21  36  54  82 120 153 185 231 292 356
#     4  10  22  36  55  85 116 153 192 232 289 351
#
# _framework density 22.302924999999998
#
# number of rings (size 3 to 8) (size 9 to 14) (size 15 to 20)
#    0.000    2.400    0.000    1.200    0.000   13.600 
#    0.000    1.000    0.000    4.800    0.000    0.000 
#    0.000    0.000    0.000    0.000    0.000    0.000 
#
# Total GULP energy -247798.985433 kJ/mol
# GULP energy per Si atom -12389.949272 kJ/mol
# Density = 2.225216 g / cm^3
# Si number density = 22.302925 Si / 1000 Ang^3
#
#
#
# Elastic Constant Matrix: (Units=GPa)
#
#
# Indices 1 2 3 4 5 6 
#
# 1 65.6483 25.9111 7.0105 0.0000 0.0000 0.0000
# 2 25.9111 89.1972 -1.0642 0.0000 0.0000 0.0000
# 3 7.0105 -1.0642 85.1153 0.0000 0.0000 0.0000
# 4 0.0000 0.0000 0.0000 19.8248 0.0000 0.0000
# 5 0.0000 0.0000 0.0000 0.0000 39.0450 0.0000
# 6 0.0000 0.0000 0.0000 0.0000 0.0000 26.5535
#
#
#
# Elastic Compliance Matrix: (Units=1/GPa)
#
#
# Indices 1 2 3 4 5 6 
#
# 1 0.017394 -0.005071 -0.001496 0.000000 0.000000 0.000000
# 2 -0.005071 0.012691 0.000576 0.000000 0.000000 0.000000
# 3 -0.001496 0.000576 0.011879 0.000000 0.000000 0.000000
# 4 0.000000 0.000000 0.000000 0.050442 0.000000 0.000000
# 5 0.000000 0.000000 0.000000 0.000000 0.025611 0.000000
# 6 0.000000 0.000000 0.000000 0.000000 0.000000 0.037660
#
#
# Mechanical properties :
#
#
# Convention : Reuss Voigt Hill
#
# Bulk Modulus (GPa) = 33.35192 33.74174 33.54683
# Shear Modulus (GPa) = 28.14487 30.95821 29.55154
#
# Velocity S-wave (km/s) = 3.55623 3.72973 3.64401
# Velocity P-wave (km/s) = 5.64348 5.80600 5.72531
#
# Compressibility (1/GPa) = 0.02998328
#
# Stress axis : x y z
#
# Youngs Moduli (GPa) = 57.49179 78.79619 84.18082
#
# Poissons Ratio (x) = 0.39955 0.12594
# Poissons Ratio (y) = 0.29152 -0.04851
# Poissons Ratio (z) = 0.08601 -0.04541
#
# Static dielectric constant tensor:
#      x y z
#    x 3.932940 0.000000 0.000000 
#    y 0.000000 3.867930 0.000000 
#    z 0.000000 0.000000 4.131930 
# 
# 
# High freq. dielectric constant tensor:
#      x y z
#    x 1.871150 0.000000 0.000000 
#    y 0.000000 1.847570 0.000000 
#    z 0.000000 0.000000 1.882310 
# 
# From -- ./inp_files/1036.got.cif
#   From: 2010.03.12/outbox.cif.g09.slc.cpg/sg27_1_cif.got.tgz:1036.got - 2010.04.14 03:36:05.
