data_PCOD8167872
_publ_section_title
;
Structure prediction by ZEFSAII (Michael W. Deem and Ramdas Pophale) SiO2 
 PCOD8167872
Probable space group: P C C 2
;
_chemical_formula_sum "Si O2"
_cell_formula_units_Z 32
_cell_length_a 13.217928
_cell_length_b 8.149531
_cell_length_c 13.944084
_cell_angle_alpha 90.000000
_cell_angle_beta 90.000000
_cell_angle_gamma 90.000000
_cell_volume 1502.055529
_symmetry_space_group_name_H-M "P C C 2"
_symmetry_group_IT_number 27
_symmetry_cell_setting 'orthorhombic'
loop_
_space_group_symop_operation_xyz
x,y,z
-x,-y,z
-x,y,1/2+z
x,-y,1/2+z
loop_
_atom_site_type_symbol
_atom_site_label
_atom_site_fract_x
_atom_site_fract_y
_atom_site_fract_z
Si Si1 0.402043 0.601666 0.122840
Si Si2 0.550846 0.173186 0.943955
Si Si3 0.108422 0.052531 0.193380
Si Si4 0.634769 0.684558 0.837829
Si Si5 0.255706 0.018764 0.362420
Si Si6 0.866639 0.163922 0.013807
Si Si7 0.941814 0.663882 0.057456
Si Si8 0.753207 0.496185 0.985587
O O1 0.500000 0.500000 0.148565
O O2 0.363574 0.673422 0.223360
O O3 0.424528 0.745021 0.046125
O O4 0.319170 0.477094 0.078093
O O5 0.478070 0.289640 0.880039
O O6 0.652536 0.145074 0.882381
O O7 0.500000 0.000000 0.968274
O O8 0.201740 0.069436 0.264543
O O9 0.097406 0.232723 0.147516
O O10 0.000000 0.000000 0.239746
O O11 0.140285 0.908600 0.120100
O O12 0.687419 0.527090 0.888999
O O13 0.704471 0.836031 0.865014
O O14 0.166866 0.021012 0.442066
O O15 0.788094 0.309017 0.993145
O O16 0.981193 0.224944 0.994673
O O17 0.000000 0.500000 0.095028
O O18 0.848422 0.617621 0.989400
#
# Coordination Sequence:
#
# PCOD8167872 Si02
#       8
#     4   4   4   4   4   4   4   4
#     4  12  25  42  70  93 136 176 218 281 336 398
#     4  10  24  46  65  97 133 171 223 277 335 403
#     4  10  22  40  65  98 132 177 229 274 335 401
#     4  11  26  43  63 100 131 172 224 276 335 414
#     4  11  23  41  69  92 130 176 222 278 333 406
#     4  10  21  41  67  92 133 173 221 286 325 394
#     4   9  21  41  65  96 138 178 219 283 334 394
#     4  11  22  42  64  95 132 172 225 269 342 403
#
# _framework density 21.30414
#
# number of rings (size 3 to 8) (size 9 to 14) (size 15 to 20)
#    0.000    1.500    2.500    1.500    1.750    6.000 
#    2.250    1.875    0.000    0.000    0.000    0.000 
#    0.000    0.000    0.000    0.000    0.000    0.000 
#
# Total GULP energy -396688.429309 kJ/mol
# GULP energy per Si atom -12396.513416 kJ/mol
# Density = 2.125565 g / cm^3
# Si number density = 21.304140 Si / 1000 Ang^3
#
#
#
# Elastic Constant Matrix: (Units=GPa)
#
#
# Indices 1 2 3 4 5 6 
#
# 1 142.8462 54.1256 72.9154 0.0000 0.0000 0.0000
# 2 54.1256 76.1109 44.9669 0.0000 0.0000 0.0000
# 3 72.9154 44.9669 137.6256 0.0000 0.0000 0.0000
# 4 0.0000 0.0000 0.0000 29.2436 0.0000 0.0000
# 5 0.0000 0.0000 0.0000 0.0000 38.7737 0.0000
# 6 0.0000 0.0000 0.0000 0.0000 0.0000 34.0867
#
#
#
# Elastic Compliance Matrix: (Units=1/GPa)
#
#
# Indices 1 2 3 4 5 6 
#
# 1 0.011203 -0.005527 -0.004129 0.000000 0.000000 0.000000
# 2 -0.005527 0.019008 -0.003282 0.000000 0.000000 0.000000
# 3 -0.004129 -0.003282 0.010526 0.000000 0.000000 0.000000
# 4 0.000000 0.000000 0.000000 0.034195 0.000000 0.000000
# 5 0.000000 0.000000 0.000000 0.000000 0.025791 0.000000
# 6 0.000000 0.000000 0.000000 0.000000 0.000000 0.029337
#
#
# Mechanical properties :
#
#
# Convention : Reuss Voigt Hill
#
# Bulk Modulus (GPa) = 67.29566 77.84427 72.56997
# Shear Modulus (GPa) = 31.07687 32.72581 31.90134
#
# Velocity S-wave (km/s) = 3.82347 3.92359 3.87385
# Velocity P-wave (km/s) = 7.15182 7.55943 7.35845
#
# Compressibility (1/GPa) = 0.01485980
#
# Stress axis : x y z
#
# Youngs Moduli (GPa) = 89.26523 52.60815 94.99938
#
# Poissons Ratio (x) = 0.29076 0.39229
# Poissons Ratio (y) = 0.49336 0.31183
# Poissons Ratio (z) = 0.36861 0.17269
#
# Static dielectric constant tensor:
#      x y z
#    x 4.309940 0.000000 0.000000 
#    y 0.000000 3.971750 0.000000 
#    z 0.000000 0.000000 3.597900 
# 
# 
# High freq. dielectric constant tensor:
#      x y z
#    x 1.863300 0.000000 0.000000 
#    y 0.000000 1.843710 0.000000 
#    z 0.000000 0.000000 1.811720 
# 
# From -- ./inp_files/3673.got.cif
#   From: 2010.03.12/outbox.cif.g09.slc.cpg/sg27_2_cif.got.tgz:3673.got - 2010.04.14 03:36:05.
