data_PCOD8167291
_publ_section_title
;
Structure prediction by ZEFSAII (Michael W. Deem and Ramdas Pophale) SiO2 
 PCOD8167291
Probable space group: P M C 21
;
_chemical_formula_sum "Si O2"
_cell_formula_units_Z 32
_cell_length_a 9.056623
_cell_length_b 14.541351
_cell_length_c 12.348327
_cell_angle_alpha 90.000000
_cell_angle_beta 90.000000
_cell_angle_gamma 90.000000
_cell_volume 1626.219517
_symmetry_space_group_name_H-M "P M C 21"
_symmetry_group_IT_number 26
_symmetry_cell_setting 'orthorhombic'
loop_
_space_group_symop_operation_xyz
x,y,z
-x,-y,1/2+z
-x,y,z
x,-y,1/2+z
loop_
_atom_site_type_symbol
_atom_site_label
_atom_site_fract_x
_atom_site_fract_y
_atom_site_fract_z
Si Si1 0.827169 0.374143 0.037550
Si Si2 0.837570 0.166424 0.525843
Si Si3 0.324903 0.672558 0.317712
Si Si4 0.832580 0.942605 0.819622
Si Si5 0.830577 0.138995 0.771225
Si Si6 0.671399 0.453384 0.614663
Si Si7 0.172354 0.754528 0.726860
Si Si8 0.331452 0.678373 0.923397
O O1 0.769694 0.455167 0.116213
O O2 0.797290 0.279452 0.104557
O O3 0.000000 0.387257 0.014399
O O4 0.739845 0.375052 0.924926
O O5 0.821688 0.080618 0.445807
O O6 0.819454 0.127583 0.643858
O O7 0.709731 0.238869 0.503358
O O8 0.000000 0.212674 0.510060
O O9 0.500000 0.675778 0.327331
O O10 0.263762 0.775695 0.313277
O O11 0.275593 0.615014 0.211100
O O12 0.762385 0.857826 0.748525
O O13 0.000000 0.956463 0.779109
O O14 0.756513 0.042727 0.810109
O O15 0.000000 0.153141 0.811067
O O16 0.500000 0.478063 0.633310
O O17 0.696540 0.412348 0.494460
O O18 0.238755 0.681385 0.812744
O O19 0.000000 0.757532 0.753351
O O20 0.500000 0.687150 0.888764
#
# Coordination Sequence:
#
# PCOD8167291 Si02
#       8
#     4   4   4   4   4   4   4   4
#     4  11  25  41  62  91 121 155 197 248 298 351
#     4   9  17  31  52  80 113 150 193 245 299 345
#     4  11  24  43  62  85 123 161 196 240 296 359
#     4   8  16  32  55  83 116 154 197 243 299 356
#     4  10  19  33  58  87 114 153 202 249 294 346
#     4  10  23  41  60  84 115 157 197 237 295 356
#     4   9  20  39  59  85 119 153 192 244 301 349
#     4  10  19  34  58  83 109 147 194 240 288 348
#
# _framework density 19.677541000000002
#
# number of rings (size 3 to 8) (size 9 to 14) (size 15 to 20)
#    0.000    2.250    1.250    1.875    1.750    4.000 
#    0.000    6.250    0.000    1.500    0.000    0.000 
#    0.000    0.000    0.000    0.000    0.000    0.000 
#
# Total GULP energy -396616.484124 kJ/mol
# GULP energy per Si atom -12394.265129 kJ/mol
# Density = 1.963275 g / cm^3
# Si number density = 19.677541 Si / 1000 Ang^3
#
#
#
# Elastic Constant Matrix: (Units=GPa)
#
#
# Indices 1 2 3 4 5 6 
#
# 1 58.7841 40.6384 35.9324 0.0000 0.0000 0.0000
# 2 40.6384 112.7964 37.4062 0.0000 0.0000 0.0000
# 3 35.9324 37.4062 82.2195 0.0000 0.0000 0.0000
# 4 0.0000 0.0000 0.0000 24.9880 0.0000 0.0000
# 5 0.0000 0.0000 0.0000 0.0000 28.1244 0.0000
# 6 0.0000 0.0000 0.0000 0.0000 0.0000 16.2572
#
#
#
# Elastic Compliance Matrix: (Units=1/GPa)
#
#
# Indices 1 2 3 4 5 6 
#
# 1 0.027086 -0.006869 -0.008712 0.000000 0.000000 0.000000
# 2 -0.006869 0.012183 -0.002541 0.000000 0.000000 0.000000
# 3 -0.008712 -0.002541 0.017126 0.000000 0.000000 0.000000
# 4 0.000000 0.000000 0.000000 0.040019 0.000000 0.000000
# 5 0.000000 0.000000 0.000000 0.000000 0.035556 0.000000
# 6 0.000000 0.000000 0.000000 0.000000 0.000000 0.061511
#
#
# Mechanical properties :
#
#
# Convention : Reuss Voigt Hill
#
# Bulk Modulus (GPa) = 49.62642 53.52823 51.57733
# Shear Modulus (GPa) = 21.14685 23.19544 22.17114
#
# Velocity S-wave (km/s) = 3.28177 3.43706 3.36031
# Velocity P-wave (km/s) = 6.29560 6.55842 6.42836
#
# Compressibility (1/GPa) = 0.02015056
#
# Stress axis : x y z
#
# Youngs Moduli (GPa) = 36.92006 82.08194 58.39132
#
# Poissons Ratio (x) = 0.56385 0.50870
# Poissons Ratio (y) = 0.25362 0.14835
# Poissons Ratio (z) = 0.32165 0.20854
#
# Static dielectric constant tensor:
#      x y z
#    x 3.442290 0.000000 0.000000 
#    y 0.000000 3.661390 0.000000 
#    z 0.000000 0.000000 3.610310 
# 
# 
# High freq. dielectric constant tensor:
#      x y z
#    x 1.745240 0.000000 0.000000 
#    y 0.000000 1.766180 0.000000 
#    z 0.000000 0.000000 1.771690 
# 
# From -- ./inp_files/3067.got.cif
#   From: 2010.03.12/outbox.cif.g09.slc.cpg/sg26_2_cif.got.tgz:3067.got - 2010.04.14 03:33:09.
