data_PCOD8167316
_publ_section_title
;
Structure prediction by ZEFSAII (Michael W. Deem and Ramdas Pophale) SiO2 
 PCOD8167316
Probable space group: P M C 21
;
_chemical_formula_sum "Si O2"
_cell_formula_units_Z 32
_cell_length_a 8.964803
_cell_length_b 12.056069
_cell_length_c 14.472557
_cell_angle_alpha 90.000000
_cell_angle_beta 90.000000
_cell_angle_gamma 90.000000
_cell_volume 1564.198064
_symmetry_space_group_name_H-M "P M C 21"
_symmetry_group_IT_number 26
_symmetry_cell_setting 'orthorhombic'
loop_
_space_group_symop_operation_xyz
x,y,z
-x,-y,1/2+z
-x,y,z
x,-y,1/2+z
loop_
_atom_site_type_symbol
_atom_site_label
_atom_site_fract_x
_atom_site_fract_y
_atom_site_fract_z
Si Si1 0.174692 0.389957 0.569860
Si Si2 0.835843 0.311647 0.881901
Si Si3 0.822652 0.909725 0.464571
Si Si4 0.323472 0.593455 0.677341
Si Si5 0.671691 0.996762 0.293476
Si Si6 0.175845 0.551270 0.868565
Si Si7 0.328414 0.159168 0.137936
Si Si8 0.834369 0.196822 0.694125
O O1 0.258387 0.493637 0.616676
O O2 0.207475 0.378229 0.460646
O O3 0.227710 0.269977 0.608559
O O4 0.000000 0.408553 0.589550
O O5 0.754682 0.209771 0.932960
O O6 0.755250 0.429538 0.892664
O O7 0.846726 0.287542 0.773991
O O8 0.000000 0.321437 0.926671
O O9 0.759728 0.999273 0.391190
O O10 0.766144 0.921374 0.569261
O O11 0.000000 0.917206 0.458394
O O12 0.500000 0.579563 0.683062
O O13 0.260703 0.599803 0.781091
O O14 0.279163 0.712050 0.631874
O O15 0.500000 0.975132 0.315938
O O16 0.725230 0.901812 0.222280
O O17 0.697873 0.114014 0.242082
O O18 0.000000 0.543367 0.845112
O O19 0.500000 0.145198 0.109894
O O20 0.000000 0.147691 0.673028
#
# Coordination Sequence:
#
# PCOD8167316 Si02
#       8
#     4   4   4   4   4   4   4   4
#     4  10  20  36  59  85 116 153 189 233 291 349
#     4   8  14  28  51  78 109 141 177 226 278 330
#     4  10  20  36  62  92 114 144 195 249 292 336
#     4  11  23  38  57  85 120 155 195 240 282 339
#     4  10  21  39  61  83 113 154 195 236 291 349
#     4  10  19  34  56  82 114 155 190 224 288 352
#     4  10  23  42  59  81 119 162 196 234 288 347
#     4   9  17  33  55  80 111 142 185 240 286 332
#
# _framework density 20.457767
#
# number of rings (size 3 to 8) (size 9 to 14) (size 15 to 20)
#    0.000    2.250    1.250    2.625    0.000    4.000 
#    2.250    0.625    0.000    0.000    0.000    0.000 
#    0.000    0.000    0.000    0.000    0.000    0.000 
#
# Total GULP energy -396578.022166 kJ/mol
# GULP energy per Si atom -12393.063193 kJ/mol
# Density = 2.041120 g / cm^3
# Si number density = 20.457767 Si / 1000 Ang^3
#
#
#
# Elastic Constant Matrix: (Units=GPa)
#
#
# Indices 1 2 3 4 5 6 
#
# 1 80.5010 20.8554 36.4462 0.0000 0.0000 0.0000
# 2 20.8554 33.1980 6.5245 0.0000 0.0000 0.0000
# 3 36.4462 6.5245 100.1868 0.0000 0.0000 0.0000
# 4 0.0000 0.0000 0.0000 25.5188 0.0000 0.0000
# 5 0.0000 0.0000 0.0000 0.0000 30.5393 0.0000
# 6 0.0000 0.0000 0.0000 0.0000 0.0000 24.3051
#
#
#
# Elastic Compliance Matrix: (Units=1/GPa)
#
#
# Indices 1 2 3 4 5 6 
#
# 1 0.017599 -0.009925 -0.005756 0.000000 0.000000 0.000000
# 2 -0.009925 0.036110 0.001259 0.000000 0.000000 0.000000
# 3 -0.005756 0.001259 0.011993 0.000000 0.000000 0.000000
# 4 0.000000 0.000000 0.000000 0.039187 0.000000 0.000000
# 5 0.000000 0.000000 0.000000 0.000000 0.032745 0.000000
# 6 0.000000 0.000000 0.000000 0.000000 0.000000 0.041144
#
#
# Mechanical properties :
#
#
# Convention : Reuss Voigt Hill
#
# Bulk Modulus (GPa) = 27.13078 37.94868 32.53973
# Shear Modulus (GPa) = 22.73677 26.07661 24.40669
#
# Velocity S-wave (km/s) = 3.33738 3.57411 3.45777
# Velocity P-wave (km/s) = 5.30485 5.96845 5.64641
#
# Compressibility (1/GPa) = 0.03685851
#
# Stress axis : x y z
#
# Youngs Moduli (GPa) = 56.81994 27.69328 83.37978
#
# Poissons Ratio (x) = 0.27485 0.47994
# Poissons Ratio (y) = 0.56394 -0.10497
# Poissons Ratio (z) = 0.32706 -0.03486
#
# Static dielectric constant tensor:
#      x y z
#    x 3.491680 0.000000 0.000000 
#    y 0.000000 3.670630 0.000000 
#    z 0.000000 0.000000 3.770060 
# 
# 
# High freq. dielectric constant tensor:
#      x y z
#    x 1.778480 0.000000 0.000000 
#    y 0.000000 1.788540 0.000000 
#    z 0.000000 0.000000 1.805070 
# 
# From -- ./inp_files/4294.got.cif
#   From: 2010.03.12/outbox.cif.g09.slc.cpg/sg26_3_cif.got.tgz:4294.got - 2010.04.14 03:33:09.
