data_PCOD8167729
_publ_section_title
;
Structure prediction by ZEFSAII (Michael W. Deem and Ramdas Pophale) SiO2 
 PCOD8167729
Probable space group: P M C 21
;
_chemical_formula_sum "Si O2"
_cell_formula_units_Z 24
_cell_length_a 12.156671
_cell_length_b 5.213173
_cell_length_c 17.060771
_cell_angle_alpha 90.000000
_cell_angle_beta 90.000000
_cell_angle_gamma 90.000000
_cell_volume 1081.223445
_symmetry_space_group_name_H-M "P M C 21"
_symmetry_group_IT_number 26
_symmetry_cell_setting 'orthorhombic'
loop_
_space_group_symop_operation_xyz
x,y,z
-x,-y,1/2+z
-x,y,z
x,-y,1/2+z
loop_
_atom_site_type_symbol
_atom_site_label
_atom_site_fract_x
_atom_site_fract_y
_atom_site_fract_z
Si Si1 0.731320 0.207563 0.263150
Si Si2 0.500000 0.747796 0.445382
Si Si3 0.117067 0.038922 0.062392
Si Si4 0.758995 0.705809 0.164373
Si Si5 0.873266 0.281145 0.412650
Si Si6 0.500000 0.251931 0.340903
Si Si7 0.714095 0.424738 0.023476
O O1 0.775917 0.451749 0.215420
O O2 0.819025 0.172861 0.333211
O O3 0.607861 0.265766 0.288887
O O4 0.716967 0.940959 0.216881
O O5 0.500000 0.505012 0.390938
O O6 0.391477 0.735366 0.497972
O O7 0.500000 0.009416 0.397826
O O8 0.127615 0.799076 0.122724
O O9 0.000000 0.171974 0.078458
O O10 0.213252 0.239598 0.078797
O O11 0.122349 0.954173 0.972135
O O12 0.681410 0.648488 0.086532
O O13 0.788873 0.491453 0.449013
O O14 0.000000 0.384041 0.399300
#
# Coordination Sequence:
#
# PCOD8167729 Si02
#       7
#     4   2   4   4   4   2   4
#     4  12  25  46  69 101 143 180 229 283 359 421
#     4  12  26  42  79 101 138 181 240 290 337 418
#     4  10  22  45  72 102 140 185 233 292 350 410
#     4  11  26  45  68 100 142 184 228 284 346 423
#     4  10  23  41  70 100 135 180 236 292 346 417
#     4  12  26  46  69 107 138 183 218 298 351 404
#     4  11  23  46  70 104 138 183 242 287 348 418
#
# _framework density 22.197077
#
# number of rings (size 3 to 8) (size 9 to 14) (size 15 to 20)
#    0.000    1.000    3.333    2.500    4.667    3.333 
#    0.000    0.833    0.000    0.000    0.000    0.000 
#    0.000    0.000    0.000    0.000    0.000    0.000 
#
# Total GULP energy -297325.748899 kJ/mol
# GULP energy per Si atom -12388.572871 kJ/mol
# Density = 2.214656 g / cm^3
# Si number density = 22.197077 Si / 1000 Ang^3
#
#
#
# Elastic Constant Matrix: (Units=GPa)
#
#
# Indices 1 2 3 4 5 6 
#
# 1 148.6541 31.4571 54.2493 0.0000 0.0000 0.0000
# 2 31.4571 124.5849 49.8911 0.0000 0.0000 0.0000
# 3 54.2493 49.8911 123.4644 0.0000 0.0000 0.0000
# 4 0.0000 0.0000 0.0000 40.4391 0.0000 0.0000
# 5 0.0000 0.0000 0.0000 0.0000 16.1480 0.0000
# 6 0.0000 0.0000 0.0000 0.0000 0.0000 30.4829
#
#
#
# Elastic Compliance Matrix: (Units=1/GPa)
#
#
# Indices 1 2 3 4 5 6 
#
# 1 0.008068 -0.000737 -0.003247 0.000000 0.000000 0.000000
# 2 -0.000737 0.009644 -0.003573 0.000000 0.000000 0.000000
# 3 -0.003247 -0.003573 0.010970 0.000000 0.000000 0.000000
# 4 0.000000 0.000000 0.000000 0.024729 0.000000 0.000000
# 5 0.000000 0.000000 0.000000 0.000000 0.061927 0.000000
# 6 0.000000 0.000000 0.000000 0.000000 0.000000 0.032805
#
#
# Mechanical properties :
#
#
# Convention : Reuss Voigt Hill
#
# Bulk Modulus (GPa) = 73.70623 74.21094 73.95859
# Shear Modulus (GPa) = 29.80098 34.82106 32.31102
#
# Velocity S-wave (km/s) = 3.66808 3.96501 3.81943
# Velocity P-wave (km/s) = 7.15662 7.38018 7.26926
#
# Compressibility (1/GPa) = 0.01356737
#
# Stress axis : x y z
#
# Youngs Moduli (GPa) = 123.94664 103.69579 91.15564
#
# Poissons Ratio (x) = 0.07639 0.29601
# Poissons Ratio (y) = 0.09131 0.32572
# Poissons Ratio (z) = 0.40249 0.37053
#
# Static dielectric constant tensor:
#      x y z
#    x 3.763870 0.000000 0.000000 
#    y 0.000000 4.039250 0.000000 
#    z 0.000000 0.000000 4.189890 
# 
# 
# High freq. dielectric constant tensor:
#      x y z
#    x 1.863910 0.000000 0.000000 
#    y 0.000000 1.879970 0.000000 
#    z 0.000000 0.000000 1.887490 
# 
# From -- ./inp_files/5123.got.cif
#   From: 2010.03.12/outbox.cif.g09.slc.cpg/sg26_3_cif.got.tgz:5123.got - 2010.04.14 03:33:09.
