data_PCOD8167436
_publ_section_title
;
Structure prediction by ZEFSAII (Michael W. Deem and Ramdas Pophale) SiO2 
 PCOD8167436
Probable space group: P M C 21
;
_chemical_formula_sum "Si O2"
_cell_formula_units_Z 24
_cell_length_a 9.039634
_cell_length_b 11.185098
_cell_length_c 12.668388
_cell_angle_alpha 90.000000
_cell_angle_beta 90.000000
_cell_angle_gamma 90.000000
_cell_volume 1280.890477
_symmetry_space_group_name_H-M "P M C 21"
_symmetry_group_IT_number 26
_symmetry_cell_setting 'orthorhombic'
loop_
_space_group_symop_operation_xyz
x,y,z
-x,-y,1/2+z
-x,y,z
x,-y,1/2+z
loop_
_atom_site_type_symbol
_atom_site_label
_atom_site_fract_x
_atom_site_fract_y
_atom_site_fract_z
Si Si1 0.833175 0.320209 0.927830
Si Si2 0.172189 0.238439 0.311970
Si Si3 0.174285 0.128927 0.090662
Si Si4 0.833175 0.679791 0.196110
Si Si5 0.674617 0.490012 0.311970
Si Si6 0.174285 0.128927 0.533278
O O1 0.835354 0.256378 0.811970
O O2 0.736671 0.442192 0.917155
O O3 0.000000 0.356217 0.961935
O O4 0.759701 0.230726 0.012866
O O5 0.213543 0.159090 0.210847
O O6 0.270909 0.355397 0.311970
O O7 0.213543 0.159090 0.413094
O O8 0.000000 0.275513 0.311970
O O9 0.000000 0.124724 0.070176
O O10 0.244219 1.000000 0.061970
O O11 0.736671 0.557807 0.206785
O O12 0.759701 0.769274 0.111074
O O13 0.000000 0.643783 0.162005
O O14 0.500000 0.493297 0.311970
O O15 0.000000 0.124724 0.553764
#
# Coordination Sequence:
#
# PCOD8167436 Si02
#       6
#     4   4   4   4   4   4
#     4   8  16  32  54  77 103 134 168 209 255 302
#     4  10  20  33  52  80 108 133 169 214 259 304
#     4   9  18  31  53  82 107 134 168 211 257 306
#     4   8  16  32  54  77 103 134 168 209 255 302
#     4  10  20  35  54  76 104 137 177 216 255 306
#     4   9  18  31  53  82 107 134 168 211 257 306
#
# _framework density 18.736962999999999
#
# number of rings (size 3 to 8) (size 9 to 14) (size 15 to 20)
#    1.000    2.000    0.000    1.000    2.333    1.333 
#    0.000    8.333    0.000    6.000    0.000    0.000 
#    0.000    0.000    0.000    0.000    0.000    0.000 
#
# Total GULP energy -297391.160155 kJ/mol
# GULP energy per Si atom -12391.298340 kJ/mol
# Density = 1.869432 g / cm^3
# Si number density = 18.736963 Si / 1000 Ang^3
#
#
#
# Elastic Constant Matrix: (Units=GPa)
#
#
# Indices 1 2 3 4 5 6 
#
# 1 71.0325 51.8829 29.3216 0.0000 0.0000 0.0000
# 2 51.8829 145.8042 59.6698 0.0000 0.0000 0.0000
# 3 29.3216 59.6698 112.1397 0.0000 0.0000 0.0000
# 4 0.0000 0.0000 0.0000 26.6798 0.0000 0.0000
# 5 0.0000 0.0000 0.0000 0.0000 4.7468 0.0000
# 6 0.0000 0.0000 0.0000 0.0000 0.0000 2.6535
#
#
#
# Elastic Compliance Matrix: (Units=1/GPa)
#
#
# Indices 1 2 3 4 5 6 
#
# 1 0.019296 -0.006138 -0.001779 0.000000 0.000000 0.000000
# 2 -0.006138 0.010720 -0.004099 0.000000 0.000000 0.000000
# 3 -0.001779 -0.004099 0.011564 0.000000 0.000000 0.000000
# 4 0.000000 0.000000 0.000000 0.037482 0.000000 0.000000
# 5 0.000000 0.000000 0.000000 0.000000 0.210670 0.000000
# 6 0.000000 0.000000 0.000000 0.000000 0.000000 0.376865
#
#
# Mechanical properties :
#
#
# Convention : Reuss Voigt Hill
#
# Bulk Modulus (GPa) = 56.99073 67.85835 62.42454
# Shear Modulus (GPa) = 7.17897 19.35615 13.26756
#
# Velocity S-wave (km/s) = 1.95953 3.21759 2.66389
# Velocity P-wave (km/s) = 5.96673 7.07805 6.54602
#
# Compressibility (1/GPa) = 0.01754671
#
# Stress axis : x y z
#
# Youngs Moduli (GPa) = 51.82463 93.28075 86.47549
#
# Poissons Ratio (x) = 0.57256 0.15386
# Poissons Ratio (y) = 0.31810 0.35450
# Poissons Ratio (z) = 0.09221 0.38239
#
# Static dielectric constant tensor:
#      x y z
#    x 2.892910 0.000000 0.000000 
#    y 0.000000 3.429460 0.000000 
#    z 0.000000 0.000000 3.453060 
# 
# 
# High freq. dielectric constant tensor:
#      x y z
#    x 1.671510 0.000000 0.000000 
#    y 0.000000 1.724680 0.000000 
#    z 0.000000 0.000000 1.726990 
# 
# From -- ./inp_files/2805.got.cif
#   From: 2010.03.12/outbox.cif.g09.slc.cpg/sg26_2_cif.got.tgz:2805.got - 2010.04.14 03:33:09.
