data_PCOD8167595
_publ_section_title
;
Structure prediction by ZEFSAII (Michael W. Deem and Ramdas Pophale) SiO2 
 PCOD8167595
Probable space group: P M C 21
;
_chemical_formula_sum "Si O2"
_cell_formula_units_Z 30
_cell_length_a 15.575426
_cell_length_b 19.886851
_cell_length_c 4.948380
_cell_angle_alpha 90.000000
_cell_angle_beta 90.000000
_cell_angle_gamma 90.000000
_cell_volume 1532.741783
_symmetry_space_group_name_H-M "P M C 21"
_symmetry_group_IT_number 26
_symmetry_cell_setting 'orthorhombic'
loop_
_space_group_symop_operation_xyz
x,y,z
-x,-y,1/2+z
-x,y,z
x,-y,1/2+z
loop_
_atom_site_type_symbol
_atom_site_label
_atom_site_fract_x
_atom_site_fract_y
_atom_site_fract_z
Si Si1 0.598840 0.958303 0.276940
Si Si2 0.728848 0.144882 0.589695
Si Si3 0.771784 0.730508 0.829000
Si Si4 0.402277 0.545730 0.314053
Si Si5 0.096077 0.544715 0.382744
Si Si6 0.754624 0.643652 0.327645
Si Si7 0.837158 0.858643 0.621687
Si Si8 0.000000 0.047605 0.148924
O O1 0.500000 0.940931 0.245432
O O2 0.644547 0.889657 0.200745
O O3 0.624506 0.980969 0.576436
O O4 0.703136 0.219860 0.481197
O O5 0.771331 0.105058 0.333694
O O6 0.799698 0.147900 0.823715
O O7 0.731921 0.697979 0.558993
O O8 0.850463 0.781434 0.740301
O O9 0.794729 0.674650 0.052572
O O10 0.500000 0.574041 0.281926
O O11 0.387145 0.516200 0.611250
O O12 0.332920 0.603944 0.259077
O O13 0.108648 0.481162 0.578840
O O14 0.169060 0.598675 0.450788
O O15 0.000000 0.575539 0.422165
O O16 0.920827 0.903201 0.606229
O O17 0.000000 0.014662 0.443442
#
# Coordination Sequence:
#
# PCOD8167595 Si02
#       8
#     4   4   4   4   4   4   4   2
#     4  10  21  35  57  88 112 138 186 237 281 344
#     4  10  20  40  59  77 115 157 181 231 294 335
#     4  10  22  39  56  82 113 151 197 227 270 344
#     4  10  21  37  58  87 118 149 189 245 306 350
#     4  10  21  37  56  84 116 143 183 239 289 330
#     4  12  20  37  61  83 113 152 198 235 277 351
#     4  10  22  42  58  82 120 152 185 247 287 335
#     4  12  26  40  64  94 118 148 202 246 298 358
#
# _framework density 19.572769000000001
#
# number of rings (size 3 to 8) (size 9 to 14) (size 15 to 20)
#    0.800    0.800    1.333    4.000    0.000    3.200 
#    2.400    1.333    0.000    0.000    0.000    0.000 
#    0.000    0.000    0.000    0.000    0.000    0.000 
#
# Total GULP energy -371689.936249 kJ/mol
# GULP energy per Si atom -12389.664542 kJ/mol
# Density = 1.952822 g / cm^3
# Si number density = 19.572769 Si / 1000 Ang^3
#
#
#
# Elastic Constant Matrix: (Units=GPa)
#
#
# Indices 1 2 3 4 5 6 
#
# 1 91.2442 54.0491 22.7539 0.0000 0.0000 0.0000
# 2 54.0491 86.5622 18.3878 0.0000 0.0000 0.0000
# 3 22.7539 18.3878 91.0117 0.0000 0.0000 0.0000
# 4 0.0000 0.0000 0.0000 49.7525 0.0000 0.0000
# 5 0.0000 0.0000 0.0000 0.0000 22.8521 0.0000
# 6 0.0000 0.0000 0.0000 0.0000 0.0000 -33.1000
#
#
#
# Elastic Compliance Matrix: (Units=1/GPa)
#
#
# Indices 1 2 3 4 5 6 
#
# 1 0.017845 -0.010652 -0.002309 0.000000 0.000000 0.000000
# 2 -0.010652 0.018429 -0.001060 0.000000 0.000000 0.000000
# 3 -0.002309 -0.001060 0.011779 0.000000 0.000000 0.000000
# 4 0.000000 0.000000 0.000000 0.020099 0.000000 0.000000
# 5 0.000000 0.000000 0.000000 0.000000 0.043760 0.000000
# 6 0.000000 0.000000 0.000000 0.000000 0.000000 -0.030212
#
#
# Mechanical properties :
#
#
# Convention : Reuss Voigt Hill
#
# Bulk Modulus (GPa) = 49.97503 51.02219 50.49861
# Shear Modulus (GPa) = 42.95021 19.47607 31.21314
#
# Velocity S-wave (km/s) = 4.68951 3.15788 3.99773
# Velocity P-wave (km/s) = 7.41015 6.27860 6.86772
#
# Compressibility (1/GPa) = 0.02000999
#
# Stress axis : x y z
#
# Youngs Moduli (GPa) = 56.03723 54.26337 84.89555
#
# Poissons Ratio (x) = 0.57801 0.19606
# Poissons Ratio (y) = 0.59691 0.09000
# Poissons Ratio (z) = 0.12941 0.05753
#
# Static dielectric constant tensor:
#      x y z
#    x 3.214650 0.000000 0.000000 
#    y 0.000000 3.437780 0.000000 
#    z 0.000000 0.000000 3.851140 
# 
# 
# High freq. dielectric constant tensor:
#      x y z
#    x 1.733650 0.000000 0.000000 
#    y 0.000000 1.750630 0.000000 
#    z 0.000000 0.000000 1.792300 
# 
# From -- ./inp_files/645.got.cif
#   From: 2010.03.12/outbox.cif.g09.slc.cpg/sg26_1_cif.got.tgz:645.got - 2010.04.14 03:33:09.
