data_PCOD8167130
_publ_section_title
;
Structure prediction by ZEFSAII (Michael W. Deem and Ramdas Pophale) SiO2 
 PCOD8167130
Probable space group: P M C 21
;
_chemical_formula_sum "Si O2"
_cell_formula_units_Z 32
_cell_length_a 9.022757
_cell_length_b 20.710138
_cell_length_c 9.247393
_cell_angle_alpha 90.000000
_cell_angle_beta 90.000000
_cell_angle_gamma 90.000000
_cell_volume 1727.991368
_symmetry_space_group_name_H-M "P M C 21"
_symmetry_group_IT_number 26
_symmetry_cell_setting 'orthorhombic'
loop_
_space_group_symop_operation_xyz
x,y,z
-x,-y,1/2+z
-x,y,z
x,-y,1/2+z
loop_
_atom_site_type_symbol
_atom_site_label
_atom_site_fract_x
_atom_site_fract_y
_atom_site_fract_z
Si Si1 0.176817 0.175227 0.578290
Si Si2 0.174944 0.945388 0.266334
Si Si3 0.663341 0.321600 0.280498
Si Si4 0.333678 0.303805 0.621838
Si Si5 0.172254 0.554470 0.810922
Si Si6 0.676763 0.179560 0.270355
Si Si7 0.823403 0.069975 0.094571
Si Si8 0.174183 0.430482 0.644207
O O1 0.231515 0.116824 0.679292
O O2 0.237446 0.240118 0.653855
O O3 0.245692 0.162387 0.421416
O O4 0.000000 0.179407 0.563656
O O5 0.229551 0.943037 0.431130
O O6 0.000000 0.946905 0.260054
O O7 0.234385 0.010476 0.191442
O O8 0.500000 0.336805 0.221271
O O9 0.662084 0.315248 0.452154
O O10 0.765141 0.381362 0.232666
O O11 0.719407 0.252555 0.220009
O O12 0.500000 0.295206 0.683564
O O13 0.256795 0.365635 0.696689
O O14 0.237091 0.489621 0.739131
O O15 0.000000 0.556764 0.780875
O O16 0.212832 0.553055 0.978929
O O17 0.500000 0.172991 0.289280
O O18 0.739644 0.133734 0.146616
O O19 0.000000 0.079994 0.105399
O O20 0.000000 0.419385 0.665998
#
# Coordination Sequence:
#
# PCOD8167130 Si02
#       8
#     4   4   4   4   4   4   4   4
#     4  10  18  32  55  79 101 131 168 210 256 302
#     4   9  19  34  55  80 103 129 168 211 251 297
#     4   8  16  30  47  66  93 125 159 197 238 286
#     4   9  17  30  48  72  99 129 165 205 244 295
#     4   9  17  29  47  69  93 120 157 200 241 285
#     4  10  20  34  51  76 105 133 167 208 251 302
#     4  10  19  35  56  77 101 132 168 207 249 297
#     4   9  17  30  47  69  95 125 160 202 248 294
#
# _framework density 18.518611
#
# number of rings (size 3 to 8) (size 9 to 14) (size 15 to 20)
#    0.000    2.750    0.000    2.625    0.000    6.000 
#    0.000    5.625    0.000    6.000    0.000    0.000 
#    0.000    0.000    0.000    0.000    0.000    0.000 
#
# Total GULP energy -396720.127989 kJ/mol
# GULP energy per Si atom -12397.504000 kJ/mol
# Density = 1.847646 g / cm^3
# Si number density = 18.518611 Si / 1000 Ang^3
#
#
#
# Elastic Constant Matrix: (Units=GPa)
#
#
# Indices 1 2 3 4 5 6 
#
# 1 57.0964 29.4306 18.6090 0.0000 0.0000 0.0000
# 2 29.4306 98.4237 19.9530 0.0000 0.0000 0.0000
# 3 18.6090 19.9530 51.0534 0.0000 0.0000 0.0000
# 4 0.0000 0.0000 0.0000 33.6330 0.0000 0.0000
# 5 0.0000 0.0000 0.0000 0.0000 13.0879 0.0000
# 6 0.0000 0.0000 0.0000 0.0000 0.0000 20.6934
#
#
#
# Elastic Compliance Matrix: (Units=1/GPa)
#
#
# Indices 1 2 3 4 5 6 
#
# 1 0.022274 -0.005446 -0.005990 0.000000 0.000000 0.000000
# 2 -0.005446 0.012366 -0.002848 0.000000 0.000000 0.000000
# 3 -0.005990 -0.002848 0.022884 0.000000 0.000000 0.000000
# 4 0.000000 0.000000 0.000000 0.029733 0.000000 0.000000
# 5 0.000000 0.000000 0.000000 0.000000 0.076406 0.000000
# 6 0.000000 0.000000 0.000000 0.000000 0.000000 0.048325
#
#
# Mechanical properties :
#
#
# Convention : Reuss Voigt Hill
#
# Bulk Modulus (GPa) = 34.53613 38.06206 36.29910
# Shear Modulus (GPa) = 19.98344 22.72160 21.35252
#
# Velocity S-wave (km/s) = 3.28853 3.50660 3.39931
# Velocity P-wave (km/s) = 5.75405 6.08219 5.92040
#
# Compressibility (1/GPa) = 0.02895519
#
# Stress axis : x y z
#
# Youngs Moduli (GPa) = 44.89586 80.86742 43.69892
#
# Poissons Ratio (x) = 0.44039 0.26177
# Poissons Ratio (y) = 0.24450 0.12445
# Poissons Ratio (z) = 0.26894 0.23030
#
# Static dielectric constant tensor:
#      x y z
#    x 3.324540 0.000000 0.000000 
#    y 0.000000 3.819100 0.000000 
#    z 0.000000 0.000000 3.187490 
# 
# 
# High freq. dielectric constant tensor:
#      x y z
#    x 1.705310 0.000000 0.000000 
#    y 0.000000 1.738320 0.000000 
#    z 0.000000 0.000000 1.685870 
# 
# From -- ./inp_files/3135.got.cif
#   From: 2010.03.12/outbox.cif.g09.slc.cpg/sg26_2_cif.got.tgz:3135.got - 2010.04.14 03:33:09.
