data_PCOD8167527
_publ_section_title
;
Structure prediction by ZEFSAII (Michael W. Deem and Ramdas Pophale) SiO2 
 PCOD8167527
Probable space group: P M C 21
;
_chemical_formula_sum "Si O2"
_cell_formula_units_Z 32
_cell_length_a 8.901627
_cell_length_b 9.753420
_cell_length_c 20.044194
_cell_angle_alpha 90.000000
_cell_angle_beta 90.000000
_cell_angle_gamma 90.000000
_cell_volume 1740.263117
_symmetry_space_group_name_H-M "P M C 21"
_symmetry_group_IT_number 26
_symmetry_cell_setting 'orthorhombic'
loop_
_space_group_symop_operation_xyz
x,y,z
-x,-y,1/2+z
-x,y,z
x,-y,1/2+z
loop_
_atom_site_type_symbol
_atom_site_label
_atom_site_fract_x
_atom_site_fract_y
_atom_site_fract_z
Si Si1 0.326108 0.153451 0.593260
Si Si2 0.673820 0.163173 0.086655
Si Si3 0.826848 0.849084 0.957189
Si Si4 0.174369 0.363198 0.344635
Si Si5 0.677063 0.352882 0.841646
Si Si6 0.825609 0.660699 0.201977
Si Si7 0.826166 0.165846 0.949831
Si Si8 0.171974 0.346399 0.192939
O O1 0.500000 0.190456 0.601873
O O2 0.274963 0.196050 0.519249
O O3 0.229816 0.236860 0.645849
O O4 0.293033 0.993731 0.605878
O O5 0.500000 0.184371 0.068736
O O6 0.716770 0.256445 0.149057
O O7 0.772144 0.208737 0.023434
O O8 0.779140 0.758126 0.894135
O O9 0.000000 0.825811 0.977043
O O10 0.797287 0.005589 0.937326
O O11 0.267961 0.497222 0.363665
O O12 0.210075 0.313516 0.269835
O O13 0.000000 0.403248 0.350633
O O14 0.500000 0.352851 0.837437
O O15 0.740428 0.307714 0.770298
O O16 0.728987 0.244041 0.895817
O O17 0.796322 0.505742 0.177800
O O18 0.000000 0.685649 0.215887
O O19 0.000000 0.205768 0.942484
O O20 0.000000 0.307934 0.176322
#
# Coordination Sequence:
#
# PCOD8167527 Si02
#       8
#     4   4   4   4   4   4   4   4
#     4  10  21  36  54  80 112 142 175 219 269 318
#     4  10  21  36  54  79 110 142 177 220 269 318
#     4   9  19  36  58  81 105 139 182 223 263 312
#     4   9  19  37  57  79 108 139 176 220 264 315
#     4  11  22  36  55  81 111 141 175 217 267 318
#     4  10  21  38  58  79 105 140 181 221 263 314
#     4  10  20  36  57  80 107 142 182 221 263 313
#     4   9  19  35  55  79 106 139 178 221 266 314
#
# _framework density 18.388023
#
# number of rings (size 3 to 8) (size 9 to 14) (size 15 to 20)
#    0.000    2.250    0.000    3.375    0.000    7.000 
#    0.000    2.500    0.000    0.000    0.000    0.000 
#    0.000    0.000    0.000    0.000    0.000    0.000 
#
# Total GULP energy -396941.728536 kJ/mol
# GULP energy per Si atom -12404.429017 kJ/mol
# Density = 1.834617 g / cm^3
# Si number density = 18.388023 Si / 1000 Ang^3
#
#
#
# Elastic Constant Matrix: (Units=GPa)
#
#
# Indices 1 2 3 4 5 6 
#
# 1 105.5066 55.0857 60.0412 0.0000 0.0000 0.0000
# 2 55.0857 86.2069 75.8983 0.0000 0.0000 0.0000
# 3 60.0412 75.8983 115.5651 0.0000 0.0000 0.0000
# 4 0.0000 0.0000 0.0000 34.6131 0.0000 0.0000
# 5 0.0000 0.0000 0.0000 0.0000 26.2352 0.0000
# 6 0.0000 0.0000 0.0000 0.0000 0.0000 16.6005
#
#
#
# Elastic Compliance Matrix: (Units=1/GPa)
#
#
# Indices 1 2 3 4 5 6 
#
# 1 0.014799 -0.006371 -0.003504 0.000000 0.000000 0.000000
# 2 -0.006371 0.030245 -0.016554 0.000000 0.000000 0.000000
# 3 -0.003504 -0.016554 0.021346 0.000000 0.000000 0.000000
# 4 0.000000 0.000000 0.000000 0.028891 0.000000 0.000000
# 5 0.000000 0.000000 0.000000 0.000000 0.038117 0.000000
# 6 0.000000 0.000000 0.000000 0.000000 0.000000 0.060239
#
#
# Mechanical properties :
#
#
# Convention : Reuss Voigt Hill
#
# Bulk Modulus (GPa) = 73.90272 76.59212 75.24742
# Shear Modulus (GPa) = 19.91988 23.23998 21.57993
#
# Velocity S-wave (km/s) = 3.29493 3.55894 3.42948
# Velocity P-wave (km/s) = 7.39955 7.65714 7.52945
#
# Compressibility (1/GPa) = 0.01353130
#
# Stress axis : x y z
#
# Youngs Moduli (GPa) = 67.57379 33.06289 46.84766
#
# Poissons Ratio (x) = 0.21064 0.16417
# Poissons Ratio (y) = 0.43050 0.77551
# Poissons Ratio (z) = 0.23681 0.54732
#
# Static dielectric constant tensor:
#      x y z
#    x 3.439850 0.000000 0.000000 
#    y 0.000000 3.369650 0.000000 
#    z 0.000000 0.000000 3.437910 
# 
# 
# High freq. dielectric constant tensor:
#      x y z
#    x 1.720580 0.000000 0.000000 
#    y 0.000000 1.710880 0.000000 
#    z 0.000000 0.000000 1.718020 
# 
# From -- ./inp_files/5345.got.cif
#   From: 2010.03.12/outbox.cif.g09.slc.cpg/sg26_3_cif.got.tgz:5345.got - 2010.04.14 03:33:09.
