data_PCOD8167705
_publ_section_title
;
Structure prediction by ZEFSAII (Michael W. Deem and Ramdas Pophale) SiO2 
 PCOD8167705
Probable space group: P M C 21
;
_chemical_formula_sum "Si O2"
_cell_formula_units_Z 32
_cell_length_a 9.311590
_cell_length_b 12.188998
_cell_length_c 14.904812
_cell_angle_alpha 90.000000
_cell_angle_beta 90.000000
_cell_angle_gamma 90.000000
_cell_volume 1691.680540
_symmetry_space_group_name_H-M "P M C 21"
_symmetry_group_IT_number 26
_symmetry_cell_setting 'orthorhombic'
loop_
_space_group_symop_operation_xyz
x,y,z
-x,-y,1/2+z
-x,y,z
x,-y,1/2+z
loop_
_atom_site_type_symbol
_atom_site_label
_atom_site_fract_x
_atom_site_fract_y
_atom_site_fract_z
Si Si1 0.329982 0.379450 0.235900
Si Si2 0.830760 0.392976 0.742359
Si Si3 0.333990 0.015391 0.898688
Si Si4 0.837724 0.238954 0.098776
Si Si5 0.838501 0.002989 0.073937
Si Si6 0.666979 0.772474 0.899216
Si Si7 0.165252 0.778841 0.388599
Si Si8 0.835740 0.762087 0.082249
O O1 0.500000 0.390440 0.227319
O O2 0.259781 0.497415 0.242257
O O3 0.273209 0.317276 0.148178
O O4 0.283195 0.313331 0.324313
O O5 0.788389 0.327717 0.832468
O O6 0.780200 0.321924 0.656847
O O7 0.000000 0.419189 0.738840
O O8 0.500000 0.045583 0.892943
O O9 0.301375 0.894219 0.858762
O O10 0.248403 0.113898 0.850692
O O11 0.285929 0.008766 0.001282
O O12 0.000000 0.281038 0.116143
O O13 0.820734 0.112530 0.134830
O O14 0.801526 0.243121 0.992902
O O15 0.820073 0.886009 0.123751
O O16 0.000000 0.008617 0.030172
O O17 0.500000 0.760746 0.922240
O O18 0.750137 0.746401 0.990439
O O19 0.000000 0.804535 0.370953
O O20 0.000000 0.737055 0.058620
#
# Coordination Sequence:
#
# PCOD8167705 Si02
#       8
#     4   4   4   4   4   4   4   4
#     4  11  24  39  53  73 104 142 184 223 258 304
#     4  10  22  39  56  77 105 137 178 223 264 309
#     4   9  16  29  52  80 108 136 169 210 257 312
#     4   9  18  34  56  81 108 137 170 211 259 310
#     4   8  15  30  52  80 110 135 165 207 259 318
#     4   9  20  37  54  77 110 142 172 212 262 312
#     4   9  19  36  57  80 108 139 170 212 264 315
#     4   9  18  34  58  84 107 134 170 214 263 314
#
# _framework density 18.9161
#
# number of rings (size 3 to 8) (size 9 to 14) (size 15 to 20)
#    0.000    2.750    0.000    1.500    0.000    6.500 
#    0.000    5.000    0.000    0.000    0.000    0.000 
#    0.000    0.000    0.000    0.000    0.000    0.000 
#
# Total GULP energy -396574.439020 kJ/mol
# GULP energy per Si atom -12392.951219 kJ/mol
# Density = 1.887305 g / cm^3
# Si number density = 18.916100 Si / 1000 Ang^3
#
#
#
# Elastic Constant Matrix: (Units=GPa)
#
#
# Indices 1 2 3 4 5 6 
#
# 1 75.4845 76.0530 49.8896 0.0000 0.0000 0.0000
# 2 76.0530 180.0903 73.8854 0.0000 0.0000 0.0000
# 3 49.8896 73.8854 87.7984 0.0000 0.0000 0.0000
# 4 0.0000 0.0000 0.0000 32.8693 0.0000 0.0000
# 5 0.0000 0.0000 0.0000 0.0000 18.2365 0.0000
# 6 0.0000 0.0000 0.0000 0.0000 0.0000 34.5414
#
#
#
# Elastic Compliance Matrix: (Units=1/GPa)
#
#
# Indices 1 2 3 4 5 6 
#
# 1 0.026815 -0.007748 -0.008717 0.000000 0.000000 0.000000
# 2 -0.007748 0.010719 -0.004618 0.000000 0.000000 0.000000
# 3 -0.008717 -0.004618 0.020229 0.000000 0.000000 0.000000
# 4 0.000000 0.000000 0.000000 0.030424 0.000000 0.000000
# 5 0.000000 0.000000 0.000000 0.000000 0.054835 0.000000
# 6 0.000000 0.000000 0.000000 0.000000 0.000000 0.028951
#
#
# Mechanical properties :
#
#
# Convention : Reuss Voigt Hill
#
# Bulk Modulus (GPa) = 64.11176 82.55880 73.33528
# Shear Modulus (GPa) = 22.79571 26.69912 24.74741
#
# Velocity S-wave (km/s) = 3.47521 3.76100 3.62093
# Velocity P-wave (km/s) = 7.07595 7.91199 7.50562
#
# Compressibility (1/GPa) = 0.01559776
#
# Stress axis : x y z
#
# Youngs Moduli (GPa) = 37.29199 93.28843 49.43285
#
# Poissons Ratio (x) = 0.72279 0.43092
# Poissons Ratio (y) = 0.28893 0.22829
# Poissons Ratio (z) = 0.32508 0.43083
#
# Static dielectric constant tensor:
#      x y z
#    x 3.412420 0.000000 0.000000 
#    y 0.000000 3.754250 0.000000 
#    z 0.000000 0.000000 3.230200 
# 
# 
# High freq. dielectric constant tensor:
#      x y z
#    x 1.732050 0.000000 0.000000 
#    y 0.000000 1.747250 0.000000 
#    z 0.000000 0.000000 1.709380 
# 
# From -- ./inp_files/4267.got.cif
#   From: 2010.03.12/outbox.cif.g09.slc.cpg/sg26_3_cif.got.tgz:4267.got - 2010.04.14 03:33:09.
