data_PCOD8167276
_publ_section_title
;
Structure prediction by ZEFSAII (Michael W. Deem and Ramdas Pophale) SiO2 
 PCOD8167276
Probable space group: P M C 21
;
_chemical_formula_sum "Si O2"
_cell_formula_units_Z 32
_cell_length_a 8.899754
_cell_length_b 11.829343
_cell_length_c 14.380407
_cell_angle_alpha 90.000000
_cell_angle_beta 90.000000
_cell_angle_gamma 90.000000
_cell_volume 1513.943978
_symmetry_space_group_name_H-M "P M C 21"
_symmetry_group_IT_number 26
_symmetry_cell_setting 'orthorhombic'
loop_
_space_group_symop_operation_xyz
x,y,z
-x,-y,1/2+z
-x,y,z
x,-y,1/2+z
loop_
_atom_site_type_symbol
_atom_site_label
_atom_site_fract_x
_atom_site_fract_y
_atom_site_fract_z
Si Si1 0.825751 0.007178 0.894070
Si Si2 0.823687 0.782794 0.790806
Si Si3 0.176766 0.427448 0.766828
Si Si4 0.672242 0.319643 0.458767
Si Si5 0.824794 0.826375 0.238534
Si Si6 0.329948 0.087617 0.564203
Si Si7 0.176311 0.540565 0.481885
Si Si8 0.678043 0.369462 0.152492
O O1 0.772957 0.906336 0.825232
O O2 0.000000 0.991725 0.916663
O O3 0.789971 0.124668 0.841870
O O4 0.742036 0.002601 0.993006
O O5 0.778019 0.691771 0.868831
O O6 0.731901 0.748175 0.698937
O O7 0.000000 0.773935 0.770729
O O8 0.229793 0.303142 0.732282
O O9 0.267471 0.522276 0.711848
O O10 0.000000 0.446327 0.749629
O O11 0.214900 0.430188 0.876026
O O12 0.500000 0.339927 0.427981
O O13 0.686868 0.212619 0.524270
O O14 0.739538 0.425772 0.513851
O O15 0.747950 0.909646 0.164296
O O16 0.000000 0.834251 0.218311
O O17 0.500000 0.050150 0.578556
O O18 0.246282 0.633916 0.550568
O O19 0.000000 0.529242 0.499952
O O20 0.500000 0.372169 0.144176
#
# Coordination Sequence:
#
# PCOD8167276 Si02
#       8
#     4   4   4   4   4   4   4   4
#     4   9  20  39  63  87 113 150 197 248 291 339
#     4  10  19  35  58  82 109 145 191 239 290 340
#     4  10  22  40  62  88 119 155 196 244 294 350
#     4  10  19  33  55  84 116 150 190 237 286 341
#     4  10  21  40  63  88 117 153 199 245 292 346
#     4  10  21  36  58  89 120 154 195 239 294 351
#     4  11  22  36  56  83 118 158 196 236 288 350
#     4  12  24  37  57  85 120 157 194 240 293 353
#
# _framework density 21.136845999999998
#
# number of rings (size 3 to 8) (size 9 to 14) (size 15 to 20)
#    0.000    1.750    1.250    3.375    0.000    5.500 
#    2.250    0.000    0.000    0.000    0.000    0.000 
#    0.000    0.000    0.000    0.000    0.000    0.000 
#
# Total GULP energy -396825.375502 kJ/mol
# GULP energy per Si atom -12400.792984 kJ/mol
# Density = 2.108874 g / cm^3
# Si number density = 21.136846 Si / 1000 Ang^3
#
#
#
# Elastic Constant Matrix: (Units=GPa)
#
#
# Indices 1 2 3 4 5 6 
#
# 1 93.4267 16.3955 34.7555 0.0000 0.0000 0.0000
# 2 16.3955 33.4091 -2.1020 0.0000 0.0000 0.0000
# 3 34.7555 -2.1020 81.2024 0.0000 0.0000 0.0000
# 4 0.0000 0.0000 0.0000 23.3776 0.0000 0.0000
# 5 0.0000 0.0000 0.0000 0.0000 24.6699 0.0000
# 6 0.0000 0.0000 0.0000 0.0000 0.0000 20.7744
#
#
#
# Elastic Compliance Matrix: (Units=1/GPa)
#
#
# Indices 1 2 3 4 5 6 
#
# 1 0.014371 -0.007452 -0.006344 0.000000 0.000000 0.000000
# 2 -0.007452 0.033845 0.004066 0.000000 0.000000 0.000000
# 3 -0.006344 0.004066 0.015135 0.000000 0.000000 0.000000
# 4 0.000000 0.000000 0.000000 0.042776 0.000000 0.000000
# 5 0.000000 0.000000 0.000000 0.000000 0.040535 0.000000
# 6 0.000000 0.000000 0.000000 0.000000 0.000000 0.048136
#
#
# Mechanical properties :
#
#
# Convention : Reuss Voigt Hill
#
# Bulk Modulus (GPa) = 22.78371 34.01513 28.39942
# Shear Modulus (GPa) = 21.84457 24.36366 23.10411
#
# Velocity S-wave (km/s) = 3.21827 3.39877 3.30975
# Velocity P-wave (km/s) = 4.96107 5.61515 5.29822
#
# Compressibility (1/GPa) = 0.04389102
#
# Stress axis : x y z
#
# Youngs Moduli (GPa) = 69.58297 29.54666 66.07002
#
# Poissons Ratio (x) = 0.22018 0.41915
# Poissons Ratio (y) = 0.51852 -0.26861
# Poissons Ratio (z) = 0.44143 -0.12012
#
# Static dielectric constant tensor:
#      x y z
#    x 3.743920 0.000000 0.000000 
#    y 0.000000 3.775260 0.000000 
#    z 0.000000 0.000000 3.891560 
# 
# 
# High freq. dielectric constant tensor:
#      x y z
#    x 1.824150 0.000000 0.000000 
#    y 0.000000 1.816380 0.000000 
#    z 0.000000 0.000000 1.832110 
# 
# From -- ./inp_files/4231.got.cif
#   From: 2010.03.12/outbox.cif.g09.slc.cpg/sg26_3_cif.got.tgz:4231.got - 2010.04.14 03:33:09.
