data_PCOD8167095
_publ_section_title
;
Structure prediction by ZEFSAII (Michael W. Deem and Ramdas Pophale) SiO2 
 PCOD8167095
Probable space group: P M C 21
;
_chemical_formula_sum "Si O2"
_cell_formula_units_Z 32
_cell_length_a 9.014862
_cell_length_b 9.567667
_cell_length_c 21.724087
_cell_angle_alpha 90.000000
_cell_angle_beta 90.000000
_cell_angle_gamma 90.000000
_cell_volume 1873.728522
_symmetry_space_group_name_H-M "P M C 21"
_symmetry_group_IT_number 26
_symmetry_cell_setting 'orthorhombic'
loop_
_space_group_symop_operation_xyz
x,y,z
-x,-y,1/2+z
-x,y,z
x,-y,1/2+z
loop_
_atom_site_type_symbol
_atom_site_label
_atom_site_fract_x
_atom_site_fract_y
_atom_site_fract_z
Si Si1 0.168239 0.686487 0.552950
Si Si2 0.175324 0.811923 0.316283
Si Si3 0.329154 0.311083 0.181198
Si Si4 0.669292 0.293068 0.377675
Si Si5 0.669657 0.466335 0.780134
Si Si6 0.675595 0.749268 0.436175
Si Si7 0.168115 0.480698 0.454452
Si Si8 0.673992 0.077186 0.278610
O O1 0.233858 0.694365 0.619984
O O2 0.257670 0.785178 0.504032
O O3 0.175626 0.525089 0.526848
O O4 0.000000 0.740398 0.554931
O O5 0.222802 0.665843 0.285702
O O6 0.253777 0.843006 0.382247
O O7 0.000000 0.814817 0.324351
O O8 0.229322 0.937135 0.271746
O O9 0.500000 0.293994 0.163003
O O10 0.303344 0.460187 0.214019
O O11 0.279514 0.182541 0.224306
O O12 0.500000 0.291039 0.399087
O O13 0.704576 0.415291 0.329672
O O14 0.768953 0.325758 0.438780
O O15 0.710821 0.147776 0.344982
O O16 0.500000 0.414021 0.786458
O O17 0.500000 0.766644 0.436922
O O18 0.725737 0.591003 0.417808
O O19 0.000000 0.494286 0.430086
O O20 0.500000 0.042410 0.274412
#
# Coordination Sequence:
#
# PCOD8167095 Si02
#       8
#     4   4   4   4   4   4   4   4
#     4   9  18  30  47  75 104 129 161 206 253 300
#     4  12  22  32  48  76 105 134 169 208 259 306
#     4   9  18  33  53  76  98 130 173 208 245 296
#     4   9  16  29  50  73  96 128 164 199 243 293
#     4   9  17  30  50  72  96 127 163 205 243 288
#     4  10  18  30  50  72  96 129 165 206 246 291
#     4   9  17  27  44  74 102 124 153 200 249 294
#     4   9  20  35  50  72 103 137 172 208 246 298
#
# _framework density 17.078247000000001
#
# number of rings (size 3 to 8) (size 9 to 14) (size 15 to 20)
#    0.750    1.750    1.250    4.125    0.000    1.500 
#    0.000    2.500    0.000    1.500    0.000    5.250 
#    0.000    0.000    0.000    0.000    0.000    0.000 
#
# Total GULP energy -396432.045037 kJ/mol
# GULP energy per Si atom -12388.501407 kJ/mol
# Density = 1.703938 g / cm^3
# Si number density = 17.078247 Si / 1000 Ang^3
#
#
#
# Elastic Constant Matrix: (Units=GPa)
#
#
# Indices 1 2 3 4 5 6 
#
# 1 120.8498 38.8949 48.8031 0.0000 0.0000 0.0000
# 2 38.8949 65.5628 24.7299 0.0000 0.0000 0.0000
# 3 48.8031 24.7299 75.6843 0.0000 0.0000 0.0000
# 4 0.0000 0.0000 0.0000 15.8929 0.0000 0.0000
# 5 0.0000 0.0000 0.0000 0.0000 28.4551 0.0000
# 6 0.0000 0.0000 0.0000 0.0000 0.0000 17.4418
#
#
#
# Elastic Compliance Matrix: (Units=1/GPa)
#
#
# Indices 1 2 3 4 5 6 
#
# 1 0.012466 -0.004977 -0.006412 0.000000 0.000000 0.000000
# 2 -0.004977 0.019383 -0.003124 0.000000 0.000000 0.000000
# 3 -0.006412 -0.003124 0.018368 0.000000 0.000000 0.000000
# 4 0.000000 0.000000 0.000000 0.062921 0.000000 0.000000
# 5 0.000000 0.000000 0.000000 0.000000 0.035143 0.000000
# 6 0.000000 0.000000 0.000000 0.000000 0.000000 0.057334
#
#
# Mechanical properties :
#
#
# Convention : Reuss Voigt Hill
#
# Bulk Modulus (GPa) = 47.18959 54.10587 50.64773
# Shear Modulus (GPa) = 20.68627 22.33588 21.51107
#
# Velocity S-wave (km/s) = 3.48410 3.62035 3.55288
# Velocity P-wave (km/s) = 6.62394 7.01611 6.82285
#
# Compressibility (1/GPa) = 0.02119111
#
# Stress axis : x y z
#
# Youngs Moduli (GPa) = 80.21868 51.59028 54.44118
#
# Poissons Ratio (x) = 0.25675 0.34909
# Poissons Ratio (y) = 0.39923 0.17010
# Poissons Ratio (z) = 0.51438 0.16119
#
# Static dielectric constant tensor:
#      x y z
#    x 3.141570 0.000000 0.000000 
#    y 0.000000 3.006140 0.000000 
#    z 0.000000 0.000000 3.067960 
# 
# 
# High freq. dielectric constant tensor:
#      x y z
#    x 1.664370 0.000000 0.000000 
#    y 0.000000 1.628240 0.000000 
#    z 0.000000 0.000000 1.640520 
# 
# From -- ./inp_files/5590.got.cif
#   From: 2010.03.12/outbox.cif.g09.slc.cpg/sg26_3_cif.got.tgz:5590.got - 2010.04.14 03:33:09.
