data_PCOD8167407
_publ_section_title
;
Structure prediction by ZEFSAII (Michael W. Deem and Ramdas Pophale) SiO2 
 PCOD8167407
Probable space group: P M C 21
;
_chemical_formula_sum "Si O2"
_cell_formula_units_Z 24
_cell_length_a 8.312685
_cell_length_b 9.430229
_cell_length_c 15.245721
_cell_angle_alpha 90.000000
_cell_angle_beta 90.000000
_cell_angle_gamma 90.000000
_cell_volume 1195.120045
_symmetry_space_group_name_H-M "P M C 21"
_symmetry_group_IT_number 26
_symmetry_cell_setting 'orthorhombic'
loop_
_space_group_symop_operation_xyz
x,y,z
-x,-y,1/2+z
-x,y,z
x,-y,1/2+z
loop_
_atom_site_type_symbol
_atom_site_label
_atom_site_fract_x
_atom_site_fract_y
_atom_site_fract_z
Si Si1 0.809195 0.848283 0.554200
Si Si2 0.685296 0.341171 0.404969
Si Si3 0.190451 0.653172 0.397940
Si Si4 0.313286 0.641461 0.211530
Si Si5 0.813458 0.168583 0.560745
Si Si6 0.811460 0.663998 0.715933
O O1 0.745593 0.768624 0.467366
O O2 0.745373 0.768262 0.640729
O O3 0.000000 0.844616 0.553130
O O4 0.745863 0.008813 0.553936
O O5 0.500000 0.315524 0.427783
O O6 0.728162 0.504342 0.421327
O O7 0.792570 0.243472 0.467392
O O8 0.719279 0.297273 0.304974
O O9 0.242570 0.705454 0.301632
O O10 0.000000 0.632825 0.402043
O O11 0.500000 0.606513 0.224427
O O12 0.289474 0.754153 0.134985
O O13 0.221741 0.497012 0.186260
O O14 0.000000 0.170720 0.587726
O O15 0.000000 0.683564 0.732184
#
# Coordination Sequence:
#
# PCOD8167407 Si02
#       6
#     4   4   4   4   4   4
#     4   9  21  37  58  84 110 141 188 235 274 322
#     4  11  22  37  56  85 116 146 183 230 279 331
#     4  10  19  37  62  86 109 145 189 232 276 327
#     4  11  22  37  56  85 116 146 183 230 279 331
#     4  11  22  39  58  80 110 149 188 229 276 332
#     4  10  19  37  62  86 109 145 189 232 276 327
#
# _framework density 20.081665999999998
#
# number of rings (size 3 to 8) (size 9 to 14) (size 15 to 20)
#    0.000    1.667    0.000    7.500    0.000    2.667 
#    0.000   15.833    0.000    0.000    0.000    0.000 
#    0.000    0.000    0.000    0.000    0.000    0.000 
#
# Total GULP energy -297713.173441 kJ/mol
# GULP energy per Si atom -12404.715560 kJ/mol
# Density = 2.003596 g / cm^3
# Si number density = 20.081666 Si / 1000 Ang^3
#
#
#
# Elastic Constant Matrix: (Units=GPa)
#
#
# Indices 1 2 3 4 5 6 
#
# 1 62.0583 1.8038 5.7909 0.0000 0.0000 0.0000
# 2 1.8038 121.7449 87.9042 0.0000 0.0000 0.0000
# 3 5.7909 87.9042 138.9315 0.0000 0.0000 0.0000
# 4 0.0000 0.0000 0.0000 11.7479 0.0000 0.0000
# 5 0.0000 0.0000 0.0000 0.0000 20.0461 0.0000
# 6 0.0000 0.0000 0.0000 0.0000 0.0000 3.2921
#
#
#
# Elastic Compliance Matrix: (Units=1/GPa)
#
#
# Indices 1 2 3 4 5 6 
#
# 1 0.016191 0.000455 -0.000963 0.000000 0.000000 0.000000
# 2 0.000455 0.015135 -0.009595 0.000000 0.000000 0.000000
# 3 -0.000963 -0.009595 0.013309 0.000000 0.000000 0.000000
# 4 0.000000 0.000000 0.000000 0.085121 0.000000 0.000000
# 5 0.000000 0.000000 0.000000 0.000000 0.049885 0.000000
# 6 0.000000 0.000000 0.000000 0.000000 0.000000 0.303756
#
#
# Mechanical properties :
#
#
# Convention : Reuss Voigt Hill
#
# Bulk Modulus (GPa) = 40.93484 57.08139 49.00811
# Shear Modulus (GPa) = 9.77047 22.16629 15.96838
#
# Velocity S-wave (km/s) = 2.20815 3.32596 2.82294
# Velocity P-wave (km/s) = 5.18938 6.57539 5.92306
#
# Compressibility (1/GPa) = 0.02442907
#
# Stress axis : x y z
#
# Youngs Moduli (GPa) = 61.76459 66.07048 75.13668
#
# Poissons Ratio (x) = -0.03009 0.07236
# Poissons Ratio (y) = -0.02813 0.72096
# Poissons Ratio (z) = 0.05948 0.63397
#
# Static dielectric constant tensor:
#      x y z
#    x 3.474320 0.000000 0.000000 
#    y 0.000000 3.707580 0.000000 
#    z 0.000000 0.000000 3.821760 
# 
# 
# High freq. dielectric constant tensor:
#      x y z
#    x 1.779030 0.000000 0.000000 
#    y 0.000000 1.775870 0.000000 
#    z 0.000000 0.000000 1.797120 
# 
# From -- ./inp_files/3942.got.cif
#   From: 2010.03.12/outbox.cif.g09.slc.cpg/sg26_2_cif.got.tgz:3942.got - 2010.04.14 03:33:09.
