data_PCOD8167954
_publ_section_title
;
Structure prediction by ZEFSAII (Michael W. Deem and Ramdas Pophale) SiO2 
 PCOD8167954
Probable space group: P C C 2
;
_chemical_formula_sum "Si O2"
_cell_formula_units_Z 32
_cell_length_a 14.689956
_cell_length_b 11.655830
_cell_length_c 8.570034
_cell_angle_alpha 90.000000
_cell_angle_beta 90.000000
_cell_angle_gamma 90.000000
_cell_volume 1467.392329
_symmetry_space_group_name_H-M "P C C 2"
_symmetry_group_IT_number 27
_symmetry_cell_setting 'orthorhombic'
loop_
_space_group_symop_operation_xyz
x,y,z
-x,-y,z
-x,y,1/2+z
x,-y,1/2+z
loop_
_atom_site_type_symbol
_atom_site_label
_atom_site_fract_x
_atom_site_fract_y
_atom_site_fract_z
Si Si1 0.406434 0.250526 0.352800
Si Si2 0.399318 0.709821 0.491670
Si Si3 0.886566 0.265880 0.861441
Si Si4 0.077795 0.287889 0.723282
Si Si5 0.685844 0.481390 0.950148
Si Si6 0.245094 0.850040 0.321865
Si Si7 0.182088 0.504302 0.711800
Si Si8 0.738838 0.092445 0.962592
O O1 0.510518 0.252434 0.402821
O O2 0.353875 0.353267 0.442428
O O3 0.360073 0.131267 0.402152
O O4 0.400449 0.248184 0.167545
O O5 0.390325 0.571385 0.505795
O O6 0.316388 0.760361 0.392145
O O7 0.839906 0.366507 0.761829
O O8 0.817221 0.159449 0.865472
O O9 0.979172 0.240697 0.768402
O O10 0.912530 0.290777 0.038179
O O11 0.146369 0.208111 0.819551
O O12 0.099819 0.420871 0.766650
O O13 0.717215 0.524957 0.779988
O O14 0.787208 0.485745 0.032310
O O15 0.244317 0.958943 0.435102
O O16 0.265534 0.885873 0.145971
#
# Coordination Sequence:
#
# PCOD8167954 Si02
#       8
#     4   4   4   4   4   4   4   4
#     4  12  26  43  67 101 136 175 224 273 333 401
#     4  12  26  42  68 100 134 178 220 276 333 400
#     4  11  25  42  65  98 136 175 223 276 332 400
#     4  11  25  41  65  98 134 177 221 276 333 397
#     4  12  23  40  69  95 137 177 217 267 328 393
#     4  11  25  46  71  94 129 173 223 282 341 399
#     4  12  22  41  66  97 135 179 218 268 329 392
#     4  11  24  47  69  95 129 172 224 282 339 400
#
# _framework density 21.807390999999999
#
# number of rings (size 3 to 8) (size 9 to 14) (size 15 to 20)
#    0.000    0.500    5.000    3.000    3.500    5.000 
#    0.000    5.000    0.000    0.000    0.000    0.000 
#    0.000    0.000    0.000    0.000    0.000    0.000 
#
# Total GULP energy -396605.430973 kJ/mol
# GULP energy per Si atom -12393.919718 kJ/mol
# Density = 2.175776 g / cm^3
# Si number density = 21.807391 Si / 1000 Ang^3
#
#
#
# Elastic Constant Matrix: (Units=GPa)
#
#
# Indices 1 2 3 4 5 6 
#
# 1 114.7208 24.4019 40.8994 0.0000 0.0000 0.0000
# 2 24.4019 96.4942 29.0853 0.0000 0.0000 0.0000
# 3 40.8994 29.0853 80.0624 0.0000 0.0000 0.0000
# 4 0.0000 0.0000 0.0000 30.8977 0.0000 0.0000
# 5 0.0000 0.0000 0.0000 0.0000 39.6873 0.0000
# 6 0.0000 0.0000 0.0000 0.0000 0.0000 16.5915
#
#
#
# Elastic Compliance Matrix: (Units=1/GPa)
#
#
# Indices 1 2 3 4 5 6 
#
# 1 0.010780 -0.001197 -0.005072 0.000000 0.000000 0.000000
# 2 -0.001197 0.011771 -0.003664 0.000000 0.000000 0.000000
# 3 -0.005072 -0.003664 0.016412 0.000000 0.000000 0.000000
# 4 0.000000 0.000000 0.000000 0.032365 0.000000 0.000000
# 5 0.000000 0.000000 0.000000 0.000000 0.025197 0.000000
# 6 0.000000 0.000000 0.000000 0.000000 0.000000 0.060272
#
#
# Mechanical properties :
#
#
# Convention : Reuss Voigt Hill
#
# Bulk Modulus (GPa) = 52.36792 53.33896 52.85344
# Shear Modulus (GPa) = 27.31813 30.56135 28.93974
#
# Velocity S-wave (km/s) = 3.54319 3.74762 3.64684
# Velocity P-wave (km/s) = 6.38787 6.57559 6.48241
#
# Compressibility (1/GPa) = 0.01909566
#
# Stress axis : x y z
#
# Youngs Moduli (GPa) = 92.76751 84.95718 60.92965
#
# Poissons Ratio (x) = 0.10172 0.30902
# Poissons Ratio (y) = 0.11107 0.22327
# Poissons Ratio (z) = 0.47050 0.31132
#
# Static dielectric constant tensor:
#      x y z
#    x 4.110960 0.000000 0.000000 
#    y 0.000000 3.852670 0.000000 
#    z 0.000000 0.000000 4.053660 
# 
# 
# High freq. dielectric constant tensor:
#      x y z
#    x 1.860090 0.000000 0.000000 
#    y 0.000000 1.847430 0.000000 
#    z 0.000000 0.000000 1.878400 
# 
# From -- ./inp_files/1618.got.cif
#   From: 2010.03.12/outbox.cif.g09.slc.cpg/sg27_1_cif.got.tgz:1618.got - 2010.04.14 03:36:05.
