data_PCOD8167987
_publ_section_title
;
Structure prediction by ZEFSAII (Michael W. Deem and Ramdas Pophale) SiO2 
 PCOD8167987
Probable space group: P M A 2
;
_chemical_formula_sum "Si O2"
_cell_formula_units_Z 32
_cell_length_a 8.800520
_cell_length_b 15.267189
_cell_length_c 15.063186
_cell_angle_alpha 90.000000
_cell_angle_beta 90.000000
_cell_angle_gamma 90.000000
_cell_volume 2023.877653
_symmetry_space_group_name_H-M "P M A 2"
_symmetry_group_IT_number 28
_symmetry_cell_setting 'orthorhombic'
loop_
_space_group_symop_operation_xyz
x,y,z
-x,-y,z
1/2-x,y,z
1/2+x,-y,z
loop_
_atom_site_type_symbol
_atom_site_label
_atom_site_fract_x
_atom_site_fract_y
_atom_site_fract_z
Si Si1 0.924578 0.263572 0.735230
Si Si2 0.073249 0.405502 0.418898
Si Si3 0.426047 0.405553 0.614208
Si Si4 0.569648 0.595704 0.068423
Si Si5 0.425620 0.733956 0.944322
Si Si6 0.579629 0.913296 0.735114
Si Si7 0.569229 0.403025 0.247154
Si Si8 0.421527 0.087593 0.946421
O O1 0.750000 0.265632 0.708589
O O2 0.949744 0.274350 0.839647
O O3 0.007705 0.342787 0.688174
O O4 0.991405 0.171836 0.700687
O O5 0.250000 0.413691 0.394808
O O6 0.048316 0.362168 0.515978
O O7 0.000000 0.500000 0.427521
O O8 0.988226 0.354119 0.337701
O O9 0.500000 0.500000 0.623575
O O10 0.250000 0.418581 0.633214
O O11 0.500000 0.500000 0.051637
O O12 0.750000 0.587542 0.076445
O O13 0.500074 0.639892 0.158050
O O14 0.525115 0.657272 0.986911
O O15 0.250000 0.723906 0.971203
O O16 0.484619 0.827946 0.979018
O O17 0.750000 0.909479 0.697868
O O18 0.578705 0.916587 0.840817
O O19 0.500000 0.000000 0.696264
O O20 0.500000 0.500000 0.251492
O O21 0.750000 0.403495 0.241964
O O22 0.250000 0.093588 0.983168
O O23 0.500000 0.000000 0.985129
#
# Coordination Sequence:
#
# PCOD8167987 Si02
#       8
#     4   4   4   4   4   4   4   4
#     4  10  20  32  46  63  87 118 152 187 222 260
#     4   9  16  27  43  63  84 108 139 177 220 263
#     4  10  20  32  46  63  87 118 152 187 221 259
#     4  11  21  33  47  63  86 117 151 186 221 261
#     4  10  20  33  46  63  87 117 152 188 222 260
#     4   9  16  27  44  64  86 110 141 179 222 266
#     4  10  17  27  44  64  85 109 138 176 220 264
#     4   9  16  27  44  65  86 111 141 178 222 265
#
# _framework density 15.811232
#
# number of rings (size 3 to 8) (size 9 to 14) (size 15 to 20)
#    0.000    2.250    0.000    6.000    0.000    6.500 
#    0.000    0.000    0.000    0.000    0.000    0.000 
#    0.000    1.000    0.000    5.500    0.000    6.125 
#
# Total GULP energy -396652.388239 kJ/mol
# GULP energy per Si atom -12395.387132 kJ/mol
# Density = 1.577524 g / cm^3
# Si number density = 15.811232 Si / 1000 Ang^3
#
#
#
# Elastic Constant Matrix: (Units=GPa)
#
#
# Indices 1 2 3 4 5 6 
#
# 1 144.5208 49.1540 42.4093 0.0000 0.0000 0.0000
# 2 49.1540 89.3566 36.2203 0.0000 0.0000 0.0000
# 3 42.4093 36.2203 45.6108 0.0000 0.0000 0.0000
# 4 0.0000 0.0000 0.0000 0.2940 0.0000 0.0000
# 5 0.0000 0.0000 0.0000 0.0000 23.7324 0.0000
# 6 0.0000 0.0000 0.0000 0.0000 0.0000 28.2529
#
#
#
# Elastic Compliance Matrix: (Units=1/GPa)
#
#
# Indices 1 2 3 4 5 6 
#
# 1 0.009888 -0.002525 -0.007188 0.000000 0.000000 0.000000
# 2 -0.002525 0.017148 -0.011270 0.000000 0.000000 0.000000
# 3 -0.007188 -0.011270 0.037558 0.000000 0.000000 0.000000
# 4 0.000000 0.000000 0.000000 3.401883 0.000000 0.000000
# 5 0.000000 0.000000 0.000000 0.000000 0.042137 0.000000
# 6 0.000000 0.000000 0.000000 0.000000 0.000000 0.035395
#
#
# Mechanical properties :
#
#
# Convention : Reuss Voigt Hill
#
# Bulk Modulus (GPa) = 44.19450 59.45059 51.82254
# Shear Modulus (GPa) = 1.39139 20.56949 10.98044
#
# Velocity S-wave (km/s) = 0.93910 3.61077 2.63814
# Velocity P-wave (km/s) = 5.40258 7.42061 6.49050
#
# Compressibility (1/GPa) = 0.02262725
#
# Stress axis : x y z
#
# Youngs Moduli (GPa) = 101.13553 58.31430 26.62565
#
# Poissons Ratio (x) = 0.14727 0.19139
# Poissons Ratio (y) = 0.25541 0.30006
# Poissons Ratio (z) = 0.72698 0.65719
#
# Static dielectric constant tensor:
#      x y z
#    x 3.235140 0.000000 0.000000 
#    y 0.000000 2.827190 0.000000 
#    z 0.000000 0.000000 3.346170 
# 
# 
# High freq. dielectric constant tensor:
#      x y z
#    x 1.633370 0.000000 0.000000 
#    y 0.000000 1.574680 0.000000 
#    z 0.000000 0.000000 1.582370 
# 
# From -- ./inp_files/6404.got.cif
#   From: 2010.03.12/outbox.cif.g09.slc.cpg/sg28_4_cif.got.tgz:6404.got - 2010.04.14 03:39:34.
