data_PCOD8167976
_publ_section_title
;
Structure prediction by ZEFSAII (Michael W. Deem and Ramdas Pophale) SiO2 
 PCOD8167976
Probable space group: P M A 2
;
_chemical_formula_sum "Si O2"
_cell_formula_units_Z 32
_cell_length_a 8.912525
_cell_length_b 21.000646
_cell_length_c 9.697128
_cell_angle_alpha 90.000000
_cell_angle_beta 90.000000
_cell_angle_gamma 90.000000
_cell_volume 1814.999641
_symmetry_space_group_name_H-M "P M A 2"
_symmetry_group_IT_number 28
_symmetry_cell_setting 'orthorhombic'
loop_
_space_group_symop_operation_xyz
x,y,z
-x,-y,z
1/2-x,y,z
1/2+x,-y,z
loop_
_atom_site_type_symbol
_atom_site_label
_atom_site_fract_x
_atom_site_fract_y
_atom_site_fract_z
Si Si1 0.073697 0.809868 0.789410
Si Si2 0.071344 0.437183 0.602552
Si Si3 0.424526 0.699016 0.295412
Si Si4 0.427996 0.809402 0.103609
Si Si5 0.581320 0.937470 0.780359
Si Si6 0.074082 0.559731 0.303543
Si Si7 0.071846 0.690683 0.607002
Si Si8 0.919160 0.937489 0.108834
O O1 0.250000 0.820483 0.780836
O O2 0.021519 0.750002 0.699494
O O3 0.998736 0.873382 0.727458
O O4 0.021464 0.797392 0.946262
O O5 0.250000 0.439581 0.612648
O O6 0.000000 0.500000 0.676639
O O7 0.014755 0.437166 0.446149
O O8 0.008397 0.372064 0.670431
O O9 0.250000 0.713790 0.303060
O O10 0.496938 0.751736 0.194988
O O11 0.451878 0.628195 0.230494
O O12 0.487410 0.703585 0.451270
O O13 0.250000 0.813994 0.113867
O O14 0.495759 0.874826 0.162525
O O15 0.750000 0.937521 0.724293
O O16 0.500000 0.000000 0.719540
O O17 0.575700 0.939439 0.944611
O O18 0.250000 0.547685 0.330019
O O19 0.000000 0.500000 0.218933
O O20 0.250000 0.679250 0.609714
O O21 0.750000 0.936249 0.164457
O O22 0.000000 0.000000 0.169805
#
# Coordination Sequence:
#
# PCOD8167976 Si02
#       8
#     4   4   4   4   4   4   4   4
#     4   9  17  28  45  66  88 113 144 177 213 254
#     4  10  17  26  42  64  87 112 143 181 218 253
#     4   8  15  27  44  63  86 114 143 172 209 253
#     4   9  16  28  45  65  86 113 144 175 210 253
#     4   9  16  26  42  63  88 113 142 178 217 254
#     4   9  15  25  41  62  86 112 142 178 215 252
#     4   9  17  30  45  64  89 117 144 174 212 257
#     4   9  16  26  41  63  87 112 140 177 216 252
#
# _framework density 17.630859000000001
#
# number of rings (size 3 to 8) (size 9 to 14) (size 15 to 20)
#    0.000    3.000    0.000    3.750    0.000    3.500 
#    0.000    3.125    0.000    1.500    0.000    1.750 
#    0.000    0.000    0.000    0.000    0.000    0.000 
#
# Total GULP energy -396550.383258 kJ/mol
# GULP energy per Si atom -12392.199477 kJ/mol
# Density = 1.759073 g / cm^3
# Si number density = 17.630859 Si / 1000 Ang^3
#
#
#
# Elastic Constant Matrix: (Units=GPa)
#
#
# Indices 1 2 3 4 5 6 
#
# 1 79.2182 65.4904 18.6311 0.0000 0.0000 0.0000
# 2 65.4904 208.6400 50.8060 0.0000 0.0000 0.0000
# 3 18.6311 50.8060 35.8260 0.0000 0.0000 0.0000
# 4 0.0000 0.0000 0.0000 25.6783 0.0000 0.0000
# 5 0.0000 0.0000 0.0000 0.0000 7.8752 0.0000
# 6 0.0000 0.0000 0.0000 0.0000 0.0000 35.6032
#
#
#
# Elastic Compliance Matrix: (Units=1/GPa)
#
#
# Indices 1 2 3 4 5 6 
#
# 1 0.017137 -0.004902 -0.001961 0.000000 0.000000 0.000000
# 2 -0.004902 0.008723 -0.009822 0.000000 0.000000 0.000000
# 3 -0.001961 -0.009822 0.042861 0.000000 0.000000 0.000000
# 4 0.000000 0.000000 0.000000 0.038943 0.000000 0.000000
# 5 0.000000 0.000000 0.000000 0.000000 0.126981 0.000000
# 6 0.000000 0.000000 0.000000 0.000000 0.000000 0.028087
#
#
# Mechanical properties :
#
#
# Convention : Reuss Voigt Hill
#
# Bulk Modulus (GPa) = 28.28639 65.94882 47.11760
# Shear Modulus (GPa) = 16.23987 26.41512 21.32750
#
# Velocity S-wave (km/s) = 3.03826 3.87490 3.48180
# Velocity P-wave (km/s) = 5.32791 7.58329 6.55335
#
# Compressibility (1/GPa) = 0.03535270
#
# Stress axis : x y z
#
# Youngs Moduli (GPa) = 58.35425 114.63726 23.33147
#
# Poissons Ratio (x) = 0.56191 0.04575
# Poissons Ratio (y) = 0.28603 0.22915
# Poissons Ratio (z) = 0.11442 1.12591
#
# Static dielectric constant tensor:
#      x y z
#    x 3.224400 0.000000 0.000000 
#    y 0.000000 3.995230 0.000000 
#    z 0.000000 0.000000 2.825940 
# 
# 
# High freq. dielectric constant tensor:
#      x y z
#    x 1.673870 0.000000 0.000000 
#    y 0.000000 1.709560 0.000000 
#    z 0.000000 0.000000 1.608990 
# 
# From -- ./inp_files/5212.got.cif
#   From: 2010.03.12/outbox.cif.g09.slc.cpg/sg28_3_cif.got.tgz:5212.got - 2010.04.14 03:39:34.
