data_PCOD8167313
_publ_section_title
;
Structure prediction by ZEFSAII (Michael W. Deem and Ramdas Pophale) SiO2 
 PCOD8167313
Probable space group: P M C 21
;
_chemical_formula_sum "Si O2"
_cell_formula_units_Z 32
_cell_length_a 8.656296
_cell_length_b 35.401943
_cell_length_c 5.162064
_cell_angle_alpha 90.000000
_cell_angle_beta 90.000000
_cell_angle_gamma 90.000000
_cell_volume 1581.912952
_symmetry_space_group_name_H-M "P M C 21"
_symmetry_group_IT_number 26
_symmetry_cell_setting 'orthorhombic'
loop_
_space_group_symop_operation_xyz
x,y,z
-x,-y,1/2+z
-x,y,z
x,-y,1/2+z
loop_
_atom_site_type_symbol
_atom_site_label
_atom_site_fract_x
_atom_site_fract_y
_atom_site_fract_z
Si Si1 0.817695 0.520825 0.603270
Si Si2 0.678496 0.601790 0.575736
Si Si3 0.819305 0.729708 0.070625
Si Si4 0.180022 0.023530 0.638373
Si Si5 0.317396 0.894920 0.115713
Si Si6 0.317205 0.766561 0.570580
Si Si7 0.679284 0.649533 0.074885
Si Si8 0.316138 0.852422 0.615354
O O1 0.745738 0.500592 0.351071
O O2 0.779015 0.564705 0.611135
O O3 0.000000 0.516211 0.603415
O O4 0.500000 0.590315 0.593844
O O5 0.719312 0.620062 0.300569
O O6 0.722106 0.631122 0.800791
O O7 0.728775 0.754268 0.282342
O O8 0.784779 0.685870 0.116752
O O9 0.000000 0.737277 0.100653
O O10 0.764470 0.740549 0.783222
O O11 0.274421 0.061531 0.603928
O O12 0.000000 0.033393 0.626185
O O13 0.227238 0.995139 0.409577
O O14 0.500000 0.891312 0.115251
O O15 0.247557 0.874929 0.369772
O O16 0.248332 0.872910 0.868809
O O17 0.500000 0.762583 0.603525
O O18 0.259674 0.809337 0.610952
O O19 0.500000 0.661704 0.086629
O O20 0.500000 0.853858 0.610879
#
# Coordination Sequence:
#
# PCOD8167313 Si02
#       8
#     4   4   4   4   4   4   4   4
#     4  10  21  36  54  78 109 145 182 221 275 343
#     4  10  21  36  57  83 109 141 188 239 279 329
#     4  12  25  40  60  92 126 154 195 252 302 343
#     4  10  21  36  52  73 105 143 180 217 265 331
#     4  10  19  34  56  82 108 135 178 233 279 323
#     4  11  22  41  66  87 116 163 204 235 290 363
#     4  10  21  38  58  82 112 150 193 232 283 351
#     4   9  19  35  57  83 109 141 184 231 277 333
#
# _framework density 20.228670999999999
#
# number of rings (size 3 to 8) (size 9 to 14) (size 15 to 20)
#    0.000    1.750    0.000    4.500    0.000    5.000 
#    0.000    3.750    0.000    0.000    0.000    0.000 
#    0.000    0.000    0.000    0.000    0.000    0.000 
#
# Total GULP energy -396964.564000 kJ/mol
# GULP energy per Si atom -12405.142625 kJ/mol
# Density = 2.018263 g / cm^3
# Si number density = 20.228671 Si / 1000 Ang^3
#
#
#
# Elastic Constant Matrix: (Units=GPa)
#
#
# Indices 1 2 3 4 5 6 
#
# 1 32.6058 23.5009 20.8394 0.0000 0.0000 0.0000
# 2 23.5009 98.3315 26.7591 0.0000 0.0000 0.0000
# 3 20.8394 26.7591 124.0991 0.0000 0.0000 0.0000
# 4 0.0000 0.0000 0.0000 36.3574 0.0000 0.0000
# 5 0.0000 0.0000 0.0000 0.0000 16.4771 0.0000
# 6 0.0000 0.0000 0.0000 0.0000 0.0000 -2.9802
#
#
#
# Elastic Compliance Matrix: (Units=1/GPa)
#
#
# Indices 1 2 3 4 5 6 
#
# 1 0.039677 -0.008148 -0.004906 0.000000 0.000000 0.000000
# 2 -0.008148 0.012477 -0.001322 0.000000 0.000000 0.000000
# 3 -0.004906 -0.001322 0.009167 0.000000 0.000000 0.000000
# 4 0.000000 0.000000 0.000000 0.027505 0.000000 0.000000
# 5 0.000000 0.000000 0.000000 0.000000 0.060690 0.000000
# 6 0.000000 0.000000 0.000000 0.000000 0.000000 -0.335546
#
#
# Mechanical properties :
#
#
# Convention : Reuss Voigt Hill
#
# Bulk Modulus (GPa) = 30.70350 44.13724 37.42037
# Shear Modulus (GPa) = -34.14799 22.23331 -5.95734
#
# Velocity S-wave (km/s) = -4.11310 3.31886 -1.71796
# Velocity P-wave (km/s) = 2.71029 6.04591 3.82147
#
# Compressibility (1/GPa) = 0.03256958
#
# Stress axis : x y z
#
# Youngs Moduli (GPa) = 25.20322 80.14910 109.08691
#
# Poissons Ratio (x) = 0.65303 0.53518
# Poissons Ratio (y) = 0.20535 0.14423
# Poissons Ratio (z) = 0.12365 0.10597
#
# Static dielectric constant tensor:
#      x y z
#    x 3.414360 0.000000 0.000000 
#    y 0.000000 3.627780 0.000000 
#    z 0.000000 0.000000 4.112780 
# 
# 
# High freq. dielectric constant tensor:
#      x y z
#    x 1.763130 0.000000 0.000000 
#    y 0.000000 1.801810 0.000000 
#    z 0.000000 0.000000 1.813230 
# 
# From -- ./inp_files/252.got.cif
#   From: 2010.03.12/outbox.cif.g09.slc.cpg/sg26_1_cif.got.tgz:252.got - 2010.04.14 03:33:09.
