data_PCOD8167904
_publ_section_title
;
Structure prediction by ZEFSAII (Michael W. Deem and Ramdas Pophale) SiO2 
 PCOD8167904
Probable space group: P C C 2
;
_chemical_formula_sum "Si O2"
_cell_formula_units_Z 18
_cell_length_a 5.687441
_cell_length_b 5.192633
_cell_length_c 24.138253
_cell_angle_alpha 90.000000
_cell_angle_beta 90.000000
_cell_angle_gamma 90.000000
_cell_volume 712.870049
_symmetry_space_group_name_H-M "P C C 2"
_symmetry_group_IT_number 27
_symmetry_cell_setting 'orthorhombic'
loop_
_space_group_symop_operation_xyz
x,y,z
-x,-y,z
-x,y,1/2+z
x,-y,1/2+z
loop_
_atom_site_type_symbol
_atom_site_label
_atom_site_fract_x
_atom_site_fract_y
_atom_site_fract_z
Si Si1 0.849919 0.741498 0.934700
Si Si2 0.364269 0.752875 0.547700
Si Si3 0.749302 0.851272 0.816954
Si Si4 0.349835 0.256244 0.699979
Si Si5 0.000000 0.000000 0.618621
O O1 0.744191 0.684102 0.873688
O O2 0.000000 0.500000 0.954812
O O3 0.648393 0.765627 0.980947
O O4 0.000000 0.000000 0.934203
O O5 0.500000 0.500000 0.567570
O O6 0.500000 0.000000 0.570939
O O7 0.117622 0.785408 0.578803
O O8 0.752041 0.675648 0.761484
O O9 0.500000 0.000000 0.818579
O O10 0.000000 0.000000 0.816257
O O11 0.500000 0.500000 0.678393
O O12 0.147547 0.192640 0.656902
O O13 0.500000 0.000000 0.706282
#
# Coordination Sequence:
#
# PCOD8167904 Si02
#       5
#     4   4   4   4   2
#     4  11  24  47  78 114 154 199 254 327 404 481
#     4  12  28  48  80 114 152 207 266 326 403 478
#     4  10  23  48  82 118 160 206 264 331 409 488
#     4  11  27  50  78 113 152 209 266 326 404 479
#     4  12  28  54  76 112 162 214 266 352 386 496
#
# _framework density 25.250046000000001
#
# number of rings (size 3 to 8) (size 9 to 14) (size 15 to 20)
#    0.000    0.889    2.222    2.667    0.000   16.000 
#    0.000    0.000    0.000    0.000    0.000    0.000 
#    0.000    0.000    0.000    0.000    0.000    0.000 
#
# Total GULP energy -223049.878790 kJ/mol
# GULP energy per Si atom -12391.659933 kJ/mol
# Density = 2.519258 g / cm^3
# Si number density = 25.250046 Si / 1000 Ang^3
#
#
#
# Elastic Constant Matrix: (Units=GPa)
#
#
# Indices 1 2 3 4 5 6 
#
# 1 141.1555 54.6787 54.6101 0.0000 0.0000 0.0000
# 2 54.6787 170.6145 34.5790 0.0000 0.0000 0.0000
# 3 54.6101 34.5790 196.7829 0.0000 0.0000 0.0000
# 4 0.0000 0.0000 0.0000 18.6049 0.0000 0.0000
# 5 0.0000 0.0000 0.0000 0.0000 67.3808 0.0000
# 6 0.0000 0.0000 0.0000 0.0000 0.0000 47.2131
#
#
#
# Elastic Compliance Matrix: (Units=1/GPa)
#
#
# Indices 1 2 3 4 5 6 
#
# 1 0.008799 -0.002411 -0.002018 0.000000 0.000000 0.000000
# 2 -0.002411 0.006738 -0.000515 0.000000 0.000000 0.000000
# 3 -0.002018 -0.000515 0.005732 0.000000 0.000000 0.000000
# 4 0.000000 0.000000 0.000000 0.053749 0.000000 0.000000
# 5 0.000000 0.000000 0.000000 0.000000 0.014841 0.000000
# 6 0.000000 0.000000 0.000000 0.000000 0.000000 0.021181
#
#
# Mechanical properties :
#
#
# Convention : Reuss Voigt Hill
#
# Bulk Modulus (GPa) = 87.86283 88.47650 88.16966
# Shear Modulus (GPa) = 40.08901 50.95211 45.52056
#
# Velocity S-wave (km/s) = 3.98889 4.49698 4.25054
# Velocity P-wave (km/s) = 7.48917 7.87908 7.68660
#
# Compressibility (1/GPa) = 0.01138138
#
# Stress axis : x y z
#
# Youngs Moduli (GPa) = 113.64809 148.40792 174.44938
#
# Poissons Ratio (x) = 0.35780 0.35208
# Poissons Ratio (y) = 0.27399 0.08984
# Poissons Ratio (z) = 0.22937 0.07643
#
# Static dielectric constant tensor:
#      x y z
#    x 4.647330 0.000000 0.000000 
#    y 0.000000 4.181500 0.000000 
#    z 0.000000 0.000000 5.370670 
# 
# 
# High freq. dielectric constant tensor:
#      x y z
#    x 2.008960 0.000000 0.000000 
#    y 0.000000 1.989320 0.000000 
#    z 0.000000 0.000000 2.048870 
# 
# From -- ./inp_files/5161.got.cif
#   From: 2010.03.12/outbox.cif.g09.slc.cpg/sg27_3_cif.got.tgz:5161.got - 2010.04.14 03:36:05.
