data_PCOD8167255
_publ_section_title
;
Structure prediction by ZEFSAII (Michael W. Deem and Ramdas Pophale) SiO2 
 PCOD8167255
Probable space group: P M C 21
;
_chemical_formula_sum "Si O2"
_cell_formula_units_Z 18
_cell_length_a 10.148744
_cell_length_b 17.182768
_cell_length_c 5.165588
_cell_angle_alpha 90.000000
_cell_angle_beta 90.000000
_cell_angle_gamma 90.000000
_cell_volume 900.793385
_symmetry_space_group_name_H-M "P M C 21"
_symmetry_group_IT_number 26
_symmetry_cell_setting 'orthorhombic'
loop_
_space_group_symop_operation_xyz
x,y,z
-x,-y,1/2+z
-x,y,z
x,-y,1/2+z
loop_
_atom_site_type_symbol
_atom_site_label
_atom_site_fract_x
_atom_site_fract_y
_atom_site_fract_z
Si Si1 0.216727 0.447808 0.566510
Si Si2 0.648917 0.949334 0.583681
Si Si3 0.500000 0.545817 0.973145
Si Si4 0.145569 0.277837 0.548136
Si Si5 0.158923 0.806472 0.548530
O O1 0.188217 0.507775 0.334214
O O2 0.365009 0.411247 0.549510
O O3 0.129299 0.371386 0.548201
O O4 0.500000 0.914175 0.560018
O O5 0.763853 0.887074 0.542231
O O6 0.669064 0.015094 0.367442
O O7 0.500000 0.529923 0.664997
O O8 0.213080 0.243631 0.291578
O O9 0.000000 0.243015 0.545042
O O10 0.211837 0.244371 0.806580
O O11 0.000000 0.819756 0.548717
#
# Coordination Sequence:
#
# PCOD8167255 Si02
#       5
#     4   4   2   4   4
#     4  10  19  33  52  73 102 138 183 227 272 318
#     4  10  21  38  60  86 115 141 175 224 266 314
#     4   8  16  30  46  66  94 126 162 218 268 308
#     4  10  21  36  53  77 110 143 180 229 272 313
#     4  10  21  38  56  79 114 147 179 220 268 325
#
# _framework density 19.982382000000001
#
# number of rings (size 3 to 8) (size 9 to 14) (size 15 to 20)
#    0.000    2.222    0.000    2.667    0.000    1.778 
#    4.000    0.000    0.000    0.000    0.000    0.000 
#    0.000    0.000    0.000    0.000    0.000    0.000 
#
# Total GULP energy -223004.110344 kJ/mol
# GULP energy per Si atom -12389.117241 kJ/mol
# Density = 1.993690 g / cm^3
# Si number density = 19.982382 Si / 1000 Ang^3
#
#
#
# Elastic Constant Matrix: (Units=GPa)
#
#
# Indices 1 2 3 4 5 6 
#
# 1 61.4752 33.8421 23.8821 0.0000 0.0000 0.0000
# 2 33.8421 97.8996 40.7026 0.0000 0.0000 0.0000
# 3 23.8821 40.7026 147.6909 0.0000 0.0000 0.0000
# 4 0.0000 0.0000 0.0000 34.4116 0.0000 0.0000
# 5 0.0000 0.0000 0.0000 0.0000 7.6535 0.0000
# 6 0.0000 0.0000 0.0000 0.0000 0.0000 17.1883
#
#
#
# Elastic Compliance Matrix: (Units=1/GPa)
#
#
# Indices 1 2 3 4 5 6 
#
# 1 0.020391 -0.006413 -0.001530 0.000000 0.000000 0.000000
# 2 -0.006413 0.013553 -0.002698 0.000000 0.000000 0.000000
# 3 -0.001530 -0.002698 0.007762 0.000000 0.000000 0.000000
# 4 0.000000 0.000000 0.000000 0.029060 0.000000 0.000000
# 5 0.000000 0.000000 0.000000 0.000000 0.130659 0.000000
# 6 0.000000 0.000000 0.000000 0.000000 0.000000 0.058179
#
#
# Mechanical properties :
#
#
# Convention : Reuss Voigt Hill
#
# Bulk Modulus (GPa) = 48.96111 55.99105 52.47608
# Shear Modulus (GPa) = 17.37954 25.75993 21.56974
#
# Velocity S-wave (km/s) = 2.95234 3.59434 3.28904
# Velocity P-wave (km/s) = 6.01474 6.73103 6.38294
#
# Compressibility (1/GPa) = 0.02042437
#
# Stress axis : x y z
#
# Youngs Moduli (GPa) = 49.04041 73.78372 128.83429
#
# Poissons Ratio (x) = 0.47316 0.19712
# Poissons Ratio (y) = 0.31449 0.34762
# Poissons Ratio (z) = 0.07503 0.19908
#
# Static dielectric constant tensor:
#      x y z
#    x 3.705350 0.000000 0.000000 
#    y 0.000000 3.170810 0.000000 
#    z 0.000000 0.000000 4.089280 
# 
# 
# High freq. dielectric constant tensor:
#      x y z
#    x 1.771750 0.000000 0.000000 
#    y 0.000000 1.749000 0.000000 
#    z 0.000000 0.000000 1.808080 
# 
# From -- ./inp_files/302.got.cif
#   From: 2010.03.12/outbox.cif.g09.slc.cpg/sg26_1_cif.got.tgz:302.got - 2010.04.14 03:33:09.
