data_PCOD8167577
_publ_section_title
;
Structure prediction by ZEFSAII (Michael W. Deem and Ramdas Pophale) SiO2 
 PCOD8167577
Probable space group: P M C 21
;
_chemical_formula_sum "Si O2"
_cell_formula_units_Z 26
_cell_length_a 7.479375
_cell_length_b 13.976443
_cell_length_c 12.293529
_cell_angle_alpha 90.000000
_cell_angle_beta 90.000000
_cell_angle_gamma 90.000000
_cell_volume 1285.104772
_symmetry_space_group_name_H-M "P M C 21"
_symmetry_group_IT_number 26
_symmetry_cell_setting 'orthorhombic'
loop_
_space_group_symop_operation_xyz
x,y,z
-x,-y,1/2+z
-x,y,z
x,-y,1/2+z
loop_
_atom_site_type_symbol
_atom_site_label
_atom_site_fract_x
_atom_site_fract_y
_atom_site_fract_z
Si Si1 0.000000 0.161832 0.060000
Si Si2 0.000000 0.934383 0.783318
Si Si3 0.286577 0.694311 0.281923
Si Si4 0.708157 0.204923 0.359686
Si Si5 0.000000 0.148116 0.823590
Si Si6 0.700030 0.709134 0.633339
Si Si7 0.711220 0.648247 0.037488
Si Si8 0.295199 0.447494 0.969530
O O1 0.000000 0.089586 0.157482
O O2 0.175831 0.226203 0.059830
O O3 0.000000 0.108065 0.946504
O O4 0.824042 0.891162 0.842654
O O5 0.000000 0.047237 0.763927
O O6 0.500000 0.713812 0.291798
O O7 0.180000 0.792946 0.298409
O O8 0.230917 0.656675 0.162656
O O9 0.215344 0.617089 0.371299
O O10 0.500000 0.175048 0.365719
O O11 0.744679 0.280455 0.261294
O O12 0.773375 0.258732 0.469044
O O13 0.500000 0.745044 0.610407
O O14 0.725726 0.601489 0.588894
O O15 0.500000 0.639391 0.029479
O O16 0.796059 0.551934 0.983364
O O17 0.500000 0.461565 0.937767
#
# Coordination Sequence:
#
# PCOD8167577 Si02
#       8
#     2   2   4   4   2   4   4   4
#     4  10  20  38  56  81 109 137 189 242 285 338
#     4  10  24  40  60  85 110 148 197 250 296 343
#     4  10  22  39  57  86 123 152 190 238 286 340
#     4   9  19  37  58  83 115 150 192 238 288 340
#     4  12  24  40  62  84 111 151 196 244 299 349
#     4   9  17  32  56  80 109 146 184 231 277 325
#     4   9  19  34  58  88 122 160 191 227 282 348
#     4   9  17  31  56  85 114 153 189 223 274 336
#
# _framework density 20.231812999999999
#
# number of rings (size 3 to 8) (size 9 to 14) (size 15 to 20)
#    0.000    2.462    1.538    0.000    2.154    2.462 
#    0.000    3.077    0.000    0.000    0.000    0.000 
#    0.000    0.000    0.000    0.000    0.000    0.000 
#
# Total GULP energy -322164.718898 kJ/mol
# GULP energy per Si atom -12390.950727 kJ/mol
# Density = 2.018576 g / cm^3
# Si number density = 20.231813 Si / 1000 Ang^3
#
#
#
# Elastic Constant Matrix: (Units=GPa)
#
#
# Indices 1 2 3 4 5 6 
#
# 1 77.4597 41.4154 24.8459 0.0000 0.0000 0.0000
# 2 41.4154 142.2784 53.4490 0.0000 0.0000 0.0000
# 3 24.8459 53.4490 111.2198 0.0000 0.0000 0.0000
# 4 0.0000 0.0000 0.0000 21.7180 0.0000 0.0000
# 5 0.0000 0.0000 0.0000 0.0000 14.8453 0.0000
# 6 0.0000 0.0000 0.0000 0.0000 0.0000 18.3176
#
#
#
# Elastic Compliance Matrix: (Units=1/GPa)
#
#
# Indices 1 2 3 4 5 6 
#
# 1 0.015514 -0.003922 -0.001581 0.000000 0.000000 0.000000
# 2 -0.003922 0.009568 -0.003722 0.000000 0.000000 0.000000
# 3 -0.001581 -0.003722 0.011133 0.000000 0.000000 0.000000
# 4 0.000000 0.000000 0.000000 0.046045 0.000000 0.000000
# 5 0.000000 0.000000 0.000000 0.000000 0.067361 0.000000
# 6 0.000000 0.000000 0.000000 0.000000 0.000000 0.054592
#
#
# Mechanical properties :
#
#
# Convention : Reuss Voigt Hill
#
# Bulk Modulus (GPa) = 56.28932 63.37538 59.83235
# Shear Modulus (GPa) = 21.87362 25.05936 23.46649
#
# Velocity S-wave (km/s) = 3.29165 3.52321 3.40940
# Velocity P-wave (km/s) = 6.50609 6.92411 6.71835
#
# Compressibility (1/GPa) = 0.01776536
#
# Stress axis : x y z
#
# Youngs Moduli (GPa) = 64.45776 104.51068 89.82203
#
# Poissons Ratio (x) = 0.40989 0.14200
# Poissons Ratio (y) = 0.25281 0.33433
# Poissons Ratio (z) = 0.10190 0.38900
#
# Static dielectric constant tensor:
#      x y z
#    x 3.553860 0.000000 0.000000 
#    y 0.000000 3.454190 0.000000 
#    z 0.000000 0.000000 3.872490 
# 
# 
# High freq. dielectric constant tensor:
#      x y z
#    x 1.783940 0.000000 0.000000 
#    y 0.000000 1.763710 0.000000 
#    z 0.000000 0.000000 1.800400 
# 
# From -- ./inp_files/2911.got.cif
#   From: 2010.03.12/outbox.cif.g09.slc.cpg/sg26_2_cif.got.tgz:2911.got - 2010.04.14 03:33:09.
