data_PCOD8167042
_publ_section_title
;
Structure prediction by ZEFSAII (Michael W. Deem and Ramdas Pophale) SiO2 
 PCOD8167042
Probable space group: P M C 21
;
_chemical_formula_sum "Si O2"
_cell_formula_units_Z 24
_cell_length_a 27.650190
_cell_length_b 7.284390
_cell_length_c 5.310295
_cell_angle_alpha 90.000000
_cell_angle_beta 90.000000
_cell_angle_gamma 90.000000
_cell_volume 1069.571833
_symmetry_space_group_name_H-M "P M C 21"
_symmetry_group_IT_number 26
_symmetry_cell_setting 'orthorhombic'
loop_
_space_group_symop_operation_xyz
x,y,z
-x,-y,1/2+z
-x,y,z
x,-y,1/2+z
loop_
_atom_site_type_symbol
_atom_site_label
_atom_site_fract_x
_atom_site_fract_y
_atom_site_fract_z
Si Si1 0.698730 0.115030 0.073410
Si Si2 0.403689 0.219421 0.110218
Si Si3 0.943276 0.698115 0.076713
Si Si4 0.443501 0.810850 0.110237
Si Si5 0.902735 0.708333 0.576752
Si Si6 0.804364 0.117203 0.133769
O O1 0.654137 0.256120 0.109765
O O2 0.694545 0.960824 0.289741
O O3 0.751250 0.211522 0.107315
O O4 0.427704 0.305104 0.362430
O O5 0.414184 0.000984 0.108566
O O6 0.428482 0.304699 0.859369
O O7 0.922459 0.806165 0.320391
O O8 0.916321 0.503885 0.050990
O O9 0.000000 0.666848 0.105045
O O10 0.929648 0.802920 0.817093
O O11 0.500000 0.854542 0.107228
O O12 0.845029 0.727764 0.599203
O O13 0.810291 0.033128 0.412821
#
# Coordination Sequence:
#
# PCOD8167042 Si02
#       6
#     4   4   4   4   4   4
#     4  10  16  27  38  51  69 104 147 172 204 238
#     4  10  14  22  31  42  62  89 125 172 209 238
#     4  10  19  33  58  76  90 115 145 190 225 259
#     4  10  16  20  29  45  64  87 122 179 226 238
#     4  10  18  32  51  75  96 114 150 186 223 262
#     4  10  21  32  47  65  93 127 151 183 221 259
#
# _framework density 22.438886
#
# number of rings (size 3 to 8) (size 9 to 14) (size 15 to 20)
#    0.000    2.000    3.333    6.000    0.000    0.000 
#    0.000    0.000    0.000   17.000    0.000    0.000 
#    0.000    0.000    0.000    0.000    0.000    0.000 
#
# Total GULP energy -297328.888626 kJ/mol
# GULP energy per Si atom -12388.703693 kJ/mol
# Density = 2.238781 g / cm^3
# Si number density = 22.438886 Si / 1000 Ang^3
#
#
#
# Elastic Constant Matrix: (Units=GPa)
#
#
# Indices 1 2 3 4 5 6 
#
# 1 191.9612 10.8930 35.4782 0.0000 0.0000 0.0000
# 2 10.8930 8.8619 -9.4601 0.0000 0.0000 0.0000
# 3 35.4782 -9.4601 217.1699 0.0000 0.0000 0.0000
# 4 0.0000 0.0000 0.0000 -3.2841 0.0000 0.0000
# 5 0.0000 0.0000 0.0000 0.0000 40.5963 0.0000
# 6 0.0000 0.0000 0.0000 0.0000 0.0000 33.6120
#
#
#
# Elastic Compliance Matrix: (Units=1/GPa)
#
#
# Indices 1 2 3 4 5 6 
#
# 1 0.005958 -0.008770 -0.001355 0.000000 0.000000 0.000000
# 2 -0.008770 0.131255 0.007150 0.000000 0.000000 0.000000
# 3 -0.001355 0.007150 0.005138 0.000000 0.000000 0.000000
# 4 0.000000 0.000000 0.000000 -0.304497 0.000000 0.000000
# 5 0.000000 0.000000 0.000000 0.000000 0.024633 0.000000
# 6 0.000000 0.000000 0.000000 0.000000 0.000000 0.029751
#
#
# Mechanical properties :
#
#
# Convention : Reuss Voigt Hill
#
# Bulk Modulus (GPa) = 7.33137 54.64612 30.98874
# Shear Modulus (GPa) = -88.73495 39.59031 -24.57232
#
# Velocity S-wave (km/s) = -6.29532 4.20499 -3.31279
# Velocity P-wave (km/s) = 7.04038 6.92691 0.89020
#
# Compressibility (1/GPa) = 0.13640021
#
# Stress axis : x y z
#
# Youngs Moduli (GPa) = 167.85536 7.61879 194.64465
#
# Poissons Ratio (x) = 0.06681 0.26380
# Poissons Ratio (y) = 1.47204 -1.39176
# Poissons Ratio (z) = 0.22749 -0.05448
#
# Static dielectric constant tensor:
#      x y z
#    x 4.318300 0.000000 0.000000 
#    y 0.000000 2.914540 0.000000 
#    z 0.000000 0.000000 7.065330 
# 
# 
# High freq. dielectric constant tensor:
#      x y z
#    x 1.902060 0.000000 0.000000 
#    y 0.000000 1.781430 0.000000 
#    z 0.000000 0.000000 1.935800 
# 
# From -- ./inp_files/1025.got.cif
#   From: 2010.03.12/outbox.cif.g09.slc.cpg/sg26_1_cif.got.tgz:1025.got - 2010.04.14 03:33:09.
