data_PCOD8167561
_publ_section_title
;
Structure prediction by ZEFSAII (Michael W. Deem and Ramdas Pophale) SiO2 
 PCOD8167561
Probable space group: P M C 21
;
_chemical_formula_sum "Si O2"
_cell_formula_units_Z 32
_cell_length_a 9.202008
_cell_length_b 16.198386
_cell_length_c 10.843046
_cell_angle_alpha 90.000000
_cell_angle_beta 90.000000
_cell_angle_gamma 90.000000
_cell_volume 1616.239254
_symmetry_space_group_name_H-M "P M C 21"
_symmetry_group_IT_number 26
_symmetry_cell_setting 'orthorhombic'
loop_
_space_group_symop_operation_xyz
x,y,z
-x,-y,1/2+z
-x,y,z
x,-y,1/2+z
loop_
_atom_site_type_symbol
_atom_site_label
_atom_site_fract_x
_atom_site_fract_y
_atom_site_fract_z
Si Si1 0.661124 0.161483 0.733190
Si Si2 0.334568 0.261577 0.501445
Si Si3 0.172711 0.425566 0.566684
Si Si4 0.332120 0.982197 0.397845
Si Si5 0.163108 0.138700 0.064429
Si Si6 0.833292 0.719153 0.398431
Si Si7 0.828607 0.458353 0.844692
Si Si8 0.165542 0.143551 0.351450
O O1 0.500000 0.182572 0.784711
O O2 0.668628 0.180024 0.588361
O O3 0.694404 0.065350 0.766398
O O4 0.776240 0.221326 0.793451
O O5 0.500000 0.286426 0.468391
O O6 0.254713 0.338260 0.565646
O O7 0.247976 0.229372 0.381968
O O8 0.230150 0.474379 0.444282
O O9 0.212086 0.471403 0.698415
O O10 0.000000 0.410461 0.561557
O O11 0.500000 0.006016 0.416443
O O12 0.283771 0.919068 0.504078
O O13 0.238019 0.063862 0.412525
O O14 0.177894 0.130311 0.207902
O O15 0.000000 0.113895 0.019733
O O16 0.191593 0.235146 0.029172
O O17 0.760352 0.628719 0.391775
O O18 0.000000 0.704570 0.367039
O O19 0.000000 0.460262 0.859448
O O20 0.000000 0.150416 0.397505
#
# Coordination Sequence:
#
# PCOD8167561 Si02
#       8
#     4   4   4   4   4   4   4   4
#     4   9  19  35  56  81 109 144 186 232 280 338
#     4  11  23  39  58  84 116 155 197 240 291 352
#     4  10  20  37  59  87 118 156 199 248 304 361
#     4  10  21  37  58  83 112 150 191 236 291 349
#     4   9  20  37  56  82 114 146 190 243 291 345
#     4   9  16  32  58  84 107 141 187 236 287 341
#     4   9  18  32  57  88 116 148 195 245 297 356
#     4  11  24  39  56  83 116 152 193 242 297 352
#
# _framework density 19.799049
#
# number of rings (size 3 to 8) (size 9 to 14) (size 15 to 20)
#    0.000    2.250    1.250    1.125    1.750    3.000 
#    0.000    5.000    0.000    0.000    0.000    0.000 
#    0.000    0.000    0.000    0.000    0.000    0.000 
#
# Total GULP energy -396506.074730 kJ/mol
# GULP energy per Si atom -12390.814835 kJ/mol
# Density = 1.975399 g / cm^3
# Si number density = 19.799049 Si / 1000 Ang^3
#
#
#
# Elastic Constant Matrix: (Units=GPa)
#
#
# Indices 1 2 3 4 5 6 
#
# 1 75.8408 34.2191 34.8208 0.0000 0.0000 0.0000
# 2 34.2191 80.9770 41.1326 0.0000 0.0000 0.0000
# 3 34.8208 41.1326 79.0822 0.0000 0.0000 0.0000
# 4 0.0000 0.0000 0.0000 30.4051 0.0000 0.0000
# 5 0.0000 0.0000 0.0000 0.0000 19.1120 0.0000
# 6 0.0000 0.0000 0.0000 0.0000 0.0000 19.6576
#
#
#
# Elastic Compliance Matrix: (Units=1/GPa)
#
#
# Indices 1 2 3 4 5 6 
#
# 1 0.017808 -0.004814 -0.005337 0.000000 0.000000 0.000000
# 2 -0.004814 0.018085 -0.007287 0.000000 0.000000 0.000000
# 3 -0.005337 -0.007287 0.018785 0.000000 0.000000 0.000000
# 4 0.000000 0.000000 0.000000 0.032889 0.000000 0.000000
# 5 0.000000 0.000000 0.000000 0.000000 0.052323 0.000000
# 6 0.000000 0.000000 0.000000 0.000000 0.000000 0.050871
#
#
# Mechanical properties :
#
#
# Convention : Reuss Voigt Hill
#
# Bulk Modulus (GPa) = 50.49992 50.69387 50.59690
# Shear Modulus (GPa) = 21.52965 22.21677 21.87321
#
# Velocity S-wave (km/s) = 3.30116 3.35343 3.32740
# Velocity P-wave (km/s) = 6.33181 6.37603 6.35396
#
# Compressibility (1/GPa) = 0.01980201
#
# Stress axis : x y z
#
# Youngs Moduli (GPa) = 56.15416 55.29486 53.23412
#
# Poissons Ratio (x) = 0.26621 0.28411
# Poissons Ratio (y) = 0.27035 0.38789
# Poissons Ratio (z) = 0.29970 0.40291
#
# Static dielectric constant tensor:
#      x y z
#    x 3.562460 0.000000 0.000000 
#    y 0.000000 3.686330 0.000000 
#    z 0.000000 0.000000 3.645110 
# 
# 
# High freq. dielectric constant tensor:
#      x y z
#    x 1.758050 0.000000 0.000000 
#    y 0.000000 1.767580 0.000000 
#    z 0.000000 0.000000 1.768230 
# 
# From -- ./inp_files/3004.got.cif
#   From: 2010.03.12/outbox.cif.g09.slc.cpg/sg26_2_cif.got.tgz:3004.got - 2010.04.14 03:33:09.
