data_PCOD8167280
_publ_section_title
;
Structure prediction by ZEFSAII (Michael W. Deem and Ramdas Pophale) SiO2 
 PCOD8167280
Probable space group: P M C 21
;
_chemical_formula_sum "Si O2"
_cell_formula_units_Z 32
_cell_length_a 9.365769
_cell_length_b 12.430113
_cell_length_c 14.152885
_cell_angle_alpha 90.000000
_cell_angle_beta 90.000000
_cell_angle_gamma 90.000000
_cell_volume 1647.644438
_symmetry_space_group_name_H-M "P M C 21"
_symmetry_group_IT_number 26
_symmetry_cell_setting 'orthorhombic'
loop_
_space_group_symop_operation_xyz
x,y,z
-x,-y,1/2+z
-x,y,z
x,-y,1/2+z
loop_
_atom_site_type_symbol
_atom_site_label
_atom_site_fract_x
_atom_site_fract_y
_atom_site_fract_z
Si Si1 0.169678 0.598146 0.596980
Si Si2 0.168630 0.622306 0.002508
Si Si3 0.157355 0.981399 0.560166
Si Si4 0.168208 0.317779 0.295519
Si Si5 0.161168 0.230858 0.946393
Si Si6 0.662663 0.129412 0.798926
Si Si7 0.337788 0.177944 0.579645
Si Si8 0.165678 0.922521 0.771661
O O1 0.222699 0.484391 0.556011
O O2 0.232206 0.621588 0.702511
O O3 0.225361 0.688876 0.524602
O O4 0.000000 0.601796 0.600300
O O5 0.208764 0.617030 0.890682
O O6 0.000000 0.639364 0.014490
O O7 0.249262 0.718598 0.051929
O O8 0.269746 0.072891 0.530871
O O9 0.000000 0.035027 0.562563
O O10 0.164272 0.889977 0.483048
O O11 0.189882 0.925810 0.659802
O O12 0.223334 0.194514 0.305092
O O13 0.000000 0.311210 0.280896
O O14 0.262326 0.228207 0.854692
O O15 0.000000 0.265783 0.917943
O O16 0.500000 0.117015 0.832586
O O17 0.673439 0.162784 0.690966
O O18 0.742391 0.016597 0.819742
O O19 0.500000 0.190122 0.545029
O O20 0.000000 0.939840 0.799891
#
# Coordination Sequence:
#
# PCOD8167280 Si02
#       8
#     4   4   4   4   4   4   4   4
#     4   9  18  35  57  84 117 147 183 233 281 326
#     4  10  21  35  58  87 111 143 189 234 277 330
#     4   9  17  31  54  80 106 141 183 228 276 328
#     4   9  17  32  54  82 112 142 179 228 279 325
#     4  10  19  33  56  84 111 146 187 228 276 329
#     4  10  22  36  51  78 116 153 186 227 279 335
#     4  10  22  39  54  74 113 153 183 226 281 333
#     4   9  16  31  54  77 106 145 186 228 275 328
#
# _framework density 19.421665000000001
#
# number of rings (size 3 to 8) (size 9 to 14) (size 15 to 20)
#    0.000    2.500    1.250    0.750    1.750    3.000 
#    0.000    3.125    0.000    2.250    0.000    0.000 
#    0.000    0.000    0.000    0.000    0.000    0.000 
#
# Total GULP energy -396708.864109 kJ/mol
# GULP energy per Si atom -12397.152003 kJ/mol
# Density = 1.937746 g / cm^3
# Si number density = 19.421665 Si / 1000 Ang^3
#
#
#
# Elastic Constant Matrix: (Units=GPa)
#
#
# Indices 1 2 3 4 5 6 
#
# 1 68.9048 40.7043 27.8931 0.0000 0.0000 0.0000
# 2 40.7043 117.1504 52.9463 0.0000 0.0000 0.0000
# 3 27.8931 52.9463 60.4062 0.0000 0.0000 0.0000
# 4 0.0000 0.0000 0.0000 27.3831 0.0000 0.0000
# 5 0.0000 0.0000 0.0000 0.0000 19.1769 0.0000
# 6 0.0000 0.0000 0.0000 0.0000 0.0000 -0.8367
#
#
#
# Elastic Compliance Matrix: (Units=1/GPa)
#
#
# Indices 1 2 3 4 5 6 
#
# 1 0.019124 -0.004395 -0.004979 0.000000 0.000000 0.000000
# 2 -0.004395 0.015146 -0.011246 0.000000 0.000000 0.000000
# 3 -0.004979 -0.011246 0.028711 0.000000 0.000000 0.000000
# 4 0.000000 0.000000 0.000000 0.036519 0.000000 0.000000
# 5 0.000000 0.000000 0.000000 0.000000 0.052146 0.000000
# 6 0.000000 0.000000 0.000000 0.000000 0.000000 -1.195117
#
#
# Mechanical properties :
#
#
# Convention : Reuss Voigt Hill
#
# Bulk Modulus (GPa) = 45.99449 54.39432 50.19440
# Shear Modulus (GPa) = -5.02520 17.47252 6.22366
#
# Velocity S-wave (km/s) = -1.61029 3.00266 1.79205
# Velocity P-wave (km/s) = 4.50290 6.33159 5.49387
#
# Compressibility (1/GPa) = 0.02174174
#
# Stress axis : x y z
#
# Youngs Moduli (GPa) = 52.28955 66.02604 34.83016
#
# Poissons Ratio (x) = 0.29015 0.17342
# Poissons Ratio (y) = 0.22979 0.39170
# Poissons Ratio (z) = 0.26035 0.74252
#
# Static dielectric constant tensor:
#      x y z
#    x 3.371260 0.000000 0.000000 
#    y 0.000000 3.552730 0.000000 
#    z 0.000000 0.000000 3.706540 
# 
# 
# High freq. dielectric constant tensor:
#      x y z
#    x 1.716040 0.000000 0.000000 
#    y 0.000000 1.749520 0.000000 
#    z 0.000000 0.000000 1.767100 
# 
# From -- ./inp_files/4182.got.cif
#   From: 2010.03.12/outbox.cif.g09.slc.cpg/sg26_3_cif.got.tgz:4182.got - 2010.04.14 03:33:09.
