data_PCOD8167102
_publ_section_title
;
Structure prediction by ZEFSAII (Michael W. Deem and Ramdas Pophale) SiO2 
 PCOD8167102
Probable space group: P M C 21
;
_chemical_formula_sum "Si O2"
_cell_formula_units_Z 32
_cell_length_a 9.526265
_cell_length_b 11.027362
_cell_length_c 16.469254
_cell_angle_alpha 90.000000
_cell_angle_beta 90.000000
_cell_angle_gamma 90.000000
_cell_volume 1730.088095
_symmetry_space_group_name_H-M "P M C 21"
_symmetry_group_IT_number 26
_symmetry_cell_setting 'orthorhombic'
loop_
_space_group_symop_operation_xyz
x,y,z
-x,-y,1/2+z
-x,y,z
x,-y,1/2+z
loop_
_atom_site_type_symbol
_atom_site_label
_atom_site_fract_x
_atom_site_fract_y
_atom_site_fract_z
Si Si1 0.167713 0.685282 0.937320
Si Si2 0.663120 0.198341 0.290201
Si Si3 0.845688 0.112327 0.015592
Si Si4 0.340798 0.452083 0.973147
Si Si5 0.846119 0.855224 0.080384
Si Si6 0.339415 0.721290 0.616537
Si Si7 0.654926 0.208054 0.884827
Si Si8 0.658798 0.934015 0.228058
O O1 0.239224 0.755020 0.862400
O O2 0.000000 0.681581 0.923301
O O3 0.229299 0.551178 0.945752
O O4 0.208464 0.747933 0.022555
O O5 0.500000 0.197120 0.318112
O O6 0.682548 0.291301 0.213536
O O7 0.712544 0.062304 0.264877
O O8 0.755366 0.166180 0.089225
O O9 0.000000 0.173221 0.016619
O O10 0.858789 0.969675 0.022079
O O11 0.773357 0.133039 0.929931
O O12 0.500000 0.504260 0.975052
O O13 0.300803 0.397676 0.062753
O O14 0.327298 0.350078 0.903487
O O15 0.743082 0.884440 0.152533
O O16 0.000000 0.822960 0.116234
O O17 0.500000 0.755871 0.597122
O O18 0.500000 0.166158 0.914665
O O19 0.671877 0.177209 0.790706
O O20 0.500000 0.954765 0.199105
#
# Coordination Sequence:
#
# PCOD8167102 Si02
#       8
#     4   4   4   4   4   4   4   4
#     4  11  24  40  56  79 114 155 196 234 276 332
#     4  10  20  36  60  89 116 143 183 234 287 340
#     4  10  18  30  53  82 110 144 179 214 272 337
#     4   9  19  38  59  78 108 147 188 233 281 330
#     4  10  22  37  52  77 117 152 178 224 281 333
#     4   9  18  35  59  85 112 142 181 234 282 328
#     4   9  19  35  56  83 111 140 179 231 281 327
#     4  10  20  35  59  89 114 141 182 230 280 341
#
# _framework density 18.496167
#
# number of rings (size 3 to 8) (size 9 to 14) (size 15 to 20)
#    0.000    2.250    1.250    2.250    0.000    5.000 
#    2.250    0.000    0.000    0.000    0.000    0.000 
#    0.000    0.000    0.000    0.000    0.000    0.000 
#
# Total GULP energy -396615.317168 kJ/mol
# GULP energy per Si atom -12394.228662 kJ/mol
# Density = 1.845407 g / cm^3
# Si number density = 18.496167 Si / 1000 Ang^3
#
#
#
# Elastic Constant Matrix: (Units=GPa)
#
#
# Indices 1 2 3 4 5 6 
#
# 1 102.9162 49.2535 63.6976 0.0000 0.0000 0.0000
# 2 49.2535 86.7892 61.1717 0.0000 0.0000 0.0000
# 3 63.6976 61.1717 115.0717 0.0000 0.0000 0.0000
# 4 0.0000 0.0000 0.0000 27.5142 0.0000 0.0000
# 5 0.0000 0.0000 0.0000 0.0000 18.9479 0.0000
# 6 0.0000 0.0000 0.0000 0.0000 0.0000 27.2561
#
#
#
# Elastic Compliance Matrix: (Units=1/GPa)
#
#
# Indices 1 2 3 4 5 6 
#
# 1 0.015800 -0.004481 -0.006364 0.000000 0.000000 0.000000
# 2 -0.004481 0.019697 -0.007990 0.000000 0.000000 0.000000
# 3 -0.006364 -0.007990 0.016461 0.000000 0.000000 0.000000
# 4 0.000000 0.000000 0.000000 0.036345 0.000000 0.000000
# 5 0.000000 0.000000 0.000000 0.000000 0.052776 0.000000
# 6 0.000000 0.000000 0.000000 0.000000 0.000000 0.036689
#
#
# Mechanical properties :
#
#
# Convention : Reuss Voigt Hill
#
# Bulk Modulus (GPa) = 69.99426 72.55807 71.27617
# Shear Modulus (GPa) = 22.70652 23.45393 23.08022
#
# Velocity S-wave (km/s) = 3.50756 3.56482 3.53631
# Velocity P-wave (km/s) = 7.37080 7.50052 7.43594
#
# Compressibility (1/GPa) = 0.01428689
#
# Stress axis : x y z
#
# Youngs Moduli (GPa) = 63.29111 50.76881 60.75117
#
# Poissons Ratio (x) = 0.22750 0.38661
# Poissons Ratio (y) = 0.28362 0.48542
# Poissons Ratio (z) = 0.40278 0.40566
#
# Static dielectric constant tensor:
#      x y z
#    x 3.524840 0.000000 0.000000 
#    y 0.000000 3.301290 0.000000 
#    z 0.000000 0.000000 3.402170 
# 
# 
# High freq. dielectric constant tensor:
#      x y z
#    x 1.722200 0.000000 0.000000 
#    y 0.000000 1.702560 0.000000 
#    z 0.000000 0.000000 1.715440 
# 
# From -- ./inp_files/4250.got.cif
#   From: 2010.03.12/outbox.cif.g09.slc.cpg/sg26_3_cif.got.tgz:4250.got - 2010.04.14 03:33:09.
