data_PCOD8167318
_publ_section_title
;
Structure prediction by ZEFSAII (Michael W. Deem and Ramdas Pophale) SiO2 
 PCOD8167318
Probable space group: P M C 21
;
_chemical_formula_sum "Si O2"
_cell_formula_units_Z 32
_cell_length_a 9.234786
_cell_length_b 16.174211
_cell_length_c 11.076081
_cell_angle_alpha 90.000000
_cell_angle_beta 90.000000
_cell_angle_gamma 90.000000
_cell_volume 1654.383018
_symmetry_space_group_name_H-M "P M C 21"
_symmetry_group_IT_number 26
_symmetry_cell_setting 'orthorhombic'
loop_
_space_group_symop_operation_xyz
x,y,z
-x,-y,1/2+z
-x,y,z
x,-y,1/2+z
loop_
_atom_site_type_symbol
_atom_site_label
_atom_site_fract_x
_atom_site_fract_y
_atom_site_fract_z
Si Si1 0.838140 0.257909 0.396130
Si Si2 0.334097 0.713433 0.273296
Si Si3 0.829357 0.562484 0.967524
Si Si4 0.669013 0.154962 0.219308
Si Si5 0.663978 0.848903 0.456724
Si Si6 0.827417 0.546060 0.239830
Si Si7 0.835834 0.153948 0.621997
Si Si8 0.670171 0.029541 0.755971
O O1 0.778927 0.341551 0.460124
O O2 0.739286 0.233136 0.284323
O O3 0.838275 0.178077 0.482120
O O4 0.000000 0.276044 0.348658
O O5 0.500000 0.695059 0.234805
O O6 0.328516 0.756376 0.404422
O O7 0.241157 0.631491 0.280894
O O8 0.262816 0.776202 0.180927
O O9 0.771748 0.517561 0.844490
O O10 0.000000 0.554988 0.967485
O O11 0.776500 0.525991 0.099629
O O12 0.500000 0.174279 0.214600
O O13 0.701125 0.066505 0.281212
O O14 0.740717 0.150745 0.086361
O O15 0.500000 0.878626 0.476487
O O16 0.733747 0.917296 0.367984
O O17 0.000000 0.554371 0.242259
O O18 0.759174 0.064491 0.640031
O O19 0.000000 0.153633 0.673964
O O20 0.500000 0.046231 0.732665
#
# Coordination Sequence:
#
# PCOD8167318 Si02
#       8
#     4   4   4   4   4   4   4   4
#     4  10  21  37  54  79 114 146 182 234 281 326
#     4  10  19  34  57  81 109 143 181 228 277 329
#     4   9  19  36  58  82 112 146 186 234 285 340
#     4  10  21  35  55  79 108 148 186 227 281 340
#     4   8  17  34  50  74 109 139 175 225 275 326
#     4  10  19  36  60  85 111 147 191 234 283 343
#     4  10  19  34  57  80 108 142 181 228 273 323
#     4   9  19  34  55  80 107 141 184 230 275 331
#
# _framework density 19.342559000000001
#
# number of rings (size 3 to 8) (size 9 to 14) (size 15 to 20)
#    0.000    2.500    1.250    1.500    1.750    2.500 
#    0.000    5.625    0.000    0.000    0.000    0.000 
#    0.000    0.000    0.000    0.000    0.000    0.000 
#
# Total GULP energy -396464.877559 kJ/mol
# GULP energy per Si atom -12389.527424 kJ/mol
# Density = 1.929853 g / cm^3
# Si number density = 19.342559 Si / 1000 Ang^3
#
#
#
# Elastic Constant Matrix: (Units=GPa)
#
#
# Indices 1 2 3 4 5 6 
#
# 1 45.0773 20.2709 23.5262 0.0000 0.0000 0.0000
# 2 20.2709 67.4697 41.0934 0.0000 0.0000 0.0000
# 3 23.5262 41.0934 124.0759 0.0000 0.0000 0.0000
# 4 0.0000 0.0000 0.0000 28.5470 0.0000 0.0000
# 5 0.0000 0.0000 0.0000 0.0000 23.1434 0.0000
# 6 0.0000 0.0000 0.0000 0.0000 0.0000 28.1488
#
#
#
# Elastic Compliance Matrix: (Units=1/GPa)
#
#
# Indices 1 2 3 4 5 6 
#
# 1 0.026508 -0.006142 -0.002992 0.000000 0.000000 0.000000
# 2 -0.006142 0.019990 -0.005456 0.000000 0.000000 0.000000
# 3 -0.002992 -0.005456 0.010434 0.000000 0.000000 0.000000
# 4 0.000000 0.000000 0.000000 0.035030 0.000000 0.000000
# 5 0.000000 0.000000 0.000000 0.000000 0.043209 0.000000
# 6 0.000000 0.000000 0.000000 0.000000 0.000000 0.035526
#
#
# Mechanical properties :
#
#
# Convention : Reuss Voigt Hill
#
# Bulk Modulus (GPa) = 36.03374 45.15598 40.59486
# Shear Modulus (GPa) = 23.90907 26.08332 24.99619
#
# Velocity S-wave (km/s) = 3.51962 3.67617 3.59874
# Velocity P-wave (km/s) = 5.93183 6.43545 6.18877
#
# Compressibility (1/GPa) = 0.02775177
#
# Stress axis : x y z
#
# Youngs Moduli (GPa) = 37.72509 50.02562 95.84142
#
# Poissons Ratio (x) = 0.30724 0.28676
# Poissons Ratio (y) = 0.23170 0.52291
# Poissons Ratio (z) = 0.11287 0.27294
#
# Static dielectric constant tensor:
#      x y z
#    x 3.342730 0.000000 0.000000 
#    y 0.000000 3.649400 0.000000 
#    z 0.000000 0.000000 3.826700 
# 
# 
# High freq. dielectric constant tensor:
#      x y z
#    x 1.723610 0.000000 0.000000 
#    y 0.000000 1.745200 0.000000 
#    z 0.000000 0.000000 1.754490 
# 
# From -- ./inp_files/3119.got.cif
#   From: 2010.03.12/outbox.cif.g09.slc.cpg/sg26_2_cif.got.tgz:3119.got - 2010.04.14 03:33:09.
