data_PCOD8167254
_publ_section_title
;
Structure prediction by ZEFSAII (Michael W. Deem and Ramdas Pophale) SiO2 
 PCOD8167254
Probable space group: P M C 21
;
_chemical_formula_sum "Si O2"
_cell_formula_units_Z 32
_cell_length_a 8.465290
_cell_length_b 35.764980
_cell_length_c 5.184648
_cell_angle_alpha 90.000000
_cell_angle_beta 90.000000
_cell_angle_gamma 90.000000
_cell_volume 1569.708837
_symmetry_space_group_name_H-M "P M C 21"
_symmetry_group_IT_number 26
_symmetry_cell_setting 'orthorhombic'
loop_
_space_group_symop_operation_xyz
x,y,z
-x,-y,1/2+z
-x,y,z
x,-y,1/2+z
loop_
_atom_site_type_symbol
_atom_site_label
_atom_site_fract_x
_atom_site_fract_y
_atom_site_fract_z
Si Si1 0.312942 0.605494 0.869060
Si Si2 0.311455 0.521609 0.888867
Si Si3 0.311965 0.854106 0.894097
Si Si4 0.685060 0.769409 0.834022
Si Si5 0.816586 0.731483 0.332529
Si Si6 0.815463 0.976842 0.370676
Si Si7 0.687545 0.650056 0.366702
Si Si8 0.314325 0.104844 0.893725
O O1 0.500000 0.603079 0.883199
O O2 0.242697 0.563674 0.883911
O O3 0.257895 0.624450 0.604619
O O4 0.251135 0.629968 0.108206
O O5 0.500000 0.522434 0.886886
O O6 0.247211 0.499229 0.641871
O O7 0.500000 0.856465 0.895218
O O8 0.256498 0.811247 0.895691
O O9 0.241149 0.875426 0.645870
O O10 0.240237 0.874845 0.143989
O O11 0.500000 0.767770 0.772613
O O12 0.775475 0.756323 0.579730
O O13 0.720003 0.743780 0.080427
O O14 0.774174 0.689155 0.398540
O O15 0.000000 0.735549 0.268922
O O16 0.720859 0.938768 0.394017
O O17 0.000000 0.967615 0.379136
O O18 0.765518 0.003407 0.605864
O O19 0.500000 0.656593 0.365738
O O20 0.500000 0.110937 0.892829
#
# Coordination Sequence:
#
# PCOD8167254 Si02
#       8
#     4   4   4   4   4   4   4   4
#     4   9  17  28  45  70  99 134 179 224 263 322
#     4   9  15  23  37  61  97 134 163 205 273 331
#     4   9  19  35  57  83 109 138 177 226 271 322
#     4  11  22  41  66  87 113 156 199 229 279 355
#     4  12  25  40  58  87 122 149 186 245 299 335
#     4  10  21  36  52  73 105 143 180 217 261 317
#     4  10  19  33  52  73 101 141 186 224 267 330
#     4  10  19  34  56  82 108 135 174 224 273 316
#
# _framework density 20.385947000000002
#
# number of rings (size 3 to 8) (size 9 to 14) (size 15 to 20)
#    0.000    2.000    0.000    4.500    0.000    6.500 
#    0.000    3.750    0.000    0.000    0.000    0.000 
#    0.000   10.000    0.000    0.000    0.000    0.000 
#
# Total GULP energy -396901.087389 kJ/mol
# GULP energy per Si atom -12403.158981 kJ/mol
# Density = 2.033955 g / cm^3
# Si number density = 20.385947 Si / 1000 Ang^3
#
#
#
# Elastic Constant Matrix: (Units=GPa)
#
#
# Indices 1 2 3 4 5 6 
#
# 1 22.5520 21.3309 15.4325 0.0000 0.0000 0.0000
# 2 21.3309 105.6673 27.8497 0.0000 0.0000 0.0000
# 3 15.4325 27.8497 137.6402 0.0000 0.0000 0.0000
# 4 0.0000 0.0000 0.0000 43.9683 0.0000 0.0000
# 5 0.0000 0.0000 0.0000 0.0000 14.5401 0.0000
# 6 0.0000 0.0000 0.0000 0.0000 0.0000 -2.9526
#
#
#
# Elastic Compliance Matrix: (Units=1/GPa)
#
#
# Indices 1 2 3 4 5 6 
#
# 1 0.057119 -0.010397 -0.004301 0.000000 0.000000 0.000000
# 2 -0.010397 0.011889 -0.001240 0.000000 0.000000 0.000000
# 3 -0.004301 -0.001240 0.007998 0.000000 0.000000 0.000000
# 4 0.000000 0.000000 0.000000 0.022744 0.000000 0.000000
# 5 0.000000 0.000000 0.000000 0.000000 0.068775 0.000000
# 6 0.000000 0.000000 0.000000 0.000000 0.000000 -0.338685
#
#
# Mechanical properties :
#
#
# Convention : Reuss Voigt Hill
#
# Bulk Modulus (GPa) = 22.15749 43.89842 33.02795
# Shear Modulus (GPa) = -40.57091 24.52759 -8.02166
#
# Velocity S-wave (km/s) = -4.46594 3.47243 -1.98581
# Velocity P-wave (km/s) = 3.96235 6.13656 3.31340
#
# Compressibility (1/GPa) = 0.04513147
#
# Stress axis : x y z
#
# Youngs Moduli (GPa) = 17.50734 84.10925 125.02519
#
# Poissons Ratio (x) = 0.87449 0.53768
# Poissons Ratio (y) = 0.18203 0.15502
# Poissons Ratio (z) = 0.07529 0.10429
#
# Static dielectric constant tensor:
#      x y z
#    x 3.046270 0.000000 0.000000 
#    y 0.000000 3.816670 0.000000 
#    z 0.000000 0.000000 4.081750 
# 
# 
# High freq. dielectric constant tensor:
#      x y z
#    x 1.746060 0.000000 0.000000 
#    y 0.000000 1.814060 0.000000 
#    z 0.000000 0.000000 1.818410 
# 
# From -- ./inp_files/233.got.cif
#   From: 2010.03.12/outbox.cif.g09.slc.cpg/sg26_1_cif.got.tgz:233.got - 2010.04.14 03:33:09.
