data_PCOD8167800
_publ_section_title
;
Structure prediction by ZEFSAII (Michael W. Deem and Ramdas Pophale) SiO2 
 PCOD8167800
Probable space group: P C C 2
;
_chemical_formula_sum "Si O2"
_cell_formula_units_Z 22
_cell_length_a 16.284397
_cell_length_b 6.697333
_cell_length_c 8.369442
_cell_angle_alpha 90.000000
_cell_angle_beta 90.000000
_cell_angle_gamma 90.000000
_cell_volume 912.788330
_symmetry_space_group_name_H-M "P C C 2"
_symmetry_group_IT_number 27
_symmetry_cell_setting 'orthorhombic'
loop_
_space_group_symop_operation_xyz
x,y,z
-x,-y,z
-x,y,1/2+z
x,-y,1/2+z
loop_
_atom_site_type_symbol
_atom_site_label
_atom_site_fract_x
_atom_site_fract_y
_atom_site_fract_z
Si Si1 0.257955 0.294815 0.612250
Si Si2 0.575387 0.746304 0.717394
Si Si3 0.588880 0.191346 0.593267
Si Si4 0.000000 0.500000 0.395846
Si Si5 0.747328 0.115051 0.760910
Si Si6 0.879655 0.633800 0.145053
O O1 0.350993 0.387876 0.635340
O O2 0.246194 0.189429 0.442271
O O3 0.184370 0.447443 0.644843
O O4 0.259884 0.124576 0.751887
O O5 0.482084 0.672293 0.678976
O O6 0.577117 0.956191 0.623149
O O7 0.589680 0.768027 0.905185
O O8 0.675345 0.242086 0.676248
O O9 0.939482 0.635800 0.295696
O O10 0.940099 0.356214 0.495574
O O11 0.829089 0.163964 0.659682
#
# Coordination Sequence:
#
# PCOD8167800 Si02
#       6
#     4   4   4   2   4   4
#     4  11  23  39  65  96 128 166 210 255 306 369
#     4  10  18  31  54  85 126 167 208 252 299 357
#     4  10  18  31  54  85 126 167 208 252 299 357
#     4  10  24  46  70  90 122 164 200 258 326 382
#     4  11  23  39  65  96 128 166 210 255 306 369
#     4  11  24  46  69  90 126 162 205 258 318 377
#
# _framework density 24.101974999999999
#
# number of rings (size 3 to 8) (size 9 to 14) (size 15 to 20)
#    0.000    1.455    1.818    7.636    5.091    0.000 
#    0.000    6.364    0.000    4.364    0.000    0.000 
#    0.000    0.000    0.000    0.000    0.000    0.000 
#
# Total GULP energy -272576.343630 kJ/mol
# GULP energy per Si atom -12389.833801 kJ/mol
# Density = 2.404712 g / cm^3
# Si number density = 24.101975 Si / 1000 Ang^3
#
#
#
# Elastic Constant Matrix: (Units=GPa)
#
#
# Indices 1 2 3 4 5 6 
#
# 1 193.0097 18.2613 38.7278 0.0000 0.0000 0.0000
# 2 18.2613 16.6658 0.3148 0.0000 0.0000 0.0000
# 3 38.7278 0.3148 113.7512 0.0000 0.0000 0.0000
# 4 0.0000 0.0000 0.0000 12.3564 0.0000 0.0000
# 5 0.0000 0.0000 0.0000 0.0000 57.9185 0.0000
# 6 0.0000 0.0000 0.0000 0.0000 0.0000 22.6926
#
#
#
# Elastic Compliance Matrix: (Units=1/GPa)
#
#
# Indices 1 2 3 4 5 6 
#
# 1 0.006248 -0.006806 -0.002108 0.000000 0.000000 0.000000
# 2 -0.006806 0.067421 0.002131 0.000000 0.000000 0.000000
# 3 -0.002108 0.002131 0.009503 0.000000 0.000000 0.000000
# 4 0.000000 0.000000 0.000000 0.080930 0.000000 0.000000
# 5 0.000000 0.000000 0.000000 0.000000 0.017266 0.000000
# 6 0.000000 0.000000 0.000000 0.000000 0.000000 0.044067
#
#
# Mechanical properties :
#
#
# Convention : Reuss Voigt Hill
#
# Bulk Modulus (GPa) = 14.36697 48.67049 31.51873
# Shear Modulus (GPa) = 19.06908 36.33502 27.70205
#
# Velocity S-wave (km/s) = 2.81585 3.88693 3.39391
# Velocity P-wave (km/s) = 4.06766 6.35466 5.33515
#
# Compressibility (1/GPa) = 0.06960411
#
# Stress axis : x y z
#
# Youngs Moduli (GPa) = 160.04790 14.83213 105.22938
#
# Poissons Ratio (x) = 0.10095 0.22187
# Poissons Ratio (y) = 1.08936 -0.22422
# Poissons Ratio (z) = 0.33745 -0.03160
#
# Static dielectric constant tensor:
#      x y z
#    x 5.362450 0.000000 0.000000 
#    y 0.000000 4.022170 0.000000 
#    z 0.000000 0.000000 4.507830 
# 
# 
# High freq. dielectric constant tensor:
#      x y z
#    x 1.990210 0.000000 0.000000 
#    y 0.000000 1.925940 0.000000 
#    z 0.000000 0.000000 1.963010 
# 
# From -- ./inp_files/1559.got.cif
#   From: 2010.03.12/outbox.cif.g09.slc.cpg/sg27_1_cif.got.tgz:1559.got - 2010.04.14 03:36:05.
