data_PCOD8167174
_publ_section_title
;
Structure prediction by ZEFSAII (Michael W. Deem and Ramdas Pophale) SiO2 
 PCOD8167174
Probable space group: P M C 21
;
_chemical_formula_sum "Si O2"
_cell_formula_units_Z 32
_cell_length_a 14.245946
_cell_length_b 9.214565
_cell_length_c 12.358602
_cell_angle_alpha 90.000000
_cell_angle_beta 90.000000
_cell_angle_gamma 90.000000
_cell_volume 1622.316099
_symmetry_space_group_name_H-M "P M C 21"
_symmetry_group_IT_number 26
_symmetry_cell_setting 'orthorhombic'
loop_
_space_group_symop_operation_xyz
x,y,z
-x,-y,1/2+z
-x,y,z
x,-y,1/2+z
loop_
_atom_site_type_symbol
_atom_site_label
_atom_site_fract_x
_atom_site_fract_y
_atom_site_fract_z
Si Si1 0.271542 0.492375 0.631570
Si Si2 0.201982 0.919694 0.974268
Si Si3 0.604047 0.467751 0.936526
Si Si4 0.693763 0.285652 0.307029
Si Si5 0.108045 0.939838 0.287440
Si Si6 0.895992 0.705860 0.125849
Si Si7 0.606918 0.741212 0.241103
Si Si8 0.288082 0.022066 0.178551
O O1 0.316680 0.566071 0.525837
O O2 0.251419 0.598983 0.731754
O O3 0.170626 0.428745 0.602520
O O4 0.343877 0.362922 0.655045
O O5 0.244111 0.797351 0.895156
O O6 0.146110 0.045785 0.910251
O O7 0.125521 0.839986 0.047426
O O8 0.284773 0.992938 0.048688
O O9 0.500000 0.473262 0.988467
O O10 0.616162 0.620321 0.870996
O O11 0.611495 0.329653 0.858678
O O12 0.655808 0.166462 0.218776
O O13 0.114857 0.771575 0.247873
O O14 0.178712 0.038252 0.215083
O O15 0.000000 0.995067 0.276920
O O16 0.000000 0.648203 0.104130
O O17 0.500000 0.768140 0.203800
O O18 0.662880 0.891520 0.243054
#
# Coordination Sequence:
#
# PCOD8167174 Si02
#       8
#     4   4   4   4   4   4   4   4
#     4  11  20  38  57  86 121 159 195 242 286 357
#     4  10  18  36  57  84 117 160 197 243 301 346
#     4  10  21  38  62  86 114 154 197 237 296 362
#     4  10  22  36  60  86 119 156 193 243 298 353
#     4   9  18  32  56  85 116 155 201 242 288 353
#     4  10  19  35  59  86 117 160 202 245 299 354
#     4  10  20  36  60  85 114 154 196 243 300 356
#     4  10  20  37  59  88 118 150 195 253 298 351
#
# _framework density 19.724886999999999
#
# number of rings (size 3 to 8) (size 9 to 14) (size 15 to 20)
#    0.000    2.000    3.750    0.750    0.000    3.500 
#    0.000    3.125    0.000    4.500    0.000    0.000 
#    0.000    0.000    0.000    0.000    0.000    0.000 
#
# Total GULP energy -396448.112730 kJ/mol
# GULP energy per Si atom -12389.003523 kJ/mol
# Density = 1.967999 g / cm^3
# Si number density = 19.724887 Si / 1000 Ang^3
#
#
#
# Elastic Constant Matrix: (Units=GPa)
#
#
# Indices 1 2 3 4 5 6 
#
# 1 104.1433 31.1893 45.7863 0.0000 0.0000 0.0000
# 2 31.1893 71.6917 33.5605 0.0000 0.0000 0.0000
# 3 45.7863 33.5605 97.0980 0.0000 0.0000 0.0000
# 4 0.0000 0.0000 0.0000 36.0770 0.0000 0.0000
# 5 0.0000 0.0000 0.0000 0.0000 25.9424 0.0000
# 6 0.0000 0.0000 0.0000 0.0000 0.0000 18.4725
#
#
#
# Elastic Compliance Matrix: (Units=1/GPa)
#
#
# Indices 1 2 3 4 5 6 
#
# 1 0.012719 -0.003252 -0.004873 0.000000 0.000000 0.000000
# 2 -0.003252 0.017473 -0.004506 0.000000 0.000000 0.000000
# 3 -0.004873 -0.004506 0.014154 0.000000 0.000000 0.000000
# 4 0.000000 0.000000 0.000000 0.027718 0.000000 0.000000
# 5 0.000000 0.000000 0.000000 0.000000 0.038547 0.000000
# 6 0.000000 0.000000 0.000000 0.000000 0.000000 0.054134
#
#
# Mechanical properties :
#
#
# Convention : Reuss Voigt Hill
#
# Bulk Modulus (GPa) = 52.40162 54.88945 53.64554
# Shear Modulus (GPa) = 25.46231 26.92484 26.19358
#
# Velocity S-wave (km/s) = 3.59677 3.69862 3.64805
# Velocity P-wave (km/s) = 6.62366 6.79174 6.70823
#
# Compressibility (1/GPa) = 0.01908338
#
# Stress axis : x y z
#
# Youngs Moduli (GPa) = 78.62479 57.23261 70.64986
#
# Poissons Ratio (x) = 0.18611 0.34431
# Poissons Ratio (y) = 0.25567 0.31833
# Poissons Ratio (z) = 0.38318 0.25788
#
# Static dielectric constant tensor:
#      x y z
#    x 3.538660 0.000000 0.000000 
#    y 0.000000 3.562700 0.000000 
#    z 0.000000 0.000000 3.848880 
# 
# 
# High freq. dielectric constant tensor:
#      x y z
#    x 1.753190 0.000000 0.000000 
#    y 0.000000 1.752960 0.000000 
#    z 0.000000 0.000000 1.775550 
# 
# From -- ./inp_files/3611.got.cif
#   From: 2010.03.12/outbox.cif.g09.slc.cpg/sg26_2_cif.got.tgz:3611.got - 2010.04.14 03:33:09.
