data_PCOD8167714
_publ_section_title
;
Structure prediction by ZEFSAII (Michael W. Deem and Ramdas Pophale) SiO2 
 PCOD8167714
Probable space group: P M C 21
;
_chemical_formula_sum "Si O2"
_cell_formula_units_Z 20
_cell_length_a 10.087612
_cell_length_b 8.946854
_cell_length_c 10.482014
_cell_angle_alpha 90.000000
_cell_angle_beta 90.000000
_cell_angle_gamma 90.000000
_cell_volume 946.026834
_symmetry_space_group_name_H-M "P M C 21"
_symmetry_group_IT_number 26
_symmetry_cell_setting 'orthorhombic'
loop_
_space_group_symop_operation_xyz
x,y,z
-x,-y,1/2+z
-x,y,z
x,-y,1/2+z
loop_
_atom_site_type_symbol
_atom_site_label
_atom_site_fract_x
_atom_site_fract_y
_atom_site_fract_z
Si Si1 0.276498 0.052663 0.566270
Si Si2 0.642120 0.249226 0.976887
Si Si3 0.149693 0.104100 0.301884
Si Si4 0.842428 0.396132 0.158776
Si Si5 0.354008 0.336261 0.695298
O O1 0.172626 0.069230 0.450222
O O2 0.346399 0.213242 0.582587
O O3 0.374619 0.921418 0.523385
O O4 0.219436 0.007722 0.703755
O O5 0.500000 0.327170 0.013318
O O6 0.771474 0.330292 0.033185
O O7 0.660286 0.247577 0.826380
O O8 0.183164 0.278790 0.273257
O O9 0.000000 0.073786 0.269551
O O10 0.767918 0.549201 0.190359
O O11 0.000000 0.423612 0.133640
O O12 0.500000 0.413960 0.684931
#
# Coordination Sequence:
#
# PCOD8167714 Si02
#       5
#     4   4   4   4   4
#     4  11  21  42  65  97 125 169 218 266 324 383
#     4  10  22  43  66  94 128 167 215 269 324 385
#     4  10  22  40  64  95 132 169 213 265 324 387
#     4  10  24  43  64  94 130 172 215 265 324 384
#     4  11  24  42  65  96 128 169 216 267 327 385
#
# _framework density 21.141048999999999
#
# number of rings (size 3 to 8) (size 9 to 14) (size 15 to 20)
#    0.000    1.600    2.000    1.800    2.800    3.200 
#    0.000    2.000    0.000    0.000    0.000    0.000 
#    0.000    0.000    0.000    0.000    0.000    0.000 
#
# Total GULP energy -247764.530584 kJ/mol
# GULP energy per Si atom -12388.226529 kJ/mol
# Density = 2.109293 g / cm^3
# Si number density = 21.141049 Si / 1000 Ang^3
#
#
#
# Elastic Constant Matrix: (Units=GPa)
#
#
# Indices 1 2 3 4 5 6 
#
# 1 141.6264 62.5065 36.4226 0.0000 0.0000 0.0000
# 2 62.5065 103.0471 44.0609 0.0000 0.0000 0.0000
# 3 36.4226 44.0609 91.8110 0.0000 0.0000 0.0000
# 4 0.0000 0.0000 0.0000 23.8050 0.0000 0.0000
# 5 0.0000 0.0000 0.0000 0.0000 25.8501 0.0000
# 6 0.0000 0.0000 0.0000 0.0000 0.0000 23.4248
#
#
#
# Elastic Compliance Matrix: (Units=1/GPa)
#
#
# Indices 1 2 3 4 5 6 
#
# 1 0.009763 -0.005368 -0.001297 0.000000 0.000000 0.000000
# 2 -0.005368 0.015161 -0.005146 0.000000 0.000000 0.000000
# 3 -0.001297 -0.005146 0.013876 0.000000 0.000000 0.000000
# 4 0.000000 0.000000 0.000000 0.042008 0.000000 0.000000
# 5 0.000000 0.000000 0.000000 0.000000 0.038685 0.000000
# 6 0.000000 0.000000 0.000000 0.000000 0.000000 0.042690
#
#
# Mechanical properties :
#
#
# Convention : Reuss Voigt Hill
#
# Bulk Modulus (GPa) = 65.88508 69.16273 67.52391
# Shear Modulus (GPa) = 26.19656 27.51562 26.85609
#
# Velocity S-wave (km/s) = 3.52395 3.61158 3.56803
# Velocity P-wave (km/s) = 6.91302 7.08359 6.99882
#
# Compressibility (1/GPa) = 0.01517794
#
# Stress axis : x y z
#
# Youngs Moduli (GPa) = 102.42276 65.96011 72.06494
#
# Poissons Ratio (x) = 0.35405 0.09349
# Poissons Ratio (y) = 0.54977 0.37087
# Poissons Ratio (z) = 0.13287 0.33945
#
# Static dielectric constant tensor:
#      x y z
#    x 3.883060 0.000000 0.000000 
#    y 0.000000 3.870850 0.000000 
#    z 0.000000 0.000000 3.798930 
# 
# 
# High freq. dielectric constant tensor:
#      x y z
#    x 1.831680 0.000000 0.000000 
#    y 0.000000 1.828070 0.000000 
#    z 0.000000 0.000000 1.829050 
# 
# From -- ./inp_files/2709.got.cif
#   From: 2010.03.12/outbox.cif.g09.slc.cpg/sg26_2_cif.got.tgz:2709.got - 2010.04.14 03:33:09.
