data_PCOD8167244
_publ_section_title
;
Structure prediction by ZEFSAII (Michael W. Deem and Ramdas Pophale) SiO2 
 PCOD8167244
Probable space group: P M C 21
;
_chemical_formula_sum "Si O2"
_cell_formula_units_Z 20
_cell_length_a 7.940980
_cell_length_b 14.362159
_cell_length_c 8.905696
_cell_angle_alpha 90.000000
_cell_angle_beta 90.000000
_cell_angle_gamma 90.000000
_cell_volume 1015.691221
_symmetry_space_group_name_H-M "P M C 21"
_symmetry_group_IT_number 26
_symmetry_cell_setting 'orthorhombic'
loop_
_space_group_symop_operation_xyz
x,y,z
-x,-y,1/2+z
-x,y,z
x,-y,1/2+z
loop_
_atom_site_type_symbol
_atom_site_label
_atom_site_fract_x
_atom_site_fract_y
_atom_site_fract_z
Si Si1 0.686765 0.287710 0.281580
Si Si2 0.500000 0.617834 0.239930
Si Si3 0.812512 0.072964 0.522675
Si Si4 0.500000 0.422223 0.090893
Si Si5 0.808960 0.277485 0.602398
Si Si6 0.687825 0.089607 0.210518
O O1 0.500000 0.259797 0.342430
O O2 0.667850 0.373648 0.163963
O O3 0.795560 0.312667 0.428467
O O4 0.758362 0.195991 0.195305
O O5 0.500000 0.530186 0.129061
O O6 0.500000 0.587225 0.412580
O O7 0.328537 0.674167 0.208779
O O8 0.772144 0.167057 0.615571
O O9 0.684386 0.062532 0.385741
O O10 0.000000 0.081948 0.455927
O O11 0.806665 0.981965 0.625169
O O12 0.000000 0.301219 0.656255
O O13 0.500000 0.080928 0.144513
#
# Coordination Sequence:
#
# PCOD8167244 Si02
#       6
#     4   2   4   2   4   4
#     4   8  17  38  60  85 113 150 198 235 295 344
#     4  12  22  40  65  86 121 152 189 246 294 360
#     4  10  21  35  52  81 118 155 193 239 285 333
#     4  10  22  40  65  88 115 156 189 240 308 348
#     4  10  21  38  62  89 118 157 199 242 294 348
#     4  10  19  32  55  80 113 151 194 233 277 346
#
# _framework density 19.691023000000001
#
# number of rings (size 3 to 8) (size 9 to 14) (size 15 to 20)
#    0.600    1.600    1.000    2.400    2.800    2.400 
#    0.000    5.000    0.000    0.000    0.000    0.000 
#    0.000    0.000    0.000    0.000    0.000    0.000 
#
# Total GULP energy -247837.326032 kJ/mol
# GULP energy per Si atom -12391.866302 kJ/mol
# Density = 1.964621 g / cm^3
# Si number density = 19.691023 Si / 1000 Ang^3
#
#
#
# Elastic Constant Matrix: (Units=GPa)
#
#
# Indices 1 2 3 4 5 6 
#
# 1 67.4384 10.3878 8.2993 0.0000 0.0000 0.0000
# 2 10.3878 52.4207 -4.6319 0.0000 0.0000 0.0000
# 3 8.2993 -4.6319 37.9109 0.0000 0.0000 0.0000
# 4 0.0000 0.0000 0.0000 37.8073 0.0000 0.0000
# 5 0.0000 0.0000 0.0000 0.0000 19.6534 0.0000
# 6 0.0000 0.0000 0.0000 0.0000 0.0000 20.0708
#
#
#
# Elastic Compliance Matrix: (Units=1/GPa)
#
#
# Indices 1 2 3 4 5 6 
#
# 1 0.015844 -0.003484 -0.003894 0.000000 0.000000 0.000000
# 2 -0.003484 0.020051 0.003212 0.000000 0.000000 0.000000
# 3 -0.003894 0.003212 0.027623 0.000000 0.000000 0.000000
# 4 0.000000 0.000000 0.000000 0.026450 0.000000 0.000000
# 5 0.000000 0.000000 0.000000 0.000000 0.050882 0.000000
# 6 0.000000 0.000000 0.000000 0.000000 0.000000 0.049824
#
#
# Mechanical properties :
#
#
# Convention : Reuss Voigt Hill
#
# Bulk Modulus (GPa) = 18.12042 20.65337 19.38690
# Shear Modulus (GPa) = 22.99915 25.08729 24.04322
#
# Velocity S-wave (km/s) = 3.42131 3.57325 3.49811
# Velocity P-wave (km/s) = 4.98292 5.24744 5.11689
#
# Compressibility (1/GPa) = 0.05518635
#
# Stress axis : x y z
#
# Youngs Moduli (GPa) = 63.11458 49.87368 36.20217
#
# Poissons Ratio (x) = 0.17375 0.14098
# Poissons Ratio (y) = 0.21988 -0.11630
# Poissons Ratio (z) = 0.24578 -0.16022
#
# Static dielectric constant tensor:
#      x y z
#    x 3.395110 0.000000 0.000000 
#    y 0.000000 3.580930 0.000000 
#    z 0.000000 0.000000 3.216810 
# 
# 
# High freq. dielectric constant tensor:
#      x y z
#    x 1.754850 0.000000 0.000000 
#    y 0.000000 1.767790 0.000000 
#    z 0.000000 0.000000 1.742550 
# 
# From -- ./inp_files/1372.got.cif
#   From: 2010.03.12/outbox.cif.g09.slc.cpg/sg26_1_cif.got.tgz:1372.got - 2010.04.14 03:33:09.
