data_PCOD8167794
_publ_section_title
;
Structure prediction by ZEFSAII (Michael W. Deem and Ramdas Pophale) SiO2 
 PCOD8167794
Probable space group: P C C 2
;
_chemical_formula_sum "Si O2"
_cell_formula_units_Z 20
_cell_length_a 24.000808
_cell_length_b 7.561578
_cell_length_c 5.258044
_cell_angle_alpha 90.000000
_cell_angle_beta 90.000000
_cell_angle_gamma 90.000000
_cell_volume 954.250761
_symmetry_space_group_name_H-M "P C C 2"
_symmetry_group_IT_number 27
_symmetry_cell_setting 'orthorhombic'
loop_
_space_group_symop_operation_xyz
x,y,z
-x,-y,z
-x,y,1/2+z
x,-y,1/2+z
loop_
_atom_site_type_symbol
_atom_site_label
_atom_site_fract_x
_atom_site_fract_y
_atom_site_fract_z
Si Si1 0.523712 0.800960 0.470420
Si Si2 0.242128 0.389543 0.407060
Si Si3 0.632097 0.614125 0.415383
Si Si4 0.148095 0.891023 0.898208
Si Si5 0.976217 0.199244 0.912880
O O1 0.505235 0.703803 0.730668
O O2 0.590635 0.783001 0.440958
O O3 0.500000 0.000000 0.493283
O O4 0.231848 0.533322 0.626781
O O5 0.304851 0.313104 0.429046
O O6 0.199796 0.232925 0.456595
O O7 0.621039 0.479338 0.645997
O O8 0.090146 0.788998 0.936044
O O9 0.151181 0.955082 0.607605
O O10 0.996756 0.297310 0.656361
O O11 0.000000 0.000000 0.891732
#
# Coordination Sequence:
#
# PCOD8167794 Si02
#       5
#     4   4   4   4   4
#     4  10  21  37  55  85 120 146 178 240 295 323
#     4  10  23  43  60  83 124 161 192 243 303 352
#     4  10  21  39  62  82 109 158 200 221 274 361
#     4  12  21  35  61  95 112 149 209 251 287 346
#     4  10  16  30  51  82 114 149 184 247 287 340
#
# _framework density 20.958850999999999
#
# number of rings (size 3 to 8) (size 9 to 14) (size 15 to 20)
#    0.000    1.600    4.000    2.400    0.000    2.400 
#    7.200    0.000    0.000    3.600    0.000    0.000 
#    0.000    0.000    0.000    0.000    0.000    0.000 
#
# Total GULP energy -247873.507678 kJ/mol
# GULP energy per Si atom -12393.675384 kJ/mol
# Density = 2.091115 g / cm^3
# Si number density = 20.958851 Si / 1000 Ang^3
#
#
#
# Elastic Constant Matrix: (Units=GPa)
#
#
# Indices 1 2 3 4 5 6 
#
# 1 150.7576 39.4940 15.7734 0.0000 0.0000 0.0000
# 2 39.4940 31.5994 -0.6501 0.0000 0.0000 0.0000
# 3 15.7734 -0.6501 151.7786 0.0000 0.0000 0.0000
# 4 0.0000 0.0000 0.0000 4.2122 0.0000 0.0000
# 5 0.0000 0.0000 0.0000 0.0000 32.4379 0.0000
# 6 0.0000 0.0000 0.0000 0.0000 0.0000 20.4584
#
#
#
# Elastic Compliance Matrix: (Units=1/GPa)
#
#
# Indices 1 2 3 4 5 6 
#
# 1 0.010042 -0.012573 -0.001097 0.000000 0.000000 0.000000
# 2 -0.012573 0.047392 0.001510 0.000000 0.000000 0.000000
# 3 -0.001097 0.001510 0.006709 0.000000 0.000000 0.000000
# 4 0.000000 0.000000 0.000000 0.237407 0.000000 0.000000
# 5 0.000000 0.000000 0.000000 0.000000 0.030828 0.000000
# 6 0.000000 0.000000 0.000000 0.000000 0.000000 0.048880
#
#
# Mechanical properties :
#
#
# Convention : Reuss Voigt Hill
#
# Bulk Modulus (GPa) = 25.11267 49.26336 37.18801
# Shear Modulus (GPa) = 11.93737 30.05623 20.99680
#
# Velocity S-wave (km/s) = 2.38914 3.79101 3.16857
# Velocity P-wave (km/s) = 4.42928 6.53591 5.58286
#
# Compressibility (1/GPa) = 0.03982054
#
# Stress axis : x y z
#
# Youngs Moduli (GPa) = 99.58414 21.10081 149.05218
#
# Poissons Ratio (x) = 0.26530 0.16357
# Poissons Ratio (y) = 1.25208 -0.22501
# Poissons Ratio (z) = 0.10929 -0.03185
#
# Static dielectric constant tensor:
#      x y z
#    x 4.027430 0.000000 0.000000 
#    y 0.000000 3.087310 0.000000 
#    z 0.000000 0.000000 5.594610 
# 
# 
# High freq. dielectric constant tensor:
#      x y z
#    x 1.835560 0.000000 0.000000 
#    y 0.000000 1.758140 0.000000 
#    z 0.000000 0.000000 1.863910 
# 
# From -- ./inp_files/135.got.cif
#   From: 2010.03.12/outbox.cif.g09.slc.cpg/sg27_1_cif.got.tgz:135.got - 2010.04.14 03:36:05.
