data_PCOD8167117
_publ_section_title
;
Structure prediction by ZEFSAII (Michael W. Deem and Ramdas Pophale) SiO2 
 PCOD8167117
Probable space group: P M C 21
;
_chemical_formula_sum "Si O2"
_cell_formula_units_Z 32
_cell_length_a 9.120265
_cell_length_b 11.868523
_cell_length_c 14.517314
_cell_angle_alpha 90.000000
_cell_angle_beta 90.000000
_cell_angle_gamma 90.000000
_cell_volume 1571.413224
_symmetry_space_group_name_H-M "P M C 21"
_symmetry_group_IT_number 26
_symmetry_cell_setting 'orthorhombic'
loop_
_space_group_symop_operation_xyz
x,y,z
-x,-y,1/2+z
-x,y,z
x,-y,1/2+z
loop_
_atom_site_type_symbol
_atom_site_label
_atom_site_fract_x
_atom_site_fract_y
_atom_site_fract_z
Si Si1 0.331944 0.412225 0.469170
Si Si2 0.671724 0.917534 0.751185
Si Si3 0.833705 0.893091 0.365953
Si Si4 0.667771 0.825437 0.058178
Si Si5 0.829374 0.487858 0.136161
Si Si6 0.832913 0.723859 0.217552
Si Si7 0.670611 0.337944 0.273163
Si Si8 0.169735 0.958356 0.561210
O O1 0.500000 0.449618 0.482175
O O2 0.309816 0.282965 0.496101
O O3 0.234033 0.492534 0.533442
O O4 0.283891 0.414115 0.361971
O O5 0.500000 0.939165 0.741790
O O6 0.704974 0.793451 0.792097
O O7 0.739459 0.921050 0.649411
O O8 0.733625 0.012074 0.819096
O O9 0.812136 0.768197 0.321850
O O10 0.803173 0.874669 0.474748
O O11 0.000000 0.935141 0.350907
O O12 0.500000 0.866171 0.059536
O O13 0.719740 0.800365 0.161611
O O14 0.771700 0.923441 0.020299
O O15 0.793455 0.592879 0.203980
O O16 0.758539 0.378926 0.183382
O O17 0.000000 0.465249 0.124595
O O18 0.000000 0.743978 0.182886
O O19 0.500000 0.354922 0.252275
O O20 0.000000 0.967117 0.589178
#
# Coordination Sequence:
#
# PCOD8167117 Si02
#       8
#     4   4   4   4   4   4   4   4
#     4   9  19  37  61  86 114 152 196 240 290 343
#     4  11  23  39  60  87 119 154 194 243 289 340
#     4  10  21  37  58  83 116 156 191 231 287 348
#     4  10  18  31  55  84 111 146 190 238 282 330
#     4  10  21  37  60  88 116 148 191 245 291 340
#     4   9  18  35  56  79 110 144 183 235 287 334
#     4  10  22  41  61  83 118 158 194 239 291 345
#     4  11  22  35  53  82 120 160 191 227 287 350
#
# _framework density 20.363835000000002
#
# number of rings (size 3 to 8) (size 9 to 14) (size 15 to 20)
#    0.000    2.000    1.250    2.250    0.000    4.500 
#    2.250    0.000    0.000    0.000    0.000    0.000 
#    0.000    0.000    0.000    0.000    0.000    0.000 
#
# Total GULP energy -396686.909004 kJ/mol
# GULP energy per Si atom -12396.465906 kJ/mol
# Density = 2.031749 g / cm^3
# Si number density = 20.363835 Si / 1000 Ang^3
#
#
#
# Elastic Constant Matrix: (Units=GPa)
#
#
# Indices 1 2 3 4 5 6 
#
# 1 86.5492 17.5174 35.7253 0.0000 0.0000 0.0000
# 2 17.5174 29.7408 4.8518 0.0000 0.0000 0.0000
# 3 35.7253 4.8518 90.0808 0.0000 0.0000 0.0000
# 4 0.0000 0.0000 0.0000 25.0348 0.0000 0.0000
# 5 0.0000 0.0000 0.0000 0.0000 27.1517 0.0000
# 6 0.0000 0.0000 0.0000 0.0000 0.0000 27.7958
#
#
#
# Elastic Compliance Matrix: (Units=1/GPa)
#
#
# Indices 1 2 3 4 5 6 
#
# 1 0.015593 -0.008248 -0.005740 0.000000 0.000000 0.000000
# 2 -0.008248 0.038285 0.001209 0.000000 0.000000 0.000000
# 3 -0.005740 0.001209 0.013312 0.000000 0.000000 0.000000
# 4 0.000000 0.000000 0.000000 0.039944 0.000000 0.000000
# 5 0.000000 0.000000 0.000000 0.000000 0.036830 0.000000
# 6 0.000000 0.000000 0.000000 0.000000 0.000000 0.035977
#
#
# Mechanical properties :
#
#
# Convention : Reuss Voigt Hill
#
# Bulk Modulus (GPa) = 24.01963 35.83998 29.92980
# Shear Modulus (GPa) = 22.79198 25.88153 24.33675
#
# Velocity S-wave (km/s) = 3.34913 3.56891 3.46077
# Velocity P-wave (km/s) = 5.17459 5.88395 5.54064
#
# Compressibility (1/GPa) = 0.04163262
#
# Stress axis : x y z
#
# Youngs Moduli (GPa) = 64.13277 26.12016 75.11824
#
# Poissons Ratio (x) = 0.21543 0.43116
# Poissons Ratio (y) = 0.52895 -0.09082
# Poissons Ratio (z) = 0.36810 -0.03158
#
# Static dielectric constant tensor:
#      x y z
#    x 3.743350 0.000000 0.000000 
#    y 0.000000 3.592290 0.000000 
#    z 0.000000 0.000000 3.734280 
# 
# 
# High freq. dielectric constant tensor:
#      x y z
#    x 1.797590 0.000000 0.000000 
#    y 0.000000 1.778610 0.000000 
#    z 0.000000 0.000000 1.797760 
# 
# From -- ./inp_files/4205.got.cif
#   From: 2010.03.12/outbox.cif.g09.slc.cpg/sg26_3_cif.got.tgz:4205.got - 2010.04.14 03:33:09.
