data_PCOD8167900
_publ_section_title
;
Structure prediction by ZEFSAII (Michael W. Deem and Ramdas Pophale) SiO2 
 PCOD8167900
Probable space group: P C C 2
;
_chemical_formula_sum "Si O2"
_cell_formula_units_Z 18
_cell_length_a 6.608547
_cell_length_b 5.184091
_cell_length_c 22.762087
_cell_angle_alpha 90.000000
_cell_angle_beta 90.000000
_cell_angle_gamma 90.000000
_cell_volume 779.813373
_symmetry_space_group_name_H-M "P C C 2"
_symmetry_group_IT_number 27
_symmetry_cell_setting 'orthorhombic'
loop_
_space_group_symop_operation_xyz
x,y,z
-x,-y,z
-x,y,1/2+z
x,-y,1/2+z
loop_
_atom_site_type_symbol
_atom_site_label
_atom_site_fract_x
_atom_site_fract_y
_atom_site_fract_z
Si Si1 0.000000 0.500000 0.801760
Si Si2 0.629548 0.253600 0.866123
Si Si3 0.873786 0.249379 0.974974
Si Si4 0.881003 0.260895 0.189786
Si Si5 0.376544 0.248899 0.584288
O O1 0.854101 0.301806 0.837214
O O2 0.854432 0.676708 0.759316
O O3 0.500000 0.500000 0.848884
O O4 0.668634 0.238830 0.936005
O O5 0.500000 0.000000 0.845478
O O6 0.000000 0.500000 0.956974
O O7 0.823754 0.251002 0.044120
O O8 0.000000 0.000000 0.957658
O O9 0.671760 0.239337 0.154043
O O10 0.000000 0.500000 0.159707
O O11 0.000000 0.000000 0.179510
O O12 0.500000 0.500000 0.567803
O O13 0.500000 0.000000 0.565762
#
# Coordination Sequence:
#
# PCOD8167900 Si02
#       5
#     2   4   4   4   4
#     4  10  28  48  72 100 148 194 244 302 350 432
#     4  12  27  46  74 108 143 188 245 296 362 429
#     4  12  24  44  75 100 143 186 228 291 370 429
#     4  10  23  44  67  91 136 184 236 274 358 416
#     4  12  24  42  68 106 141 172 236 296 351 431
#
# _framework density 23.082446999999998
#
# number of rings (size 3 to 8) (size 9 to 14) (size 15 to 20)
#    0.667    0.000    1.111    6.667    3.111    0.889 
#    0.000    0.000    0.000    0.000    0.000    0.000 
#    0.000    0.000    0.000    0.000    0.000    0.000 
#
# Total GULP energy -223079.699044 kJ/mol
# GULP energy per Si atom -12393.316614 kJ/mol
# Density = 2.302991 g / cm^3
# Si number density = 23.082447 Si / 1000 Ang^3
#
#
#
# Elastic Constant Matrix: (Units=GPa)
#
#
# Indices 1 2 3 4 5 6 
#
# 1 87.5188 56.2817 39.3452 0.0000 0.0000 0.0000
# 2 56.2817 210.5782 27.4002 0.0000 0.0000 0.0000
# 3 39.3452 27.4002 104.0671 0.0000 0.0000 0.0000
# 4 0.0000 0.0000 0.0000 48.9229 0.0000 0.0000
# 5 0.0000 0.0000 0.0000 0.0000 50.9338 0.0000
# 6 0.0000 0.0000 0.0000 0.0000 0.0000 40.8099
#
#
#
# Elastic Compliance Matrix: (Units=1/GPa)
#
#
# Indices 1 2 3 4 5 6 
#
# 1 0.016058 -0.003626 -0.005116 0.000000 0.000000 0.000000
# 2 -0.003626 0.005736 -0.000139 0.000000 0.000000 0.000000
# 3 -0.005116 -0.000139 0.011580 0.000000 0.000000 0.000000
# 4 0.000000 0.000000 0.000000 0.020440 0.000000 0.000000
# 5 0.000000 0.000000 0.000000 0.000000 0.019633 0.000000
# 6 0.000000 0.000000 0.000000 0.000000 0.000000 0.024504
#
#
# Mechanical properties :
#
#
# Convention : Reuss Voigt Hill
#
# Bulk Modulus (GPa) = 64.05860 72.02427 68.04143
# Shear Modulus (GPa) = 41.34978 46.74246 44.04612
#
# Velocity S-wave (km/s) = 4.23708 4.50491 4.37304
# Velocity P-wave (km/s) = 7.19371 7.63739 7.41887
#
# Compressibility (1/GPa) = 0.01561071
#
# Stress axis : x y z
#
# Youngs Moduli (GPa) = 62.27341 174.33356 86.35364
#
# Poissons Ratio (x) = 0.63216 0.44183
# Poissons Ratio (y) = 0.22581 0.01203
# Poissons Ratio (z) = 0.31862 0.02429
#
# Static dielectric constant tensor:
#      x y z
#    x 3.847520 0.000000 0.000000 
#    y 0.000000 4.189510 0.000000 
#    z 0.000000 0.000000 4.000890 
# 
# 
# High freq. dielectric constant tensor:
#      x y z
#    x 1.893350 0.000000 0.000000 
#    y 0.000000 1.930950 0.000000 
#    z 0.000000 0.000000 1.915000 
# 
# From -- ./inp_files/4921.got.cif
#   From: 2010.03.12/outbox.cif.g09.slc.cpg/sg27_3_cif.got.tgz:4921.got - 2010.04.14 03:36:05.
