data_PCOD8167831
_publ_section_title
;
Structure prediction by ZEFSAII (Michael W. Deem and Ramdas Pophale) SiO2 
 PCOD8167831
Probable space group: P C C 2
;
_chemical_formula_sum "Si O2"
_cell_formula_units_Z 26
_cell_length_a 14.554639
_cell_length_b 4.871980
_cell_length_c 17.231607
_cell_angle_alpha 90.000000
_cell_angle_beta 90.000000
_cell_angle_gamma 90.000000
_cell_volume 1221.891704
_symmetry_space_group_name_H-M "P C C 2"
_symmetry_group_IT_number 27
_symmetry_cell_setting 'orthorhombic'
loop_
_space_group_symop_operation_xyz
x,y,z
-x,-y,z
-x,y,1/2+z
x,-y,1/2+z
loop_
_atom_site_type_symbol
_atom_site_label
_atom_site_fract_x
_atom_site_fract_y
_atom_site_fract_z
Si Si1 0.902440 0.115089 0.128720
Si Si2 0.739228 0.115054 0.246120
Si Si3 0.827541 0.612400 0.050830
Si Si4 0.334416 0.395624 0.168871
Si Si5 0.589016 0.146480 0.945217
Si Si6 0.708673 0.651981 0.912011
Si Si7 0.500000 0.500000 0.576229
O O1 0.838831 0.134213 0.205214
O O2 0.905625 0.405953 0.084007
O O3 0.864536 0.917633 0.061483
O O4 0.000000 0.000000 0.158043
O O5 0.662430 0.306144 0.207452
O O6 0.748384 0.207653 0.334825
O O7 0.698437 0.811278 0.236447
O O8 0.735887 0.578984 0.099166
O O9 0.797744 0.555630 0.961636
O O10 0.432589 0.326423 0.131928
O O11 0.556141 0.278144 0.025985
O O12 0.500000 0.000000 0.902782
O O13 0.639150 0.392810 0.896769
O O14 0.657991 0.893558 0.960881
#
# Coordination Sequence:
#
# PCOD8167831 Si02
#       7
#     4   4   4   4   4   4   2
#     4  10  21  40  68  97 124 159 211 264 319 393
#     4  10  24  42  60  91 127 171 205 257 336 390
#     4  10  20  37  66  92 122 162 211 261 319 382
#     4  10  22  39  60  87 121 166 220 262 310 381
#     4  12  23  38  62  88 123 172 228 275 317 367
#     4  12  23  41  63  90 130 174 214 267 336 392
#     4  12  24  38  64  92 122 172 230 278 312 368
#
# _framework density 21.278479999999998
#
# number of rings (size 3 to 8) (size 9 to 14) (size 15 to 20)
#    0.000    1.231    3.077    2.308    6.462    0.000 
#    5.538    0.769    0.000    5.538    0.000    0.000 
#    0.000    0.000    0.000    0.000    0.000    0.000 
#
# Total GULP energy -322189.157832 kJ/mol
# GULP energy per Si atom -12391.890686 kJ/mol
# Density = 2.123005 g / cm^3
# Si number density = 21.278480 Si / 1000 Ang^3
#
#
#
# Elastic Constant Matrix: (Units=GPa)
#
#
# Indices 1 2 3 4 5 6 
#
# 1 86.9414 30.4472 57.9957 0.0000 0.0000 0.0000
# 2 30.4472 98.6591 37.4221 0.0000 0.0000 0.0000
# 3 57.9957 37.4221 107.1841 0.0000 0.0000 0.0000
# 4 0.0000 0.0000 0.0000 20.4697 0.0000 0.0000
# 5 0.0000 0.0000 0.0000 0.0000 16.9271 0.0000
# 6 0.0000 0.0000 0.0000 0.0000 0.0000 33.9755
#
#
#
# Elastic Compliance Matrix: (Units=1/GPa)
#
#
# Indices 1 2 3 4 5 6 
#
# 1 0.018401 -0.002192 -0.009191 0.000000 0.000000 0.000000
# 2 -0.002192 0.011944 -0.002984 0.000000 0.000000 0.000000
# 3 -0.009191 -0.002984 0.015345 0.000000 0.000000 0.000000
# 4 0.000000 0.000000 0.000000 0.048853 0.000000 0.000000
# 5 0.000000 0.000000 0.000000 0.000000 0.059077 0.000000
# 6 0.000000 0.000000 0.000000 0.000000 0.000000 0.029433
#
#
# Mechanical properties :
#
#
# Convention : Reuss Voigt Hill
#
# Bulk Modulus (GPa) = 58.97924 60.50163 59.74043
# Shear Modulus (GPa) = 22.99499 25.40243 24.19871
#
# Velocity S-wave (km/s) = 3.29092 3.45890 3.37596
# Velocity P-wave (km/s) = 6.49755 6.66686 6.58275
#
# Compressibility (1/GPa) = 0.01695512
#
# Stress axis : x y z
#
# Youngs Moduli (GPa) = 54.34558 83.72155 65.16949
#
# Poissons Ratio (x) = 0.18356 0.59897
# Poissons Ratio (y) = 0.11915 0.19446
# Poissons Ratio (z) = 0.49948 0.24982
#
# Static dielectric constant tensor:
#      x y z
#    x 3.893650 0.000000 0.000000 
#    y 0.000000 4.595020 0.000000 
#    z 0.000000 0.000000 3.586740 
# 
# 
# High freq. dielectric constant tensor:
#      x y z
#    x 1.815810 0.000000 0.000000 
#    y 0.000000 1.858410 0.000000 
#    z 0.000000 0.000000 1.807140 
# 
# From -- ./inp_files/4480.got.cif
#   From: 2010.03.12/outbox.cif.g09.slc.cpg/sg27_3_cif.got.tgz:4480.got - 2010.04.14 03:36:05.
