data_PCOD8167028
_publ_section_title
;
Structure prediction by ZEFSAII (Michael W. Deem and Ramdas Pophale) SiO2 
 PCOD8167028
Probable space group: P M M 2
;
_chemical_formula_sum "Si O2"
_cell_formula_units_Z 32
_cell_length_a 9.580649
_cell_length_b 9.586337
_cell_length_c 20.694977
_cell_angle_alpha 90.000000
_cell_angle_beta 90.000000
_cell_angle_gamma 90.000000
_cell_volume 1900.695602
_symmetry_space_group_name_H-M "P M M 2"
_symmetry_group_IT_number 25
_symmetry_cell_setting 'orthorhombic'
loop_
_space_group_symop_operation_xyz
x,y,z
-x,-y,z
-x,y,z
x,-y,z
loop_
_atom_site_type_symbol
_atom_site_label
_atom_site_fract_x
_atom_site_fract_y
_atom_site_fract_z
Si Si1 0.662351 0.161284 0.505250
Si Si2 0.333990 0.657710 0.626696
Si Si3 0.161389 0.161871 0.381336
Si Si4 0.655158 0.165838 0.885245
Si Si5 0.834134 0.343198 0.121279
Si Si6 0.165790 0.656648 0.263673
Si Si7 0.162364 0.162693 0.003313
Si Si8 0.666271 0.843852 0.742968
O O1 0.500000 0.186193 0.490051
O O2 0.715280 0.257352 0.563831
O O3 0.750248 0.208166 0.443238
O O4 0.690431 0.000000 0.523467
O O5 0.500000 0.655254 0.629791
O O6 0.274467 0.500000 0.624408
O O7 0.273533 0.736894 0.689764
O O8 0.223870 0.242093 0.319220
O O9 0.000000 0.199840 0.394369
O O10 0.180839 0.000000 0.366420
O O11 0.500000 0.226533 0.897942
O O12 0.710824 0.211088 0.814239
O O13 0.649271 0.000000 0.886566
O O14 0.758641 0.222285 0.940362
O O15 0.782732 0.500000 0.106206
O O16 0.779757 0.296533 0.192489
O O17 0.775816 0.239993 0.066394
O O18 0.000000 0.337709 0.121158
O O19 0.217276 0.500000 0.278538
O O20 0.000000 0.662799 0.263575
O O21 0.000000 0.194915 0.992951
O O22 0.190899 0.000000 0.013638
O O23 0.500000 0.850273 0.739538
O O24 0.725405 0.000000 0.729709
#
# Coordination Sequence:
#
# PCOD8167028 Si02
#       8
#     4   4   4   4   4   4   4   4
#     4   9  17  29  44  61  83 111 137 160 194 243
#     4   9  16  25  39  61  85 105 131 171 208 232
#     4   9  17  28  43  64  86 105 130 168 206 235
#     4   8  14  25  41  60  82 108 135 162 197 243
#     4   8  14  25  40  58  81 108 136 165 199 240
#     4   8  14  25  41  60  81 106 136 167 199 238
#     4   9  16  25  40  63  85 103 130 170 206 233
#     4   8  13  23  40  58  75 101 137 169 197 236
#
# _framework density 16.835940999999998
#
# number of rings (size 3 to 8) (size 9 to 14) (size 15 to 20)
#    0.000    3.500    0.000    1.875    0.000    2.500 
#    0.000    3.125    0.000    2.625    0.000    8.750 
#    0.000    0.000    0.000    0.000    0.000    0.000 
#
# Total GULP energy -396589.881500 kJ/mol
# GULP energy per Si atom -12393.433797 kJ/mol
# Density = 1.679762 g / cm^3
# Si number density = 16.835941 Si / 1000 Ang^3
#
#
#
# Elastic Constant Matrix: (Units=GPa)
#
#
# Indices 1 2 3 4 5 6 
#
# 1 26.7961 22.5703 42.2348 0.0000 0.0000 0.0000
# 2 22.5703 82.9191 87.0886 0.0000 0.0000 0.0000
# 3 42.2348 87.0886 191.4316 0.0000 0.0000 0.0000
# 4 0.0000 0.0000 0.0000 18.8093 0.0000 0.0000
# 5 0.0000 0.0000 0.0000 0.0000 23.8620 0.0000
# 6 0.0000 0.0000 0.0000 0.0000 0.0000 9.3532
#
#
#
# Elastic Compliance Matrix: (Units=1/GPa)
#
#
# Indices 1 2 3 4 5 6 
#
# 1 0.058079 -0.004502 -0.010766 0.000000 0.000000 0.000000
# 2 -0.004502 0.023444 -0.009672 0.000000 0.000000 0.000000
# 3 -0.010766 -0.009672 0.011999 0.000000 0.000000 0.000000
# 4 0.000000 0.000000 0.000000 0.053165 0.000000 0.000000
# 5 0.000000 0.000000 0.000000 0.000000 0.041908 0.000000
# 6 0.000000 0.000000 0.000000 0.000000 0.000000 0.106915
#
#
# Mechanical properties :
#
#
# Convention : Reuss Voigt Hill
#
# Bulk Modulus (GPa) = 22.91330 67.21490 45.06410
# Shear Modulus (GPa) = 13.89130 20.35511 17.12320
#
# Velocity S-wave (km/s) = 2.87557 3.48088 3.19260
# Velocity P-wave (km/s) = 4.96634 7.49436 6.35728
#
# Compressibility (1/GPa) = 0.04364277
#
# Stress axis : x y z
#
# Youngs Moduli (GPa) = 17.21782 42.65505 83.33892
#
# Poissons Ratio (x) = 0.19203 0.89721
# Poissons Ratio (y) = 0.07751 0.80607
# Poissons Ratio (z) = 0.18536 0.41257
#
# Static dielectric constant tensor:
#      x y z
#    x 2.727170 0.000000 0.000000 
#    y 0.000000 3.172740 0.000000 
#    z 0.000000 0.000000 3.606640 
# 
# 
# High freq. dielectric constant tensor:
#      x y z
#    x 1.588600 0.000000 0.000000 
#    y 0.000000 1.635040 0.000000 
#    z 0.000000 0.000000 1.665360 
# 
# From -- ./inp_files/6308.got.cif
#   From: 2010.03.12/outbox.cif.g09.slc.cpg/sg25_4_cif.got.tgz:6308.got - 2010.04.14 03:30:10.
