data_PCOD8167342
_publ_section_title
;
Structure prediction by ZEFSAII (Michael W. Deem and Ramdas Pophale) SiO2 
 PCOD8167342
Probable space group: P M C 21
;
_chemical_formula_sum "Si O2"
_cell_formula_units_Z 32
_cell_length_a 8.762335
_cell_length_b 11.898481
_cell_length_c 14.338197
_cell_angle_alpha 90.000000
_cell_angle_beta 90.000000
_cell_angle_gamma 90.000000
_cell_volume 1494.878575
_symmetry_space_group_name_H-M "P M C 21"
_symmetry_group_IT_number 26
_symmetry_cell_setting 'orthorhombic'
loop_
_space_group_symop_operation_xyz
x,y,z
-x,-y,1/2+z
-x,y,z
x,-y,1/2+z
loop_
_atom_site_type_symbol
_atom_site_label
_atom_site_fract_x
_atom_site_fract_y
_atom_site_fract_z
Si Si1 0.680310 0.006751 0.863550
Si Si2 0.820947 0.792079 0.774320
Si Si3 0.177698 0.424672 0.748693
Si Si4 0.671760 0.317759 0.443032
Si Si5 0.822499 0.829998 0.232427
Si Si6 0.328921 0.092760 0.554151
Si Si7 0.178515 0.541244 0.463152
Si Si8 0.679965 0.370916 0.136753
O O1 0.500000 0.988961 0.858023
O O2 0.758395 0.914894 0.797271
O O3 0.732209 0.127575 0.824703
O O4 0.731535 0.990258 0.971896
O O5 0.785278 0.706169 0.857775
O O6 0.737855 0.744040 0.683345
O O7 0.000000 0.797427 0.756802
O O8 0.220680 0.299623 0.712826
O O9 0.273146 0.517836 0.694317
O O10 0.000000 0.451286 0.732371
O O11 0.219400 0.426222 0.857872
O O12 0.500000 0.337105 0.404545
O O13 0.672222 0.218742 0.516688
O O14 0.736403 0.427056 0.493898
O O15 0.779283 0.909064 0.144391
O O16 0.000000 0.842686 0.253979
O O17 0.500000 0.058493 0.585147
O O18 0.244657 0.633131 0.534232
O O19 0.000000 0.526706 0.479236
O O20 0.500000 0.368013 0.127340
#
# Coordination Sequence:
#
# PCOD8167342 Si02
#       8
#     4   4   4   4   4   4   4   4
#     4  10  22  42  65  89 120 158 204 257 308 362
#     4  11  21  37  61  87 117 154 198 249 307 362
#     4  10  23  42  62  89 126 166 207 254 307 369
#     4  10  19  34  58  89 121 155 201 253 300 355
#     4  11  23  40  63  92 124 161 206 254 307 368
#     4   9  20  38  61  89 120 158 202 251 306 363
#     4  11  22  37  58  85 123 167 206 250 305 367
#     4  12  24  38  60  90 125 163 206 254 306 372
#
# _framework density 21.406421999999999
#
# number of rings (size 3 to 8) (size 9 to 14) (size 15 to 20)
#    0.000    1.500    1.250    5.250    0.000    6.500 
#    2.250    0.000    0.000    0.000    0.000    0.000 
#    0.000    0.000    0.000    0.000    0.000    0.000 
#
# Total GULP energy -396852.572098 kJ/mol
# GULP energy per Si atom -12401.642878 kJ/mol
# Density = 2.135770 g / cm^3
# Si number density = 21.406422 Si / 1000 Ang^3
#
#
#
# Elastic Constant Matrix: (Units=GPa)
#
#
# Indices 1 2 3 4 5 6 
#
# 1 100.7803 21.7145 32.4361 0.0000 0.0000 0.0000
# 2 21.7145 31.8200 0.0943 0.0000 0.0000 0.0000
# 3 32.4361 0.0943 80.5930 0.0000 0.0000 0.0000
# 4 0.0000 0.0000 0.0000 25.4007 0.0000 0.0000
# 5 0.0000 0.0000 0.0000 0.0000 35.0040 0.0000
# 6 0.0000 0.0000 0.0000 0.0000 0.0000 31.4017
#
#
#
# Elastic Compliance Matrix: (Units=1/GPa)
#
#
# Indices 1 2 3 4 5 6 
#
# 1 0.013706 -0.009337 -0.005505 0.000000 0.000000 0.000000
# 2 -0.009337 0.037788 0.003714 0.000000 0.000000 0.000000
# 3 -0.005505 0.003714 0.014619 0.000000 0.000000 0.000000
# 4 0.000000 0.000000 0.000000 0.039369 0.000000 0.000000
# 5 0.000000 0.000000 0.000000 0.000000 0.028568 0.000000
# 6 0.000000 0.000000 0.000000 0.000000 0.000000 0.031845
#
#
# Mechanical properties :
#
#
# Convention : Reuss Voigt Hill
#
# Bulk Modulus (GPa) = 22.80214 35.74258 29.27236
# Shear Modulus (GPa) = 24.65823 28.95783 26.80803
#
# Velocity S-wave (km/s) = 3.39766 3.68198 3.54268
# Velocity P-wave (km/s) = 5.10561 5.89995 5.51709
#
# Compressibility (1/GPa) = 0.04385553
#
# Stress axis : x y z
#
# Youngs Moduli (GPa) = 72.95925 26.46377 68.40218
#
# Poissons Ratio (x) = 0.24709 0.37658
# Poissons Ratio (y) = 0.68123 -0.25402
# Poissons Ratio (z) = 0.40167 -0.09828
#
# Static dielectric constant tensor:
#      x y z
#    x 3.824920 0.000000 0.000000 
#    y 0.000000 3.805860 0.000000 
#    z 0.000000 0.000000 3.963140 
# 
# 
# High freq. dielectric constant tensor:
#      x y z
#    x 1.842200 0.000000 0.000000 
#    y 0.000000 1.828700 0.000000 
#    z 0.000000 0.000000 1.843450 
# 
# From -- ./inp_files/4233.got.cif
#   From: 2010.03.12/outbox.cif.g09.slc.cpg/sg26_3_cif.got.tgz:4233.got - 2010.04.14 03:33:09.
