data_PCOD8167722
_publ_section_title
;
Structure prediction by ZEFSAII (Michael W. Deem and Ramdas Pophale) SiO2 
 PCOD8167722
Probable space group: P M C 21
;
_chemical_formula_sum "Si O2"
_cell_formula_units_Z 32
_cell_length_a 8.955711
_cell_length_b 15.044472
_cell_length_c 11.797277
_cell_angle_alpha 90.000000
_cell_angle_beta 90.000000
_cell_angle_gamma 90.000000
_cell_volume 1589.493651
_symmetry_space_group_name_H-M "P M C 21"
_symmetry_group_IT_number 26
_symmetry_cell_setting 'orthorhombic'
loop_
_space_group_symop_operation_xyz
x,y,z
-x,-y,1/2+z
-x,y,z
x,-y,1/2+z
loop_
_atom_site_type_symbol
_atom_site_label
_atom_site_fract_x
_atom_site_fract_y
_atom_site_fract_z
Si Si1 0.328118 0.909560 0.325990
Si Si2 0.670007 0.110527 0.260037
Si Si3 0.174697 0.418539 0.828539
Si Si4 0.175745 0.245710 0.686108
Si Si5 0.327742 0.335879 0.024622
Si Si6 0.670735 0.594139 0.772620
Si Si7 0.326931 0.748670 0.946331
Si Si8 0.824770 0.843843 0.532927
O O1 0.500000 0.883919 0.341561
O O2 0.253034 0.838446 0.243626
O O3 0.250880 0.915015 0.449239
O O4 0.308992 0.006114 0.272601
O O5 0.500000 0.135126 0.225563
O O6 0.711751 0.162806 0.374633
O O7 0.779232 0.141807 0.161794
O O8 0.222375 0.337077 0.747716
O O9 0.219791 0.510481 0.769851
O O10 0.000000 0.418293 0.854048
O O11 0.265452 0.415457 0.946912
O O12 0.224663 0.252301 0.556233
O O13 0.000000 0.230380 0.692250
O O14 0.500000 0.318096 0.996652
O O15 0.303102 0.354439 0.156016
O O16 0.229956 0.251405 0.988326
O O17 0.500000 0.561364 0.782372
O O18 0.711612 0.661195 0.873562
O O19 0.500000 0.749190 0.982703
O O20 0.000000 0.850773 0.520000
#
# Coordination Sequence:
#
# PCOD8167722 Si02
#       8
#     4   4   4   4   4   4   4   4
#     4  11  24  42  68  94 123 169 216 261 309 367
#     4  10  23  44  67  93 124 165 216 260 307 372
#     4  11  25  42  62  92 130 167 206 257 316 378
#     4  11  25  43  61  91 131 169 207 257 319 377
#     4  11  22  42  69  93 122 163 214 264 309 369
#     4  10  23  42  66  94 122 160 211 261 309 369
#     4  10  22  43  66  91 124 165 212 261 310 372
#     4  12  24  40  65  96 130 164 204 261 325 376
#
# _framework density 20.132199
#
# number of rings (size 3 to 8) (size 9 to 14) (size 15 to 20)
#    0.000    1.250    2.500    2.625    3.500    4.500 
#    0.000    0.000    0.000    0.000    0.000    0.000 
#    0.000    0.000    0.000    0.000    0.000    0.000 
#
# Total GULP energy -396978.793557 kJ/mol
# GULP energy per Si atom -12405.587299 kJ/mol
# Density = 2.008638 g / cm^3
# Si number density = 20.132199 Si / 1000 Ang^3
#
#
#
# Elastic Constant Matrix: (Units=GPa)
#
#
# Indices 1 2 3 4 5 6 
#
# 1 117.7164 51.0232 55.1561 0.0000 0.0000 0.0000
# 2 51.0232 102.0449 30.1819 0.0000 0.0000 0.0000
# 3 55.1561 30.1819 101.0878 0.0000 0.0000 0.0000
# 4 0.0000 0.0000 0.0000 20.3237 0.0000 0.0000
# 5 0.0000 0.0000 0.0000 0.0000 33.6156 0.0000
# 6 0.0000 0.0000 0.0000 0.0000 0.0000 22.2354
#
#
#
# Elastic Compliance Matrix: (Units=1/GPa)
#
#
# Indices 1 2 3 4 5 6 
#
# 1 0.013371 -0.004966 -0.005813 0.000000 0.000000 0.000000
# 2 -0.004966 0.012594 -0.001050 0.000000 0.000000 0.000000
# 3 -0.005813 -0.001050 0.013378 0.000000 0.000000 0.000000
# 4 0.000000 0.000000 0.000000 0.049204 0.000000 0.000000
# 5 0.000000 0.000000 0.000000 0.000000 0.029748 0.000000
# 6 0.000000 0.000000 0.000000 0.000000 0.000000 0.044973
#
#
# Mechanical properties :
#
#
# Convention : Reuss Voigt Hill
#
# Bulk Modulus (GPa) = 63.76222 65.95240 64.85731
# Shear Modulus (GPa) = 26.02075 27.53414 26.77745
#
# Velocity S-wave (km/s) = 3.59903 3.70221 3.65098
# Velocity P-wave (km/s) = 7.00080 7.14884 7.07521
#
# Compressibility (1/GPa) = 0.01568327
#
# Stress axis : x y z
#
# Youngs Moduli (GPa) = 74.78715 79.40599 74.75183
#
# Poissons Ratio (x) = 0.39437 0.43452
# Poissons Ratio (y) = 0.37143 0.07851
# Poissons Ratio (z) = 0.43473 0.08339
#
# Static dielectric constant tensor:
#      x y z
#    x 3.631790 0.000000 0.000000 
#    y 0.000000 3.687390 0.000000 
#    z 0.000000 0.000000 3.679130 
# 
# 
# High freq. dielectric constant tensor:
#      x y z
#    x 1.788030 0.000000 0.000000 
#    y 0.000000 1.791860 0.000000 
#    z 0.000000 0.000000 1.796780 
# 
# From -- ./inp_files/2989.got.cif
#   From: 2010.03.12/outbox.cif.g09.slc.cpg/sg26_2_cif.got.tgz:2989.got - 2010.04.14 03:33:09.
