data_PCOD8167936
_publ_section_title
;
Structure prediction by ZEFSAII (Michael W. Deem and Ramdas Pophale) SiO2 
 PCOD8167936
Probable space group: P C C 2
;
_chemical_formula_sum "Si O2"
_cell_formula_units_Z 20
_cell_length_a 8.385767
_cell_length_b 10.255696
_cell_length_c 9.667101
_cell_angle_alpha 90.000000
_cell_angle_beta 90.000000
_cell_angle_gamma 90.000000
_cell_volume 831.388832
_symmetry_space_group_name_H-M "P C C 2"
_symmetry_group_IT_number 27
_symmetry_cell_setting 'orthorhombic'
loop_
_space_group_symop_operation_xyz
x,y,z
-x,-y,z
-x,y,1/2+z
x,-y,1/2+z
loop_
_atom_site_type_symbol
_atom_site_label
_atom_site_fract_x
_atom_site_fract_y
_atom_site_fract_z
Si Si1 0.829117 0.936539 0.041350
Si Si2 0.180952 0.284129 0.261368
Si Si3 0.618377 0.381121 0.535995
Si Si4 0.660697 0.199032 0.036743
Si Si5 0.174827 0.277461 0.813685
O O1 0.794512 0.848150 0.174222
O O2 0.840282 0.857113 0.898779
O O3 0.000000 0.000000 0.068236
O O4 0.688075 0.043840 0.030668
O O5 0.239630 0.268148 0.416549
O O6 0.997410 0.327854 0.264891
O O7 0.286549 0.392690 0.181224
O O8 0.500000 0.500000 0.522933
O O9 0.524824 0.241187 0.522679
O O10 0.744607 0.387353 0.410471
O O11 0.716702 0.257406 0.181247
#
# Coordination Sequence:
#
# PCOD8167936 Si02
#       5
#     4   4   4   4   4
#     4  11  21  40  73 107 156 192 237 304 365 455
#     4  11  23  43  74 108 143 197 252 299 379 460
#     4  11  28  52  70 100 153 199 254 327 375 434
#     4  12  23  39  72 109 147 193 242 305 384 429
#     4  11  23  43  74 108 143 197 252 299 379 460
#
# _framework density 24.056132000000002
#
# number of rings (size 3 to 8) (size 9 to 14) (size 15 to 20)
#    0.000    0.800    4.000    3.600    0.000    6.400 
#    0.000   14.000    0.000    0.000    0.000    0.000 
#    0.000    0.000    0.000    0.000    0.000    0.000 
#
# Total GULP energy -248075.787909 kJ/mol
# GULP energy per Si atom -12403.789395 kJ/mol
# Density = 2.400138 g / cm^3
# Si number density = 24.056132 Si / 1000 Ang^3
#
#
#
# Elastic Constant Matrix: (Units=GPa)
#
#
# Indices 1 2 3 4 5 6 
#
# 1 129.4328 41.3063 13.7473 0.0000 0.0000 0.0000
# 2 41.3063 87.6549 18.5054 0.0000 0.0000 0.0000
# 3 13.7473 18.5054 127.6739 0.0000 0.0000 0.0000
# 4 0.0000 0.0000 0.0000 21.5648 0.0000 0.0000
# 5 0.0000 0.0000 0.0000 0.0000 51.0131 0.0000
# 6 0.0000 0.0000 0.0000 0.0000 0.0000 24.4426
#
#
#
# Elastic Compliance Matrix: (Units=1/GPa)
#
#
# Indices 1 2 3 4 5 6 
#
# 1 0.009110 -0.004215 -0.000370 0.000000 0.000000 0.000000
# 2 -0.004215 0.013719 -0.001535 0.000000 0.000000 0.000000
# 3 -0.000370 -0.001535 0.008095 0.000000 0.000000 0.000000
# 4 0.000000 0.000000 0.000000 0.046372 0.000000 0.000000
# 5 0.000000 0.000000 0.000000 0.000000 0.019603 0.000000
# 6 0.000000 0.000000 0.000000 0.000000 0.000000 0.040912
#
#
# Mechanical properties :
#
#
# Convention : Reuss Voigt Hill
#
# Bulk Modulus (GPa) = 53.52023 54.65328 54.08676
# Shear Modulus (GPa) = 31.99419 37.48425 34.73922
#
# Velocity S-wave (km/s) = 3.65085 3.95169 3.80424
# Velocity P-wave (km/s) = 6.32992 6.60223 6.46751
#
# Compressibility (1/GPa) = 0.01868452
#
# Stress axis : x y z
#
# Youngs Moduli (GPa) = 109.76351 72.89339 123.53731
#
# Poissons Ratio (x) = 0.30725 0.04571
# Poissons Ratio (y) = 0.46266 0.18958
# Poissons Ratio (z) = 0.04062 0.11186
#
# Static dielectric constant tensor:
#      x y z
#    x 4.623220 0.000000 0.000000 
#    y 0.000000 4.276750 0.000000 
#    z 0.000000 0.000000 4.540070 
# 
# 
# High freq. dielectric constant tensor:
#      x y z
#    x 1.968980 0.000000 0.000000 
#    y 0.000000 1.936440 0.000000 
#    z 0.000000 0.000000 1.973550 
# 
# From -- ./inp_files/1054.got.cif
#   From: 2010.03.12/outbox.cif.g09.slc.cpg/sg27_1_cif.got.tgz:1054.got - 2010.04.14 03:36:05.
