data_PCOD8167802
_publ_section_title
;
Structure prediction by ZEFSAII (Michael W. Deem and Ramdas Pophale) SiO2 
 PCOD8167802
Probable space group: P C C 2
;
_chemical_formula_sum "Si O2"
_cell_formula_units_Z 28
_cell_length_a 17.372416
_cell_length_b 9.613719
_cell_length_c 8.931670
_cell_angle_alpha 90.000000
_cell_angle_beta 90.000000
_cell_angle_gamma 90.000000
_cell_volume 1491.709698
_symmetry_space_group_name_H-M "P C C 2"
_symmetry_group_IT_number 27
_symmetry_cell_setting 'orthorhombic'
loop_
_space_group_symop_operation_xyz
x,y,z
-x,-y,z
-x,y,1/2+z
x,-y,1/2+z
loop_
_atom_site_type_symbol
_atom_site_label
_atom_site_fract_x
_atom_site_fract_y
_atom_site_fract_z
Si Si1 0.754805 0.884894 0.783810
Si Si2 0.500000 0.000000 0.395378
Si Si3 0.678884 0.625305 0.532505
Si Si4 0.591099 0.856529 0.650279
Si Si5 0.895917 0.611510 0.381004
Si Si6 0.749294 0.579480 0.837674
Si Si7 0.000000 0.500000 0.132100
Si Si8 0.205268 0.848617 0.966869
O O1 0.671758 0.917871 0.709855
O O2 0.752371 0.742528 0.882073
O O3 0.813375 0.869425 0.643558
O O4 0.783589 0.003399 0.891836
O O5 0.432995 0.059982 0.501092
O O6 0.530575 0.123905 0.286412
O O7 0.600458 0.690724 0.605400
O O8 0.736413 0.569772 0.660650
O O9 0.674822 0.495138 0.418553
O O10 0.717485 0.756441 0.447424
O O11 0.828097 0.496745 0.380887
O O12 0.948842 0.600948 0.235142
O O13 0.863783 0.767974 0.385000
O O14 0.945268 0.594032 0.530900
#
# Coordination Sequence:
#
# PCOD8167802 Si02
#       8
#     4   2   4   4   4   4   2   4
#     4  10  19  33  54  82 107 133 171 229 275 310
#     4  10  18  32  54  74 110 148 174 216 252 330
#     4   9  18  33  52  78 105 131 171 222 262 308
#     4   9  18  32  51  79 105 139 181 211 266 316
#     4  10  19  35  53  79 101 138 181 213 265 317
#     4   9  18  33  55  77 104 131 170 226 273 309
#     4  10  20  32  56  74 106 144 178 214 250 336
#     4   9  19  32  52  78 106 129 170 223 264 306
#
# _framework density 18.770408
#
# number of rings (size 3 to 8) (size 9 to 14) (size 15 to 20)
#    0.000    2.857    0.000    4.286    0.000    3.429 
#    0.000    5.714    0.000   24.857    0.000    0.000 
#    0.000    0.000    0.000    0.000    0.000    0.000 
#
# Total GULP energy -346894.120330 kJ/mol
# GULP energy per Si atom -12389.075726 kJ/mol
# Density = 1.872769 g / cm^3
# Si number density = 18.770408 Si / 1000 Ang^3
#
#
#
# Elastic Constant Matrix: (Units=GPa)
#
#
# Indices 1 2 3 4 5 6 
#
# 1 66.8046 36.8087 31.8749 0.0000 0.0000 0.0000
# 2 36.8087 150.0485 62.5518 0.0000 0.0000 0.0000
# 3 31.8749 62.5518 90.8270 0.0000 0.0000 0.0000
# 4 0.0000 0.0000 0.0000 31.3665 0.0000 0.0000
# 5 0.0000 0.0000 0.0000 0.0000 6.9070 0.0000
# 6 0.0000 0.0000 0.0000 0.0000 0.0000 29.4434
#
#
#
# Elastic Compliance Matrix: (Units=1/GPa)
#
#
# Indices 1 2 3 4 5 6 
#
# 1 0.018672 -0.002593 -0.004767 0.000000 0.000000 0.000000
# 2 -0.002593 0.009709 -0.005776 0.000000 0.000000 0.000000
# 3 -0.004767 -0.005776 0.016661 0.000000 0.000000 0.000000
# 4 0.000000 0.000000 0.000000 0.031881 0.000000 0.000000
# 5 0.000000 0.000000 0.000000 0.000000 0.144781 0.000000
# 6 0.000000 0.000000 0.000000 0.000000 0.000000 0.033963
#
#
# Mechanical properties :
#
#
# Convention : Reuss Voigt Hill
#
# Bulk Modulus (GPa) = 53.27910 63.35010 58.31460
# Shear Modulus (GPa) = 17.34926 25.30636 21.32781
#
# Velocity S-wave (km/s) = 3.04351 3.67577 3.37448
# Velocity P-wave (km/s) = 6.38724 7.19989 6.80570
#
# Compressibility (1/GPa) = 0.01876909
#
# Stress axis : x y z
#
# Youngs Moduli (GPa) = 53.55506 103.00107 60.02111
#
# Poissons Ratio (x) = 0.26712 0.28611
# Poissons Ratio (y) = 0.13889 0.34669
# Poissons Ratio (z) = 0.25529 0.59495
#
# Static dielectric constant tensor:
#      x y z
#    x 3.380140 0.000000 0.000000 
#    y 0.000000 3.438540 0.000000 
#    z 0.000000 0.000000 3.600380 
# 
# 
# High freq. dielectric constant tensor:
#      x y z
#    x 1.701020 0.000000 0.000000 
#    y 0.000000 1.715220 0.000000 
#    z 0.000000 0.000000 1.741120 
# 
# From -- ./inp_files/1727.got.cif
#   From: 2010.03.12/outbox.cif.g09.slc.cpg/sg27_1_cif.got.tgz:1727.got - 2010.04.14 03:36:05.
