data_PCOD8167196
_publ_section_title
;
Structure prediction by ZEFSAII (Michael W. Deem and Ramdas Pophale) SiO2 
 PCOD8167196
Probable space group: P M C 21
;
_chemical_formula_sum "Si O2"
_cell_formula_units_Z 24
_cell_length_a 31.006169
_cell_length_b 8.394426
_cell_length_c 5.003681
_cell_angle_alpha 90.000000
_cell_angle_beta 90.000000
_cell_angle_gamma 90.000000
_cell_volume 1302.353043
_symmetry_space_group_name_H-M "P M C 21"
_symmetry_group_IT_number 26
_symmetry_cell_setting 'orthorhombic'
loop_
_space_group_symop_operation_xyz
x,y,z
-x,-y,1/2+z
-x,y,z
x,-y,1/2+z
loop_
_atom_site_type_symbol
_atom_site_label
_atom_site_fract_x
_atom_site_fract_y
_atom_site_fract_z
Si Si1 0.272641 0.891092 0.480660
Si Si2 0.634239 0.895726 0.574995
Si Si3 0.546154 0.107160 0.932189
Si Si4 0.110226 0.603183 0.525443
Si Si5 0.208806 0.395419 0.977171
Si Si6 0.950703 0.103552 0.023614
O O1 0.320229 0.808684 0.513912
O O2 0.237507 0.757586 0.535749
O O3 0.266876 0.036746 0.686446
O O4 0.633004 0.053054 0.384229
O O5 0.590414 0.793369 0.500880
O O6 0.500000 0.199536 0.977346
O O7 0.547589 0.953745 0.128729
O O8 0.100644 0.540491 0.821789
O O9 0.159425 0.661726 0.499103
O O10 0.079612 0.749243 0.457459
O O11 0.219038 0.464242 0.685750
O O12 0.000000 0.161580 0.994204
O O13 0.940885 0.961097 0.818247
#
# Coordination Sequence:
#
# PCOD8167196 Si02
#       6
#     4   4   4   4   4   4
#     4  10  19  31  49  71  93 122 159 195 235 283
#     4   8  14  23  35  55  82 108 140 183 223 265
#     4   8  12  18  29  46  72 106 136 166 215 270
#     4  10  21  36  54  75  99 130 165 199 236 280
#     4  10  21  36  51  71 100 128 158 199 241 280
#     4  10  21  36  54  78 106 132 160 198 240 280
#
# _framework density 18.428183000000001
#
# number of rings (size 3 to 8) (size 9 to 14) (size 15 to 20)
#    0.000    2.667    0.000    2.000    0.000    2.000 
#    0.000    0.000    0.000    0.000    0.000    0.000 
#    0.000    1.333    0.000    0.000    0.000   10.667 
#
# Total GULP energy -297367.271330 kJ/mol
# GULP energy per Si atom -12390.302972 kJ/mol
# Density = 1.838624 g / cm^3
# Si number density = 18.428183 Si / 1000 Ang^3
#
#
#
# Elastic Constant Matrix: (Units=GPa)
#
#
# Indices 1 2 3 4 5 6 
#
# 1 143.7595 62.2188 20.7460 0.0000 0.0000 0.0000
# 2 62.2188 47.6845 1.9521 0.0000 0.0000 0.0000
# 3 20.7460 1.9521 73.5705 0.0000 0.0000 0.0000
# 4 0.0000 0.0000 0.0000 8.3112 0.0000 0.0000
# 5 0.0000 0.0000 0.0000 0.0000 24.0441 0.0000
# 6 0.0000 0.0000 0.0000 0.0000 0.0000 -8.0181
#
#
#
# Elastic Compliance Matrix: (Units=1/GPa)
#
#
# Indices 1 2 3 4 5 6 
#
# 1 0.017221 -0.022295 -0.004264 0.000000 0.000000 0.000000
# 2 -0.022295 0.049859 0.004964 0.000000 0.000000 0.000000
# 3 -0.004264 0.004964 0.014663 0.000000 0.000000 0.000000
# 4 0.000000 0.000000 0.000000 0.120319 0.000000 0.000000
# 5 0.000000 0.000000 0.000000 0.000000 0.041590 0.000000
# 6 0.000000 0.000000 0.000000 0.000000 0.000000 -0.124717
#
#
# Mechanical properties :
#
#
# Convention : Reuss Voigt Hill
#
# Bulk Modulus (GPa) = 25.93935 48.31649 37.12792
# Shear Modulus (GPa) = 28.57532 16.87394 22.72463
#
# Velocity S-wave (km/s) = 3.94208 3.02927 3.51543
# Velocity P-wave (km/s) = 5.90139 6.20572 6.05547
#
# Compressibility (1/GPa) = 0.03855147
#
# Stress axis : x y z
#
# Youngs Moduli (GPa) = 58.06957 20.05672 68.19788
#
# Poissons Ratio (x) = 0.44717 0.29083
# Poissons Ratio (y) = 1.29466 -0.33853
# Poissons Ratio (z) = 0.24764 -0.09956
#
# Static dielectric constant tensor:
#      x y z
#    x 3.964730 0.000000 0.000000 
#    y 0.000000 2.618690 0.000000 
#    z 0.000000 0.000000 3.563610 
# 
# 
# High freq. dielectric constant tensor:
#      x y z
#    x 1.744280 0.000000 0.000000 
#    y 0.000000 1.629970 0.000000 
#    z 0.000000 0.000000 1.741660 
# 
# From -- ./inp_files/1028.got.cif
#   From: 2010.03.12/outbox.cif.g09.slc.cpg/sg26_1_cif.got.tgz:1028.got - 2010.04.14 03:33:09.
