data_PCOD8167587
_publ_section_title
;
Structure prediction by ZEFSAII (Michael W. Deem and Ramdas Pophale) SiO2 
 PCOD8167587
Probable space group: P M C 21
;
_chemical_formula_sum "Si O2"
_cell_formula_units_Z 24
_cell_length_a 8.569067
_cell_length_b 13.852493
_cell_length_c 9.975511
_cell_angle_alpha 90.000000
_cell_angle_beta 90.000000
_cell_angle_gamma 90.000000
_cell_volume 1184.122490
_symmetry_space_group_name_H-M "P M C 21"
_symmetry_group_IT_number 26
_symmetry_cell_setting 'orthorhombic'
loop_
_space_group_symop_operation_xyz
x,y,z
-x,-y,1/2+z
-x,y,z
x,-y,1/2+z
loop_
_atom_site_type_symbol
_atom_site_label
_atom_site_fract_x
_atom_site_fract_y
_atom_site_fract_z
Si Si1 0.321287 0.409109 0.268990
Si Si2 0.680713 0.710378 0.027360
Si Si3 0.181194 0.616232 0.277411
Si Si4 0.819458 0.721229 0.547955
Si Si5 0.316257 0.922508 0.618362
Si Si6 0.685778 0.083901 0.418092
O O1 0.500000 0.390747 0.226145
O O2 0.292406 0.374593 0.420414
O O3 0.284284 0.521423 0.258310
O O4 0.210213 0.349482 0.171593
O O5 0.500000 0.717589 0.070033
O O6 0.785594 0.688892 0.156073
O O7 0.740979 0.810869 0.965713
O O8 0.234009 0.668085 0.413132
O O9 0.000000 0.587405 0.281302
O O10 0.720120 0.817918 0.559851
O O11 0.000000 0.749507 0.543463
O O12 0.500000 0.935608 0.624311
O O13 0.246655 0.934863 0.768504
O O14 0.244958 0.004004 0.519908
O O15 0.500000 0.079681 0.413282
#
# Coordination Sequence:
#
# PCOD8167587 Si02
#       6
#     4   4   4   4   4   4
#     4  11  22  40  65  90 117 153 203 252 299 355
#     4  10  21  39  62  90 120 153 201 249 297 356
#     4  11  25  40  57  87 124 160 201 243 295 359
#     4  11  24  41  60  87 125 164 201 242 295 358
#     4  10  20  38  63  90 120 154 198 249 300 352
#     4   9  19  36  61  92 118 148 194 249 300 348
#
# _framework density 20.268170999999999
#
# number of rings (size 3 to 8) (size 9 to 14) (size 15 to 20)
#    0.000    1.667    1.667    2.500    2.333    6.667 
#    0.000    1.667    0.000    0.000    0.000    0.000 
#    0.000    0.000    0.000    0.000    0.000    0.000 
#
# Total GULP energy -297720.743959 kJ/mol
# GULP energy per Si atom -12405.030998 kJ/mol
# Density = 2.022204 g / cm^3
# Si number density = 20.268171 Si / 1000 Ang^3
#
#
#
# Elastic Constant Matrix: (Units=GPa)
#
#
# Indices 1 2 3 4 5 6 
#
# 1 19.6109 9.2792 29.3309 0.0000 0.0000 0.0000
# 2 9.2792 121.2265 43.9692 0.0000 0.0000 0.0000
# 3 29.3309 43.9692 71.8091 0.0000 0.0000 0.0000
# 4 0.0000 0.0000 0.0000 41.5486 0.0000 0.0000
# 5 0.0000 0.0000 0.0000 0.0000 24.1632 0.0000
# 6 0.0000 0.0000 0.0000 0.0000 0.0000 15.1633
#
#
#
# Elastic Compliance Matrix: (Units=1/GPa)
#
#
# Indices 1 2 3 4 5 6 
#
# 1 0.146381 0.013474 -0.068040 0.000000 0.000000 0.000000
# 2 0.013474 0.011844 -0.012756 0.000000 0.000000 0.000000
# 3 -0.068040 -0.012756 0.049528 0.000000 0.000000 0.000000
# 4 0.000000 0.000000 0.000000 0.024068 0.000000 0.000000
# 5 0.000000 0.000000 0.000000 0.000000 0.041385 0.000000
# 6 0.000000 0.000000 0.000000 0.000000 0.000000 0.065949
#
#
# Mechanical properties :
#
#
# Convention : Reuss Voigt Hill
#
# Bulk Modulus (GPa) = 13.67838 41.97833 27.82835
# Shear Modulus (GPa) = 10.03676 24.84616 17.44146
#
# Velocity S-wave (km/s) = 2.22772 3.50504 2.93667
# Velocity P-wave (km/s) = 3.65791 6.09400 5.02579
#
# Compressibility (1/GPa) = 0.07310810
#
# Stress axis : x y z
#
# Youngs Moduli (GPa) = 6.83151 84.42920 20.19067
#
# Poissons Ratio (x) = -1.13759 1.37378
# Poissons Ratio (y) = -0.09205 0.25755
# Poissons Ratio (z) = 0.46482 1.07696
#
# Static dielectric constant tensor:
#      x y z
#    x 3.371270 0.000000 0.000000 
#    y 0.000000 3.738540 0.000000 
#    z 0.000000 0.000000 3.952420 
# 
# 
# High freq. dielectric constant tensor:
#      x y z
#    x 1.766240 0.000000 0.000000 
#    y 0.000000 1.800570 0.000000 
#    z 0.000000 0.000000 1.806970 
# 
# From -- ./inp_files/1448.got.cif
#   From: 2010.03.12/outbox.cif.g09.slc.cpg/sg26_1_cif.got.tgz:1448.got - 2010.04.14 03:33:09.
