data_PCOD8167521
_publ_section_title
;
Structure prediction by ZEFSAII (Michael W. Deem and Ramdas Pophale) SiO2 
 PCOD8167521
Probable space group: P M C 21
;
_chemical_formula_sum "Si O2"
_cell_formula_units_Z 20
_cell_length_a 7.782290
_cell_length_b 14.632002
_cell_length_c 9.441116
_cell_angle_alpha 90.000000
_cell_angle_beta 90.000000
_cell_angle_gamma 90.000000
_cell_volume 1075.064438
_symmetry_space_group_name_H-M "P M C 21"
_symmetry_group_IT_number 26
_symmetry_cell_setting 'orthorhombic'
loop_
_space_group_symop_operation_xyz
x,y,z
-x,-y,1/2+z
-x,y,z
x,-y,1/2+z
loop_
_atom_site_type_symbol
_atom_site_label
_atom_site_fract_x
_atom_site_fract_y
_atom_site_fract_z
Si Si1 0.309135 0.773001 0.884490
Si Si2 0.309224 0.787016 0.218500
Si Si3 0.000000 0.898836 0.869597
Si Si4 0.000000 0.087049 0.707275
Si Si5 0.796199 0.591583 0.230966
Si Si6 0.203789 0.578041 0.911122
O O1 0.500000 0.804574 0.836864
O O2 0.276556 0.668949 0.834414
O O3 0.168374 0.842053 0.821680
O O4 0.288176 0.773212 0.052242
O O5 0.500000 0.822401 0.259629
O O6 0.168231 0.860694 0.266886
O O7 0.277293 0.687872 0.289104
O O8 0.000000 0.988491 0.775884
O O9 0.000000 0.921406 0.036879
O O10 0.725415 0.510674 0.329776
O O11 0.000000 0.597732 0.235145
O O12 0.730775 0.571336 0.072271
O O13 0.000000 0.583229 0.903983
#
# Coordination Sequence:
#
# PCOD8167521 Si02
#       6
#     4   4   2   2   4   4
#     4   9  17  31  52  74  97 129 166 198 234 289
#     4   9  17  31  52  74  97 129 166 198 234 289
#     4  10  20  36  55  74  96 124 161 204 249 292
#     4  10  20  36  55  74  96 124 161 204 249 292
#     4   9  16  28  47  71  98 129 163 196 232 278
#     4   9  16  28  47  71  98 129 163 196 232 278
#
# _framework density 18.603535999999998
#
# number of rings (size 3 to 8) (size 9 to 14) (size 15 to 20)
#    0.000    2.800    2.000    0.000    0.000    1.600 
#    0.000    2.000    0.000    2.400    0.000    0.000 
#    0.000    0.000    0.000    0.000    0.000    0.000 
#
# Total GULP energy -247921.943311 kJ/mol
# GULP energy per Si atom -12396.097166 kJ/mol
# Density = 1.856119 g / cm^3
# Si number density = 18.603536 Si / 1000 Ang^3
#
#
#
# Elastic Constant Matrix: (Units=GPa)
#
#
# Indices 1 2 3 4 5 6 
#
# 1 93.7007 22.7660 1.2697 0.0000 0.0000 0.0000
# 2 22.7660 40.7743 -7.7291 0.0000 0.0000 0.0000
# 3 1.2697 -7.7291 18.0770 0.0000 0.0000 0.0000
# 4 0.0000 0.0000 0.0000 33.8609 0.0000 0.0000
# 5 0.0000 0.0000 0.0000 0.0000 6.5778 0.0000
# 6 0.0000 0.0000 0.0000 0.0000 0.0000 12.4092
#
#
#
# Elastic Compliance Matrix: (Units=1/GPa)
#
#
# Indices 1 2 3 4 5 6 
#
# 1 0.012640 -0.007863 -0.004250 0.000000 0.000000 0.000000
# 2 -0.007863 0.031580 0.014055 0.000000 0.000000 0.000000
# 3 -0.004250 0.014055 0.061627 0.000000 0.000000 0.000000
# 4 0.000000 0.000000 0.000000 0.029533 0.000000 0.000000
# 5 0.000000 0.000000 0.000000 0.000000 0.152026 0.000000
# 6 0.000000 0.000000 0.000000 0.000000 0.000000 0.080586
#
#
# Mechanical properties :
#
#
# Convention : Reuss Voigt Hill
#
# Bulk Modulus (GPa) = 9.11323 20.57389 14.84356
# Shear Modulus (GPa) = 12.47864 19.65261 16.06563
#
# Velocity S-wave (km/s) = 2.59273 3.25374 2.94186
# Velocity P-wave (km/s) = 3.72455 5.01985 4.41991
#
# Compressibility (1/GPa) = 0.10973062
#
# Stress axis : x y z
#
# Youngs Moduli (GPa) = 79.11166 31.66573 16.22666
#
# Poissons Ratio (x) = 0.24900 0.06896
# Poissons Ratio (y) = 0.62207 -0.22806
# Poissons Ratio (z) = 0.33622 -0.44506
#
# Static dielectric constant tensor:
#      x y z
#    x 3.534630 0.000000 0.000000 
#    y 0.000000 3.488730 0.000000 
#    z 0.000000 0.000000 3.039210 
# 
# 
# High freq. dielectric constant tensor:
#      x y z
#    x 1.730400 0.000000 0.000000 
#    y 0.000000 1.725610 0.000000 
#    z 0.000000 0.000000 1.665070 
# 
# From -- ./inp_files/1329.got.cif
#   From: 2010.03.12/outbox.cif.g09.slc.cpg/sg26_1_cif.got.tgz:1329.got - 2010.04.14 03:33:09.
