data_PCOD8167523
_publ_section_title
;
Structure prediction by ZEFSAII (Michael W. Deem and Ramdas Pophale) SiO2 
 PCOD8167523
Probable space group: P M C 21
;
_chemical_formula_sum "Si O2"
_cell_formula_units_Z 32
_cell_length_a 8.855455
_cell_length_b 20.457073
_cell_length_c 9.166224
_cell_angle_alpha 90.000000
_cell_angle_beta 90.000000
_cell_angle_gamma 90.000000
_cell_volume 1660.522794
_symmetry_space_group_name_H-M "P M C 21"
_symmetry_group_IT_number 26
_symmetry_cell_setting 'orthorhombic'
loop_
_space_group_symop_operation_xyz
x,y,z
-x,-y,1/2+z
-x,y,z
x,-y,1/2+z
loop_
_atom_site_type_symbol
_atom_site_label
_atom_site_fract_x
_atom_site_fract_y
_atom_site_fract_z
Si Si1 0.322150 0.445099 0.146910
Si Si2 0.176903 0.796077 0.629339
Si Si3 0.823737 0.327982 0.320480
Si Si4 0.326498 0.071274 0.181346
Si Si5 0.321073 0.573252 0.315055
Si Si6 0.680398 0.805111 0.321566
Si Si7 0.328480 0.949007 0.346132
Si Si8 0.178737 0.308000 0.651062
O O1 0.500000 0.440890 0.157329
O O2 0.258713 0.386789 0.242082
O O3 0.266267 0.513609 0.213872
O O4 0.267546 0.440849 0.980065
O O5 0.219024 0.739437 0.742422
O O6 0.229963 0.863377 0.703802
O O7 0.263349 0.780788 0.479329
O O8 0.000000 0.799190 0.595906
O O9 0.768586 0.324826 0.487621
O O10 0.000000 0.342042 0.311911
O O11 0.500000 0.086803 0.224740
O O12 0.250432 0.013283 0.277394
O O13 0.315501 0.045537 0.018040
O O14 0.500000 0.584470 0.305682
O O15 0.237098 0.637771 0.262527
O O16 0.500000 0.801990 0.323231
O O17 0.739740 0.879360 0.293721
O O18 0.747651 0.760997 0.193851
O O19 0.500000 0.951214 0.291025
O O20 0.000000 0.301780 0.663254
#
# Coordination Sequence:
#
# PCOD8167523 Si02
#       8
#     4   4   4   4   4   4   4   4
#     4  10  21  37  60  85 110 139 177 222 267 314
#     4  10  20  36  55  77 107 144 182 223 269 322
#     4  10  23  39  54  76 110 146 181 219 266 321
#     4   9  17  32  52  75 103 137 177 222 268 319
#     4  10  21  38  59  85 112 141 177 221 269 320
#     4  10  20  36  57  81 107 140 181 226 273 324
#     4   8  16  30  50  74 101 132 170 215 264 314
#     4  11  23  38  55  79 110 145 181 222 268 320
#
# _framework density 19.271038999999998
#
# number of rings (size 3 to 8) (size 9 to 14) (size 15 to 20)
#    0.000    2.250    0.000    3.375    0.000    7.000 
#    0.000    4.375    0.000    0.000    0.000    0.000 
#    0.000    0.000    0.000    0.000    0.000    0.000 
#
# Total GULP energy -396821.379336 kJ/mol
# GULP energy per Si atom -12400.668104 kJ/mol
# Density = 1.922718 g / cm^3
# Si number density = 19.271039 Si / 1000 Ang^3
#
#
#
# Elastic Constant Matrix: (Units=GPa)
#
#
# Indices 1 2 3 4 5 6 
#
# 1 39.7943 16.7484 15.7146 0.0000 0.0000 0.0000
# 2 16.7484 76.6526 10.6619 0.0000 0.0000 0.0000
# 3 15.7146 10.6619 55.4244 0.0000 0.0000 0.0000
# 4 0.0000 0.0000 0.0000 43.6056 0.0000 0.0000
# 5 0.0000 0.0000 0.0000 0.0000 26.5913 0.0000
# 6 0.0000 0.0000 0.0000 0.0000 0.0000 -0.2079
#
#
#
# Elastic Compliance Matrix: (Units=1/GPa)
#
#
# Indices 1 2 3 4 5 6 
#
# 1 0.030475 -0.005607 -0.007562 0.000000 0.000000 0.000000
# 2 -0.005607 0.014436 -0.001187 0.000000 0.000000 0.000000
# 3 -0.007562 -0.001187 0.020415 0.000000 0.000000 0.000000
# 4 0.000000 0.000000 0.000000 0.022933 0.000000 0.000000
# 5 0.000000 0.000000 0.000000 0.000000 0.037606 0.000000
# 6 0.000000 0.000000 0.000000 0.000000 0.000000 -4.810120
#
#
# Mechanical properties :
#
#
# Convention : Reuss Voigt Hill
#
# Bulk Modulus (GPa) = 27.31213 28.68014 27.99613
# Shear Modulus (GPa) = -1.07681 22.58090 10.75204
#
# Velocity S-wave (km/s) = -0.74832 3.42680 2.36463
# Velocity P-wave (km/s) = 3.66834 5.52920 4.69195
#
# Compressibility (1/GPa) = 0.03661377
#
# Stress axis : x y z
#
# Youngs Moduli (GPa) = 32.81347 69.27071 48.98340
#
# Poissons Ratio (x) = 0.38840 0.37042
# Poissons Ratio (y) = 0.18398 0.05816
# Poissons Ratio (z) = 0.24814 0.08225
#
# Static dielectric constant tensor:
#      x y z
#    x 3.358600 0.000000 0.000000 
#    y 0.000000 3.782550 0.000000 
#    z 0.000000 0.000000 3.633490 
# 
# 
# High freq. dielectric constant tensor:
#      x y z
#    x 1.731490 0.000000 0.000000 
#    y 0.000000 1.767160 0.000000 
#    z 0.000000 0.000000 1.752940 
# 
# From -- ./inp_files/1593.got.cif
#   From: 2010.03.12/outbox.cif.g09.slc.cpg/sg26_1_cif.got.tgz:1593.got - 2010.04.14 03:33:09.
