data_PCOD8167565
_publ_section_title
;
Structure prediction by ZEFSAII (Michael W. Deem and Ramdas Pophale) SiO2 
 PCOD8167565
Probable space group: P M C 21
;
_chemical_formula_sum "Si O2"
_cell_formula_units_Z 32
_cell_length_a 8.928568
_cell_length_b 15.240461
_cell_length_c 11.884291
_cell_angle_alpha 90.000000
_cell_angle_beta 90.000000
_cell_angle_gamma 90.000000
_cell_volume 1617.160750
_symmetry_space_group_name_H-M "P M C 21"
_symmetry_group_IT_number 26
_symmetry_cell_setting 'orthorhombic'
loop_
_space_group_symop_operation_xyz
x,y,z
-x,-y,1/2+z
-x,y,z
x,-y,1/2+z
loop_
_atom_site_type_symbol
_atom_site_label
_atom_site_fract_x
_atom_site_fract_y
_atom_site_fract_z
Si Si1 0.322837 0.893483 0.319680
Si Si2 0.671056 0.089490 0.288898
Si Si3 0.173026 0.408074 0.823590
Si Si4 0.175810 0.249842 0.667136
Si Si5 0.171436 0.348563 0.072862
Si Si6 0.676199 0.586090 0.777555
Si Si7 0.176814 0.748142 0.906606
Si Si8 0.670023 0.825073 0.560239
O O1 0.500000 0.891094 0.305223
O O2 0.253788 0.834050 0.222246
O O3 0.270633 0.860478 0.441704
O O4 0.263454 0.992925 0.311396
O O5 0.500000 0.098635 0.331434
O O6 0.768628 0.160349 0.355236
O O7 0.679028 0.099904 0.154119
O O8 0.226767 0.340245 0.727622
O O9 0.275727 0.493431 0.828231
O O10 0.000000 0.435321 0.806414
O O11 0.199958 0.361343 0.941903
O O12 0.223119 0.255640 0.537417
O O13 0.000000 0.237091 0.683404
O O14 0.269227 0.414869 0.147933
O O15 0.221675 0.250910 0.104276
O O16 0.000000 0.362542 0.106730
O O17 0.500000 0.597333 0.784346
O O18 0.749329 0.665741 0.845328
O O19 0.000000 0.740694 0.891397
O O20 0.500000 0.789293 0.548680
#
# Coordination Sequence:
#
# PCOD8167565 Si02
#       8
#     4   4   4   4   4   4   4   4
#     4  10  22  38  62  92 124 163 204 249 306 365
#     4  10  22  39  61  90 124 163 203 251 306 362
#     4  10  23  43  65  90 121 162 205 250 305 363
#     4  10  23  43  63  88 123 160 204 254 303 359
#     4  11  22  40  67  91 119 159 204 252 304 361
#     4  12  26  42  63  93 126 159 201 253 305 365
#     4  11  24  42  63  89 122 162 207 253 303 363
#     4  10  20  37  60  89 123 158 204 256 302 354
#
# _framework density 19.787766999999999
#
# number of rings (size 3 to 8) (size 9 to 14) (size 15 to 20)
#    0.000    1.500    2.500    1.875    3.500    3.000 
#    0.000    0.000    0.000    0.000    0.000    0.000 
#    0.000    0.000    0.000    0.000    0.000    0.000 
#
# Total GULP energy -396910.468948 kJ/mol
# GULP energy per Si atom -12403.452155 kJ/mol
# Density = 1.974273 g / cm^3
# Si number density = 19.787767 Si / 1000 Ang^3
#
#
#
# Elastic Constant Matrix: (Units=GPa)
#
#
# Indices 1 2 3 4 5 6 
#
# 1 83.1729 49.8231 45.2106 0.0000 0.0000 0.0000
# 2 49.8231 130.5386 39.6747 0.0000 0.0000 0.0000
# 3 45.2106 39.6747 110.0833 0.0000 0.0000 0.0000
# 4 0.0000 0.0000 0.0000 26.7188 0.0000 0.0000
# 5 0.0000 0.0000 0.0000 0.0000 29.2923 0.0000
# 6 0.0000 0.0000 0.0000 0.0000 0.0000 19.4550
#
#
#
# Elastic Compliance Matrix: (Units=1/GPa)
#
#
# Indices 1 2 3 4 5 6 
#
# 1 0.018204 -0.005251 -0.005584 0.000000 0.000000 0.000000
# 2 -0.005251 0.010118 -0.001490 0.000000 0.000000 0.000000
# 3 -0.005584 -0.001490 0.011914 0.000000 0.000000 0.000000
# 4 0.000000 0.000000 0.000000 0.037427 0.000000 0.000000
# 5 0.000000 0.000000 0.000000 0.000000 0.034139 0.000000
# 6 0.000000 0.000000 0.000000 0.000000 0.000000 0.051401
#
#
# Mechanical properties :
#
#
# Convention : Reuss Voigt Hill
#
# Bulk Modulus (GPa) = 64.15817 65.91239 65.03528
# Shear Modulus (GPa) = 25.90058 27.69900 26.79979
#
# Velocity S-wave (km/s) = 3.62182 3.74545 3.68416
# Velocity P-wave (km/s) = 7.06991 7.21710 7.14389
#
# Compressibility (1/GPa) = 0.01558648
#
# Stress axis : x y z
#
# Youngs Moduli (GPa) = 54.93384 98.83864 83.93328
#
# Poissons Ratio (x) = 0.51898 0.46866
# Poissons Ratio (y) = 0.28845 0.12505
# Poissons Ratio (z) = 0.30674 0.14726
#
# Static dielectric constant tensor:
#      x y z
#    x 3.548570 0.000000 0.000000 
#    y 0.000000 3.606470 0.000000 
#    z 0.000000 0.000000 3.795440 
# 
# 
# High freq. dielectric constant tensor:
#      x y z
#    x 1.765290 0.000000 0.000000 
#    y 0.000000 1.775810 0.000000 
#    z 0.000000 0.000000 1.786720 
# 
# From -- ./inp_files/2990.got.cif
#   From: 2010.03.12/outbox.cif.g09.slc.cpg/sg26_2_cif.got.tgz:2990.got - 2010.04.14 03:33:09.
