data_PCOD8167373
_publ_section_title
;
Structure prediction by ZEFSAII (Michael W. Deem and Ramdas Pophale) SiO2 
 PCOD8167373
Probable space group: P M C 21
;
_chemical_formula_sum "Si O2"
_cell_formula_units_Z 32
_cell_length_a 8.881446
_cell_length_b 11.340377
_cell_length_c 16.360997
_cell_angle_alpha 90.000000
_cell_angle_beta 90.000000
_cell_angle_gamma 90.000000
_cell_volume 1647.862372
_symmetry_space_group_name_H-M "P M C 21"
_symmetry_group_IT_number 26
_symmetry_cell_setting 'orthorhombic'
loop_
_space_group_symop_operation_xyz
x,y,z
-x,-y,1/2+z
-x,y,z
x,-y,1/2+z
loop_
_atom_site_type_symbol
_atom_site_label
_atom_site_fract_x
_atom_site_fract_y
_atom_site_fract_z
Si Si1 0.177395 0.942067 0.004450
Si Si2 0.320788 0.192425 0.964200
Si Si3 0.171815 0.284767 0.120392
Si Si4 0.328485 0.787750 0.877913
Si Si5 0.676615 0.577052 0.766003
Si Si6 0.677346 0.314290 0.797441
Si Si7 0.831743 0.153090 0.675189
Si Si8 0.164013 0.091081 0.245424
O O1 0.238342 0.900384 0.092462
O O2 0.000000 0.967227 0.005984
O O3 0.215842 0.829627 0.948109
O O4 0.258264 0.059931 0.972753
O O5 0.500000 0.186822 0.967320
O O6 0.261633 0.248777 0.878763
O O7 0.263612 0.279754 0.035803
O O8 0.238993 0.378860 0.184494
O O9 0.181535 0.152462 0.156970
O O10 0.000000 0.320891 0.101689
O O11 0.500000 0.796916 0.908318
O O12 0.287497 0.657456 0.845428
O O13 0.304386 0.874239 0.801139
O O14 0.500000 0.579723 0.745646
O O15 0.734927 0.448711 0.792679
O O16 0.500000 0.310743 0.799002
O O17 0.731247 0.255377 0.713200
O O18 0.000000 0.201994 0.659062
O O19 0.834608 0.048553 0.740474
O O20 0.000000 0.130592 0.282131
#
# Coordination Sequence:
#
# PCOD8167373 Si02
#       8
#     4   4   4   4   4   4   4   4
#     4  11  22  38  57  84 121 153 187 236 295 351
#     4  11  22  37  60  90 120 152 195 242 292 353
#     4  10  19  35  60  88 116 149 191 237 286 344
#     4  10  20  34  56  85 110 143 189 234 281 338
#     4   9  20  41  61  80 113 153 196 241 286 340
#     4  10  23  41  59  83 116 155 197 242 291 342
#     4  10  21  37  56  80 115 152 186 231 288 348
#     4   9  17  33  55  80 111 147 181 223 285 342
#
# _framework density 19.419098999999999
#
# number of rings (size 3 to 8) (size 9 to 14) (size 15 to 20)
#    0.000    2.000    1.250    2.250    0.000    6.000 
#    2.250    0.000    0.000    0.000    0.000    0.000 
#    0.000    0.000    0.000    0.000    0.000    0.000 
#
# Total GULP energy -396691.012636 kJ/mol
# GULP energy per Si atom -12396.594145 kJ/mol
# Density = 1.937490 g / cm^3
# Si number density = 19.419099 Si / 1000 Ang^3
#
#
#
# Elastic Constant Matrix: (Units=GPa)
#
#
# Indices 1 2 3 4 5 6 
#
# 1 57.2236 40.8776 36.3168 0.0000 0.0000 0.0000
# 2 40.8776 128.3287 65.3091 0.0000 0.0000 0.0000
# 3 36.3168 65.3091 103.5916 0.0000 0.0000 0.0000
# 4 0.0000 0.0000 0.0000 27.5295 0.0000 0.0000
# 5 0.0000 0.0000 0.0000 0.0000 32.8210 0.0000
# 6 0.0000 0.0000 0.0000 0.0000 0.0000 20.9749
#
#
#
# Elastic Compliance Matrix: (Units=1/GPa)
#
#
# Indices 1 2 3 4 5 6 
#
# 1 0.024521 -0.005059 -0.005407 0.000000 0.000000 0.000000
# 2 -0.005059 0.012518 -0.006118 0.000000 0.000000 0.000000
# 3 -0.005407 -0.006118 0.015406 0.000000 0.000000 0.000000
# 4 0.000000 0.000000 0.000000 0.036325 0.000000 0.000000
# 5 0.000000 0.000000 0.000000 0.000000 0.030468 0.000000
# 6 0.000000 0.000000 0.000000 0.000000 0.000000 0.047676
#
#
# Mechanical properties :
#
#
# Convention : Reuss Voigt Hill
#
# Bulk Modulus (GPa) = 51.87768 63.79455 57.83611
# Shear Modulus (GPa) = 24.21226 26.04111 25.12668
#
# Velocity S-wave (km/s) = 3.53487 3.66595 3.60101
# Velocity P-wave (km/s) = 6.59039 7.13033 6.86567
#
# Compressibility (1/GPa) = 0.01927611
#
# Stress axis : x y z
#
# Youngs Moduli (GPa) = 40.78184 79.88719 64.90986
#
# Poissons Ratio (x) = 0.40416 0.35096
# Poissons Ratio (y) = 0.20632 0.39713
# Poissons Ratio (z) = 0.22050 0.48876
#
# Static dielectric constant tensor:
#      x y z
#    x 3.506650 0.000000 0.000000 
#    y 0.000000 3.554420 0.000000 
#    z 0.000000 0.000000 3.599440 
# 
# 
# High freq. dielectric constant tensor:
#      x y z
#    x 1.753990 0.000000 0.000000 
#    y 0.000000 1.745950 0.000000 
#    z 0.000000 0.000000 1.755460 
# 
# From -- ./inp_files/4216.got.cif
#   From: 2010.03.12/outbox.cif.g09.slc.cpg/sg26_3_cif.got.tgz:4216.got - 2010.04.14 03:33:09.
