data_PCOD8167942
_publ_section_title
;
Structure prediction by ZEFSAII (Michael W. Deem and Ramdas Pophale) SiO2 
 PCOD8167942
Probable space group: P C C 2
;
_chemical_formula_sum "Si O2"
_cell_formula_units_Z 18
_cell_length_a 5.074556
_cell_length_b 12.396663
_cell_length_c 11.296360
_cell_angle_alpha 90.000000
_cell_angle_beta 90.000000
_cell_angle_gamma 90.000000
_cell_volume 710.626451
_symmetry_space_group_name_H-M "P C C 2"
_symmetry_group_IT_number 27
_symmetry_cell_setting 'orthorhombic'
loop_
_space_group_symop_operation_xyz
x,y,z
-x,-y,z
-x,y,1/2+z
x,-y,1/2+z
loop_
_atom_site_type_symbol
_atom_site_label
_atom_site_fract_x
_atom_site_fract_y
_atom_site_fract_z
Si Si1 0.738113 0.430167 0.622110
Si Si2 0.000000 0.000000 0.936198
Si Si3 0.141342 0.766723 0.455997
Si Si4 0.750763 0.060192 0.704321
Si Si5 0.642817 0.269530 0.806907
O O1 0.500000 0.500000 0.567153
O O2 0.773024 0.323341 0.546667
O O3 0.649634 0.390062 0.752876
O O4 0.000000 0.500000 0.630437
O O5 0.876861 0.892386 0.006738
O O6 0.228899 0.956978 0.848113
O O7 0.348983 0.763728 0.347478
O O8 0.850831 0.734669 0.412960
O O9 0.726288 0.189547 0.696957
O O10 0.500000 0.000000 0.649894
O O11 0.000000 0.000000 0.640827
#
# Coordination Sequence:
#
# PCOD8167942 Si02
#       5
#     4   2   4   4   4
#     4  12  28  46  65 100 137 177 246 286 317 414
#     4   8  18  34  64  94 132 154 212 268 332 414
#     4  11  23  42  72  99 134 179 221 283 353 404
#     4   9  15  31  59  89 123 158 197 261 318 398
#     4  11  22  42  69  94 134 180 218 276 351 388
#
# _framework density 25.329761000000001
#
# number of rings (size 3 to 8) (size 9 to 14) (size 15 to 20)
#    0.667    0.889    2.222    2.667    0.000    5.333 
#    2.000    0.000    4.889    0.000    0.000    0.000 
#    0.000    0.000    0.000    0.000    0.000    0.000 
#
# Total GULP energy -223064.868245 kJ/mol
# GULP energy per Si atom -12392.492680 kJ/mol
# Density = 2.527211 g / cm^3
# Si number density = 25.329761 Si / 1000 Ang^3
#
#
#
# Elastic Constant Matrix: (Units=GPa)
#
#
# Indices 1 2 3 4 5 6 
#
# 1 141.8297 57.2112 21.4056 0.0000 0.0000 0.0000
# 2 57.2112 203.1453 78.8393 0.0000 0.0000 0.0000
# 3 21.4056 78.8393 48.1279 0.0000 0.0000 0.0000
# 4 0.0000 0.0000 0.0000 -1.9948 0.0000 0.0000
# 5 0.0000 0.0000 0.0000 0.0000 12.8686 0.0000
# 6 0.0000 0.0000 0.0000 0.0000 0.0000 42.7404
#
#
#
# Elastic Compliance Matrix: (Units=1/GPa)
#
#
# Indices 1 2 3 4 5 6 
#
# 1 0.007957 -0.002381 0.000362 0.000000 0.000000 0.000000
# 2 -0.002381 0.014227 -0.022246 0.000000 0.000000 0.000000
# 3 0.000362 -0.022246 0.057059 0.000000 0.000000 0.000000
# 4 0.000000 0.000000 0.000000 -0.501303 0.000000 0.000000
# 5 0.000000 0.000000 0.000000 0.000000 0.077709 0.000000
# 6 0.000000 0.000000 0.000000 0.000000 0.000000 0.023397
#
#
# Mechanical properties :
#
#
# Convention : Reuss Voigt Hill
#
# Bulk Modulus (GPa) = 32.56107 78.66836 55.61472
# Shear Modulus (GPa) = -19.07035 26.43261 3.68113
#
# Velocity S-wave (km/s) = -2.74685 3.23389 1.20683
# Velocity P-wave (km/s) = 1.68004 6.71336 4.89345
#
# Compressibility (1/GPa) = 0.03071152
#
# Stress axis : x y z
#
# Youngs Moduli (GPa) = 125.68120 70.28980 17.52575
#
# Poissons Ratio (x) = 0.16738 -0.00635
# Poissons Ratio (y) = 0.29929 0.38988
# Poissons Ratio (z) = -0.04550 1.56368
#
# Static dielectric constant tensor:
#      x y z
#    x 4.398720 0.000000 0.000000 
#    y 0.000000 5.040320 0.000000 
#    z 0.000000 0.000000 4.311030 
# 
# 
# High freq. dielectric constant tensor:
#      x y z
#    x 2.006900 0.000000 0.000000 
#    y 0.000000 2.039500 0.000000 
#    z 0.000000 0.000000 2.016990 
# 
# From -- ./inp_files/1901.got.cif
#   From: 2010.03.12/outbox.cif.g09.slc.cpg/sg27_1_cif.got.tgz:1901.got - 2010.04.14 03:36:05.
