data_PCOD8167639
_publ_section_title
;
Structure prediction by ZEFSAII (Michael W. Deem and Ramdas Pophale) SiO2 
 PCOD8167639
Probable space group: P M C 21
;
_chemical_formula_sum "Si O2"
_cell_formula_units_Z 32
_cell_length_a 9.168041
_cell_length_b 15.893447
_cell_length_c 11.104721
_cell_angle_alpha 90.000000
_cell_angle_beta 90.000000
_cell_angle_gamma 90.000000
_cell_volume 1618.088594
_symmetry_space_group_name_H-M "P M C 21"
_symmetry_group_IT_number 26
_symmetry_cell_setting 'orthorhombic'
loop_
_space_group_symop_operation_xyz
x,y,z
-x,-y,1/2+z
-x,y,z
x,-y,1/2+z
loop_
_atom_site_type_symbol
_atom_site_label
_atom_site_fract_x
_atom_site_fract_y
_atom_site_fract_z
Si Si1 0.669412 0.647595 0.136460
Si Si2 0.332200 0.364876 0.909869
Si Si3 0.173142 0.938399 0.635849
Si Si4 0.339639 0.208874 0.477190
Si Si5 0.332348 0.233482 0.092224
Si Si6 0.172317 0.472737 0.456366
Si Si7 0.827928 0.952213 0.908349
Si Si8 0.662040 0.359754 0.290505
O O1 0.500000 0.625319 0.110968
O O2 0.715292 0.637356 0.272797
O O3 0.698338 0.746475 0.104238
O O4 0.772024 0.584521 0.064654
O O5 0.500000 0.391463 0.928654
O O6 0.232167 0.433390 0.976466
O O7 0.308727 0.269007 0.957815
O O8 0.230428 0.844168 0.623132
O O9 0.222347 0.975121 0.769304
O O10 0.000000 0.935991 0.631709
O O11 0.234488 0.989577 0.518460
O O12 0.500000 0.165353 0.479342
O O13 0.219946 0.142004 0.438307
O O14 0.339780 0.286543 0.387746
O O15 0.500000 0.206991 0.118798
O O16 0.285976 0.315900 0.168211
O O17 0.230465 0.434846 0.329190
O O18 0.000000 0.473607 0.454374
O O19 0.000000 0.955944 0.913413
O O20 0.500000 0.398811 0.275817
#
# Coordination Sequence:
#
# PCOD8167639 Si02
#       8
#     4   4   4   4   4   4   4   4
#     4   9  20  39  58  79 112 150 190 236 290 350
#     4  10  22  39  59  82 113 153 193 236 293 354
#     4  10  22  39  58  83 119 157 196 240 296 359
#     4   9  17  33  58  83 106 138 181 232 282 330
#     4  10  21  38  61  87 112 147 194 241 291 346
#     4  11  23  36  55  85 116 148 191 239 286 338
#     4  10  21  37  57  83 115 154 193 234 289 358
#     4   9  18  35  58  82 111 145 186 232 283 341
#
# _framework density 19.776418
#
# number of rings (size 3 to 8) (size 9 to 14) (size 15 to 20)
#    0.000    2.250    1.250    1.875    1.750    5.000 
#    0.000    0.000    0.000    0.000    0.000    0.000 
#    0.000    0.000    0.000    0.000    0.000    0.000 
#
# Total GULP energy -396529.532649 kJ/mol
# GULP energy per Si atom -12391.547895 kJ/mol
# Density = 1.973141 g / cm^3
# Si number density = 19.776418 Si / 1000 Ang^3
#
#
#
# Elastic Constant Matrix: (Units=GPa)
#
#
# Indices 1 2 3 4 5 6 
#
# 1 50.2539 26.9553 38.3841 0.0000 0.0000 0.0000
# 2 26.9553 68.8664 46.4035 0.0000 0.0000 0.0000
# 3 38.3841 46.4035 118.2390 0.0000 0.0000 0.0000
# 4 0.0000 0.0000 0.0000 17.1319 0.0000 0.0000
# 5 0.0000 0.0000 0.0000 0.0000 15.0425 0.0000
# 6 0.0000 0.0000 0.0000 0.0000 0.0000 24.6194
#
#
#
# Elastic Compliance Matrix: (Units=1/GPa)
#
#
# Indices 1 2 3 4 5 6 
#
# 1 0.028570 -0.006707 -0.006643 0.000000 0.000000 0.000000
# 2 -0.006707 0.021316 -0.006188 0.000000 0.000000 0.000000
# 3 -0.006643 -0.006188 0.013042 0.000000 0.000000 0.000000
# 4 0.000000 0.000000 0.000000 0.058371 0.000000 0.000000
# 5 0.000000 0.000000 0.000000 0.000000 0.066478 0.000000
# 6 0.000000 0.000000 0.000000 0.000000 0.000000 0.040618
#
#
# Mechanical properties :
#
#
# Convention : Reuss Voigt Hill
#
# Bulk Modulus (GPa) = 41.92356 51.20500 46.56428
# Shear Modulus (GPa) = 18.15396 19.73318 18.94357
#
# Velocity S-wave (km/s) = 3.03307 3.16225 3.09833
# Velocity P-wave (km/s) = 5.78885 6.26747 6.03291
#
# Compressibility (1/GPa) = 0.02385293
#
# Stress axis : x y z
#
# Youngs Moduli (GPa) = 35.00176 46.91362 76.67278
#
# Poissons Ratio (x) = 0.31464 0.50931
# Poissons Ratio (y) = 0.23475 0.47447
# Poissons Ratio (z) = 0.23250 0.29031
#
# Static dielectric constant tensor:
#      x y z
#    x 3.378600 0.000000 0.000000 
#    y 0.000000 3.482940 0.000000 
#    z 0.000000 0.000000 4.541100 
# 
# 
# High freq. dielectric constant tensor:
#      x y z
#    x 1.749660 0.000000 0.000000 
#    y 0.000000 1.757130 0.000000 
#    z 0.000000 0.000000 1.786400 
# 
# From -- ./inp_files/3102.got.cif
#   From: 2010.03.12/outbox.cif.g09.slc.cpg/sg26_2_cif.got.tgz:3102.got - 2010.04.14 03:33:09.
