data_PCOD8167179
_publ_section_title
;
Structure prediction by ZEFSAII (Michael W. Deem and Ramdas Pophale) SiO2 
 PCOD8167179
Probable space group: P M C 21
;
_chemical_formula_sum "Si O2"
_cell_formula_units_Z 26
_cell_length_a 12.323892
_cell_length_b 26.785912
_cell_length_c 5.186059
_cell_angle_alpha 90.000000
_cell_angle_beta 90.000000
_cell_angle_gamma 90.000000
_cell_volume 1711.952753
_symmetry_space_group_name_H-M "P M C 21"
_symmetry_group_IT_number 26
_symmetry_cell_setting 'orthorhombic'
loop_
_space_group_symop_operation_xyz
x,y,z
-x,-y,1/2+z
-x,y,z
x,-y,1/2+z
loop_
_atom_site_type_symbol
_atom_site_label
_atom_site_fract_x
_atom_site_fract_y
_atom_site_fract_z
Si Si1 0.129362 0.141457 0.767520
Si Si2 0.870541 0.199032 0.267541
Si Si3 0.128905 0.629842 0.269988
Si Si4 0.871067 0.688567 0.769572
Si Si5 0.129385 0.028753 0.767925
Si Si6 0.500000 0.469497 0.709293
Si Si7 0.733053 0.533157 0.301056
O O1 0.173855 0.170149 0.517314
O O2 0.174651 0.085107 0.767843
O O3 0.000000 0.140831 0.767570
O O4 0.173828 0.170270 0.017396
O O5 0.824247 0.255284 0.267790
O O6 0.000000 0.199828 0.267782
O O7 0.171787 0.659243 0.519947
O O8 0.176045 0.574541 0.264570
O O9 0.000000 0.624667 0.270329
O O10 0.170966 0.660158 0.022419
O O11 0.000000 0.690792 0.767284
O O12 0.000000 0.029331 0.767906
O O13 0.173940 0.999982 0.517977
O O14 0.500000 0.483068 0.406049
O O15 0.387013 0.440987 0.773165
O O16 0.747630 0.508986 0.582457
#
# Coordination Sequence:
#
# PCOD8167179 Si02
#       7
#     4   4   4   4   4   2   4
#     4   9  15  21  30  43  55  73 105 139 172 214
#     4   9  15  23  34  45  58  78 107 141 171 206
#     4  10  19  29  41  58  79 101 123 147 182 228
#     4   9  17  28  39  52  72  96 119 146 182 222
#     4   9  15  21  27  36  53  74  95 127 174 222
#     4   8  16  30  46  62  78  98 124 152 180 208
#     4  10  19  31  46  62  80 101 125 152 180 216
#
# _framework density 15.187334
#
# number of rings (size 3 to 8) (size 9 to 14) (size 15 to 20)
#    0.000    2.769    0.000    2.769    0.000    8.000 
#    0.000    0.000    0.000    0.000    0.000    0.000 
#    0.000    0.000    0.000    0.000    0.000    0.000 
#
# Total GULP energy -322284.981857 kJ/mol
# GULP energy per Si atom -12395.576225 kJ/mol
# Density = 1.515277 g / cm^3
# Si number density = 15.187334 Si / 1000 Ang^3
#
#
#
# Elastic Constant Matrix: (Units=GPa)
#
#
# Indices 1 2 3 4 5 6 
#
# 1 17.6017 21.1804 14.3160 0.0000 0.0000 0.0000
# 2 21.1804 114.4065 56.6008 0.0000 0.0000 0.0000
# 3 14.3160 56.6008 139.9199 0.0000 0.0000 0.0000
# 4 0.0000 0.0000 0.0000 32.0263 0.0000 0.0000
# 5 0.0000 0.0000 0.0000 0.0000 7.0801 0.0000
# 6 0.0000 0.0000 0.0000 0.0000 0.0000 0.4185
#
#
#
# Elastic Compliance Matrix: (Units=1/GPa)
#
#
# Indices 1 2 3 4 5 6 
#
# 1 0.073806 -0.012412 -0.002531 0.000000 0.000000 0.000000
# 2 -0.012412 0.013015 -0.003995 0.000000 0.000000 0.000000
# 3 -0.002531 -0.003995 0.009022 0.000000 0.000000 0.000000
# 4 0.000000 0.000000 0.000000 0.031224 0.000000 0.000000
# 5 0.000000 0.000000 0.000000 0.000000 0.141242 0.000000
# 6 0.000000 0.000000 0.000000 0.000000 0.000000 2.389557
#
#
# Mechanical properties :
#
#
# Convention : Reuss Voigt Hill
#
# Bulk Modulus (GPa) = 17.25082 50.68028 33.96555
# Shear Modulus (GPa) = 1.84158 19.89370 10.86764
#
# Velocity S-wave (km/s) = 1.10236 3.62316 2.67792
# Velocity P-wave (km/s) = 3.60605 7.13762 5.65461
#
# Compressibility (1/GPa) = 0.05796825
#
# Stress axis : x y z
#
# Youngs Moduli (GPa) = 13.54896 76.83392 110.84116
#
# Poissons Ratio (x) = 0.95366 0.28049
# Poissons Ratio (y) = 0.16817 0.44281
# Poissons Ratio (z) = 0.03429 0.30695
#
# Static dielectric constant tensor:
#      x y z
#    x 2.335610 0.000000 0.000000 
#    y 0.000000 2.975800 0.000000 
#    z 0.000000 0.000000 3.232080 
# 
# 
# High freq. dielectric constant tensor:
#      x y z
#    x 1.491320 0.000000 0.000000 
#    y 0.000000 1.583580 0.000000 
#    z 0.000000 0.000000 1.610130 
# 
# From -- ./inp_files/658.got.cif
#   From: 2010.03.12/outbox.cif.g09.slc.cpg/sg26_1_cif.got.tgz:658.got - 2010.04.14 03:33:09.
