data_PCOD8167625
_publ_section_title
;
Structure prediction by ZEFSAII (Michael W. Deem and Ramdas Pophale) SiO2 
 PCOD8167625
Probable space group: P M C 21
;
_chemical_formula_sum "Si O2"
_cell_formula_units_Z 32
_cell_length_a 9.080242
_cell_length_b 16.144386
_cell_length_c 10.738733
_cell_angle_alpha 90.000000
_cell_angle_beta 90.000000
_cell_angle_gamma 90.000000
_cell_volume 1574.243832
_symmetry_space_group_name_H-M "P M C 21"
_symmetry_group_IT_number 26
_symmetry_cell_setting 'orthorhombic'
loop_
_space_group_symop_operation_xyz
x,y,z
-x,-y,1/2+z
-x,y,z
x,-y,1/2+z
loop_
_atom_site_type_symbol
_atom_site_label
_atom_site_fract_x
_atom_site_fract_y
_atom_site_fract_z
Si Si1 0.663065 0.161716 0.729450
Si Si2 0.337237 0.262648 0.497372
Si Si3 0.323699 0.443817 0.574505
Si Si4 0.330356 0.981804 0.395267
Si Si5 0.165376 0.143126 0.061409
Si Si6 0.831200 0.714779 0.393047
Si Si7 0.821168 0.465982 0.839748
Si Si8 0.165043 0.145064 0.351529
O O1 0.500000 0.180539 0.784351
O O2 0.666219 0.179966 0.583301
O O3 0.702183 0.065991 0.763344
O O4 0.777802 0.224885 0.785963
O O5 0.500000 0.277160 0.442470
O O6 0.290004 0.345053 0.572046
O O7 0.231360 0.235453 0.385298
O O8 0.500000 0.462352 0.578102
O O9 0.250141 0.475092 0.445143
O O10 0.245474 0.481557 0.699500
O O11 0.500000 0.004065 0.411652
O O12 0.282888 0.918832 0.503246
O O13 0.244334 0.066554 0.411203
O O14 0.178305 0.135377 0.206270
O O15 0.000000 0.120843 0.014520
O O16 0.200613 0.238874 0.024013
O O17 0.761351 0.623739 0.385349
O O18 0.000000 0.699032 0.367224
O O19 0.000000 0.477002 0.836118
O O20 0.000000 0.143861 0.401342
#
# Coordination Sequence:
#
# PCOD8167625 Si02
#       8
#     4   4   4   4   4   4   4   4
#     4   9  18  35  59  85 112 147 192 243 292 348
#     4  10  22  40  61  87 120 158 204 252 303 366
#     4  11  24  43  67  95 131 172 218 270 326 391
#     4  10  21  36  58  85 114 152 197 246 301 357
#     4   9  20  39  57  81 116 152 196 247 300 363
#     4   9  18  35  61  87 113 149 193 242 299 359
#     4  11  23  40  65  98 132 169 214 269 328 391
#     4  11  24  38  56  84 120 159 200 249 305 365
#
# _framework density 20.327218999999999
#
# number of rings (size 3 to 8) (size 9 to 14) (size 15 to 20)
#    0.000    2.000    1.250    1.500    1.750    4.500 
#    0.000    1.250    0.000    0.000    0.000    0.000 
#    0.000    0.000    0.000    0.000    0.000    0.000 
#
# Total GULP energy -396480.198213 kJ/mol
# GULP energy per Si atom -12390.006194 kJ/mol
# Density = 2.028095 g / cm^3
# Si number density = 20.327219 Si / 1000 Ang^3
#
#
#
# Elastic Constant Matrix: (Units=GPa)
#
#
# Indices 1 2 3 4 5 6 
#
# 1 86.9326 39.5318 45.7458 0.0000 0.0000 0.0000
# 2 39.5318 75.7314 36.8739 0.0000 0.0000 0.0000
# 3 45.7458 36.8739 74.8731 0.0000 0.0000 0.0000
# 4 0.0000 0.0000 0.0000 29.0559 0.0000 0.0000
# 5 0.0000 0.0000 0.0000 0.0000 31.4901 0.0000
# 6 0.0000 0.0000 0.0000 0.0000 0.0000 29.2261
#
#
#
# Elastic Compliance Matrix: (Units=1/GPa)
#
#
# Indices 1 2 3 4 5 6 
#
# 1 0.018532 -0.005473 -0.008627 0.000000 0.000000 0.000000
# 2 -0.005473 0.018986 -0.006006 0.000000 0.000000 0.000000
# 3 -0.008627 -0.006006 0.021585 0.000000 0.000000 0.000000
# 4 0.000000 0.000000 0.000000 0.034416 0.000000 0.000000
# 5 0.000000 0.000000 0.000000 0.000000 0.031756 0.000000
# 6 0.000000 0.000000 0.000000 0.000000 0.000000 0.034216
#
#
# Mechanical properties :
#
#
# Convention : Reuss Voigt Hill
#
# Bulk Modulus (GPa) = 52.93910 53.53780 53.23845
# Shear Modulus (GPa) = 24.27173 25.64677 24.95925
#
# Velocity S-wave (km/s) = 3.45925 3.55589 3.50790
# Velocity P-wave (km/s) = 6.48500 6.57680 6.53106
#
# Compressibility (1/GPa) = 0.01888963
#
# Stress axis : x y z
#
# Youngs Moduli (GPa) = 53.96147 52.67033 46.32846
#
# Poissons Ratio (x) = 0.28826 0.39968
# Poissons Ratio (y) = 0.29533 0.27827
# Poissons Ratio (z) = 0.46553 0.31636
#
# Static dielectric constant tensor:
#      x y z
#    x 3.869570 0.000000 0.000000 
#    y 0.000000 3.773210 0.000000 
#    z 0.000000 0.000000 3.598440 
# 
# 
# High freq. dielectric constant tensor:
#      x y z
#    x 1.798760 0.000000 0.000000 
#    y 0.000000 1.793600 0.000000 
#    z 0.000000 0.000000 1.786550 
# 
# From -- ./inp_files/3051.got.cif
#   From: 2010.03.12/outbox.cif.g09.slc.cpg/sg26_2_cif.got.tgz:3051.got - 2010.04.14 03:33:09.
