data_PCOD8167083
_publ_section_title
;
Structure prediction by ZEFSAII (Michael W. Deem and Ramdas Pophale) SiO2 
 PCOD8167083
Probable space group: P M C 21
;
_chemical_formula_sum "Si O2"
_cell_formula_units_Z 24
_cell_length_a 8.686806
_cell_length_b 9.601405
_cell_length_c 15.616302
_cell_angle_alpha 90.000000
_cell_angle_beta 90.000000
_cell_angle_gamma 90.000000
_cell_volume 1302.486141
_symmetry_space_group_name_H-M "P M C 21"
_symmetry_group_IT_number 26
_symmetry_cell_setting 'orthorhombic'
loop_
_space_group_symop_operation_xyz
x,y,z
-x,-y,1/2+z
-x,y,z
x,-y,1/2+z
loop_
_atom_site_type_symbol
_atom_site_label
_atom_site_fract_x
_atom_site_fract_y
_atom_site_fract_z
Si Si1 0.822125 0.391297 0.093960
Si Si2 0.818462 0.094362 0.259718
Si Si3 0.823631 0.422191 0.906240
Si Si4 0.180348 0.899733 0.413434
Si Si5 0.678878 0.905409 0.587279
Si Si6 0.319889 0.398523 0.262446
O O1 0.712577 0.258190 0.089003
O O2 0.765398 0.470956 0.179882
O O3 0.000000 0.344346 0.103894
O O4 0.802698 0.475897 0.004981
O O5 0.766286 0.027666 0.168960
O O6 0.739217 0.242258 0.277130
O O7 0.000000 0.115976 0.261350
O O8 0.763358 0.987230 0.332216
O O9 0.773316 0.261036 0.899571
O O10 0.714074 0.512116 0.846576
O O11 0.000000 0.441686 0.876862
O O12 0.261078 0.966174 0.497202
O O13 0.000000 0.911722 0.429048
O O14 0.500000 0.936571 0.596759
O O15 0.500000 0.396876 0.245130
#
# Coordination Sequence:
#
# PCOD8167083 Si02
#       6
#     4   4   4   4   4   4
#     4   9  17  32  53  72  95 131 173 208 239 289
#     4  10  19  34  55  75  99 133 172 209 243 289
#     4   9  18  34  54  75  98 128 168 209 247 291
#     4   9  19  35  55  76  97 129 172 210 245 291
#     4  10  18  29  49  75 103 132 162 201 250 301
#     4  11  21  32  50  77 106 133 163 203 252 301
#
# _framework density 18.426299
#
# number of rings (size 3 to 8) (size 9 to 14) (size 15 to 20)
#    0.000    2.333    0.000    7.000    0.000    4.667 
#    0.000    1.667    0.000    4.000    0.000    0.000 
#    0.000    0.000    0.000    0.000    0.000    0.000 
#
# Total GULP energy -297476.314709 kJ/mol
# GULP energy per Si atom -12394.846446 kJ/mol
# Density = 1.838436 g / cm^3
# Si number density = 18.426299 Si / 1000 Ang^3
#
#
#
# Elastic Constant Matrix: (Units=GPa)
#
#
# Indices 1 2 3 4 5 6 
#
# 1 79.7130 22.4877 39.0107 0.0000 0.0000 0.0000
# 2 22.4877 37.9493 27.0428 0.0000 0.0000 0.0000
# 3 39.0107 27.0428 109.0364 0.0000 0.0000 0.0000
# 4 0.0000 0.0000 0.0000 31.5669 0.0000 0.0000
# 5 0.0000 0.0000 0.0000 0.0000 24.0100 0.0000
# 6 0.0000 0.0000 0.0000 0.0000 0.0000 15.3323
#
#
#
# Elastic Compliance Matrix: (Units=1/GPa)
#
#
# Indices 1 2 3 4 5 6 
#
# 1 0.016529 -0.006778 -0.004232 0.000000 0.000000 0.000000
# 2 -0.006778 0.034788 -0.006203 0.000000 0.000000 0.000000
# 3 -0.004232 -0.006203 0.012224 0.000000 0.000000 0.000000
# 4 0.000000 0.000000 0.000000 0.031679 0.000000 0.000000
# 5 0.000000 0.000000 0.000000 0.000000 0.041649 0.000000
# 6 0.000000 0.000000 0.000000 0.000000 0.000000 0.065222
#
#
# Mechanical properties :
#
#
# Convention : Reuss Voigt Hill
#
# Bulk Modulus (GPa) = 34.34879 44.86457 39.60668
# Shear Modulus (GPa) = 20.30693 23.39234 21.84963
#
# Velocity S-wave (km/s) = 3.32333 3.56688 3.44726
# Velocity P-wave (km/s) = 5.77994 6.43152 6.11442
#
# Compressibility (1/GPa) = 0.02911310
#
# Stress axis : x y z
#
# Youngs Moduli (GPa) = 60.50144 28.74578 81.80699
#
# Poissons Ratio (x) = 0.19485 0.34624
# Poissons Ratio (y) = 0.41010 0.50743
# Poissons Ratio (z) = 0.25607 0.17830
#
# Static dielectric constant tensor:
#      x y z
#    x 3.324560 0.000000 0.000000 
#    y 0.000000 2.974060 0.000000 
#    z 0.000000 0.000000 4.065210 
# 
# 
# High freq. dielectric constant tensor:
#      x y z
#    x 1.719550 0.000000 0.000000 
#    y 0.000000 1.658210 0.000000 
#    z 0.000000 0.000000 1.741420 
# 
# From -- ./inp_files/4863.got.cif
#   From: 2010.03.12/outbox.cif.g09.slc.cpg/sg26_3_cif.got.tgz:4863.got - 2010.04.14 03:33:09.
