data_PCOD8167145
_publ_section_title
;
Structure prediction by ZEFSAII (Michael W. Deem and Ramdas Pophale) SiO2 
 PCOD8167145
Probable space group: P M C 21
;
_chemical_formula_sum "Si O2"
_cell_formula_units_Z 32
_cell_length_a 8.859983
_cell_length_b 11.989599
_cell_length_c 15.438097
_cell_angle_alpha 90.000000
_cell_angle_beta 90.000000
_cell_angle_gamma 90.000000
_cell_volume 1639.952662
_symmetry_space_group_name_H-M "P M C 21"
_symmetry_group_IT_number 26
_symmetry_cell_setting 'orthorhombic'
loop_
_space_group_symop_operation_xyz
x,y,z
-x,-y,1/2+z
-x,y,z
x,-y,1/2+z
loop_
_atom_site_type_symbol
_atom_site_label
_atom_site_fract_x
_atom_site_fract_y
_atom_site_fract_z
Si Si1 0.320157 0.891485 0.871670
Si Si2 0.678787 0.714606 0.215553
Si Si3 0.177900 0.498517 0.781835
Si Si4 0.675144 0.500646 0.962207
Si Si5 0.325183 0.271967 0.047174
Si Si6 0.320707 0.143901 0.876891
Si Si7 0.678258 0.261556 0.525077
Si Si8 0.178064 0.743428 0.726464
O O1 0.500000 0.887058 0.867513
O O2 0.255740 0.835298 0.786064
O O3 0.260096 0.017775 0.876091
O O4 0.256843 0.828639 0.957353
O O5 0.500000 0.701439 0.222663
O O6 0.748661 0.591324 0.217849
O O7 0.743666 0.792193 0.292338
O O8 0.726288 0.769114 0.123221
O O9 0.229618 0.469093 0.878249
O O10 0.235372 0.621378 0.755516
O O11 0.000000 0.489882 0.774150
O O12 0.500000 0.508930 0.934863
O O13 0.698554 0.403803 0.032722
O O14 0.739178 0.615520 0.001245
O O15 0.500000 0.243820 0.064848
O O16 0.227357 0.232613 0.128389
O O17 0.264316 0.204771 0.963682
O O18 0.500000 0.146771 0.873255
O O19 0.500000 0.263535 0.517563
O O20 0.000000 0.754718 0.735274
#
# Coordination Sequence:
#
# PCOD8167145 Si02
#       8
#     4   4   4   4   4   4   4   4
#     4  10  20  37  60  85 113 148 190 237 283 329
#     4  10  19  36  59  84 114 145 182 233 284 339
#     4  11  22  35  54  82 114 150 187 228 280 337
#     4  10  18  33  57  84 109 142 187 230 283 342
#     4  10  20  36  59  87 114 145 186 236 288 339
#     4   9  19  35  59  89 114 141 185 237 283 328
#     4   9  18  31  55  85 109 140 184 227 276 329
#     4  11  24  39  55  82 117 155 193 230 277 337
#
# _framework density 19.512758000000002
#
# number of rings (size 3 to 8) (size 9 to 14) (size 15 to 20)
#    0.000    2.000    2.500    1.500    0.000    4.000 
#    0.000    6.250    0.000    0.000    0.000    0.000 
#    0.000    0.000    0.000    0.000    0.000    0.000 
#
# Total GULP energy -396851.478251 kJ/mol
# GULP energy per Si atom -12401.608695 kJ/mol
# Density = 1.946835 g / cm^3
# Si number density = 19.512758 Si / 1000 Ang^3
#
#
#
# Elastic Constant Matrix: (Units=GPa)
#
#
# Indices 1 2 3 4 5 6 
#
# 1 27.8066 21.7286 19.4620 0.0000 0.0000 0.0000
# 2 21.7286 139.2288 54.9011 0.0000 0.0000 0.0000
# 3 19.4620 54.9011 134.8827 0.0000 0.0000 0.0000
# 4 0.0000 0.0000 0.0000 19.9198 0.0000 0.0000
# 5 0.0000 0.0000 0.0000 0.0000 11.9260 0.0000
# 6 0.0000 0.0000 0.0000 0.0000 0.0000 14.8304
#
#
#
# Elastic Compliance Matrix: (Units=1/GPa)
#
#
# Indices 1 2 3 4 5 6 
#
# 1 0.042794 -0.005055 -0.004117 0.000000 0.000000 0.000000
# 2 -0.005055 0.009153 -0.002996 0.000000 0.000000 0.000000
# 3 -0.004117 -0.002996 0.009227 0.000000 0.000000 0.000000
# 4 0.000000 0.000000 0.000000 0.050201 0.000000 0.000000
# 5 0.000000 0.000000 0.000000 0.000000 0.083851 0.000000
# 6 0.000000 0.000000 0.000000 0.000000 0.000000 0.067429
#
#
# Mechanical properties :
#
#
# Convention : Reuss Voigt Hill
#
# Bulk Modulus (GPa) = 27.14598 54.90020 41.02309
# Shear Modulus (GPa) = 16.70724 23.05700 19.88212
#
# Velocity S-wave (km/s) = 2.92930 3.44122 3.19553
# Velocity P-wave (km/s) = 5.03817 6.63219 5.88936
#
# Compressibility (1/GPa) = 0.03683787
#
# Stress axis : x y z
#
# Youngs Moduli (GPa) = 23.36750 109.25668 108.37322
#
# Poissons Ratio (x) = 0.55231 0.44619
# Poissons Ratio (y) = 0.11813 0.32469
# Poissons Ratio (z) = 0.09621 0.32734
#
# Static dielectric constant tensor:
#      x y z
#    x 3.140820 0.000000 0.000000 
#    y 0.000000 3.746360 0.000000 
#    z 0.000000 0.000000 3.705060 
# 
# 
# High freq. dielectric constant tensor:
#      x y z
#    x 1.719620 0.000000 0.000000 
#    y 0.000000 1.760930 0.000000 
#    z 0.000000 0.000000 1.772800 
# 
# From -- ./inp_files/4168.got.cif
#   From: 2010.03.12/outbox.cif.g09.slc.cpg/sg26_3_cif.got.tgz:4168.got - 2010.04.14 03:33:09.
