data_PCOD8167285
_publ_section_title
;
Structure prediction by ZEFSAII (Michael W. Deem and Ramdas Pophale) SiO2 
 PCOD8167285
Probable space group: P M C 21
;
_chemical_formula_sum "Si O2"
_cell_formula_units_Z 32
_cell_length_a 8.700029
_cell_length_b 11.974612
_cell_length_c 14.428335
_cell_angle_alpha 90.000000
_cell_angle_beta 90.000000
_cell_angle_gamma 90.000000
_cell_volume 1503.136317
_symmetry_space_group_name_H-M "P M C 21"
_symmetry_group_IT_number 26
_symmetry_cell_setting 'orthorhombic'
loop_
_space_group_symop_operation_xyz
x,y,z
-x,-y,1/2+z
-x,y,z
x,-y,1/2+z
loop_
_atom_site_type_symbol
_atom_site_label
_atom_site_fract_x
_atom_site_fract_y
_atom_site_fract_z
Si Si1 0.679190 0.903368 0.031290
Si Si2 0.674311 0.400951 0.330809
Si Si3 0.175499 0.107077 0.923608
Si Si4 0.822669 0.288423 0.065073
Si Si5 0.672823 0.172406 0.231752
Si Si6 0.682031 0.498914 0.638274
Si Si7 0.823806 0.049663 0.724804
Si Si8 0.820223 0.668560 0.010096
O O1 0.500000 0.880792 0.018527
O O2 0.715713 0.918482 0.139746
O O3 0.767557 0.795194 0.992528
O O4 0.721775 0.013449 0.973427
O O5 0.500000 0.435254 0.355471
O O6 0.684366 0.271360 0.304650
O O7 0.735619 0.476678 0.244672
O O8 0.777674 0.411654 0.422772
O O9 0.199585 0.231090 0.965056
O O10 0.213884 0.124389 0.814940
O O11 0.000000 0.067010 0.936850
O O12 0.000000 0.285945 0.097180
O O13 0.717700 0.214526 0.131023
O O14 0.761327 0.414578 0.066779
O O15 0.500000 0.124382 0.227533
O O16 0.790290 0.075689 0.260370
O O17 0.500000 0.513277 0.632604
O O18 0.736351 0.377468 0.603456
O O19 0.000000 0.061058 0.692478
O O20 0.000000 0.663970 0.027435
#
# Coordination Sequence:
#
# PCOD8167285 Si02
#       8
#     4   4   4   4   4   4   4   4
#     4  12  25  41  63  90 126 167 208 255 308 367
#     4   9  20  39  64  93 123 158 206 256 304 363
#     4  10  22  39  61  90 124 162 203 251 306 366
#     4  10  19  35  60  87 117 153 196 248 304 357
#     4  10  19  33  56  87 119 157 201 250 301 354
#     4  10  22  42  66  91 122 159 204 256 308 363
#     4  11  22  37  57  86 124 164 204 249 305 369
#     4  12  25  42  65  92 125 164 208 255 310 369
#
# _framework density 21.288822
#
# number of rings (size 3 to 8) (size 9 to 14) (size 15 to 20)
#    0.000    1.500    1.250    5.250    0.000    6.500 
#    2.250    0.000    0.000    0.000    0.000    0.000 
#    0.000    0.000    0.000    0.000    0.000    0.000 
#
# Total GULP energy -396775.986589 kJ/mol
# GULP energy per Si atom -12399.249581 kJ/mol
# Density = 2.124037 g / cm^3
# Si number density = 21.288822 Si / 1000 Ang^3
#
#
#
# Elastic Constant Matrix: (Units=GPa)
#
#
# Indices 1 2 3 4 5 6 
#
# 1 75.4601 17.5736 40.2842 0.0000 0.0000 0.0000
# 2 17.5736 39.2258 5.1590 0.0000 0.0000 0.0000
# 3 40.2842 5.1590 89.7937 0.0000 0.0000 0.0000
# 4 0.0000 0.0000 0.0000 22.6476 0.0000 0.0000
# 5 0.0000 0.0000 0.0000 0.0000 27.9613 0.0000
# 6 0.0000 0.0000 0.0000 0.0000 0.0000 34.5942
#
#
#
# Elastic Compliance Matrix: (Units=1/GPa)
#
#
# Indices 1 2 3 4 5 6 
#
# 1 0.019453 -0.007625 -0.008289 0.000000 0.000000 0.000000
# 2 -0.007625 0.028676 0.001773 0.000000 0.000000 0.000000
# 3 -0.008289 0.001773 0.014753 0.000000 0.000000 0.000000
# 4 0.000000 0.000000 0.000000 0.044155 0.000000 0.000000
# 5 0.000000 0.000000 0.000000 0.000000 0.035764 0.000000
# 6 0.000000 0.000000 0.000000 0.000000 0.000000 0.028907
#
#
# Mechanical properties :
#
#
# Convention : Reuss Voigt Hill
#
# Bulk Modulus (GPa) = 28.90087 36.72369 32.81228
# Shear Modulus (GPa) = 23.63811 26.47148 25.05480
#
# Velocity S-wave (km/s) = 3.33581 3.53008 3.43432
# Velocity P-wave (km/s) = 5.33310 5.82262 5.58323
#
# Compressibility (1/GPa) = 0.03460103
#
# Stress axis : x y z
#
# Youngs Moduli (GPa) = 51.40634 34.87210 67.78061
#
# Poissons Ratio (x) = 0.26590 0.56184
# Poissons Ratio (y) = 0.39197 -0.12019
# Poissons Ratio (z) = 0.42611 -0.06183
#
# Static dielectric constant tensor:
#      x y z
#    x 3.837190 0.000000 0.000000 
#    y 0.000000 3.902190 0.000000 
#    z 0.000000 0.000000 3.907380 
# 
# 
# High freq. dielectric constant tensor:
#      x y z
#    x 1.836690 0.000000 0.000000 
#    y 0.000000 1.819240 0.000000 
#    z 0.000000 0.000000 1.838220 
# 
# From -- ./inp_files/4147.got.cif
#   From: 2010.03.12/outbox.cif.g09.slc.cpg/sg26_3_cif.got.tgz:4147.got - 2010.04.14 03:33:09.
