data_PCOD8167449
_publ_section_title
;
Structure prediction by ZEFSAII (Michael W. Deem and Ramdas Pophale) SiO2 
 PCOD8167449
Probable space group: P M C 21
;
_chemical_formula_sum "Si O2"
_cell_formula_units_Z 32
_cell_length_a 8.857141
_cell_length_b 14.172026
_cell_length_c 14.205625
_cell_angle_alpha 90.000000
_cell_angle_beta 90.000000
_cell_angle_gamma 90.000000
_cell_volume 1783.141652
_symmetry_space_group_name_H-M "P M C 21"
_symmetry_group_IT_number 26
_symmetry_cell_setting 'orthorhombic'
loop_
_space_group_symop_operation_xyz
x,y,z
-x,-y,1/2+z
-x,y,z
x,-y,1/2+z
loop_
_atom_site_type_symbol
_atom_site_label
_atom_site_fract_x
_atom_site_fract_y
_atom_site_fract_z
Si Si1 0.821079 0.498236 0.758420
Si Si2 0.820077 0.350324 0.114474
Si Si3 0.176991 0.344662 0.609773
Si Si4 0.178933 0.503305 0.466065
Si Si5 0.677539 0.997322 0.262417
Si Si6 0.176878 0.997226 0.963303
Si Si7 0.177522 0.861214 0.628076
Si Si8 0.676911 0.856307 0.098521
O O1 0.761247 0.591814 0.705391
O O2 0.776861 0.403496 0.702586
O O3 0.747951 0.495992 0.862231
O O4 0.000000 0.504672 0.764427
O O5 0.757147 0.244307 0.116469
O O6 0.000000 0.348848 0.112752
O O7 0.759291 0.405274 0.022127
O O8 0.221842 0.406412 0.518660
O O9 0.274595 0.250975 0.609459
O O10 0.000000 0.319415 0.609830
O O11 0.000000 0.510858 0.460387
O O12 0.500000 0.006335 0.274746
O O13 0.749967 0.978954 0.363529
O O14 0.740230 0.093794 0.217858
O O15 0.723363 0.911125 0.193835
O O16 0.000000 0.984318 0.949028
O O17 0.241358 0.901017 0.007771
O O18 0.216643 0.083621 0.032440
O O19 0.000000 0.862332 0.648761
O O20 0.500000 0.863485 0.080449
#
# Coordination Sequence:
#
# PCOD8167449 Si02
#       8
#     4   4   4   4   4   4   4   4
#     4   8  14  25  43  68  98 127 154 193 244 292
#     4   8  14  25  41  64  94 125 158 196 239 286
#     4   9  17  29  48  73  96 123 165 208 241 284
#     4   8  14  25  42  68 100 128 156 196 246 293
#     4  10  21  36  52  71  99 134 166 200 249 306
#     4  10  20  34  53  76 100 127 165 212 252 290
#     4   9  18  32  51  75 100 128 165 209 250 289
#     4  10  21  36  52  71 101 138 169 202 249 304
#
# _framework density 17.945853
#
# number of rings (size 3 to 8) (size 9 to 14) (size 15 to 20)
#    0.000    3.000    0.000    2.625    0.000    4.000 
#    0.000    5.000    0.000    3.750    0.000    0.000 
#    0.000    0.000    0.000    0.000    0.000    0.000 
#
# Total GULP energy -396722.193212 kJ/mol
# GULP energy per Si atom -12397.568538 kJ/mol
# Density = 1.790501 g / cm^3
# Si number density = 17.945853 Si / 1000 Ang^3
#
#
#
# Elastic Constant Matrix: (Units=GPa)
#
#
# Indices 1 2 3 4 5 6 
#
# 1 40.0220 21.8591 24.8516 0.0000 0.0000 0.0000
# 2 21.8591 132.0619 48.1363 0.0000 0.0000 0.0000
# 3 24.8516 48.1363 130.8907 0.0000 0.0000 0.0000
# 4 0.0000 0.0000 0.0000 14.9168 0.0000 0.0000
# 5 0.0000 0.0000 0.0000 0.0000 20.6065 0.0000
# 6 0.0000 0.0000 0.0000 0.0000 0.0000 15.5380
#
#
#
# Elastic Compliance Matrix: (Units=1/GPa)
#
#
# Indices 1 2 3 4 5 6 
#
# 1 0.029508 -0.003282 -0.004396 0.000000 0.000000 0.000000
# 2 -0.003282 0.009109 -0.002727 0.000000 0.000000 0.000000
# 3 -0.004396 -0.002727 0.009477 0.000000 0.000000 0.000000
# 4 0.000000 0.000000 0.000000 0.067039 0.000000 0.000000
# 5 0.000000 0.000000 0.000000 0.000000 0.048528 0.000000
# 6 0.000000 0.000000 0.000000 0.000000 0.000000 0.064358
#
#
# Mechanical properties :
#
#
# Convention : Reuss Voigt Hill
#
# Bulk Modulus (GPa) = 36.64893 54.74095 45.69494
# Shear Modulus (GPa) = 19.38549 24.08743 21.73646
#
# Velocity S-wave (km/s) = 3.29024 3.66762 3.48404
# Velocity P-wave (km/s) = 5.90766 6.96454 6.45776
#
# Compressibility (1/GPa) = 0.02728593
#
# Stress axis : x y z
#
# Youngs Moduli (GPa) = 33.88876 109.77648 105.51429
#
# Poissons Ratio (x) = 0.36029 0.46380
# Poissons Ratio (y) = 0.11123 0.28773
# Poissons Ratio (z) = 0.14896 0.29935
#
# Static dielectric constant tensor:
#      x y z
#    x 2.936340 0.000000 0.000000 
#    y 0.000000 3.423840 0.000000 
#    z 0.000000 0.000000 3.740870 
# 
# 
# High freq. dielectric constant tensor:
#      x y z
#    x 1.657690 0.000000 0.000000 
#    y 0.000000 1.698020 0.000000 
#    z 0.000000 0.000000 1.701760 
# 
# From -- ./inp_files/4337.got.cif
#   From: 2010.03.12/outbox.cif.g09.slc.cpg/sg26_3_cif.got.tgz:4337.got - 2010.04.14 03:33:09.
