data_PCOD8167275
_publ_section_title
;
Structure prediction by ZEFSAII (Michael W. Deem and Ramdas Pophale) SiO2 
 PCOD8167275
Probable space group: P M C 21
;
_chemical_formula_sum "Si O2"
_cell_formula_units_Z 24
_cell_length_a 8.835576
_cell_length_b 14.979822
_cell_length_c 9.460166
_cell_angle_alpha 90.000000
_cell_angle_beta 90.000000
_cell_angle_gamma 90.000000
_cell_volume 1252.103636
_symmetry_space_group_name_H-M "P M C 21"
_symmetry_group_IT_number 26
_symmetry_cell_setting 'orthorhombic'
loop_
_space_group_symop_operation_xyz
x,y,z
-x,-y,1/2+z
-x,y,z
x,-y,1/2+z
loop_
_atom_site_type_symbol
_atom_site_label
_atom_site_fract_x
_atom_site_fract_y
_atom_site_fract_z
Si Si1 0.679752 0.928522 0.621040
Si Si2 0.320134 0.094835 0.438661
Si Si3 0.176313 0.241007 0.618782
Si Si4 0.174873 0.554656 0.147182
Si Si5 0.325258 0.775863 0.414435
Si Si6 0.326313 0.572866 0.435482
O O1 0.500000 0.928956 0.624642
O O2 0.742986 0.924158 0.780824
O O3 0.738269 0.842850 0.533312
O O4 0.739566 0.017548 0.543570
O O5 0.500000 0.099320 0.437056
O O6 0.257206 0.189268 0.491662
O O7 0.211880 0.345379 0.595248
O O8 0.236777 0.207705 0.769490
O O9 0.000000 0.221109 0.613702
O O10 0.213427 0.544916 0.311397
O O11 0.000000 0.529905 0.123385
O O12 0.283580 0.485750 0.069500
O O13 0.500000 0.796382 0.380625
O O14 0.301848 0.676458 0.474352
O O15 0.500000 0.555463 0.391336
#
# Coordination Sequence:
#
# PCOD8167275 Si02
#       6
#     4   4   4   4   4   4
#     4   9  18  33  55  81 105 134 174 215 263 320
#     4  10  19  33  55  79 104 137 175 217 262 312
#     4  10  21  36  53  76 106 141 179 216 259 312
#     4  10  21  37  55  76 108 147 180 216 270 330
#     4   9  18  35  57  80 106 136 172 216 265 316
#     4  10  20  34  55  82 109 139 180 228 269 312
#
# _framework density 19.167743000000002
#
# number of rings (size 3 to 8) (size 9 to 14) (size 15 to 20)
#    0.000    2.333    0.000    2.500    0.000    6.667 
#    0.000    5.833    0.000    0.000    0.000    0.000 
#    0.000    0.000    0.000    0.000    0.000    0.000 
#
# Total GULP energy -297658.898022 kJ/mol
# GULP energy per Si atom -12402.454084 kJ/mol
# Density = 1.912412 g / cm^3
# Si number density = 19.167743 Si / 1000 Ang^3
#
#
#
# Elastic Constant Matrix: (Units=GPa)
#
#
# Indices 1 2 3 4 5 6 
#
# 1 43.0403 27.2623 22.8639 0.0000 0.0000 0.0000
# 2 27.2623 75.0840 34.9980 0.0000 0.0000 0.0000
# 3 22.8639 34.9980 84.2208 0.0000 0.0000 0.0000
# 4 0.0000 0.0000 0.0000 42.2242 0.0000 0.0000
# 5 0.0000 0.0000 0.0000 0.0000 21.2206 0.0000
# 6 0.0000 0.0000 0.0000 0.0000 0.0000 23.2437
#
#
#
# Elastic Compliance Matrix: (Units=1/GPa)
#
#
# Indices 1 2 3 4 5 6 
#
# 1 0.031623 -0.009277 -0.004730 0.000000 0.000000 0.000000
# 2 -0.009277 0.019240 -0.005476 0.000000 0.000000 0.000000
# 3 -0.004730 -0.005476 0.015433 0.000000 0.000000 0.000000
# 4 0.000000 0.000000 0.000000 0.023683 0.000000 0.000000
# 5 0.000000 0.000000 0.000000 0.000000 0.047124 0.000000
# 6 0.000000 0.000000 0.000000 0.000000 0.000000 0.043022
#
#
# Mechanical properties :
#
#
# Convention : Reuss Voigt Hill
#
# Bulk Modulus (GPa) = 36.59138 41.39929 38.99534
# Shear Modulus (GPa) = 21.91042 25.15244 23.53143
#
# Velocity S-wave (km/s) = 3.38463 3.62640 3.50760
# Velocity P-wave (km/s) = 5.86564 6.25937 6.06570
#
# Compressibility (1/GPa) = 0.02732884
#
# Stress axis : x y z
#
# Youngs Moduli (GPa) = 31.62260 51.97604 64.79512
#
# Poissons Ratio (x) = 0.48220 0.30646
# Poissons Ratio (y) = 0.29338 0.35485
# Poissons Ratio (z) = 0.14956 0.28464
#
# Static dielectric constant tensor:
#      x y z
#    x 3.272570 0.000000 0.000000 
#    y 0.000000 3.610700 0.000000 
#    z 0.000000 0.000000 3.515060 
# 
# 
# High freq. dielectric constant tensor:
#      x y z
#    x 1.726570 0.000000 0.000000 
#    y 0.000000 1.753790 0.000000 
#    z 0.000000 0.000000 1.745020 
# 
# From -- ./inp_files/1407.got.cif
#   From: 2010.03.12/outbox.cif.g09.slc.cpg/sg26_1_cif.got.tgz:1407.got - 2010.04.14 03:33:09.
