data_PCOD8167555
_publ_section_title
;
Structure prediction by ZEFSAII (Michael W. Deem and Ramdas Pophale) SiO2 
 PCOD8167555
Probable space group: P M C 21
;
_chemical_formula_sum "Si O2"
_cell_formula_units_Z 16
_cell_length_a 8.421154
_cell_length_b 10.121780
_cell_length_c 9.931532
_cell_angle_alpha 90.000000
_cell_angle_beta 90.000000
_cell_angle_gamma 90.000000
_cell_volume 846.534670
_symmetry_space_group_name_H-M "P M C 21"
_symmetry_group_IT_number 26
_symmetry_cell_setting 'orthorhombic'
loop_
_space_group_symop_operation_xyz
x,y,z
-x,-y,1/2+z
-x,y,z
x,-y,1/2+z
loop_
_atom_site_type_symbol
_atom_site_label
_atom_site_fract_x
_atom_site_fract_y
_atom_site_fract_z
Si Si1 0.810848 0.116081 0.896280
Si Si2 0.814531 0.402076 0.207886
Si Si3 0.187460 0.894872 0.697753
Si Si4 0.316246 0.602988 0.417590
O O1 0.737562 0.256749 0.856366
O O2 0.000000 0.128201 0.886637
O O3 0.739423 0.004834 0.796841
O O4 0.755609 0.075555 0.046117
O O5 0.759668 0.252174 0.240649
O O6 0.712602 0.495027 0.303278
O O7 0.000000 0.423983 0.236289
O O8 0.782206 0.433648 0.051288
O O9 0.000000 0.903837 0.705736
O O10 0.500000 0.606962 0.456147
#
# Coordination Sequence:
#
# PCOD8167555 Si02
#       4
#     4   4   4   4
#     4   9  17  33  53  75 102 136 175 218 262 313
#     4  10  20  37  58  80 105 142 185 224 264 316
#     4   8  16  30  52  77 100 129 175 223 260 303
#     4  11  22  36  53  80 113 143 175 221 272 320
#
# _framework density 18.900585
#
# number of rings (size 3 to 8) (size 9 to 14) (size 15 to 20)
#    0.000    2.500    0.000    4.500    0.000    2.000 
#    0.000   11.250    0.000    0.000    0.000    0.000 
#    0.000    0.000    0.000    0.000    0.000    0.000 
#
# Total GULP energy -198398.897193 kJ/mol
# GULP energy per Si atom -12399.931075 kJ/mol
# Density = 1.885757 g / cm^3
# Si number density = 18.900585 Si / 1000 Ang^3
#
#
#
# Elastic Constant Matrix: (Units=GPa)
#
#
# Indices 1 2 3 4 5 6 
#
# 1 48.1611 19.1775 9.1942 0.0000 0.0000 0.0000
# 2 19.1775 129.3827 79.4350 0.0000 0.0000 0.0000
# 3 9.1942 79.4350 87.9348 0.0000 0.0000 0.0000
# 4 0.0000 0.0000 0.0000 43.6614 0.0000 0.0000
# 5 0.0000 0.0000 0.0000 0.0000 19.6874 0.0000
# 6 0.0000 0.0000 0.0000 0.0000 0.0000 10.2496
#
#
#
# Elastic Compliance Matrix: (Units=1/GPa)
#
#
# Indices 1 2 3 4 5 6 
#
# 1 0.022149 -0.004179 0.001459 0.000000 0.000000 0.000000
# 2 -0.004179 0.018142 -0.015951 0.000000 0.000000 0.000000
# 3 0.001459 -0.015951 0.025629 0.000000 0.000000 0.000000
# 4 0.000000 0.000000 0.000000 0.022904 0.000000 0.000000
# 5 0.000000 0.000000 0.000000 0.000000 0.050794 0.000000
# 6 0.000000 0.000000 0.000000 0.000000 0.000000 0.097565
#
#
# Mechanical properties :
#
#
# Convention : Reuss Voigt Hill
#
# Bulk Modulus (GPa) = 34.99229 53.45467 44.22348
# Shear Modulus (GPa) = 17.60254 25.23114 21.41684
#
# Velocity S-wave (km/s) = 3.05507 3.65765 3.36985
# Velocity P-wave (km/s) = 5.56764 6.79568 6.21208
#
# Compressibility (1/GPa) = 0.02857772
#
# Stress axis : x y z
#
# Youngs Moduli (GPa) = 45.14865 55.12152 39.01844
#
# Poissons Ratio (x) = 0.23034 -0.05693
# Poissons Ratio (y) = 0.18867 0.62239
# Poissons Ratio (z) = -0.06587 0.87926
#
# Static dielectric constant tensor:
#      x y z
#    x 3.161920 0.000000 0.000000 
#    y 0.000000 3.653760 0.000000 
#    z 0.000000 0.000000 3.660830 
# 
# 
# High freq. dielectric constant tensor:
#      x y z
#    x 1.712750 0.000000 0.000000 
#    y 0.000000 1.740120 0.000000 
#    z 0.000000 0.000000 1.733150 
# 
# From -- ./inp_files/1195.got.cif
#   From: 2010.03.12/outbox.cif.g09.slc.cpg/sg26_1_cif.got.tgz:1195.got - 2010.04.14 03:33:09.
