data_PCOD8167721
_publ_section_title
;
Structure prediction by ZEFSAII (Michael W. Deem and Ramdas Pophale) SiO2 
 PCOD8167721
Probable space group: P M C 21
;
_chemical_formula_sum "Si O2"
_cell_formula_units_Z 32
_cell_length_a 8.548764
_cell_length_b 11.879953
_cell_length_c 15.369704
_cell_angle_alpha 90.000000
_cell_angle_beta 90.000000
_cell_angle_gamma 90.000000
_cell_volume 1560.930455
_symmetry_space_group_name_H-M "P M C 21"
_symmetry_group_IT_number 26
_symmetry_cell_setting 'orthorhombic'
loop_
_space_group_symop_operation_xyz
x,y,z
-x,-y,1/2+z
-x,y,z
x,-y,1/2+z
loop_
_atom_site_type_symbol
_atom_site_label
_atom_site_fract_x
_atom_site_fract_y
_atom_site_fract_z
Si Si1 0.315497 0.903521 0.885900
Si Si2 0.817927 0.714409 0.222953
Si Si3 0.684009 0.499808 0.797504
Si Si4 0.818834 0.509718 0.981711
Si Si5 0.317974 0.289248 0.045487
Si Si6 0.181996 0.148022 0.891458
Si Si7 0.681143 0.259374 0.543439
Si Si8 0.316902 0.740957 0.737398
O O1 0.500000 0.929010 0.879273
O O2 0.249790 0.836083 0.801737
O O3 0.218573 0.017076 0.889696
O O4 0.274233 0.832215 0.971335
O O5 0.722651 0.597623 0.228369
O O6 0.765930 0.798731 0.299567
O O7 0.777757 0.770204 0.130287
O O8 0.000000 0.686900 0.228242
O O9 0.500000 0.503259 0.816550
O O10 0.776611 0.469177 0.884974
O O11 0.749722 0.617880 0.761431
O O12 0.000000 0.540711 0.990491
O O13 0.779367 0.404622 0.043281
O O14 0.717703 0.617396 0.006832
O O15 0.500000 0.321102 0.041435
O O16 0.276485 0.229404 0.137468
O O17 0.278772 0.203991 0.968826
O O18 0.000000 0.168700 0.909433
O O19 0.500000 0.253250 0.566875
O O20 0.500000 0.735844 0.754081
#
# Coordination Sequence:
#
# PCOD8167721 Si02
#       8
#     4   4   4   4   4   4   4   4
#     4  10  22  43  66  88 118 158 210 263 306 362
#     4  11  24  41  61  91 130 164 202 256 314 374
#     4  11  20  37  65  93 125 164 204 250 304 373
#     4  12  23  37  60  93 132 166 199 251 314 373
#     4  11  22  39  66  94 122 163 208 253 304 366
#     4  11  25  43  61  87 125 164 205 256 314 371
#     4  11  23  41  66  93 122 162 212 259 306 371
#     4   9  20  39  63  93 122 151 200 256 302 356
#
# _framework density 20.500594
#
# number of rings (size 3 to 8) (size 9 to 14) (size 15 to 20)
#    0.000    1.250    2.500    3.750    0.000    4.500 
#    0.000    6.875    0.000    0.000    0.000    0.000 
#    0.000    0.000    0.000    0.000    0.000    0.000 
#
# Total GULP energy -396961.367306 kJ/mol
# GULP energy per Si atom -12405.042728 kJ/mol
# Density = 2.045393 g / cm^3
# Si number density = 20.500594 Si / 1000 Ang^3
#
#
#
# Elastic Constant Matrix: (Units=GPa)
#
#
# Indices 1 2 3 4 5 6 
#
# 1 51.3440 19.5451 31.9983 0.0000 0.0000 0.0000
# 2 19.5451 112.9041 37.1865 0.0000 0.0000 0.0000
# 3 31.9983 37.1865 128.6139 0.0000 0.0000 0.0000
# 4 0.0000 0.0000 0.0000 15.3912 0.0000 0.0000
# 5 0.0000 0.0000 0.0000 0.0000 21.8871 0.0000
# 6 0.0000 0.0000 0.0000 0.0000 0.0000 27.1731
#
#
#
# Elastic Compliance Matrix: (Units=1/GPa)
#
#
# Indices 1 2 3 4 5 6 
#
# 1 0.023615 -0.002380 -0.005187 0.000000 0.000000 0.000000
# 2 -0.002380 0.010029 -0.002308 0.000000 0.000000 0.000000
# 3 -0.005187 -0.002308 0.009733 0.000000 0.000000 0.000000
# 4 0.000000 0.000000 0.000000 0.064972 0.000000 0.000000
# 5 0.000000 0.000000 0.000000 0.000000 0.045689 0.000000
# 6 0.000000 0.000000 0.000000 0.000000 0.000000 0.036801
#
#
# Mechanical properties :
#
#
# Convention : Reuss Voigt Hill
#
# Bulk Modulus (GPa) = 42.32253 52.25796 47.29025
# Shear Modulus (GPa) = 22.88701 26.49909 24.69305
#
# Velocity S-wave (km/s) = 3.34489 3.59918 3.47436
# Velocity P-wave (km/s) = 5.96717 6.54358 6.26201
#
# Compressibility (1/GPa) = 0.02362808
#
# Stress axis : x y z
#
# Youngs Moduli (GPa) = 42.34584 99.70993 102.74321
#
# Poissons Ratio (x) = 0.23727 0.53296
# Poissons Ratio (y) = 0.10076 0.23710
# Poissons Ratio (z) = 0.21966 0.23010
#
# Static dielectric constant tensor:
#      x y z
#    x 3.540630 0.000000 0.000000 
#    y 0.000000 3.658550 0.000000 
#    z 0.000000 0.000000 3.919790 
# 
# 
# High freq. dielectric constant tensor:
#      x y z
#    x 1.792240 0.000000 0.000000 
#    y 0.000000 1.797100 0.000000 
#    z 0.000000 0.000000 1.817350 
# 
# From -- ./inp_files/4274.got.cif
#   From: 2010.03.12/outbox.cif.g09.slc.cpg/sg26_3_cif.got.tgz:4274.got - 2010.04.14 03:33:09.
