data_PCOD8167497
_publ_section_title
;
Structure prediction by ZEFSAII (Michael W. Deem and Ramdas Pophale) SiO2 
 PCOD8167497
Probable space group: P M C 21
;
_chemical_formula_sum "Si O2"
_cell_formula_units_Z 32
_cell_length_a 8.933262
_cell_length_b 14.183809
_cell_length_c 12.429839
_cell_angle_alpha 90.000000
_cell_angle_beta 90.000000
_cell_angle_gamma 90.000000
_cell_volume 1574.956087
_symmetry_space_group_name_H-M "P M C 21"
_symmetry_group_IT_number 26
_symmetry_cell_setting 'orthorhombic'
loop_
_space_group_symop_operation_xyz
x,y,z
-x,-y,1/2+z
-x,y,z
x,-y,1/2+z
loop_
_atom_site_type_symbol
_atom_site_label
_atom_site_fract_x
_atom_site_fract_y
_atom_site_fract_z
Si Si1 0.335174 0.134339 0.927950
Si Si2 0.826096 0.252976 0.222338
Si Si3 0.171904 0.430885 0.838111
Si Si4 0.170182 0.366987 0.422134
Si Si5 0.323155 0.671709 0.138646
Si Si6 0.824525 0.856161 0.209709
Si Si7 0.664990 0.335055 0.031377
Si Si8 0.175235 0.057073 0.120479
O O1 0.500000 0.099745 0.888726
O O2 0.222248 0.155721 0.832286
O O3 0.353469 0.229802 0.991544
O O4 0.262145 0.058222 0.007457
O O5 0.790937 0.276292 0.347429
O O6 0.738868 0.328725 0.148915
O O7 0.779995 0.144483 0.198214
O O8 0.000000 0.268148 0.197087
O O9 0.189759 0.543254 0.843944
O O10 0.262552 0.390737 0.737005
O O11 0.000000 0.399675 0.824178
O O12 0.231128 0.393066 0.951488
O O13 0.278696 0.374082 0.524673
O O14 0.000000 0.360896 0.465400
O O15 0.500000 0.675781 0.150518
O O16 0.258890 0.777674 0.139073
O O17 0.000000 0.839898 0.196829
O O18 0.774852 0.960492 0.175839
O O19 0.500000 0.382517 0.039822
O O20 0.000000 0.058818 0.094858
#
# Coordination Sequence:
#
# PCOD8167497 Si02
#       8
#     4   4   4   4   4   4   4   4
#     4  10  20  35  56  85 120 157 200 254 313 369
#     4   9  19  39  63  88 121 160 206 259 308 367
#     4  11  23  40  64  90 120 162 209 255 304 368
#     4  10  24  43  64  91 125 166 209 255 311 373
#     4  12  26  43  63  92 128 164 206 259 320 376
#     4  11  22  38  62  89 121 164 211 261 309 369
#     4  10  20  35  58  88 120 154 198 255 309 363
#     4   9  20  37  60  89 119 159 211 258 310 369
#
# _framework density 20.318028000000002
#
# number of rings (size 3 to 8) (size 9 to 14) (size 15 to 20)
#    0.000    1.750    1.250    2.625    1.750    4.500 
#    0.000    2.500    0.000    0.000    0.000    0.000 
#    0.000    0.000    0.000    0.000    0.000    0.000 
#
# Total GULP energy -396813.415583 kJ/mol
# GULP energy per Si atom -12400.419237 kJ/mol
# Density = 2.027178 g / cm^3
# Si number density = 20.318028 Si / 1000 Ang^3
#
#
#
# Elastic Constant Matrix: (Units=GPa)
#
#
# Indices 1 2 3 4 5 6 
#
# 1 115.7548 40.0457 44.1651 0.0000 0.0000 0.0000
# 2 40.0457 77.4808 31.7951 0.0000 0.0000 0.0000
# 3 44.1651 31.7951 91.5161 0.0000 0.0000 0.0000
# 4 0.0000 0.0000 0.0000 15.3651 0.0000 0.0000
# 5 0.0000 0.0000 0.0000 0.0000 26.6461 0.0000
# 6 0.0000 0.0000 0.0000 0.0000 0.0000 18.3456
#
#
#
# Elastic Compliance Matrix: (Units=1/GPa)
#
#
# Indices 1 2 3 4 5 6 
#
# 1 0.011729 -0.004361 -0.004145 0.000000 0.000000 0.000000
# 2 -0.004361 0.016674 -0.003688 0.000000 0.000000 0.000000
# 3 -0.004145 -0.003688 0.014209 0.000000 0.000000 0.000000
# 4 0.000000 0.000000 0.000000 0.065082 0.000000 0.000000
# 5 0.000000 0.000000 0.000000 0.000000 0.037529 0.000000
# 6 0.000000 0.000000 0.000000 0.000000 0.000000 0.054509
#
#
# Mechanical properties :
#
#
# Convention : Reuss Voigt Hill
#
# Bulk Modulus (GPa) = 54.87664 57.41817 56.14740
# Shear Modulus (GPa) = 21.72059 23.32110 22.52084
#
# Velocity S-wave (km/s) = 3.27315 3.39160 3.33290
# Velocity P-wave (km/s) = 6.43056 6.60745 6.51960
#
# Compressibility (1/GPa) = 0.01822269
#
# Stress axis : x y z
#
# Youngs Moduli (GPa) = 85.25648 59.97350 70.37809
#
# Poissons Ratio (x) = 0.26156 0.29174
# Poissons Ratio (y) = 0.37182 0.25958
# Poissons Ratio (z) = 0.35341 0.22120
#
# Static dielectric constant tensor:
#      x y z
#    x 3.922380 0.000000 0.000000 
#    y 0.000000 3.831900 0.000000 
#    z 0.000000 0.000000 3.627920 
# 
# 
# High freq. dielectric constant tensor:
#      x y z
#    x 1.798310 0.000000 0.000000 
#    y 0.000000 1.790430 0.000000 
#    z 0.000000 0.000000 1.791570 
# 
# From -- ./inp_files/3043.got.cif
#   From: 2010.03.12/outbox.cif.g09.slc.cpg/sg26_2_cif.got.tgz:3043.got - 2010.04.14 03:33:09.
