data_PCOD8167709
_publ_section_title
;
Structure prediction by ZEFSAII (Michael W. Deem and Ramdas Pophale) SiO2 
 PCOD8167709
Probable space group: P M C 21
;
_chemical_formula_sum "Si O2"
_cell_formula_units_Z 24
_cell_length_a 8.887176
_cell_length_b 9.879514
_cell_length_c 13.785035
_cell_angle_alpha 90.000000
_cell_angle_beta 90.000000
_cell_angle_gamma 90.000000
_cell_volume 1210.339578
_symmetry_space_group_name_H-M "P M C 21"
_symmetry_group_IT_number 26
_symmetry_cell_setting 'orthorhombic'
loop_
_space_group_symop_operation_xyz
x,y,z
-x,-y,1/2+z
-x,y,z
x,-y,1/2+z
loop_
_atom_site_type_symbol
_atom_site_label
_atom_site_fract_x
_atom_site_fract_y
_atom_site_fract_z
Si Si1 0.171068 0.590114 0.236740
Si Si2 0.677483 0.784585 0.921578
Si Si3 0.322139 0.900697 0.715096
Si Si4 0.324289 0.472150 0.926414
Si Si5 0.824131 0.148799 0.617052
Si Si6 0.172767 0.335035 0.106497
O O1 0.285858 0.601769 0.325670
O O2 0.212394 0.701917 0.156843
O O3 0.193913 0.443878 0.190608
O O4 0.000000 0.609861 0.273403
O O5 0.500000 0.797612 0.934204
O O6 0.731935 0.853408 0.821616
O O7 0.727938 0.628107 0.921529
O O8 0.755417 0.864290 0.009656
O O9 0.500000 0.912290 0.710323
O O10 0.268878 0.795901 0.633480
O O11 0.250140 0.045054 0.692042
O O12 0.500000 0.458996 0.948555
O O13 0.230767 0.395264 0.006816
O O14 0.000000 0.118988 0.610564
O O15 0.000000 0.292261 0.093891
#
# Coordination Sequence:
#
# PCOD8167709 Si02
#       6
#     4   4   4   4   4   4
#     4  10  22  39  61  90 124 161 207 255 307 366
#     4  10  22  40  63  90 123 165 207 254 313 372
#     4  11  24  43  64  92 127 165 208 256 311 371
#     4  11  22  37  63  95 126 163 209 259 311 365
#     4  11  24  42  64  93 126 166 208 255 311 371
#     4  11  22  39  63  92 124 162 205 255 309 365
#
# _framework density 19.829146999999999
#
# number of rings (size 3 to 8) (size 9 to 14) (size 15 to 20)
#    0.000    1.333    3.333    2.000    0.000    5.333 
#    0.000    3.333    0.000    0.000    0.000    0.000 
#    0.000    0.000    0.000    0.000    0.000    0.000 
#
# Total GULP energy -297746.397661 kJ/mol
# GULP energy per Si atom -12406.099903 kJ/mol
# Density = 1.978401 g / cm^3
# Si number density = 19.829147 Si / 1000 Ang^3
#
#
#
# Elastic Constant Matrix: (Units=GPa)
#
#
# Indices 1 2 3 4 5 6 
#
# 1 53.9526 24.6383 35.8138 0.0000 0.0000 0.0000
# 2 24.6383 65.7385 14.1747 0.0000 0.0000 0.0000
# 3 35.8138 14.1747 110.9022 0.0000 0.0000 0.0000
# 4 0.0000 0.0000 0.0000 31.4165 0.0000 0.0000
# 5 0.0000 0.0000 0.0000 0.0000 34.7500 0.0000
# 6 0.0000 0.0000 0.0000 0.0000 0.0000 33.5331
#
#
#
# Elastic Compliance Matrix: (Units=1/GPa)
#
#
# Indices 1 2 3 4 5 6 
#
# 1 0.027707 -0.008695 -0.007836 0.000000 0.000000 0.000000
# 2 -0.008695 0.018371 0.000460 0.000000 0.000000 0.000000
# 3 -0.007836 0.000460 0.011489 0.000000 0.000000 0.000000
# 4 0.000000 0.000000 0.000000 0.031830 0.000000 0.000000
# 5 0.000000 0.000000 0.000000 0.000000 0.028777 0.000000
# 6 0.000000 0.000000 0.000000 0.000000 0.000000 0.029821
#
#
# Mechanical properties :
#
#
# Convention : Reuss Voigt Hill
#
# Bulk Modulus (GPa) = 39.33172 42.20520 40.76846
# Shear Modulus (GPa) = 26.50929 30.33769 28.42349
#
# Velocity S-wave (km/s) = 3.66031 3.91571 3.79016
# Velocity P-wave (km/s) = 6.14347 6.46330 6.30541
#
# Compressibility (1/GPa) = 0.02542477
#
# Stress axis : x y z
#
# Youngs Moduli (GPa) = 36.09193 54.43249 87.04170
#
# Poissons Ratio (x) = 0.47328 0.68207
# Poissons Ratio (y) = 0.31381 -0.04001
# Poissons Ratio (z) = 0.28282 -0.02502
#
# Static dielectric constant tensor:
#      x y z
#    x 3.607450 0.000000 0.000000 
#    y 0.000000 3.598840 0.000000 
#    z 0.000000 0.000000 3.635220 
# 
# 
# High freq. dielectric constant tensor:
#      x y z
#    x 1.778410 0.000000 0.000000 
#    y 0.000000 1.770650 0.000000 
#    z 0.000000 0.000000 1.782250 
# 
# From -- ./inp_files/2821.got.cif
#   From: 2010.03.12/outbox.cif.g09.slc.cpg/sg26_2_cif.got.tgz:2821.got - 2010.04.14 03:33:09.
