data_PCOD8167847
_publ_section_title
;
Structure prediction by ZEFSAII (Michael W. Deem and Ramdas Pophale) SiO2 
 PCOD8167847
Probable space group: P C C 2
;
_chemical_formula_sum "Si O2"
_cell_formula_units_Z 32
_cell_length_a 13.026274
_cell_length_b 13.022687
_cell_length_c 9.212921
_cell_angle_alpha 90.000000
_cell_angle_beta 90.000000
_cell_angle_gamma 90.000000
_cell_volume 1562.853100
_symmetry_space_group_name_H-M "P C C 2"
_symmetry_group_IT_number 27
_symmetry_cell_setting 'orthorhombic'
loop_
_space_group_symop_operation_xyz
x,y,z
-x,-y,z
-x,y,1/2+z
x,-y,1/2+z
loop_
_atom_site_type_symbol
_atom_site_label
_atom_site_fract_x
_atom_site_fract_y
_atom_site_fract_z
Si Si1 0.228127 0.385849 0.393280
Si Si2 0.700211 0.866312 0.992997
Si Si3 0.614063 0.771732 0.393176
Si Si4 0.133641 0.299764 0.993010
Si Si5 0.544034 0.297617 0.596776
Si Si6 0.381285 0.018906 0.267270
Si Si7 0.018831 0.618779 0.767181
Si Si8 0.702587 0.456104 0.597007
O O1 0.270575 0.270538 0.368526
O O2 0.105439 0.382138 0.394184
O O3 0.278769 0.429221 0.540100
O O4 0.267733 0.459139 0.264848
O O5 0.814718 0.814736 0.991637
O O6 0.676232 0.922226 0.839778
O O7 0.617285 0.777479 0.006915
O O8 0.685814 0.944069 0.129376
O O9 0.570625 0.720862 0.539809
O O10 0.540930 0.732198 0.264560
O O11 0.617663 0.894465 0.394287
O O12 0.077867 0.323768 0.839701
O O13 0.055767 0.314089 0.129255
O O14 0.222357 0.382773 0.007233
O O15 0.585659 0.414562 0.577464
O O16 0.500000 0.000000 0.220160
O O17 0.000000 0.500000 0.720138
#
# Coordination Sequence:
#
# PCOD8167847 Si02
#       8
#     4   4   4   4   4   4   4   4
#     4  10  21  35  54  83 119 154 194 241 288 346
#     4  10  22  39  60  90 124 151 193 255 304 349
#     4  10  21  35  54  83 119 154 194 241 288 346
#     4  10  22  39  60  90 124 151 193 255 304 349
#     4   9  19  35  52  78 116 153 187 233 290 345
#     4  11  20  36  65  91 115 157 202 245 298 355
#     4  11  20  36  65  91 115 157 202 245 298 355
#     4   9  19  35  52  78 116 153 187 233 290 345
#
# _framework density 20.475372
#
# number of rings (size 3 to 8) (size 9 to 14) (size 15 to 20)
#    0.000    2.000    2.500    3.000    3.500    1.500 
#    0.000    7.500    0.000    6.000    0.000    0.000 
#    0.000    0.000    0.000    0.000    0.000    0.000 
#
# Total GULP energy -396560.178576 kJ/mol
# GULP energy per Si atom -12392.505581 kJ/mol
# Density = 2.042877 g / cm^3
# Si number density = 20.475372 Si / 1000 Ang^3
#
#
#
# Elastic Constant Matrix: (Units=GPa)
#
#
# Indices 1 2 3 4 5 6 
#
# 1 57.0455 47.1565 28.7644 0.0000 0.0000 0.0000
# 2 47.1565 56.1259 28.6473 0.0000 0.0000 0.0000
# 3 28.7644 28.6473 45.9762 0.0000 0.0000 0.0000
# 4 0.0000 0.0000 0.0000 19.5445 0.0000 0.0000
# 5 0.0000 0.0000 0.0000 0.0000 19.6103 0.0000
# 6 0.0000 0.0000 0.0000 0.0000 0.0000 31.0810
#
#
#
# Elastic Compliance Matrix: (Units=1/GPa)
#
#
# Indices 1 2 3 4 5 6 
#
# 1 0.059802 -0.045674 -0.008955 0.000000 0.000000 0.000000
# 2 -0.045674 0.061010 -0.009439 0.000000 0.000000 0.000000
# 3 -0.008955 -0.009439 0.033235 0.000000 0.000000 0.000000
# 4 0.000000 0.000000 0.000000 0.051165 0.000000 0.000000
# 5 0.000000 0.000000 0.000000 0.000000 0.050994 0.000000
# 6 0.000000 0.000000 0.000000 0.000000 0.000000 0.032174
#
#
# Mechanical properties :
#
#
# Convention : Reuss Voigt Hill
#
# Bulk Modulus (GPa) = 38.59623 40.92047 39.75835
# Shear Modulus (GPa) = 11.76047 17.68578 14.72312
#
# Velocity S-wave (km/s) = 2.39920 2.94217 2.68445
# Velocity P-wave (km/s) = 5.15421 5.61875 5.39149
#
# Compressibility (1/GPa) = 0.02590927
#
# Stress axis : x y z
#
# Youngs Moduli (GPa) = 16.72189 16.39072 30.08911
#
# Poissons Ratio (x) = 0.74863 0.26945
# Poissons Ratio (y) = 0.76376 0.28402
# Poissons Ratio (z) = 0.14975 0.15472
#
# Static dielectric constant tensor:
#      x y z
#    x 3.701950 0.000000 0.000000 
#    y 0.000000 3.701170 0.000000 
#    z 0.000000 0.000000 3.599600 
# 
# 
# High freq. dielectric constant tensor:
#      x y z
#    x 1.782860 0.000000 0.000000 
#    y 0.000000 1.782730 0.000000 
#    z 0.000000 0.000000 1.799850 
# 
# From -- ./inp_files/1619.got.cif
#   From: 2010.03.12/outbox.cif.g09.slc.cpg/sg27_1_cif.got.tgz:1619.got - 2010.04.14 03:36:05.
