data_PCOD8167012
_publ_section_title
;
Structure prediction by ZEFSAII (Michael W. Deem and Ramdas Pophale) SiO2 
 PCOD8167012
Probable space group: P M M 2
;
_chemical_formula_sum "Si O2"
_cell_formula_units_Z 32
_cell_length_a 9.622362
_cell_length_b 9.704146
_cell_length_c 20.547463
_cell_angle_alpha 90.000000
_cell_angle_beta 90.000000
_cell_angle_gamma 90.000000
_cell_volume 1918.656460
_symmetry_space_group_name_H-M "P M M 2"
_symmetry_group_IT_number 25
_symmetry_cell_setting 'orthorhombic'
loop_
_space_group_symop_operation_xyz
x,y,z
-x,-y,z
-x,y,z
x,-y,z
loop_
_atom_site_type_symbol
_atom_site_label
_atom_site_fract_x
_atom_site_fract_y
_atom_site_fract_z
Si Si1 0.165030 0.152479 0.148840
Si Si2 0.843214 0.664648 0.653505
Si Si3 0.654130 0.663524 0.537562
Si Si4 0.656200 0.663931 0.770206
Si Si5 0.337113 0.658142 0.391429
Si Si6 0.837723 0.660093 0.032502
Si Si7 0.159961 0.838560 0.294283
Si Si8 0.655632 0.663641 0.914323
O O1 0.221047 0.260242 0.095592
O O2 0.211495 0.197815 0.221160
O O3 0.000000 0.147775 0.147643
O O4 0.223577 0.000000 0.132544
O O5 0.843561 0.500000 0.653623
O O6 0.764610 0.722049 0.589494
O O7 0.764003 0.722836 0.717236
O O8 0.000000 0.722378 0.653579
O O9 0.500000 0.722377 0.553338
O O10 0.647198 0.500000 0.542109
O O11 0.700012 0.705810 0.464861
O O12 0.500000 0.715002 0.753634
O O13 0.658533 0.500000 0.768498
O O14 0.700128 0.716405 0.842360
O O15 0.500000 0.676469 0.378439
O O16 0.292563 0.500000 0.380282
O O17 0.253401 0.754042 0.343277
O O18 0.804740 0.500000 0.043742
O O19 0.000000 0.686800 0.021723
O O20 0.760650 0.720489 0.968848
O O21 0.000000 0.795213 0.303961
O O22 0.179191 0.000000 0.307767
O O23 0.500000 0.715075 0.930544
O O24 0.660269 0.500000 0.914374
#
# Coordination Sequence:
#
# PCOD8167012 Si02
#       8
#     4   4   4   4   4   4   4   4
#     4   8  15  29  46  62  83 111 140 170 207 254
#     4   9  15  20  29  49  75 102 135 174 210 243
#     4   8  14  25  38  51  74 109 142 171 207 253
#     4   8  13  21  32  45  66 102 141 167 194 242
#     4   9  18  31  46  66  91 118 149 184 222 265
#     4   9  16  25  40  62  83 104 135 174 210 244
#     4   9  18  32  49  68  89 115 148 184 222 265
#     4   8  14  24  36  51  75 107 138 167 204 249
#
# _framework density 16.678338
#
# number of rings (size 3 to 8) (size 9 to 14) (size 15 to 20)
#    0.000    3.500    0.000    2.625    0.000    3.500 
#    0.000    5.625    0.000    2.625    0.000    0.000 
#    0.000    1.000    0.000    7.500    0.000    9.625 
#
# Total GULP energy -396570.035851 kJ/mol
# GULP energy per Si atom -12392.813620 kJ/mol
# Density = 1.664038 g / cm^3
# Si number density = 16.678338 Si / 1000 Ang^3
#
#
#
# Elastic Constant Matrix: (Units=GPa)
#
#
# Indices 1 2 3 4 5 6 
#
# 1 89.0506 28.6419 85.8518 0.0000 0.0000 0.0000
# 2 28.6419 29.2136 45.4020 0.0000 0.0000 0.0000
# 3 85.8518 45.4020 170.8352 0.0000 0.0000 0.0000
# 4 0.0000 0.0000 0.0000 -0.5547 0.0000 0.0000
# 5 0.0000 0.0000 0.0000 0.0000 31.7950 0.0000
# 6 0.0000 0.0000 0.0000 0.0000 0.0000 13.4054
#
#
#
# Elastic Compliance Matrix: (Units=1/GPa)
#
#
# Indices 1 2 3 4 5 6 
#
# 1 0.022765 -0.007734 -0.009385 0.000000 0.000000 0.000000
# 2 -0.007734 0.060946 -0.012311 0.000000 0.000000 0.000000
# 3 -0.009385 -0.012311 0.013842 0.000000 0.000000 0.000000
# 4 0.000000 0.000000 0.000000 -1.802836 0.000000 0.000000
# 5 0.000000 0.000000 0.000000 0.000000 0.031452 0.000000
# 6 0.000000 0.000000 0.000000 0.000000 0.000000 0.074597
#
#
# Mechanical properties :
#
#
# Convention : Reuss Voigt Hill
#
# Bulk Modulus (GPa) = 25.84431 67.65454 46.74943
# Shear Modulus (GPa) = -3.27337 17.54270 7.13467
#
# Velocity S-wave (km/s) = -1.40246 3.24670 2.07053
# Velocity P-wave (km/s) = 3.59261 7.39643 5.81438
#
# Compressibility (1/GPa) = 0.03869323
#
# Stress axis : x y z
#
# Youngs Moduli (GPa) = 43.92738 16.40809 72.24593
#
# Poissons Ratio (x) = 0.12690 0.67802
# Poissons Ratio (y) = 0.33973 0.88939
# Poissons Ratio (z) = 0.41225 0.20199
#
# Static dielectric constant tensor:
#      x y z
#    x 3.188910 0.000000 0.000000 
#    y 0.000000 2.660800 0.000000 
#    z 0.000000 0.000000 3.519700 
# 
# 
# High freq. dielectric constant tensor:
#      x y z
#    x 1.631000 0.000000 0.000000 
#    y 0.000000 1.579960 0.000000 
#    z 0.000000 0.000000 1.658340 
# 
# From -- ./inp_files/6307.got.cif
#   From: 2010.03.12/outbox.cif.g09.slc.cpg/sg25_4_cif.got.tgz:6307.got - 2010.04.14 03:30:10.
