data_PCOD8167204
_publ_section_title
;
Structure prediction by ZEFSAII (Michael W. Deem and Ramdas Pophale) SiO2 
 PCOD8167204
Probable space group: P M C 21
;
_chemical_formula_sum "Si O2"
_cell_formula_units_Z 32
_cell_length_a 9.420610
_cell_length_b 12.496102
_cell_length_c 14.617319
_cell_angle_alpha 90.000000
_cell_angle_beta 90.000000
_cell_angle_gamma 90.000000
_cell_volume 1720.763999
_symmetry_space_group_name_H-M "P M C 21"
_symmetry_group_IT_number 26
_symmetry_cell_setting 'orthorhombic'
loop_
_space_group_symop_operation_xyz
x,y,z
-x,-y,1/2+z
-x,y,z
x,-y,1/2+z
loop_
_atom_site_type_symbol
_atom_site_label
_atom_site_fract_x
_atom_site_fract_y
_atom_site_fract_z
Si Si1 0.159711 0.671680 0.719760
Si Si2 0.661990 0.394578 0.522354
Si Si3 0.340179 0.531650 0.219527
Si Si4 0.664277 0.839667 0.450923
Si Si5 0.666198 0.965086 0.837606
Si Si6 0.837639 0.232258 0.413581
Si Si7 0.338619 0.136405 0.152800
Si Si8 0.332845 0.394605 0.917686
O O1 0.238277 0.564326 0.694002
O O2 0.166725 0.688366 0.827913
O O3 0.233360 0.766933 0.666992
O O4 0.000000 0.664184 0.683730
O O5 0.500000 0.377687 0.487436
O O6 0.666379 0.390655 0.632377
O O7 0.758580 0.294562 0.494321
O O8 0.723340 0.506562 0.480028
O O9 0.500000 0.487599 0.233918
O O10 0.289237 0.590669 0.311539
O O11 0.500000 0.821639 0.430640
O O12 0.687637 0.900377 0.548328
O O13 0.734733 0.720561 0.448111
O O14 0.722829 0.919264 0.372025
O O15 0.500000 0.949206 0.861605
O O16 0.755323 0.876326 0.891189
O O17 0.691946 0.956763 0.727616
O O18 0.000000 0.205438 0.441277
O O19 0.500000 0.177729 0.165020
O O20 0.500000 0.390365 0.931715
#
# Coordination Sequence:
#
# PCOD8167204 Si02
#       8
#     4   4   4   4   4   4   4   4
#     4  10  19  31  50  75 103 137 174 215 255 304
#     4  10  19  32  52  78 104 135 172 209 259 317
#     4  10  19  31  50  77 105 138 172 208 260 317
#     4   9  17  32  52  78 108 136 171 216 265 311
#     4   9  18  33  54  78 103 133 172 219 263 307
#     4  10  20  34  52  73 101 136 174 216 260 303
#     4   9  17  31  53  78 102 135 176 218 261 306
#     4   9  17  30  49  75 108 136 163 211 263 309
#
# _framework density 18.596392000000002
#
# number of rings (size 3 to 8) (size 9 to 14) (size 15 to 20)
#    0.000    2.500    1.250    1.500    0.000    3.500 
#    2.250    0.625    0.000    1.500    0.000    0.000 
#    0.000    0.000    0.000    0.000    0.000    0.000 
#
# Total GULP energy -396608.530843 kJ/mol
# GULP energy per Si atom -12394.016589 kJ/mol
# Density = 1.855407 g / cm^3
# Si number density = 18.596392 Si / 1000 Ang^3
#
#
#
# Elastic Constant Matrix: (Units=GPa)
#
#
# Indices 1 2 3 4 5 6 
#
# 1 59.3314 12.8368 14.5299 0.0000 0.0000 0.0000
# 2 12.8368 61.5067 29.2082 0.0000 0.0000 0.0000
# 3 14.5299 29.2082 99.0702 0.0000 0.0000 0.0000
# 4 0.0000 0.0000 0.0000 19.5942 0.0000 0.0000
# 5 0.0000 0.0000 0.0000 0.0000 12.0724 0.0000
# 6 0.0000 0.0000 0.0000 0.0000 0.0000 137.2050
#
#
#
# Elastic Compliance Matrix: (Units=1/GPa)
#
#
# Indices 1 2 3 4 5 6 
#
# 1 0.017916 -0.002897 -0.001773 0.000000 0.000000 0.000000
# 2 -0.002897 0.019374 -0.005287 0.000000 0.000000 0.000000
# 3 -0.001773 -0.005287 0.011913 0.000000 0.000000 0.000000
# 4 0.000000 0.000000 0.000000 0.051036 0.000000 0.000000
# 5 0.000000 0.000000 0.000000 0.000000 0.082833 0.000000
# 6 0.000000 0.000000 0.000000 0.000000 0.000000 0.007288
#
#
# Mechanical properties :
#
#
# Convention : Reuss Voigt Hill
#
# Bulk Modulus (GPa) = 34.14452 37.00645 35.57548
# Shear Modulus (GPa) = 22.72352 44.66322 33.69337
#
# Velocity S-wave (km/s) = 3.49941 4.90605 4.26117
# Velocity P-wave (km/s) = 5.89309 7.21356 6.58650
#
# Compressibility (1/GPa) = 0.02928728
#
# Stress axis : x y z
#
# Youngs Moduli (GPa) = 55.81737 51.61652 83.94431
#
# Poissons Ratio (x) = 0.14953 0.14887
# Poissons Ratio (y) = 0.16170 0.44381
# Poissons Ratio (z) = 0.09899 0.27289
#
# Static dielectric constant tensor:
#      x y z
#    x 3.220780 0.000000 0.000000 
#    y 0.000000 3.422550 0.000000 
#    z 0.000000 0.000000 3.505040 
# 
# 
# High freq. dielectric constant tensor:
#      x y z
#    x 1.689240 0.000000 0.000000 
#    y 0.000000 1.704180 0.000000 
#    z 0.000000 0.000000 1.726330 
# 
# From -- ./inp_files/4161.got.cif
#   From: 2010.03.12/outbox.cif.g09.slc.cpg/sg26_3_cif.got.tgz:4161.got - 2010.04.14 03:33:09.
