data_PCOD8167053
_publ_section_title
;
Structure prediction by ZEFSAII (Michael W. Deem and Ramdas Pophale) SiO2 
 PCOD8167053
Probable space group: P M C 21
;
_chemical_formula_sum "Si O2"
_cell_formula_units_Z 32
_cell_length_a 9.104015
_cell_length_b 9.472109
_cell_length_c 20.667832
_cell_angle_alpha 90.000000
_cell_angle_beta 90.000000
_cell_angle_gamma 90.000000
_cell_volume 1782.274422
_symmetry_space_group_name_H-M "P M C 21"
_symmetry_group_IT_number 26
_symmetry_cell_setting 'orthorhombic'
loop_
_space_group_symop_operation_xyz
x,y,z
-x,-y,1/2+z
-x,y,z
x,-y,1/2+z
loop_
_atom_site_type_symbol
_atom_site_label
_atom_site_fract_x
_atom_site_fract_y
_atom_site_fract_z
Si Si1 0.826993 0.533937 0.256030
Si Si2 0.661760 0.552345 0.381270
Si Si3 0.673903 0.172800 0.734086
Si Si4 0.827673 0.085000 0.995520
Si Si5 0.329284 0.029547 0.119817
Si Si6 0.662979 0.888710 0.372658
Si Si7 0.330869 0.627767 0.514533
Si Si8 0.666894 0.350907 0.155649
O O1 0.777380 0.493421 0.329278
O O2 0.754251 0.677622 0.231266
O O3 0.779021 0.409054 0.208474
O O4 0.000000 0.550680 0.255343
O O5 0.500000 0.495550 0.361958
O O6 0.662944 0.721101 0.382072
O O7 0.698627 0.512439 0.456896
O O8 0.500000 0.202703 0.734503
O O9 0.717531 0.085064 0.798990
O O10 0.725460 0.080964 0.673397
O O11 0.757774 0.994133 0.053874
O O12 0.784427 0.246658 0.006464
O O13 0.000000 0.064335 0.996346
O O14 0.767814 0.035283 0.925072
O O15 0.500000 0.010082 0.104971
O O16 0.296645 0.186647 0.145213
O O17 0.500000 0.950992 0.382592
O O18 0.500000 0.685449 0.508554
O O19 0.310613 0.565591 0.586993
O O20 0.500000 0.371276 0.180405
#
# Coordination Sequence:
#
# PCOD8167053 Si02
#       8
#     4   4   4   4   4   4   4   4
#     4  11  21  30  44  70 101 129 154 183 227 282
#     4   8  14  27  46  66  88 116 153 196 233 265
#     4   9  18  33  52  71  91 120 159 199 235 270
#     4  10  17  24  40  67  96 122 148 183 230 279
#     4   9  18  33  52  71  91 119 157 198 235 271
#     4   8  14  26  44  65  89 116 150 192 232 269
#     4   8  15  28  46  66  87 115 155 198 233 265
#     4   9  17  31  50  70  93 121 154 193 233 273
#
# _framework density 17.954587
#
# number of rings (size 3 to 8) (size 9 to 14) (size 15 to 20)
#    0.000    3.000    0.000    4.500    0.000    7.000 
#    0.000    0.000    0.000    1.500    0.000    5.250 
#    0.000    0.000    0.000    0.000    0.000    0.000 
#
# Total GULP energy -396495.250242 kJ/mol
# GULP energy per Si atom -12390.476570 kJ/mol
# Density = 1.791372 g / cm^3
# Si number density = 17.954587 Si / 1000 Ang^3
#
#
#
# Elastic Constant Matrix: (Units=GPa)
#
#
# Indices 1 2 3 4 5 6 
#
# 1 68.1092 6.1444 6.5146 0.0000 0.0000 0.0000
# 2 6.1444 13.5690 -8.7498 0.0000 0.0000 0.0000
# 3 6.5146 -8.7498 21.9423 0.0000 0.0000 0.0000
# 4 0.0000 0.0000 0.0000 22.7928 0.0000 0.0000
# 5 0.0000 0.0000 0.0000 0.0000 16.2722 0.0000
# 6 0.0000 0.0000 0.0000 0.0000 0.0000 13.5618
#
#
#
# Elastic Compliance Matrix: (Units=1/GPa)
#
#
# Indices 1 2 3 4 5 6 
#
# 1 0.017067 -0.014802 -0.010970 0.000000 0.000000 0.000000
# 2 -0.014802 0.112045 0.049074 0.000000 0.000000 0.000000
# 3 -0.010970 0.049074 0.068400 0.000000 0.000000 0.000000
# 4 0.000000 0.000000 0.000000 0.043873 0.000000 0.000000
# 5 0.000000 0.000000 0.000000 0.000000 0.061454 0.000000
# 6 0.000000 0.000000 0.000000 0.000000 0.000000 0.073737
#
#
# Mechanical properties :
#
#
# Convention : Reuss Voigt Hill
#
# Bulk Modulus (GPa) = 4.09639 12.38209 8.23924
# Shear Modulus (GPa) = 12.15529 17.17278 14.66404
#
# Velocity S-wave (km/s) = 2.60475 3.09602 2.86095
# Velocity P-wave (km/s) = 3.36642 4.43754 3.93856
#
# Compressibility (1/GPa) = 0.24411744
#
# Stress axis : x y z
#
# Youngs Moduli (GPa) = 58.59306 8.92496 14.61991
#
# Poissons Ratio (x) = 0.13211 0.16037
# Poissons Ratio (y) = 0.86729 -0.71746
# Poissons Ratio (z) = 0.64274 -0.43799
#
# Static dielectric constant tensor:
#      x y z
#    x 3.134750 0.000000 0.000000 
#    y 0.000000 2.701160 0.000000 
#    z 0.000000 0.000000 4.088790 
# 
# 
# High freq. dielectric constant tensor:
#      x y z
#    x 1.680760 0.000000 0.000000 
#    y 0.000000 1.621450 0.000000 
#    z 0.000000 0.000000 1.723780 
# 
# From -- ./inp_files/5365.got.cif
#   From: 2010.03.12/outbox.cif.g09.slc.cpg/sg26_3_cif.got.tgz:5365.got - 2010.04.14 03:33:09.
