data_PCOD8167669
_publ_section_title
;
Structure prediction by ZEFSAII (Michael W. Deem and Ramdas Pophale) SiO2 
 PCOD8167669
Probable space group: P M C 21
;
_chemical_formula_sum "Si O2"
_cell_formula_units_Z 32
_cell_length_a 9.124602
_cell_length_b 15.124775
_cell_length_c 11.891431
_cell_angle_alpha 90.000000
_cell_angle_beta 90.000000
_cell_angle_gamma 90.000000
_cell_volume 1641.107285
_symmetry_space_group_name_H-M "P M C 21"
_symmetry_group_IT_number 26
_symmetry_cell_setting 'orthorhombic'
loop_
_space_group_symop_operation_xyz
x,y,z
-x,-y,1/2+z
-x,y,z
x,-y,1/2+z
loop_
_atom_site_type_symbol
_atom_site_label
_atom_site_fract_x
_atom_site_fract_y
_atom_site_fract_z
Si Si1 0.335055 0.649129 0.290320
Si Si2 0.168752 0.888385 0.060694
Si Si3 0.827854 0.916376 0.488756
Si Si4 0.826508 0.751952 0.632480
Si Si5 0.333900 0.150214 0.782778
Si Si6 0.672251 0.598732 0.040663
Si Si7 0.171060 0.262041 0.386911
Si Si8 0.826714 0.419444 0.993797
O O1 0.500000 0.612863 0.309219
O O2 0.323811 0.750339 0.328837
O O3 0.291793 0.643125 0.159953
O O4 0.222531 0.592529 0.364539
O O5 0.268090 0.851337 0.159013
O O6 0.000000 0.880768 0.097344
O O7 0.199311 0.830625 0.949582
O O8 0.213379 0.989376 0.040021
O O9 0.765111 0.839848 0.570837
O O10 0.754709 0.912381 0.366550
O O11 0.000000 0.905875 0.469930
O O12 0.768374 0.749031 0.760210
O O13 0.774466 0.664598 0.566790
O O14 0.000000 0.757709 0.633075
O O15 0.500000 0.116685 0.776821
O O16 0.500000 0.589559 0.018429
O O17 0.741001 0.658191 0.943096
O O18 0.746235 0.503331 0.045030
O O19 0.000000 0.287690 0.388148
O O20 0.000000 0.433433 0.997796
#
# Coordination Sequence:
#
# PCOD8167669 Si02
#       8
#     4   4   4   4   4   4   4   4
#     4  10  22  41  62  85 118 159 201 247 297 355
#     4  10  22  37  63  92 120 157 202 251 298 350
#     4  10  21  39  63  91 120 156 202 248 298 354
#     4   9  20  38  59  86 121 153 191 245 297 346
#     4  11  22  39  62  87 122 158 200 251 299 358
#     4  11  24  42  61  86 120 159 198 245 300 360
#     4  10  21  39  60  88 120 156 199 246 297 352
#     4  11  23  39  62  91 119 154 199 251 300 353
#
# _framework density 19.499029
#
# number of rings (size 3 to 8) (size 9 to 14) (size 15 to 20)
#    0.000    1.750    2.500    1.125    3.500    2.000 
#    0.000    1.250    0.000    0.000    0.000    0.000 
#    0.000    0.000    0.000    0.000    0.000    0.000 
#
# Total GULP energy -396924.558827 kJ/mol
# GULP energy per Si atom -12403.892463 kJ/mol
# Density = 1.945465 g / cm^3
# Si number density = 19.499029 Si / 1000 Ang^3
#
#
#
# Elastic Constant Matrix: (Units=GPa)
#
#
# Indices 1 2 3 4 5 6 
#
# 1 70.9481 41.5904 42.7311 0.0000 0.0000 0.0000
# 2 41.5904 118.3820 37.6859 0.0000 0.0000 0.0000
# 3 42.7311 37.6859 117.5248 0.0000 0.0000 0.0000
# 4 0.0000 0.0000 0.0000 25.7932 0.0000 0.0000
# 5 0.0000 0.0000 0.0000 0.0000 20.9519 0.0000
# 6 0.0000 0.0000 0.0000 0.0000 0.0000 23.7165
#
#
#
# Elastic Compliance Matrix: (Units=1/GPa)
#
#
# Indices 1 2 3 4 5 6 
#
# 1 0.020792 -0.005455 -0.005811 0.000000 0.000000 0.000000
# 2 -0.005455 0.010839 -0.001492 0.000000 0.000000 0.000000
# 3 -0.005811 -0.001492 0.011100 0.000000 0.000000 0.000000
# 4 0.000000 0.000000 0.000000 0.038770 0.000000 0.000000
# 5 0.000000 0.000000 0.000000 0.000000 0.047728 0.000000
# 6 0.000000 0.000000 0.000000 0.000000 0.000000 0.042165
#
#
# Mechanical properties :
#
#
# Convention : Reuss Voigt Hill
#
# Bulk Modulus (GPa) = 58.08794 61.20774 59.64784
# Shear Modulus (GPa) = 24.67328 26.41549 25.54438
#
# Velocity S-wave (km/s) = 3.56105 3.68463 3.62337
# Velocity P-wave (km/s) = 6.83834 7.03991 6.93986
#
# Compressibility (1/GPa) = 0.01721528
#
# Stress axis : x y z
#
# Youngs Moduli (GPa) = 48.09475 92.26169 90.08967
#
# Poissons Ratio (x) = 0.50329 0.52348
# Poissons Ratio (y) = 0.26236 0.13443
# Poissons Ratio (z) = 0.27946 0.13767
#
# Static dielectric constant tensor:
#      x y z
#    x 3.410990 0.000000 0.000000 
#    y 0.000000 3.628730 0.000000 
#    z 0.000000 0.000000 3.578190 
# 
# 
# High freq. dielectric constant tensor:
#      x y z
#    x 1.745430 0.000000 0.000000 
#    y 0.000000 1.766030 0.000000 
#    z 0.000000 0.000000 1.767170 
# 
# From -- ./inp_files/2914.got.cif
#   From: 2010.03.12/outbox.cif.g09.slc.cpg/sg26_2_cif.got.tgz:2914.got - 2010.04.14 03:33:09.
