data_PCOD8167567
_publ_section_title
;
Structure prediction by ZEFSAII (Michael W. Deem and Ramdas Pophale) SiO2 
 PCOD8167567
Probable space group: P M C 21
;
_chemical_formula_sum "Si O2"
_cell_formula_units_Z 32
_cell_length_a 9.314404
_cell_length_b 14.413450
_cell_length_c 12.261470
_cell_angle_alpha 90.000000
_cell_angle_beta 90.000000
_cell_angle_gamma 90.000000
_cell_volume 1646.135409
_symmetry_space_group_name_H-M "P M C 21"
_symmetry_group_IT_number 26
_symmetry_cell_setting 'orthorhombic'
loop_
_space_group_symop_operation_xyz
x,y,z
-x,-y,1/2+z
-x,y,z
x,-y,1/2+z
loop_
_atom_site_type_symbol
_atom_site_label
_atom_site_fract_x
_atom_site_fract_y
_atom_site_fract_z
Si Si1 0.656406 0.370943 0.868840
Si Si2 0.660989 0.825718 0.460094
Si Si3 0.165965 0.739797 0.649301
Si Si4 0.669507 0.168243 0.565087
Si Si5 0.167507 0.449555 0.050392
Si Si6 0.330470 0.959114 0.270688
Si Si7 0.338380 0.375601 0.618250
Si Si8 0.831703 0.132212 0.342344
O O1 0.500000 0.403583 0.915160
O O2 0.666364 0.260635 0.878164
O O3 0.669030 0.398063 0.744680
O O4 0.788416 0.418465 0.929673
O O5 0.500000 0.844113 0.502919
O O6 0.756999 0.810502 0.566535
O O7 0.713198 0.910719 0.385234
O O8 0.219880 0.632804 0.633459
O O9 0.191827 0.772142 0.773840
O O10 0.000000 0.744293 0.616998
O O11 0.500000 0.162435 0.542517
O O12 0.712688 0.102553 0.666020
O O13 0.718738 0.272801 0.592278
O O14 0.753277 0.136359 0.457837
O O15 0.238580 0.548554 0.064451
O O16 0.000000 0.465153 0.058362
O O17 0.500000 0.980538 0.268407
O O18 0.237879 0.052522 0.267109
O O19 0.500000 0.386331 0.573780
O O20 0.000000 0.112881 0.360234
#
# Coordination Sequence:
#
# PCOD8167567 Si02
#       8
#     4   4   4   4   4   4   4   4
#     4   9  17  34  57  82 110 144 191 245 295 344
#     4   9  17  33  60  86 107 139 187 244 295 342
#     4   9  21  40  56  78 118 159 195 239 290 345
#     4  10  22  42  64  88 120 154 196 246 299 354
#     4  10  21  36  56  84 118 158 199 241 294 354
#     4  10  21  39  62  88 115 149 193 245 298 352
#     4  10  20  37  61  87 116 151 194 247 298 349
#     4  11  25  41  58  85 124 164 199 241 293 352
#
# _framework density 19.439468999999999
#
# number of rings (size 3 to 8) (size 9 to 14) (size 15 to 20)
#    0.000    2.250    1.250    0.750    1.750    4.500 
#    0.000    2.500    0.000    0.000    0.000    0.000 
#    0.000    0.000    0.000    0.000    0.000    0.000 
#
# Total GULP energy -396701.613129 kJ/mol
# GULP energy per Si atom -12396.925410 kJ/mol
# Density = 1.939522 g / cm^3
# Si number density = 19.439469 Si / 1000 Ang^3
#
#
#
# Elastic Constant Matrix: (Units=GPa)
#
#
# Indices 1 2 3 4 5 6 
#
# 1 62.2013 49.7569 38.8809 0.0000 0.0000 0.0000
# 2 49.7569 116.9675 42.2261 0.0000 0.0000 0.0000
# 3 38.8809 42.2261 82.3407 0.0000 0.0000 0.0000
# 4 0.0000 0.0000 0.0000 25.1209 0.0000 0.0000
# 5 0.0000 0.0000 0.0000 0.0000 22.8986 0.0000
# 6 0.0000 0.0000 0.0000 0.0000 0.0000 26.7033
#
#
#
# Elastic Compliance Matrix: (Units=1/GPa)
#
#
# Indices 1 2 3 4 5 6 
#
# 1 0.028974 -0.009064 -0.009033 0.000000 0.000000 0.000000
# 2 -0.009064 0.013327 -0.002554 0.000000 0.000000 0.000000
# 3 -0.009033 -0.002554 0.017720 0.000000 0.000000 0.000000
# 4 0.000000 0.000000 0.000000 0.039808 0.000000 0.000000
# 5 0.000000 0.000000 0.000000 0.000000 0.043671 0.000000
# 6 0.000000 0.000000 0.000000 0.000000 0.000000 0.037449
#
#
# Mechanical properties :
#
#
# Convention : Reuss Voigt Hill
#
# Bulk Modulus (GPa) = 53.42490 58.13747 55.78119
# Shear Modulus (GPa) = 21.88266 23.65426 22.76846
#
# Velocity S-wave (km/s) = 3.35876 3.49207 3.42606
# Velocity P-wave (km/s) = 6.52564 6.79936 6.66391
#
# Compressibility (1/GPa) = 0.01871787
#
# Stress axis : x y z
#
# Youngs Moduli (GPa) = 34.51358 75.03309 56.43333
#
# Poissons Ratio (x) = 0.68012 0.50977
# Poissons Ratio (y) = 0.31284 0.14416
# Poissons Ratio (z) = 0.31176 0.19167
#
# Static dielectric constant tensor:
#      x y z
#    x 3.491280 0.000000 0.000000 
#    y 0.000000 3.634800 0.000000 
#    z 0.000000 0.000000 3.423670 
# 
# 
# High freq. dielectric constant tensor:
#      x y z
#    x 1.748960 0.000000 0.000000 
#    y 0.000000 1.760580 0.000000 
#    z 0.000000 0.000000 1.753010 
# 
# From -- ./inp_files/2946.got.cif
#   From: 2010.03.12/outbox.cif.g09.slc.cpg/sg26_2_cif.got.tgz:2946.got - 2010.04.14 03:33:09.
