data_PCOD8167962
_publ_section_title
;
Structure prediction by ZEFSAII (Michael W. Deem and Ramdas Pophale) SiO2 
 PCOD8167962
Probable space group: P C C 2
;
_chemical_formula_sum "Si O2"
_cell_formula_units_Z 20
_cell_length_a 5.097364
_cell_length_b 5.172843
_cell_length_c 31.959072
_cell_angle_alpha 90.000000
_cell_angle_beta 90.000000
_cell_angle_gamma 90.000000
_cell_volume 842.692454
_symmetry_space_group_name_H-M "P C C 2"
_symmetry_group_IT_number 27
_symmetry_cell_setting 'orthorhombic'
loop_
_space_group_symop_operation_xyz
x,y,z
-x,-y,z
-x,y,1/2+z
x,-y,1/2+z
loop_
_atom_site_type_symbol
_atom_site_label
_atom_site_fract_x
_atom_site_fract_y
_atom_site_fract_z
Si Si1 0.500000 0.000000 0.343110
Si Si2 0.833637 0.737939 0.782095
Si Si3 0.500000 0.000000 0.570594
Si Si4 0.333637 0.262061 0.688189
Si Si5 0.500000 0.500000 0.014261
Si Si6 0.000000 0.000000 0.627174
Si Si7 0.000000 0.500000 0.956024
Si Si8 0.000000 0.000000 0.899690
O O1 0.579141 0.236393 0.312091
O O2 0.748597 0.932599 0.371572
O O3 0.749998 0.674742 0.735142
O O4 0.000000 0.500000 0.799948
O O5 0.000000 0.000000 0.784075
O O6 0.540065 0.751097 0.542330
O O7 0.751402 0.067399 0.598712
O O8 0.500000 0.500000 0.670336
O O9 0.079140 0.236394 0.658193
O O10 0.500000 0.000000 0.686208
O O11 0.750000 0.499999 0.985142
O O12 0.959933 0.751097 0.927954
#
# Coordination Sequence:
#
# PCOD8167962 Si02
#       8
#     2   4   2   4   2   2   2   2
#     4  12  28  50  74 116 160 194 260 322 382 438
#     4  12  27  47  74 107 153 214 268 319 379 451
#     4  12  28  46  80 116 150 194 244 314 386 448
#     4  12  27  47  74 107 153 214 268 319 379 451
#     4  12  26  52  80 110 150 192 244 298 380 482
#     4  12  28  50  74 116 160 194 260 322 382 438
#     4  12  26  52  80 110 150 192 244 298 380 482
#     4  12  28  46  80 116 150 194 244 314 386 448
#
# _framework density 23.733452
#
# number of rings (size 3 to 8) (size 9 to 14) (size 15 to 20)
#    0.000    0.000    4.000    4.800    2.800    3.200 
#    0.000    0.000    0.000    0.000    0.000    0.000 
#    0.000    0.000    0.000    0.000    0.000    0.000 
#
# Total GULP energy -248027.739285 kJ/mol
# GULP energy per Si atom -12401.386964 kJ/mol
# Density = 2.367943 g / cm^3
# Si number density = 23.733452 Si / 1000 Ang^3
#
#
#
# Elastic Constant Matrix: (Units=GPa)
#
#
# Indices 1 2 3 4 5 6 
#
# 1 204.6994 66.6819 97.7338 0.0000 0.0000 0.0000
# 2 66.6819 182.4389 67.8558 0.0000 0.0000 0.0000
# 3 97.7338 67.8558 185.3531 0.0000 0.0000 0.0000
# 4 0.0000 0.0000 0.0000 -63.6685 0.0000 0.0000
# 5 0.0000 0.0000 0.0000 0.0000 37.0593 0.0000
# 6 0.0000 0.0000 0.0000 0.0000 0.0000 43.5245
#
#
#
# Elastic Compliance Matrix: (Units=1/GPa)
#
#
# Indices 1 2 3 4 5 6 
#
# 1 0.006798 -0.001333 -0.003096 0.000000 0.000000 0.000000
# 2 -0.001333 0.006607 -0.001716 0.000000 0.000000 0.000000
# 3 -0.003096 -0.001716 0.007656 0.000000 0.000000 0.000000
# 4 0.000000 0.000000 0.000000 -0.015706 0.000000 0.000000
# 5 0.000000 0.000000 0.000000 0.000000 0.026984 0.000000
# 6 0.000000 0.000000 0.000000 0.000000 0.000000 0.022976
#
#
# Mechanical properties :
#
#
# Convention : Reuss Voigt Hill
#
# Bulk Modulus (GPa) = 114.02359 115.22605 114.62482
# Shear Modulus (GPa) = 70.89486 26.06439 48.47962
#
# Velocity S-wave (km/s) = 5.47139 3.31752 4.52449
# Velocity P-wave (km/s) = 9.38416 7.95802 8.70036
#
# Compressibility (1/GPa) = 0.00877011
#
# Stress axis : x y z
#
# Youngs Moduli (GPa) = 147.10632 151.36277 130.61783
#
# Poissons Ratio (x) = 0.20176 0.40445
# Poissons Ratio (y) = 0.19609 0.22411
# Poissons Ratio (z) = 0.45550 0.25971
#
# Static dielectric constant tensor:
#      x y z
#    x 4.910710 0.000000 0.000000 
#    y 0.000000 4.415020 0.000000 
#    z 0.000000 0.000000 4.778130 
# 
# 
# High freq. dielectric constant tensor:
#      x y z
#    x 1.964070 0.000000 0.000000 
#    y 0.000000 1.946700 0.000000 
#    z 0.000000 0.000000 1.961260 
# 
# From -- ./inp_files/5313.got.cif
#   From: 2010.03.12/outbox.cif.g09.slc.cpg/sg27_3_cif.got.tgz:5313.got - 2010.04.14 03:36:05.
