data_PCOD8167374
_publ_section_title
;
Structure prediction by ZEFSAII (Michael W. Deem and Ramdas Pophale) SiO2 
 PCOD8167374
Probable space group: P M C 21
;
_chemical_formula_sum "Si O2"
_cell_formula_units_Z 32
_cell_length_a 9.070835
_cell_length_b 14.405764
_cell_length_c 12.194718
_cell_angle_alpha 90.000000
_cell_angle_beta 90.000000
_cell_angle_gamma 90.000000
_cell_volume 1593.511950
_symmetry_space_group_name_H-M "P M C 21"
_symmetry_group_IT_number 26
_symmetry_cell_setting 'orthorhombic'
loop_
_space_group_symop_operation_xyz
x,y,z
-x,-y,1/2+z
-x,y,z
x,-y,1/2+z
loop_
_atom_site_type_symbol
_atom_site_label
_atom_site_fract_x
_atom_site_fract_y
_atom_site_fract_z
Si Si1 0.661016 0.366974 0.886150
Si Si2 0.667277 0.830615 0.471273
Si Si3 0.172622 0.739825 0.671453
Si Si4 0.675531 0.165267 0.597051
Si Si5 0.169515 0.449542 0.072080
Si Si6 0.169466 0.939760 0.293904
Si Si7 0.333714 0.371947 0.636891
Si Si8 0.832671 0.140391 0.373067
O O1 0.500000 0.397661 0.933669
O O2 0.669853 0.255922 0.888296
O O3 0.677189 0.399825 0.762969
O O4 0.795811 0.410703 0.951770
O O5 0.500000 0.865784 0.490757
O O6 0.736569 0.804148 0.588069
O O7 0.761669 0.908680 0.410117
O O8 0.219988 0.631050 0.658292
O O9 0.207225 0.771354 0.795769
O O10 0.000000 0.751222 0.643053
O O11 0.500000 0.158860 0.608916
O O12 0.745051 0.098066 0.688035
O O13 0.734402 0.270369 0.614593
O O14 0.723421 0.133893 0.475810
O O15 0.248566 0.547581 0.075735
O O16 0.000000 0.471049 0.085671
O O17 0.000000 0.906886 0.287549
O O18 0.182505 0.050968 0.294575
O O19 0.500000 0.372094 0.593376
O O20 0.000000 0.148929 0.417483
#
# Coordination Sequence:
#
# PCOD8167374 Si02
#       8
#     4   4   4   4   4   4   4   4
#     4   9  18  36  57  79 113 154 197 245 300 359
#     4  10  19  35  60  88 116 149 198 255 302 349
#     4   9  20  40  60  84 122 161 203 252 302 362
#     4  11  24  43  64  91 124 156 205 259 304 358
#     4  10  21  35  57  90 120 153 203 254 302 357
#     4  11  23  39  62  89 121 161 202 244 303 369
#     4  10  21  39  60  84 119 160 199 245 304 364
#     4  10  24  43  62  87 125 168 203 244 307 372
#
# _framework density 20.081430999999998
#
# number of rings (size 3 to 8) (size 9 to 14) (size 15 to 20)
#    0.000    2.000    1.250    1.500    1.750    5.000 
#    0.000    2.500    0.000    0.000    0.000    0.000 
#    0.000    0.000    0.000    0.000    0.000    0.000 
#
# Total GULP energy -396768.973467 kJ/mol
# GULP energy per Si atom -12399.030421 kJ/mol
# Density = 2.003572 g / cm^3
# Si number density = 20.081431 Si / 1000 Ang^3
#
#
#
# Elastic Constant Matrix: (Units=GPa)
#
#
# Indices 1 2 3 4 5 6 
#
# 1 83.0164 35.8887 38.0973 0.0000 0.0000 0.0000
# 2 35.8887 93.1611 31.0174 0.0000 0.0000 0.0000
# 3 38.0973 31.0174 76.3564 0.0000 0.0000 0.0000
# 4 0.0000 0.0000 0.0000 24.0501 0.0000 0.0000
# 5 0.0000 0.0000 0.0000 0.0000 33.4885 0.0000
# 6 0.0000 0.0000 0.0000 0.0000 0.0000 29.5819
#
#
#
# Elastic Compliance Matrix: (Units=1/GPa)
#
#
# Indices 1 2 3 4 5 6 
#
# 1 0.016996 -0.004307 -0.006731 0.000000 0.000000 0.000000
# 2 -0.004307 0.013504 -0.003337 0.000000 0.000000 0.000000
# 3 -0.006731 -0.003337 0.017810 0.000000 0.000000 0.000000
# 4 0.000000 0.000000 0.000000 0.041580 0.000000 0.000000
# 5 0.000000 0.000000 0.000000 0.000000 0.029861 0.000000
# 6 0.000000 0.000000 0.000000 0.000000 0.000000 0.033805
#
#
# Mechanical properties :
#
#
# Convention : Reuss Voigt Hill
#
# Bulk Modulus (GPa) = 51.11885 51.39339 51.25612
# Shear Modulus (GPa) = 26.47947 27.25946 26.86946
#
# Velocity S-wave (km/s) = 3.63520 3.68835 3.66187
# Velocity P-wave (km/s) = 6.56739 6.61715 6.59231
#
# Compressibility (1/GPa) = 0.01956226
#
# Stress axis : x y z
#
# Youngs Moduli (GPa) = 58.83580 74.05140 56.14743
#
# Poissons Ratio (x) = 0.31891 0.37792
# Poissons Ratio (y) = 0.25338 0.18736
# Poissons Ratio (z) = 0.39601 0.24710
#
# Static dielectric constant tensor:
#      x y z
#    x 3.688900 0.000000 0.000000 
#    y 0.000000 3.695900 0.000000 
#    z 0.000000 0.000000 3.406640 
# 
# 
# High freq. dielectric constant tensor:
#      x y z
#    x 1.784750 0.000000 0.000000 
#    y 0.000000 1.785100 0.000000 
#    z 0.000000 0.000000 1.775340 
# 
# From -- ./inp_files/3076.got.cif
#   From: 2010.03.12/outbox.cif.g09.slc.cpg/sg26_2_cif.got.tgz:3076.got - 2010.04.14 03:33:09.
