data_PCOD8167485
_publ_section_title
;
Structure prediction by ZEFSAII (Michael W. Deem and Ramdas Pophale) SiO2 
 PCOD8167485
Probable space group: P M C 21
;
_chemical_formula_sum "Si O2"
_cell_formula_units_Z 32
_cell_length_a 11.221569
_cell_length_b 15.737075
_cell_length_c 9.817007
_cell_angle_alpha 90.000000
_cell_angle_beta 90.000000
_cell_angle_gamma 90.000000
_cell_volume 1733.631141
_symmetry_space_group_name_H-M "P M C 21"
_symmetry_group_IT_number 26
_symmetry_cell_setting 'orthorhombic'
loop_
_space_group_symop_operation_xyz
x,y,z
-x,-y,1/2+z
-x,y,z
x,-y,1/2+z
loop_
_atom_site_type_symbol
_atom_site_label
_atom_site_fract_x
_atom_site_fract_y
_atom_site_fract_z
Si Si1 0.636567 0.324659 0.145030
Si Si2 0.706792 0.247950 0.415662
Si Si3 0.631904 0.141040 0.658200
Si Si4 0.861109 0.553414 0.676564
Si Si5 0.866636 0.596639 0.979108
Si Si6 0.128983 0.903235 0.826863
Si Si7 0.784826 0.985573 0.562787
Si Si8 0.637491 0.830016 0.457043
O O1 0.500000 0.359589 0.111433
O O2 0.625803 0.289600 0.299010
O O3 0.749570 0.387966 0.129322
O O4 0.677627 0.251750 0.041508
O O5 0.629378 0.210273 0.537895
O O6 0.788904 0.319088 0.483517
O O7 0.777218 0.171584 0.344000
O O8 0.500000 0.103119 0.673467
O O9 0.717136 0.063026 0.632314
O O10 0.670238 0.186658 0.798907
O O11 0.850688 0.543327 0.839229
O O12 0.834633 0.463549 0.606016
O O13 0.000000 0.583950 0.640168
O O14 0.000000 0.630178 0.993424
O O15 0.132876 0.943550 0.676893
O O16 0.000000 0.860948 0.844758
O O17 0.140352 0.978494 0.936873
O O18 0.695329 0.916042 0.507783
O O19 0.500000 0.845239 0.481485
#
# Coordination Sequence:
#
# PCOD8167485 Si02
#       8
#     4   4   4   4   4   4   4   4
#     4  10  20  36  57  83 112 143 184 231 282 335
#     4  10  20  35  57  81 111 143 184 228 275 334
#     4  10  21  35  53  77 107 141 181 227 276 331
#     4   9  19  36  58  83 111 144 183 225 274 334
#     4   9  18  35  58  82 109 144 183 224 269 330
#     4  11  22  35  54  77 109 147 187 234 281 329
#     4  11  20  37  52  75 106 142 186 227 281 326
#     4  10  20  35  53  76 106 140 182 230 277 327
#
# _framework density 18.458366000000002
#
# number of rings (size 3 to 8) (size 9 to 14) (size 15 to 20)
#    0.000    2.000    2.500    1.500    0.000    1.500 
#    0.000    3.125    0.000    0.000    0.000    0.000 
#    0.000    0.000    0.000    0.000    0.000    0.000 
#
# Total GULP energy -396520.585766 kJ/mol
# GULP energy per Si atom -12391.268305 kJ/mol
# Density = 1.841635 g / cm^3
# Si number density = 18.458366 Si / 1000 Ang^3
#
#
#
# Elastic Constant Matrix: (Units=GPa)
#
#
# Indices 1 2 3 4 5 6 
#
# 1 64.9466 23.4391 4.5480 0.0000 0.0000 0.0000
# 2 23.4391 58.0534 13.0524 0.0000 0.0000 0.0000
# 3 4.5480 13.0524 63.9575 0.0000 0.0000 0.0000
# 4 0.0000 0.0000 0.0000 28.1129 0.0000 0.0000
# 5 0.0000 0.0000 0.0000 0.0000 18.9391 0.0000
# 6 0.0000 0.0000 0.0000 0.0000 0.0000 18.1494
#
#
#
# Elastic Compliance Matrix: (Units=1/GPa)
#
#
# Indices 1 2 3 4 5 6 
#
# 1 0.018026 -0.007326 0.000213 0.000000 0.000000 0.000000
# 2 -0.007326 0.021031 -0.003771 0.000000 0.000000 0.000000
# 3 0.000213 -0.003771 0.016390 0.000000 0.000000 0.000000
# 4 0.000000 0.000000 0.000000 0.035571 0.000000 0.000000
# 5 0.000000 0.000000 0.000000 0.000000 0.052801 0.000000
# 6 0.000000 0.000000 0.000000 0.000000 0.000000 0.055098
#
#
# Mechanical properties :
#
#
# Convention : Reuss Voigt Hill
#
# Bulk Modulus (GPa) = 29.69157 29.89294 29.79225
# Shear Modulus (GPa) = 21.55991 22.76813 22.16402
#
# Velocity S-wave (km/s) = 3.42135 3.51591 3.46895
# Velocity P-wave (km/s) = 5.63277 5.71945 5.67628
#
# Compressibility (1/GPa) = 0.03367959
#
# Stress axis : x y z
#
# Youngs Moduli (GPa) = 55.47452 47.54810 61.01343
#
# Poissons Ratio (x) = 0.34834 -0.01301
# Poissons Ratio (y) = 0.40641 0.23009
# Poissons Ratio (z) = -0.01183 0.17931
#
# Static dielectric constant tensor:
#      x y z
#    x 3.410230 0.000000 0.000000 
#    y 0.000000 3.253470 0.000000 
#    z 0.000000 0.000000 3.665640 
# 
# 
# High freq. dielectric constant tensor:
#      x y z
#    x 1.718080 0.000000 0.000000 
#    y 0.000000 1.699160 0.000000 
#    z 0.000000 0.000000 1.728390 
# 
# From -- ./inp_files/1964.got.cif
#   From: 2010.03.12/outbox.cif.g09.slc.cpg/sg26_1_cif.got.tgz:1964.got - 2010.04.14 03:33:09.
