data_PCOD8167278
_publ_section_title
;
Structure prediction by ZEFSAII (Michael W. Deem and Ramdas Pophale) SiO2 
 PCOD8167278
Probable space group: P M C 21
;
_chemical_formula_sum "Si O2"
_cell_formula_units_Z 32
_cell_length_a 9.078254
_cell_length_b 11.832838
_cell_length_c 14.407284
_cell_angle_alpha 90.000000
_cell_angle_beta 90.000000
_cell_angle_gamma 90.000000
_cell_volume 1547.652187
_symmetry_space_group_name_H-M "P M C 21"
_symmetry_group_IT_number 26
_symmetry_cell_setting 'orthorhombic'
loop_
_space_group_symop_operation_xyz
x,y,z
-x,-y,1/2+z
-x,y,z
x,-y,1/2+z
loop_
_atom_site_type_symbol
_atom_site_label
_atom_site_fract_x
_atom_site_fract_y
_atom_site_fract_z
Si Si1 0.673795 0.420935 0.416970
Si Si2 0.834279 0.439325 0.607080
Si Si3 0.329266 0.832945 0.882218
Si Si4 0.670481 0.005616 0.540655
Si Si5 0.829653 0.089913 0.209153
Si Si6 0.835792 0.691246 0.597593
Si Si7 0.826630 0.624900 0.307728
Si Si8 0.671371 0.218320 0.935343
O O1 0.500000 0.442174 0.412729
O O2 0.722166 0.417992 0.524145
O O3 0.715892 0.298237 0.374863
O O4 0.753602 0.517858 0.358796
O O5 0.828042 0.568557 0.643062
O O6 0.789233 0.369709 0.698447
O O7 0.000000 0.408934 0.573711
O O8 0.500000 0.850379 0.859511
O O9 0.242772 0.913538 0.810491
O O10 0.295737 0.877627 0.986935
O O11 0.500000 0.991962 0.567077
O O12 0.760553 0.999970 0.636777
O O13 0.718041 0.905721 0.469802
O O14 0.796966 0.216626 0.174607
O O15 0.000000 0.060246 0.218610
O O16 0.716319 0.693057 0.515487
O O17 0.000000 0.715331 0.556949
O O18 0.762196 0.743906 0.344653
O O19 0.000000 0.616685 0.326205
O O20 0.500000 0.228271 0.913065
#
# Coordination Sequence:
#
# PCOD8167278 Si02
#       8
#     4   4   4   4   4   4   4   4
#     4  11  23  38  59  88 118 152 196 245 286 336
#     4  10  21  36  55  80 114 158 191 224 286 353
#     4  10  22  41  61  84 118 159 197 236 292 350
#     4   9  20  40  62  83 113 153 195 240 291 345
#     4  10  20  35  60  92 117 147 196 246 290 339
#     4   9  17  32  54  79 110 147 185 230 282 338
#     4  11  22  37  57  83 118 157 189 228 291 356
#     4  10  19  33  56  83 106 139 189 239 282 329
#
# _framework density 20.676479
#
# number of rings (size 3 to 8) (size 9 to 14) (size 15 to 20)
#    0.000    2.000    1.250    2.250    0.000    4.500 
#    2.250    0.000    0.000    0.000    0.000    0.000 
#    0.000    0.000    0.000    0.000    0.000    0.000 
#
# Total GULP energy -396758.415972 kJ/mol
# GULP energy per Si atom -12398.700499 kJ/mol
# Density = 2.062942 g / cm^3
# Si number density = 20.676479 Si / 1000 Ang^3
#
#
#
# Elastic Constant Matrix: (Units=GPa)
#
#
# Indices 1 2 3 4 5 6 
#
# 1 84.4605 16.9576 36.9495 0.0000 0.0000 0.0000
# 2 16.9576 30.5400 2.2275 0.0000 0.0000 0.0000
# 3 36.9495 2.2275 81.3945 0.0000 0.0000 0.0000
# 4 0.0000 0.0000 0.0000 25.0396 0.0000 0.0000
# 5 0.0000 0.0000 0.0000 0.0000 34.7145 0.0000
# 6 0.0000 0.0000 0.0000 0.0000 0.0000 22.9018
#
#
#
# Elastic Compliance Matrix: (Units=1/GPa)
#
#
# Indices 1 2 3 4 5 6 
#
# 1 0.016851 -0.008816 -0.007408 0.000000 0.000000 0.000000
# 2 -0.008816 0.037422 0.002978 0.000000 0.000000 0.000000
# 3 -0.007408 0.002978 0.015567 0.000000 0.000000 0.000000
# 4 0.000000 0.000000 0.000000 0.039937 0.000000 0.000000
# 5 0.000000 0.000000 0.000000 0.000000 0.028806 0.000000
# 6 0.000000 0.000000 0.000000 0.000000 0.000000 0.043665
#
#
# Mechanical properties :
#
#
# Convention : Reuss Voigt Hill
#
# Bulk Modulus (GPa) = 23.06949 34.29604 28.68277
# Shear Modulus (GPa) = 22.40242 25.88186 24.14214
#
# Velocity S-wave (km/s) = 3.29519 3.54185 3.42074
# Velocity P-wave (km/s) = 5.06550 5.77488 5.43178
#
# Compressibility (1/GPa) = 0.04334729
#
# Stress axis : x y z
#
# Youngs Moduli (GPa) = 59.34401 26.72227 64.23688
#
# Poissons Ratio (x) = 0.23559 0.47589
# Poissons Ratio (y) = 0.52319 -0.19130
# Poissons Ratio (z) = 0.43964 -0.07958
#
# Static dielectric constant tensor:
#      x y z
#    x 3.723930 0.000000 0.000000 
#    y 0.000000 3.715260 0.000000 
#    z 0.000000 0.000000 3.628900 
# 
# 
# High freq. dielectric constant tensor:
#      x y z
#    x 1.808470 0.000000 0.000000 
#    y 0.000000 1.798360 0.000000 
#    z 0.000000 0.000000 1.804570 
# 
# From -- ./inp_files/4237.got.cif
#   From: 2010.03.12/outbox.cif.g09.slc.cpg/sg26_3_cif.got.tgz:4237.got - 2010.04.14 03:33:09.
