data_PCOD8167089
_publ_section_title
;
Structure prediction by ZEFSAII (Michael W. Deem and Ramdas Pophale) SiO2 
 PCOD8167089
Probable space group: P M C 21
;
_chemical_formula_sum "Si O2"
_cell_formula_units_Z 24
_cell_length_a 8.392735
_cell_length_b 9.208262
_cell_length_c 16.817282
_cell_angle_alpha 90.000000
_cell_angle_beta 90.000000
_cell_angle_gamma 90.000000
_cell_volume 1299.681643
_symmetry_space_group_name_H-M "P M C 21"
_symmetry_group_IT_number 26
_symmetry_cell_setting 'orthorhombic'
loop_
_space_group_symop_operation_xyz
x,y,z
-x,-y,1/2+z
-x,y,z
x,-y,1/2+z
loop_
_atom_site_type_symbol
_atom_site_label
_atom_site_fract_x
_atom_site_fract_y
_atom_site_fract_z
Si Si1 0.814448 0.925427 0.347420
Si Si2 0.183700 0.647700 0.795441
Si Si3 0.686042 0.334579 0.770745
Si Si4 0.311306 0.168867 0.617156
Si Si5 0.689389 0.166669 0.440894
Si Si6 0.682921 0.898591 0.706092
O O1 0.775304 0.753691 0.342112
O O2 0.000000 0.955420 0.330695
O O3 0.761511 0.003689 0.429274
O O4 0.700326 0.000626 0.283107
O O5 0.283196 0.503341 0.781430
O O6 0.238488 0.721683 0.877442
O O7 0.213209 0.753351 0.719527
O O8 0.000000 0.607260 0.800910
O O9 0.500000 0.304460 0.778058
O O10 0.754324 0.279508 0.684742
O O11 0.500000 0.170959 0.622335
O O12 0.255272 0.216653 0.529263
O O13 0.256650 0.000729 0.633397
O O14 0.500000 0.164394 0.433073
O O15 0.500000 0.850491 0.695961
#
# Coordination Sequence:
#
# PCOD8167089 Si02
#       6
#     4   4   4   4   4   4
#     4  10  18  30  48  74 101 128 161 202 243 291
#     4  11  21  33  49  76 106 135 168 207 250 301
#     4  10  19  35  55  75  98 133 172 209 250 301
#     4   8  17  32  54  78  98 123 169 216 250 291
#     4  10  18  33  54  76 100 133 169 207 250 298
#     4   9  16  31  52  73  95 128 167 203 239 290
#
# _framework density 18.466061
#
# number of rings (size 3 to 8) (size 9 to 14) (size 15 to 20)
#    0.000    2.333    0.000    7.500    0.000    0.000 
#    0.000   11.667    0.000    4.000    0.000    0.000 
#    0.000    0.000    0.000    0.000    0.000    0.000 
#
# Total GULP energy -297378.746677 kJ/mol
# GULP energy per Si atom -12390.781112 kJ/mol
# Density = 1.842403 g / cm^3
# Si number density = 18.466061 Si / 1000 Ang^3
#
#
#
# Elastic Constant Matrix: (Units=GPa)
#
#
# Indices 1 2 3 4 5 6 
#
# 1 65.7146 5.2649 19.8938 0.0000 0.0000 0.0000
# 2 5.2649 99.0631 37.9974 0.0000 0.0000 0.0000
# 3 19.8938 37.9974 88.3726 0.0000 0.0000 0.0000
# 4 0.0000 0.0000 0.0000 20.6834 0.0000 0.0000
# 5 0.0000 0.0000 0.0000 0.0000 7.3093 0.0000
# 6 0.0000 0.0000 0.0000 0.0000 0.0000 26.4945
#
#
#
# Elastic Compliance Matrix: (Units=1/GPa)
#
#
# Indices 1 2 3 4 5 6 
#
# 1 0.016365 0.000651 -0.003964 0.000000 0.000000 0.000000
# 2 0.000651 0.012114 -0.005355 0.000000 0.000000 0.000000
# 3 -0.003964 -0.005355 0.014511 0.000000 0.000000 0.000000
# 4 0.000000 0.000000 0.000000 0.048348 0.000000 0.000000
# 5 0.000000 0.000000 0.000000 0.000000 0.136813 0.000000
# 6 0.000000 0.000000 0.000000 0.000000 0.000000 0.037744
#
#
# Mechanical properties :
#
#
# Convention : Reuss Voigt Hill
#
# Bulk Modulus (GPa) = 38.98145 42.16250 40.57197
# Shear Modulus (GPa) = 17.13611 23.56371 20.34991
#
# Velocity S-wave (km/s) = 3.04958 3.57607 3.32327
# Velocity P-wave (km/s) = 5.79271 6.31926 6.06170
#
# Compressibility (1/GPa) = 0.02565323
#
# Stress axis : x y z
#
# Youngs Moduli (GPa) = 61.10551 82.54882 68.91544
#
# Poissons Ratio (x) = -0.05371 0.27316
# Poissons Ratio (y) = -0.03976 0.36905
# Poissons Ratio (z) = 0.24221 0.44206
#
# Static dielectric constant tensor:
#      x y z
#    x 3.275510 0.000000 0.000000 
#    y 0.000000 3.552500 0.000000 
#    z 0.000000 0.000000 3.625120 
# 
# 
# High freq. dielectric constant tensor:
#      x y z
#    x 1.714790 0.000000 0.000000 
#    y 0.000000 1.710320 0.000000 
#    z 0.000000 0.000000 1.691200 
# 
# From -- ./inp_files/4865.got.cif
#   From: 2010.03.12/outbox.cif.g09.slc.cpg/sg26_3_cif.got.tgz:4865.got - 2010.04.14 03:33:09.
