data_PCOD8167893
_publ_section_title
;
Structure prediction by ZEFSAII (Michael W. Deem and Ramdas Pophale) SiO2 
 PCOD8167893
Probable space group: P C C 2
;
_chemical_formula_sum "Si O2"
_cell_formula_units_Z 28
_cell_length_a 19.123562
_cell_length_b 6.554770
_cell_length_c 10.066977
_cell_angle_alpha 90.000000
_cell_angle_beta 90.000000
_cell_angle_gamma 90.000000
_cell_volume 1261.901109
_symmetry_space_group_name_H-M "P C C 2"
_symmetry_group_IT_number 27
_symmetry_cell_setting 'orthorhombic'
loop_
_space_group_symop_operation_xyz
x,y,z
-x,-y,z
-x,y,1/2+z
x,-y,1/2+z
loop_
_atom_site_type_symbol
_atom_site_label
_atom_site_fract_x
_atom_site_fract_y
_atom_site_fract_z
Si Si1 0.138045 0.411734 0.334520
Si Si2 0.768104 0.793213 0.781769
Si Si3 0.500000 0.000000 0.218583
Si Si4 0.433055 0.376671 0.094383
Si Si5 0.000000 0.500000 0.475585
Si Si6 0.387553 0.314943 0.814363
Si Si7 0.825037 0.940886 0.512458
Si Si8 0.946188 0.149525 0.634969
O O1 0.191926 0.576241 0.276824
O O2 0.175943 0.285969 0.450854
O O3 0.113564 0.253558 0.222410
O O4 0.068777 0.522379 0.386555
O O5 0.685642 0.771084 0.764676
O O6 0.792020 0.932237 0.658971
O O7 0.781617 0.905082 0.920847
O O8 0.548700 0.857161 0.127830
O O9 0.449070 0.854697 0.305124
O O10 0.500000 0.500000 0.042749
O O11 0.402385 0.486962 0.224290
O O12 0.380434 0.380408 0.968836
O O13 0.000821 0.304298 0.569105
O O14 0.904490 0.022848 0.522448
O O15 0.000000 0.000000 0.714935
#
# Coordination Sequence:
#
# PCOD8167893 Si02
#       8
#     4   4   2   4   2   4   4   4
#     4  12  27  44  71 101 145 185 244 303 370 439
#     4  12  30  49  73 104 148 200 240 305 374 444
#     4  10  22  44  76 110 146 184 244 300 354 420
#     4  10  22  44  72 109 146 185 234 296 353 426
#     4  12  24  42  70 100 136 186 240 308 368 424
#     4  11  26  44  75 107 148 191 242 293 361 431
#     4  12  27  50  69 103 147 187 246 304 362 452
#     4  12  26  43  70 105 135 187 243 305 370 436
#
# _framework density 22.188742000000001
#
# number of rings (size 3 to 8) (size 9 to 14) (size 15 to 20)
#    0.000    0.571    4.286    3.000    8.000    2.286 
#    0.000    0.000    0.000    0.000    0.000    0.000 
#    0.000    0.000    0.000    0.000    0.000    0.000 
#
# Total GULP energy -347224.378470 kJ/mol
# GULP energy per Si atom -12400.870660 kJ/mol
# Density = 2.213824 g / cm^3
# Si number density = 22.188742 Si / 1000 Ang^3
#
#
#
# Elastic Constant Matrix: (Units=GPa)
#
#
# Indices 1 2 3 4 5 6 
#
# 1 111.4105 45.9948 32.9014 0.0000 0.0000 0.0000
# 2 45.9948 125.2831 57.4074 0.0000 0.0000 0.0000
# 3 32.9014 57.4074 122.8142 0.0000 0.0000 0.0000
# 4 0.0000 0.0000 0.0000 34.7738 0.0000 0.0000
# 5 0.0000 0.0000 0.0000 0.0000 26.0940 0.0000
# 6 0.0000 0.0000 0.0000 0.0000 0.0000 29.6632
#
#
#
# Elastic Compliance Matrix: (Units=1/GPa)
#
#
# Indices 1 2 3 4 5 6 
#
# 1 0.010744 -0.003341 -0.001317 0.000000 0.000000 0.000000
# 2 -0.003341 0.011197 -0.004339 0.000000 0.000000 0.000000
# 3 -0.001317 -0.004339 0.010523 0.000000 0.000000 0.000000
# 4 0.000000 0.000000 0.000000 0.028757 0.000000 0.000000
# 5 0.000000 0.000000 0.000000 0.000000 0.038323 0.000000
# 6 0.000000 0.000000 0.000000 0.000000 0.000000 0.033712
#
#
# Mechanical properties :
#
#
# Convention : Reuss Voigt Hill
#
# Bulk Modulus (GPa) = 69.10297 70.23501 69.66899
# Shear Modulus (GPa) = 32.03653 32.98647 32.51150
#
# Velocity S-wave (km/s) = 3.80388 3.85987 3.83198
# Velocity P-wave (km/s) = 7.10659 7.18240 7.14460
#
# Compressibility (1/GPa) = 0.01447116
#
# Stress axis : x y z
#
# Youngs Moduli (GPa) = 93.07548 89.31302 95.02944
#
# Poissons Ratio (x) = 0.29841 0.12511
# Poissons Ratio (y) = 0.31098 0.41229
# Poissons Ratio (z) = 0.12253 0.38749
#
# Static dielectric constant tensor:
#      x y z
#    x 3.841510 0.000000 0.000000 
#    y 0.000000 4.154240 0.000000 
#    z 0.000000 0.000000 3.957430 
# 
# 
# High freq. dielectric constant tensor:
#      x y z
#    x 1.863550 0.000000 0.000000 
#    y 0.000000 1.887950 0.000000 
#    z 0.000000 0.000000 1.875420 
# 
# From -- ./inp_files/2838.got.cif
#   From: 2010.03.12/outbox.cif.g09.slc.cpg/sg27_2_cif.got.tgz:2838.got - 2010.04.14 03:36:05.
