data_PCOD8167033
_publ_section_title
;
Structure prediction by ZEFSAII (Michael W. Deem and Ramdas Pophale) SiO2 
 PCOD8167033
Probable space group: P M M 2
;
_chemical_formula_sum "Si O2"
_cell_formula_units_Z 28
_cell_length_a 9.793645
_cell_length_b 9.299797
_cell_length_c 18.016505
_cell_angle_alpha 90.000000
_cell_angle_beta 90.000000
_cell_angle_gamma 90.000000
_cell_volume 1640.923644
_symmetry_space_group_name_H-M "P M M 2"
_symmetry_group_IT_number 25
_symmetry_cell_setting 'orthorhombic'
loop_
_space_group_symop_operation_xyz
x,y,z
-x,-y,z
-x,y,z
x,-y,z
loop_
_atom_site_type_symbol
_atom_site_label
_atom_site_fract_x
_atom_site_fract_y
_atom_site_fract_z
Si Si1 0.659460 0.334470 0.486300
Si Si2 0.162411 0.162510 0.927718
Si Si3 0.162063 0.159665 0.206820
Si Si4 0.836979 0.661983 0.068687
Si Si5 0.348911 0.329221 0.652012
Si Si6 0.158320 0.331840 0.783287
Si Si7 0.845478 0.829781 0.371904
O O1 0.500000 0.313796 0.469596
O O2 0.702175 0.500000 0.476913
O O3 0.693824 0.278767 0.569502
O O4 0.744725 0.240629 0.429833
O O5 0.212711 0.245172 0.854381
O O6 0.000000 0.161437 0.930140
O O7 0.219883 0.000000 0.927545
O O8 0.219780 0.246187 0.999439
O O9 0.219970 0.267894 0.144659
O O10 0.202445 0.215198 0.288886
O O11 0.000000 0.150767 0.201434
O O12 0.222257 0.000000 0.192272
O O13 0.780301 0.500000 0.062839
O O14 0.000000 0.661493 0.068177
O O15 0.500000 0.269887 0.671940
O O16 0.352990 0.500000 0.651957
O O17 0.240669 0.272686 0.712168
O O18 0.184774 0.500000 0.798043
O O19 0.000000 0.301071 0.767628
O O20 0.000000 0.776160 0.386739
O O21 0.837946 0.000000 0.380049
#
# Coordination Sequence:
#
# PCOD8167033 Si02
#       7
#     4   4   4   4   4   4   4
#     4   9  18  32  49  69  92 119 154 193 230 273
#     4   9  16  25  37  55  83 117 146 173 212 259
#     4   8  14  25  39  56  83 117 148 179 218 263
#     4   9  15  22  35  57  84 113 146 181 214 252
#     4   8  15  29  47  65  86 113 145 181 221 265
#     4   9  16  26  42  64  87 110 141 181 219 256
#     4   9  18  31  46  67  95 124 154 189 230 276
#
# _framework density 17.063559999999999
#
# number of rings (size 3 to 8) (size 9 to 14) (size 15 to 20)
#    0.000    3.286    0.000    2.571    0.000    5.143 
#    0.000    3.571    0.000    3.000    0.000    1.000 
#    0.000    5.714    0.000    0.000    0.000    0.000 
#
# Total GULP energy -347065.738789 kJ/mol
# GULP energy per Si atom -12395.204957 kJ/mol
# Density = 1.702472 g / cm^3
# Si number density = 17.063560 Si / 1000 Ang^3
#
#
#
# Elastic Constant Matrix: (Units=GPa)
#
#
# Indices 1 2 3 4 5 6 
#
# 1 37.2976 26.5849 53.4728 0.0000 0.0000 0.0000
# 2 26.5849 79.9256 69.8822 0.0000 0.0000 0.0000
# 3 53.4728 69.8822 173.1832 0.0000 0.0000 0.0000
# 4 0.0000 0.0000 0.0000 20.4880 0.0000 0.0000
# 5 0.0000 0.0000 0.0000 0.0000 -0.8276 0.0000
# 6 0.0000 0.0000 0.0000 0.0000 0.0000 14.9372
#
#
#
# Elastic Compliance Matrix: (Units=1/GPa)
#
#
# Indices 1 2 3 4 5 6 
#
# 1 0.049255 -0.004768 -0.013284 0.000000 0.000000 0.000000
# 2 -0.004768 0.019794 -0.006515 0.000000 0.000000 0.000000
# 3 -0.013284 -0.006515 0.012505 0.000000 0.000000 0.000000
# 4 0.000000 0.000000 0.000000 0.048809 0.000000 0.000000
# 5 0.000000 0.000000 0.000000 0.000000 -1.208249 0.000000
# 6 0.000000 0.000000 0.000000 0.000000 0.000000 0.066947
#
#
# Mechanical properties :
#
#
# Convention : Reuss Voigt Hill
#
# Bulk Modulus (GPa) = 30.84597 65.58734 48.21666
# Shear Modulus (GPa) = -5.25764 16.28395 5.51316
#
# Velocity S-wave (km/s) = -1.75724 3.09254 1.79944
# Velocity P-wave (km/s) = 3.74154 7.16047 5.71277
#
# Compressibility (1/GPa) = 0.03241914
#
# Stress axis : x y z
#
# Youngs Moduli (GPa) = 20.30234 50.52063 79.96969
#
# Poissons Ratio (x) = 0.24091 1.06233
# Poissons Ratio (y) = 0.09681 0.52099
# Poissons Ratio (z) = 0.26970 0.32913
#
# Static dielectric constant tensor:
#      x y z
#    x 2.801870 0.000000 0.000000 
#    y 0.000000 3.172480 0.000000 
#    z 0.000000 0.000000 3.492200 
# 
# 
# High freq. dielectric constant tensor:
#      x y z
#    x 1.603160 0.000000 0.000000 
#    y 0.000000 1.646230 0.000000 
#    z 0.000000 0.000000 1.674220 
# 
# From -- ./inp_files/6329.got.cif
#   From: 2010.03.12/outbox.cif.g09.slc.cpg/sg25_4_cif.got.tgz:6329.got - 2010.04.14 03:30:10.
