data_PCOD8167927
_publ_section_title
;
Structure prediction by ZEFSAII (Michael W. Deem and Ramdas Pophale) SiO2 
 PCOD8167927
Probable space group: P C C 2
;
_chemical_formula_sum "Si O2"
_cell_formula_units_Z 16
_cell_length_a 4.996322
_cell_length_b 6.563610
_cell_length_c 20.268564
_cell_angle_alpha 90.000000
_cell_angle_beta 90.000000
_cell_angle_gamma 90.000000
_cell_volume 664.685444
_symmetry_space_group_name_H-M "P C C 2"
_symmetry_group_IT_number 27
_symmetry_cell_setting 'orthorhombic'
loop_
_space_group_symop_operation_xyz
x,y,z
-x,-y,z
-x,y,1/2+z
x,-y,1/2+z
loop_
_atom_site_type_symbol
_atom_site_label
_atom_site_fract_x
_atom_site_fract_y
_atom_site_fract_z
Si Si1 0.390113 0.283351 0.721430
Si Si2 0.254762 0.128789 0.459325
Si Si3 0.500000 0.000000 0.333105
Si Si4 0.887498 0.213758 0.636463
Si Si5 0.000000 0.500000 0.526401
O O1 0.500000 0.500000 0.744301
O O2 0.329510 0.151944 0.786889
O O3 0.118449 0.317279 0.681140
O O4 0.380635 0.826693 0.677665
O O5 0.302005 0.132845 0.379941
O O6 0.207754 0.362483 0.483443
O O7 0.500000 0.000000 0.493160
O O8 0.000000 0.000000 0.478166
O O9 0.821945 0.354110 0.573263
O O10 0.000000 0.000000 0.610079
#
# Coordination Sequence:
#
# PCOD8167927 Si02
#       5
#     4   4   2   4   2
#     4  12  24  44  72 107 142 190 246 310 377 446
#     4  10  27  48  72 109 145 210 246 317 380 461
#     4  10  26  48  74 102 156 188 258 310 380 456
#     4  12  25  44  72 108 144 192 242 316 377 446
#     4  12  26  50  76 108 160 194 270 298 400 470
#
# _framework density 24.071535000000001
#
# number of rings (size 3 to 8) (size 9 to 14) (size 15 to 20)
#    0.750    0.000    5.000    0.750    3.500    9.000 
#    0.000    0.000    0.000    0.000    0.000    0.000 
#    0.000    0.000    0.000    0.000    0.000    0.000 
#
# Total GULP energy -198310.489975 kJ/mol
# GULP energy per Si atom -12394.405623 kJ/mol
# Density = 2.401675 g / cm^3
# Si number density = 24.071535 Si / 1000 Ang^3
#
#
#
# Elastic Constant Matrix: (Units=GPa)
#
#
# Indices 1 2 3 4 5 6 
#
# 1 133.9308 40.5985 45.0555 0.0000 0.0000 0.0000
# 2 40.5985 166.2551 81.8880 0.0000 0.0000 0.0000
# 3 45.0555 81.8880 150.3024 0.0000 0.0000 0.0000
# 4 0.0000 0.0000 0.0000 31.6470 0.0000 0.0000
# 5 0.0000 0.0000 0.0000 0.0000 3.9783 0.0000
# 6 0.0000 0.0000 0.0000 0.0000 0.0000 50.0805
#
#
#
# Elastic Compliance Matrix: (Units=1/GPa)
#
#
# Indices 1 2 3 4 5 6 
#
# 1 0.008453 -0.001115 -0.001926 0.000000 0.000000 0.000000
# 2 -0.001115 0.008368 -0.004225 0.000000 0.000000 0.000000
# 3 -0.001926 -0.004225 0.009532 0.000000 0.000000 0.000000
# 4 0.000000 0.000000 0.000000 0.031599 0.000000 0.000000
# 5 0.000000 0.000000 0.000000 0.000000 0.251361 0.000000
# 6 0.000000 0.000000 0.000000 0.000000 0.000000 0.019968
#
#
# Mechanical properties :
#
#
# Convention : Reuss Voigt Hill
#
# Bulk Modulus (GPa) = 84.59834 87.28579 85.94207
# Shear Modulus (GPa) = 14.37803 36.00426 25.19115
#
# Velocity S-wave (km/s) = 2.44663 3.87165 3.23849
# Velocity P-wave (km/s) = 6.57284 7.50506 7.05437
#
# Compressibility (1/GPa) = 0.01182056
#
# Stress axis : x y z
#
# Youngs Moduli (GPa) = 118.30669 119.50128 104.90551
#
# Poissons Ratio (x) = 0.13329 0.20206
# Poissons Ratio (y) = 0.13196 0.44320
# Poissons Ratio (z) = 0.22787 0.50487
#
# Static dielectric constant tensor:
#      x y z
#    x 4.225120 0.000000 0.000000 
#    y 0.000000 4.831430 0.000000 
#    z 0.000000 0.000000 4.264280 
# 
# 
# High freq. dielectric constant tensor:
#      x y z
#    x 1.941690 0.000000 0.000000 
#    y 0.000000 1.973700 0.000000 
#    z 0.000000 0.000000 1.947800 
# 
# From -- ./inp_files/4891.got.cif
#   From: 2010.03.12/outbox.cif.g09.slc.cpg/sg27_3_cif.got.tgz:4891.got - 2010.04.14 03:36:05.
