data_PCOD8167319
_publ_section_title
;
Structure prediction by ZEFSAII (Michael W. Deem and Ramdas Pophale) SiO2 
 PCOD8167319
Probable space group: P M C 21
;
_chemical_formula_sum "Si O2"
_cell_formula_units_Z 32
_cell_length_a 11.091316
_cell_length_b 15.083098
_cell_length_c 9.989878
_cell_angle_alpha 90.000000
_cell_angle_beta 90.000000
_cell_angle_gamma 90.000000
_cell_volume 1671.220738
_symmetry_space_group_name_H-M "P M C 21"
_symmetry_group_IT_number 26
_symmetry_cell_setting 'orthorhombic'
loop_
_space_group_symop_operation_xyz
x,y,z
-x,-y,1/2+z
-x,y,z
x,-y,1/2+z
loop_
_atom_site_type_symbol
_atom_site_label
_atom_site_fract_x
_atom_site_fract_y
_atom_site_fract_z
Si Si1 0.647857 0.074194 0.792110
Si Si2 0.134638 0.288950 0.416120
Si Si3 0.226823 0.519894 0.963649
Si Si4 0.630405 0.458678 0.207771
Si Si5 0.132290 0.330640 0.929339
Si Si6 0.139685 0.202852 0.695498
Si Si7 0.704856 0.732166 0.663021
Si Si8 0.633471 0.923489 0.593929
O O1 0.500000 0.097660 0.781034
O O2 0.743469 0.144708 0.733835
O O3 0.686428 0.985794 0.710872
O O4 0.691058 0.063073 0.946593
O O5 0.148624 0.391911 0.454492
O O6 0.162087 0.227203 0.541990
O O7 0.217503 0.257191 0.296085
O O8 0.000000 0.275378 0.364927
O O9 0.273459 0.507877 0.114624
O O10 0.147278 0.436045 0.922785
O O11 0.338730 0.525618 0.862310
O O12 0.500000 0.500978 0.181306
O O13 0.620732 0.353655 0.177594
O O14 0.218390 0.279733 0.029830
O O15 0.000000 0.310363 0.984371
O O16 0.150231 0.292687 0.780928
O O17 0.000000 0.163692 0.713631
O O18 0.631385 0.822127 0.643237
O O19 0.500000 0.957826 0.573730
#
# Coordination Sequence:
#
# PCOD8167319 Si02
#       8
#     4   4   4   4   4   4   4   4
#     4  10  22  41  64  90 116 149 190 235 286 348
#     4  10  21  36  55  81 116 152 192 241 285 334
#     4  10  20  34  54  78 108 146 194 235 279 333
#     4  10  20  34  51  76 110 147 185 233 286 339
#     4  10  19  34  57  80 108 147 191 236 282 336
#     4  10  21  39  58  85 121 154 189 239 292 342
#     4  10  20  35  56  82 111 146 190 227 288 340
#     4  10  21  39  63  88 116 145 186 236 282 342
#
# _framework density 19.147682
#
# number of rings (size 3 to 8) (size 9 to 14) (size 15 to 20)
#    0.000    2.000    1.250    2.250    1.750    0.000 
#    0.000   10.625    0.000    0.000    0.000    0.000 
#    0.000    0.000    0.000    0.000    0.000    0.000 
#
# Total GULP energy -396442.204839 kJ/mol
# GULP energy per Si atom -12388.818901 kJ/mol
# Density = 1.910410 g / cm^3
# Si number density = 19.147682 Si / 1000 Ang^3
#
#
#
# Elastic Constant Matrix: (Units=GPa)
#
#
# Indices 1 2 3 4 5 6 
#
# 1 68.2353 10.8827 24.1850 0.0000 0.0000 0.0000
# 2 10.8827 72.0859 27.0610 0.0000 0.0000 0.0000
# 3 24.1850 27.0610 101.8932 0.0000 0.0000 0.0000
# 4 0.0000 0.0000 0.0000 28.3596 0.0000 0.0000
# 5 0.0000 0.0000 0.0000 0.0000 -14.4416 0.0000
# 6 0.0000 0.0000 0.0000 0.0000 0.0000 21.3686
#
#
#
# Elastic Compliance Matrix: (Units=1/GPa)
#
#
# Indices 1 2 3 4 5 6 
#
# 1 0.016080 -0.001105 -0.003523 0.000000 0.000000 0.000000
# 2 -0.001105 0.015484 -0.003850 0.000000 0.000000 0.000000
# 3 -0.003523 -0.003850 0.011673 0.000000 0.000000 0.000000
# 4 0.000000 0.000000 0.000000 0.035261 0.000000 0.000000
# 5 0.000000 0.000000 0.000000 0.000000 -0.069244 0.000000
# 6 0.000000 0.000000 0.000000 0.000000 0.000000 0.046798
#
#
# Mechanical properties :
#
#
# Convention : Reuss Voigt Hill
#
# Bulk Modulus (GPa) = 38.05043 40.71909 39.38476
# Shear Modulus (GPa) = 61.14762 19.06304 40.10533
#
# Velocity S-wave (km/s) = 5.65721 3.15870 4.58156
# Velocity P-wave (km/s) = 7.91121 5.88347 6.97146
#
# Compressibility (1/GPa) = 0.02628091
#
# Stress axis : x y z
#
# Youngs Moduli (GPa) = 62.18840 64.58078 85.66782
#
# Poissons Ratio (x) = 0.07136 0.30183
# Poissons Ratio (y) = 0.06872 0.32983
# Poissons Ratio (z) = 0.21911 0.24864
#
# Static dielectric constant tensor:
#      x y z
#    x 3.478620 0.000000 0.000000 
#    y 0.000000 3.398490 0.000000 
#    z 0.000000 0.000000 3.688380 
# 
# 
# High freq. dielectric constant tensor:
#      x y z
#    x 1.739830 0.000000 0.000000 
#    y 0.000000 1.730730 0.000000 
#    z 0.000000 0.000000 1.762230 
# 
# From -- ./inp_files/1972.got.cif
#   From: 2010.03.12/outbox.cif.g09.slc.cpg/sg26_1_cif.got.tgz:1972.got - 2010.04.14 03:33:09.
