data_PCOD8167483
_publ_section_title
;
Structure prediction by ZEFSAII (Michael W. Deem and Ramdas Pophale) SiO2 
 PCOD8167483
Probable space group: P M C 21
;
_chemical_formula_sum "Si O2"
_cell_formula_units_Z 24
_cell_length_a 12.404934
_cell_length_b 22.507487
_cell_length_c 4.980460
_cell_angle_alpha 90.000000
_cell_angle_beta 90.000000
_cell_angle_gamma 90.000000
_cell_volume 1390.563810
_symmetry_space_group_name_H-M "P M C 21"
_symmetry_group_IT_number 26
_symmetry_cell_setting 'orthorhombic'
loop_
_space_group_symop_operation_xyz
x,y,z
-x,-y,1/2+z
-x,y,z
x,-y,1/2+z
loop_
_atom_site_type_symbol
_atom_site_label
_atom_site_fract_x
_atom_site_fract_y
_atom_site_fract_z
Si Si1 0.876159 0.165977 0.933390
Si Si2 0.128218 0.035735 0.074328
Si Si3 0.876791 0.461177 0.661257
Si Si4 0.796612 0.769424 0.933006
Si Si5 0.741387 0.345170 0.667875
Si Si6 0.625208 0.697327 0.703891
O O1 0.803935 0.184159 0.677504
O O2 0.000000 0.162232 0.836058
O O3 0.829263 0.102401 0.027285
O O4 0.871399 0.211228 0.184476
O O5 0.000000 0.037690 0.069659
O O6 0.172192 0.010434 0.353500
O O7 0.852397 0.514764 0.865200
O O8 0.799958 0.406465 0.727467
O O9 0.000000 0.439744 0.692022
O O10 0.828275 0.704159 0.056197
O O11 0.674475 0.760492 0.814434
O O12 0.685899 0.321663 0.935694
O O13 0.649198 0.352229 0.435815
O O14 0.500000 0.704860 0.645253
#
# Coordination Sequence:
#
# PCOD8167483 Si02
#       6
#     4   4   4   4   4   4
#     4  11  20  31  48  73 114 142 165 211 248 295
#     4   9  17  29  44  64  94 143 185 201 231 284
#     4  10  21  36  55  77 105 141 175 207 243 294
#     4  10  20  35  48  81 100 136 169 209 260 312
#     4  10  20  36  55  80 100 137 167 216 254 315
#     4  10  20  37  57  75 101 133 166 214 271 312
#
# _framework density 17.259186
#
# number of rings (size 3 to 8) (size 9 to 14) (size 15 to 20)
#    1.000    1.000    1.667    3.000    0.000    4.000 
#    0.000    0.000    0.000   10.000    0.000    0.000 
#    0.000   13.333    0.000    0.000    0.000    0.000 
#
# Total GULP energy -297314.910162 kJ/mol
# GULP energy per Si atom -12388.121257 kJ/mol
# Density = 1.721990 g / cm^3
# Si number density = 17.259186 Si / 1000 Ang^3
#
#
#
# Elastic Constant Matrix: (Units=GPa)
#
#
# Indices 1 2 3 4 5 6 
#
# 1 58.8974 39.2918 24.4378 0.0000 0.0000 0.0000
# 2 39.2918 74.1164 19.9571 0.0000 0.0000 0.0000
# 3 24.4378 19.9571 107.8318 0.0000 0.0000 0.0000
# 4 0.0000 0.0000 0.0000 21.9701 0.0000 0.0000
# 5 0.0000 0.0000 0.0000 0.0000 19.9088 0.0000
# 6 0.0000 0.0000 0.0000 0.0000 0.0000 3.1995
#
#
#
# Elastic Compliance Matrix: (Units=1/GPa)
#
#
# Indices 1 2 3 4 5 6 
#
# 1 0.027630 -0.013641 -0.003737 0.000000 0.000000 0.000000
# 2 -0.013641 0.020935 -0.000783 0.000000 0.000000 0.000000
# 3 -0.003737 -0.000783 0.010266 0.000000 0.000000 0.000000
# 4 0.000000 0.000000 0.000000 0.045516 0.000000 0.000000
# 5 0.000000 0.000000 0.000000 0.000000 0.050229 0.000000
# 6 0.000000 0.000000 0.000000 0.000000 0.000000 0.312547
#
#
# Mechanical properties :
#
#
# Convention : Reuss Voigt Hill
#
# Bulk Modulus (GPa) = 44.42970 45.35767 44.89369
# Shear Modulus (GPa) = 9.78574 19.49294 14.63934
#
# Velocity S-wave (km/s) = 2.38373 3.36434 2.91556
# Velocity P-wave (km/s) = 5.77709 6.43654 6.11571
#
# Compressibility (1/GPa) = 0.02250747
#
# Stress axis : x y z
#
# Youngs Moduli (GPa) = 36.19309 47.76734 97.41327
#
# Poissons Ratio (x) = 0.65160 0.36403
# Poissons Ratio (y) = 0.49372 0.07628
# Poissons Ratio (z) = 0.13525 0.03740
#
# Static dielectric constant tensor:
#      x y z
#    x 2.802280 0.000000 0.000000 
#    y 0.000000 3.158860 0.000000 
#    z 0.000000 0.000000 3.478010 
# 
# 
# High freq. dielectric constant tensor:
#      x y z
#    x 1.609890 0.000000 0.000000 
#    y 0.000000 1.655960 0.000000 
#    z 0.000000 0.000000 1.696980 
# 
# From -- ./inp_files/484.got.cif
#   From: 2010.03.12/outbox.cif.g09.slc.cpg/sg26_1_cif.got.tgz:484.got - 2010.04.14 03:33:09.
