data_PCOD8167237
_publ_section_title
;
Structure prediction by ZEFSAII (Michael W. Deem and Ramdas Pophale) SiO2 
 PCOD8167237
Probable space group: P M C 21
;
_chemical_formula_sum "Si O2"
_cell_formula_units_Z 32
_cell_length_a 9.181094
_cell_length_b 12.362327
_cell_length_c 14.631098
_cell_angle_alpha 90.000000
_cell_angle_beta 90.000000
_cell_angle_gamma 90.000000
_cell_volume 1660.625032
_symmetry_space_group_name_H-M "P M C 21"
_symmetry_group_IT_number 26
_symmetry_cell_setting 'orthorhombic'
loop_
_space_group_symop_operation_xyz
x,y,z
-x,-y,1/2+z
-x,y,z
x,-y,1/2+z
loop_
_atom_site_type_symbol
_atom_site_label
_atom_site_fract_x
_atom_site_fract_y
_atom_site_fract_z
Si Si1 0.673439 0.683493 0.742020
Si Si2 0.327442 0.394245 0.046596
Si Si3 0.339360 0.040913 0.448812
Si Si4 0.672233 0.398881 0.438361
Si Si5 0.171276 0.097822 0.277554
Si Si6 0.332062 0.198448 0.926063
Si Si7 0.337060 0.221970 0.581909
Si Si8 0.829415 0.146250 0.746598
O O1 0.500000 0.700353 0.744996
O O2 0.720740 0.611302 0.653593
O O3 0.729714 0.622135 0.834457
O O4 0.744976 0.802332 0.730595
O O5 0.500000 0.402145 0.043921
O O6 0.261300 0.495175 0.988958
O O7 0.271078 0.286639 0.996453
O O8 0.500000 0.053714 0.402028
O O9 0.217769 0.091889 0.383388
O O10 0.337741 0.100327 0.545061
O O11 0.308500 0.916979 0.473883
O O12 0.500000 0.409064 0.432305
O O13 0.719903 0.298972 0.501354
O O14 0.000000 0.119453 0.270493
O O15 0.214541 0.980609 0.234174
O O16 0.500000 0.221083 0.901272
O O17 0.240540 0.201544 0.834256
O O18 0.500000 0.256630 0.613915
O O19 0.225971 0.222334 0.665148
O O20 0.000000 0.157333 0.755402
#
# Coordination Sequence:
#
# PCOD8167237 Si02
#       8
#     4   4   4   4   4   4   4   4
#     4  10  19  34  57  81 108 143 180 230 276 320
#     4   9  19  33  56  86 110 140 184 227 275 325
#     4   9  17  31  52  80 110 139 176 222 274 324
#     4   9  18  34  54  83 114 140 180 227 274 324
#     4  10  20  34  52  77 110 146 184 224 270 326
#     4   9  18  34  54  80 111 141 178 227 274 323
#     4  10  19  32  54  83 111 143 180 225 272 320
#     4  10  22  36  51  78 114 152 186 222 273 330
#
# _framework density 19.269852
#
# number of rings (size 3 to 8) (size 9 to 14) (size 15 to 20)
#    0.000    2.500    1.250    0.750    1.750    3.000 
#    0.000    4.375    0.000    4.500    0.000    0.000 
#    0.000    0.000    0.000    0.000    0.000    0.000 
#
# Total GULP energy -396580.132217 kJ/mol
# GULP energy per Si atom -12393.129132 kJ/mol
# Density = 1.922599 g / cm^3
# Si number density = 19.269852 Si / 1000 Ang^3
#
#
#
# Elastic Constant Matrix: (Units=GPa)
#
#
# Indices 1 2 3 4 5 6 
#
# 1 40.1088 23.3791 32.4557 0.0000 0.0000 0.0000
# 2 23.3791 106.0172 77.0002 0.0000 0.0000 0.0000
# 3 32.4557 77.0002 142.9162 0.0000 0.0000 0.0000
# 4 0.0000 0.0000 0.0000 25.2916 0.0000 0.0000
# 5 0.0000 0.0000 0.0000 0.0000 2.1919 0.0000
# 6 0.0000 0.0000 0.0000 0.0000 0.0000 15.8888
#
#
#
# Elastic Compliance Matrix: (Units=1/GPa)
#
#
# Indices 1 2 3 4 5 6 
#
# 1 0.031056 -0.002836 -0.005525 0.000000 0.000000 0.000000
# 2 -0.002836 0.015755 -0.007845 0.000000 0.000000 0.000000
# 3 -0.005525 -0.007845 0.012478 0.000000 0.000000 0.000000
# 4 0.000000 0.000000 0.000000 0.039539 0.000000 0.000000
# 5 0.000000 0.000000 0.000000 0.000000 0.456215 0.000000
# 6 0.000000 0.000000 0.000000 0.000000 0.000000 0.062938
#
#
# Mechanical properties :
#
#
# Convention : Reuss Voigt Hill
#
# Bulk Modulus (GPa) = 37.20388 61.63470 49.41929
# Shear Modulus (GPa) = 7.58322 19.08828 13.33575
#
# Velocity S-wave (km/s) = 1.98590 3.15076 2.63354
# Velocity P-wave (km/s) = 4.96056 6.72985 5.91177
#
# Compressibility (1/GPa) = 0.02687892
#
# Stress axis : x y z
#
# Youngs Moduli (GPa) = 32.20013 63.47053 80.13937
#
# Poissons Ratio (x) = 0.17999 0.44275
# Poissons Ratio (y) = 0.09132 0.62866
# Poissons Ratio (z) = 0.17790 0.49790
#
# Static dielectric constant tensor:
#      x y z
#    x 3.200990 0.000000 0.000000 
#    y 0.000000 3.685830 0.000000 
#    z 0.000000 0.000000 3.559590 
# 
# 
# High freq. dielectric constant tensor:
#      x y z
#    x 1.709690 0.000000 0.000000 
#    y 0.000000 1.749330 0.000000 
#    z 0.000000 0.000000 1.747540 
# 
# From -- ./inp_files/4314.got.cif
#   From: 2010.03.12/outbox.cif.g09.slc.cpg/sg26_3_cif.got.tgz:4314.got - 2010.04.14 03:33:09.
