data_PCOD8167308
_publ_section_title
;
Structure prediction by ZEFSAII (Michael W. Deem and Ramdas Pophale) SiO2 
 PCOD8167308
Probable space group: P M C 21
;
_chemical_formula_sum "Si O2"
_cell_formula_units_Z 32
_cell_length_a 9.273568
_cell_length_b 18.950379
_cell_length_c 9.958935
_cell_angle_alpha 90.000000
_cell_angle_beta 90.000000
_cell_angle_gamma 90.000000
_cell_volume 1750.159617
_symmetry_space_group_name_H-M "P M C 21"
_symmetry_group_IT_number 26
_symmetry_cell_setting 'orthorhombic'
loop_
_space_group_symop_operation_xyz
x,y,z
-x,-y,1/2+z
-x,y,z
x,-y,1/2+z
loop_
_atom_site_type_symbol
_atom_site_label
_atom_site_fract_x
_atom_site_fract_y
_atom_site_fract_z
Si Si1 0.831747 0.073474 0.626810
Si Si2 0.834558 0.835451 0.871690
Si Si3 0.329277 0.148883 0.858391
Si Si4 0.667326 0.298077 0.430297
Si Si5 0.334253 0.297557 0.742805
Si Si6 0.831721 0.564167 0.246836
Si Si7 0.830865 0.562010 0.938363
Si Si8 0.164905 0.087710 0.097587
O O1 0.785675 0.123857 0.505211
O O2 0.740481 0.093384 0.756753
O O3 0.000000 0.080432 0.662578
O O4 0.793537 0.994043 0.585027
O O5 0.736660 0.766631 0.849040
O O6 0.811209 0.888793 0.749942
O O7 0.000000 0.810865 0.883078
O O8 0.500000 0.139843 0.852542
O O9 0.282573 0.228483 0.822092
O O10 0.270918 0.133565 0.006270
O O11 0.500000 0.303789 0.393301
O O12 0.694582 0.283582 0.586635
O O13 0.744812 0.370034 0.386357
O O14 0.500000 0.314791 0.770779
O O15 0.244433 0.364247 0.794578
O O16 0.779118 0.502277 0.345176
O O17 0.000000 0.577324 0.262887
O O18 0.791654 0.544577 0.093169
O O19 0.000000 0.577037 0.921396
O O20 0.000000 0.100308 0.051851
#
# Coordination Sequence:
#
# PCOD8167308 Si02
#       8
#     4   4   4   4   4   4   4   4
#     4  10  20  37  62  83 105 141 187 232 276 329
#     4  10  20  35  57  82 108 142 184 230 277 323
#     4  11  22  37  56  82 115 148 183 226 275 328
#     4  10  19  34  56  79 107 144 183 222 264 320
#     4   9  19  35  54  77 108 143 181 221 259 316
#     4   9  18  33  55  79 105 136 173 219 264 312
#     4   9  18  34  54  79 107 135 174 220 266 315
#     4  10  22  39  56  81 113 145 183 232 281 327
#
# _framework density 18.284044999999999
#
# number of rings (size 3 to 8) (size 9 to 14) (size 15 to 20)
#    0.000    2.250    1.250    1.500    0.000    5.000 
#    2.250    1.250    0.000    0.000    0.000    0.000 
#    0.000    0.000    0.000    0.000    0.000    0.000 
#
# Total GULP energy -396932.201294 kJ/mol
# GULP energy per Si atom -12404.131290 kJ/mol
# Density = 1.824243 g / cm^3
# Si number density = 18.284045 Si / 1000 Ang^3
#
#
#
# Elastic Constant Matrix: (Units=GPa)
#
#
# Indices 1 2 3 4 5 6 
#
# 1 63.1300 55.5056 26.1001 0.0000 0.0000 0.0000
# 2 55.5056 133.6757 34.4029 0.0000 0.0000 0.0000
# 3 26.1001 34.4029 56.1503 0.0000 0.0000 0.0000
# 4 0.0000 0.0000 0.0000 31.2711 0.0000 0.0000
# 5 0.0000 0.0000 0.0000 0.0000 26.2663 0.0000
# 6 0.0000 0.0000 0.0000 0.0000 0.0000 24.0056
#
#
#
# Elastic Compliance Matrix: (Units=1/GPa)
#
#
# Indices 1 2 3 4 5 6 
#
# 1 0.026932 -0.009451 -0.006728 0.000000 0.000000 0.000000
# 2 -0.009451 0.012198 -0.003080 0.000000 0.000000 0.000000
# 3 -0.006728 -0.003080 0.022824 0.000000 0.000000 0.000000
# 4 0.000000 0.000000 0.000000 0.031978 0.000000 0.000000
# 5 0.000000 0.000000 0.000000 0.000000 0.038072 0.000000
# 6 0.000000 0.000000 0.000000 0.000000 0.000000 0.041657
#
#
# Mechanical properties :
#
#
# Convention : Reuss Voigt Hill
#
# Bulk Modulus (GPa) = 42.67196 53.88591 48.27894
# Shear Modulus (GPa) = 22.72822 25.43844 24.08333
#
# Velocity S-wave (km/s) = 3.52953 3.73405 3.63323
# Velocity P-wave (km/s) = 6.32449 6.93732 6.63798
#
# Compressibility (1/GPa) = 0.02343459
#
# Stress axis : x y z
#
# Youngs Moduli (GPa) = 37.13113 81.98092 43.81357
#
# Poissons Ratio (x) = 0.77482 0.29477
# Poissons Ratio (y) = 0.35093 0.13496
# Poissons Ratio (z) = 0.24981 0.25254
#
# Static dielectric constant tensor:
#      x y z
#    x 3.331560 0.000000 0.000000 
#    y 0.000000 3.422470 0.000000 
#    z 0.000000 0.000000 3.255960 
# 
# 
# High freq. dielectric constant tensor:
#      x y z
#    x 1.704980 0.000000 0.000000 
#    y 0.000000 1.716860 0.000000 
#    z 0.000000 0.000000 1.697780 
# 
# From -- ./inp_files/1589.got.cif
#   From: 2010.03.12/outbox.cif.g09.slc.cpg/sg26_1_cif.got.tgz:1589.got - 2010.04.14 03:33:09.
