data_PCOD8167046
_publ_section_title
;
Structure prediction by ZEFSAII (Michael W. Deem and Ramdas Pophale) SiO2 
 PCOD8167046
Probable space group: P M C 21
;
_chemical_formula_sum "Si O2"
_cell_formula_units_Z 24
_cell_length_a 18.102934
_cell_length_b 17.374242
_cell_length_c 5.277107
_cell_angle_alpha 90.000000
_cell_angle_beta 90.000000
_cell_angle_gamma 90.000000
_cell_volume 1659.780793
_symmetry_space_group_name_H-M "P M C 21"
_symmetry_group_IT_number 26
_symmetry_cell_setting 'orthorhombic'
loop_
_space_group_symop_operation_xyz
x,y,z
-x,-y,1/2+z
-x,y,z
x,-y,1/2+z
loop_
_atom_site_type_symbol
_atom_site_label
_atom_site_fract_x
_atom_site_fract_y
_atom_site_fract_z
Si Si1 0.350254 0.087912 0.782970
Si Si2 0.087792 0.804349 0.306424
Si Si3 0.088089 0.457009 0.307161
Si Si4 0.912225 0.283374 0.306642
Si Si5 0.587036 0.083492 0.282984
Si Si6 0.185308 0.050154 0.783454
O O1 0.381235 0.128856 0.527835
O O2 0.262439 0.095730 0.801359
O O3 0.373975 0.999059 0.762155
O O4 0.388770 0.128222 0.026798
O O5 0.116510 0.759514 0.555080
O O6 0.119052 0.890071 0.309218
O O7 0.000000 0.810976 0.306155
O O8 0.116822 0.759943 0.057194
O O9 0.118164 0.499971 0.557209
O O10 0.118948 0.370122 0.307084
O O11 0.000000 0.457102 0.307052
O O12 0.000000 0.285408 0.307793
O O13 0.500000 0.073079 0.302901
O O14 0.178680 0.010109 0.511204
#
# Coordination Sequence:
#
# PCOD8167046 Si02
#       6
#     4   4   4   4   4   4
#     4  10  16  27  37  56  75  93 115 150 201 244
#     4  10  21  33  45  57  71 102 137 170 217 249
#     4   9  15  23  40  64  83  99 115 138 183 238
#     4   9  17  31  44  58  81  99 122 158 195 248
#     4  10  16  25  41  58  76  94 112 139 197 256
#     4  12  21  33  45  55  74  97 132 183 221 247
#
# _framework density 14.459740999999999
#
# number of rings (size 3 to 8) (size 9 to 14) (size 15 to 20)
#    0.000    2.000    3.333    4.500    0.000    4.667 
#    0.000    0.000    0.000    0.000    0.000    0.000 
#    0.000    0.000    0.000    0.000    0.000    0.000 
#
# Total GULP energy -297503.045571 kJ/mol
# GULP energy per Si atom -12395.960232 kJ/mol
# Density = 1.442683 g / cm^3
# Si number density = 14.459741 Si / 1000 Ang^3
#
#
#
# Elastic Constant Matrix: (Units=GPa)
#
#
# Indices 1 2 3 4 5 6 
#
# 1 33.2060 18.6505 17.0653 0.0000 0.0000 0.0000
# 2 18.6505 44.6218 26.9415 0.0000 0.0000 0.0000
# 3 17.0653 26.9415 134.8422 0.0000 0.0000 0.0000
# 4 0.0000 0.0000 0.0000 14.0899 0.0000 0.0000
# 5 0.0000 0.0000 0.0000 0.0000 14.9900 0.0000
# 6 0.0000 0.0000 0.0000 0.0000 0.0000 0.6076
#
#
#
# Elastic Compliance Matrix: (Units=1/GPa)
#
#
# Indices 1 2 3 4 5 6 
#
# 1 0.039798 -0.015458 -0.001948 0.000000 0.000000 0.000000
# 2 -0.015458 0.031489 -0.004335 0.000000 0.000000 0.000000
# 3 -0.001948 -0.004335 0.008529 0.000000 0.000000 0.000000
# 4 0.000000 0.000000 0.000000 0.070973 0.000000 0.000000
# 5 0.000000 0.000000 0.000000 0.000000 0.066711 0.000000
# 6 0.000000 0.000000 0.000000 0.000000 0.000000 1.645690
#
#
# Mechanical properties :
#
#
# Convention : Reuss Voigt Hill
#
# Bulk Modulus (GPa) = 27.52307 37.55383 32.53845
# Shear Modulus (GPa) = 2.60582 15.93835 9.27208
#
# Velocity S-wave (km/s) = 1.34389 3.32363 2.53501
# Velocity P-wave (km/s) = 4.63504 6.38407 5.57853
#
# Compressibility (1/GPa) = 0.03633316
#
# Stress axis : x y z
#
# Youngs Moduli (GPa) = 25.12659 31.75706 117.24962
#
# Poissons Ratio (x) = 0.49091 0.22843
# Poissons Ratio (y) = 0.38841 0.50830
# Poissons Ratio (z) = 0.04895 0.13767
#
# Static dielectric constant tensor:
#      x y z
#    x 2.517010 0.000000 0.000000 
#    y 0.000000 2.512220 0.000000 
#    z 0.000000 0.000000 4.794100 
# 
# 
# High freq. dielectric constant tensor:
#      x y z
#    x 1.511470 0.000000 0.000000 
#    y 0.000000 1.499160 0.000000 
#    z 0.000000 0.000000 1.591600 
# 
# From -- ./inp_files/599.got.cif
#   From: 2010.03.12/outbox.cif.g09.slc.cpg/sg26_1_cif.got.tgz:599.got - 2010.04.14 03:33:09.
