data_PCOD8167008
_publ_section_title
;
Structure prediction by ZEFSAII (Michael W. Deem and Ramdas Pophale) SiO2 
 PCOD8167008
Probable space group: P M M 2
;
_chemical_formula_sum "Si O2"
_cell_formula_units_Z 28
_cell_length_a 19.893903
_cell_length_b 10.086549
_cell_length_c 7.719146
_cell_angle_alpha 90.000000
_cell_angle_beta 90.000000
_cell_angle_gamma 90.000000
_cell_volume 1548.930223
_symmetry_space_group_name_H-M "P M M 2"
_symmetry_group_IT_number 25
_symmetry_cell_setting 'orthorhombic'
loop_
_space_group_symop_operation_xyz
x,y,z
-x,-y,z
-x,y,z
x,-y,z
loop_
_atom_site_type_symbol
_atom_site_label
_atom_site_fract_x
_atom_site_fract_y
_atom_site_fract_z
Si Si1 0.316958 0.852619 0.401130
Si Si2 0.424917 0.351936 0.989454
Si Si3 0.167487 0.842323 0.003382
Si Si4 0.832513 0.157677 0.387683
Si Si5 0.575083 0.648064 0.401612
Si Si6 0.924183 0.158364 0.695532
Si Si7 0.316958 0.147381 0.989936
O O1 0.242315 0.800733 0.449461
O O2 0.371650 0.751869 0.481808
O O3 0.323469 0.859120 0.195533
O O4 0.329549 0.000000 0.478202
O O5 0.500000 0.311915 0.928439
O O6 0.407600 0.500000 0.922703
O O7 0.421167 0.349449 0.195533
O O8 0.371650 0.248131 0.909258
O O9 0.151224 0.784982 0.195532
O O10 0.242315 0.800734 0.941604
O O11 0.164674 0.000000 0.011375
O O12 0.113317 0.786617 0.866734
O O13 0.886684 0.213382 0.524330
O O14 0.835325 0.000000 0.379689
O O15 0.500000 0.688085 0.462626
O O16 0.592400 0.500000 0.468363
O O17 0.000000 0.213276 0.695532
O O18 0.923295 0.000000 0.695533
O O19 0.329549 0.000000 0.912864
#
# Coordination Sequence:
#
# PCOD8167008 Si02
#       7
#     4   4   4   4   4   4   4
#     4   8  13  21  33  49  72 104 137 167 202 243
#     4   8  13  20  30  48  76 105 132 168 210 244
#     4   8  14  24  36  52  77 106 135 169 205 240
#     4   8  14  24  36  52  77 106 135 169 205 240
#     4   8  13  20  30  48  76 105 132 168 210 244
#     4   9  16  24  36  56  80 107 136 162 199 253
#     4   8  13  21  33  49  72 104 137 167 202 243
#
# _framework density 18.076993000000002
#
# number of rings (size 3 to 8) (size 9 to 14) (size 15 to 20)
#    0.000    3.857    0.000    2.571    0.000    1.143 
#    0.000    5.714    0.000    0.000    0.000    2.000 
#    0.000   10.286    0.000   12.000    0.000   11.429 
#
# Total GULP energy -346926.305178 kJ/mol
# GULP energy per Si atom -12390.225185 kJ/mol
# Density = 1.803585 g / cm^3
# Si number density = 18.076993 Si / 1000 Ang^3
#
#
#
# Elastic Constant Matrix: (Units=GPa)
#
#
# Indices 1 2 3 4 5 6 
#
# 1 180.6172 65.7506 56.7442 0.0000 0.0000 0.0000
# 2 65.7506 57.4519 20.4423 0.0000 0.0000 0.0000
# 3 56.7442 20.4423 63.2641 0.0000 0.0000 0.0000
# 4 0.0000 0.0000 0.0000 0.9184 0.0000 0.0000
# 5 0.0000 0.0000 0.0000 0.0000 0.3597 0.0000
# 6 0.0000 0.0000 0.0000 0.0000 0.0000 5.6062
#
#
#
# Elastic Compliance Matrix: (Units=1/GPa)
#
#
# Indices 1 2 3 4 5 6 
#
# 1 0.011695 -0.010906 -0.006966 0.000000 0.000000 0.000000
# 2 -0.010906 0.029837 0.000141 0.000000 0.000000 0.000000
# 3 -0.006966 0.000141 0.022009 0.000000 0.000000 0.000000
# 4 0.000000 0.000000 0.000000 1.088810 0.000000 0.000000
# 5 0.000000 0.000000 0.000000 0.000000 2.780247 0.000000
# 6 0.000000 0.000000 0.000000 0.000000 0.000000 0.178372
#
#
# Mechanical properties :
#
#
# Convention : Reuss Voigt Hill
#
# Bulk Modulus (GPa) = 35.61323 65.24527 50.42925
# Shear Modulus (GPa) = 1.20314 11.93661 6.56987
#
# Velocity S-wave (km/s) = 0.81671 2.57246 1.90847
# Velocity P-wave (km/s) = 4.54235 6.70781 5.72834
#
# Compressibility (1/GPa) = 0.02807945
#
# Stress axis : x y z
#
# Youngs Moduli (GPa) = 85.50577 33.51544 45.43552
#
# Poissons Ratio (x) = 0.36552 0.31650
# Poissons Ratio (y) = 0.93252 -0.00640
# Poissons Ratio (z) = 0.59562 -0.00472
#
# Static dielectric constant tensor:
#      x y z
#    x 3.634940 0.000000 0.000000 
#    y 0.000000 3.160630 0.000000 
#    z 0.000000 0.000000 3.191900 
# 
# 
# High freq. dielectric constant tensor:
#      x y z
#    x 1.702500 0.000000 0.000000 
#    y 0.000000 1.638940 0.000000 
#    z 0.000000 0.000000 1.676360 
# 
# From -- ./inp_files/3490.got.cif
#   From: 2010.03.12/outbox.cif.g09.slc.cpg/sg25_2_cif.got.tgz:3490.got - 2010.04.14 03:30:10.
