data_PCOD8167832
_publ_section_title
;
Structure prediction by ZEFSAII (Michael W. Deem and Ramdas Pophale) SiO2 
 PCOD8167832
Probable space group: P C C 2
;
_chemical_formula_sum "Si O2"
_cell_formula_units_Z 30
_cell_length_a 14.075233
_cell_length_b 13.324412
_cell_length_c 8.556795
_cell_angle_alpha 90.000000
_cell_angle_beta 90.000000
_cell_angle_gamma 90.000000
_cell_volume 1604.777303
_symmetry_space_group_name_H-M "P C C 2"
_symmetry_group_IT_number 27
_symmetry_cell_setting 'orthorhombic'
loop_
_space_group_symop_operation_xyz
x,y,z
-x,-y,z
-x,y,1/2+z
x,-y,1/2+z
loop_
_atom_site_type_symbol
_atom_site_label
_atom_site_fract_x
_atom_site_fract_y
_atom_site_fract_z
Si Si1 0.967778 0.172665 0.381910
Si Si2 0.000000 0.500000 0.638767
Si Si3 0.795205 0.135160 0.564572
Si Si4 0.122205 0.082738 0.574475
Si Si5 0.421363 0.126742 0.516978
Si Si6 0.908255 0.632457 0.382671
Si Si7 0.254112 0.775095 0.891573
Si Si8 0.613421 0.087593 0.381369
O O1 0.883792 0.201434 0.503477
O O2 0.918093 0.129511 0.231059
O O3 0.037324 0.086084 0.448007
O O4 0.028144 0.270889 0.343338
O O5 0.942748 0.582452 0.542177
O O6 0.919469 0.446764 0.743420
O O7 0.750893 0.185569 0.715575
O O8 0.715852 0.129903 0.429891
O O9 0.838545 0.027196 0.608058
O O10 0.208514 0.149002 0.514869
O O11 0.363817 0.224379 0.450569
O O12 0.533030 0.144102 0.484684
O O13 0.403456 0.107091 0.699013
O O14 0.388543 0.031113 0.414049
O O15 0.797932 0.666575 0.400864
#
# Coordination Sequence:
#
# PCOD8167832 Si02
#       8
#     4   2   4   4   4   4   4   4
#     4  11  22  35  50  73 109 142 192 232 277 319
#     4  10  20  38  60  76 108 140 184 224 308 356
#     4  12  22  33  49  75 108 153 194 227 266 318
#     4  11  22  34  47  70 106 155 190 230 262 314
#     4  11  21  37  53  75 106 149 191 243 265 317
#     4  10  21  37  56  81 106 145 177 235 283 353
#     4  11  21  35  55  77 111 139 193 232 275 320
#     4  11  22  35  54  74 107 152 200 225 275 302
#
# _framework density 18.694182999999999
#
# number of rings (size 3 to 8) (size 9 to 14) (size 15 to 20)
#    0.000    1.067    1.333    9.200    0.000    2.133 
#    0.000    0.000    0.000    0.000    0.000    0.000 
#    0.000   36.267    0.000    0.000    0.000    0.000 
#
# Total GULP energy -371948.135680 kJ/mol
# GULP energy per Si atom -12398.271189 kJ/mol
# Density = 1.865163 g / cm^3
# Si number density = 18.694183 Si / 1000 Ang^3
#
#
#
# Elastic Constant Matrix: (Units=GPa)
#
#
# Indices 1 2 3 4 5 6 
#
# 1 93.9777 26.5525 9.1022 0.0000 0.0000 0.0000
# 2 26.5525 51.8110 23.3482 0.0000 0.0000 0.0000
# 3 9.1022 23.3482 95.0978 0.0000 0.0000 0.0000
# 4 0.0000 0.0000 0.0000 14.6432 0.0000 0.0000
# 5 0.0000 0.0000 0.0000 0.0000 33.4426 0.0000
# 6 0.0000 0.0000 0.0000 0.0000 0.0000 23.3014
#
#
#
# Elastic Compliance Matrix: (Units=1/GPa)
#
#
# Indices 1 2 3 4 5 6 
#
# 1 0.012457 -0.006574 0.000422 0.000000 0.000000 0.000000
# 2 -0.006574 0.025172 -0.005551 0.000000 0.000000 0.000000
# 3 0.000422 -0.005551 0.011838 0.000000 0.000000 0.000000
# 4 0.000000 0.000000 0.000000 0.068291 0.000000 0.000000
# 5 0.000000 0.000000 0.000000 0.000000 0.029902 0.000000
# 6 0.000000 0.000000 0.000000 0.000000 0.000000 0.042916
#
#
# Mechanical properties :
#
#
# Convention : Reuss Voigt Hill
#
# Bulk Modulus (GPa) = 38.37264 39.87690 39.12477
# Shear Modulus (GPa) = 22.45482 26.40303 24.42892
#
# Velocity S-wave (km/s) = 3.46954 3.76222 3.61884
# Velocity P-wave (km/s) = 6.05156 6.34428 6.19965
#
# Compressibility (1/GPa) = 0.02606024
#
# Stress axis : x y z
#
# Youngs Moduli (GPa) = 80.27297 39.72725 84.47411
#
# Poissons Ratio (x) = 0.26118 -0.03563
# Poissons Ratio (y) = 0.52774 0.46890
# Poissons Ratio (z) = -0.03386 0.22052
#
# Static dielectric constant tensor:
#      x y z
#    x 4.166730 0.000000 0.000000 
#    y 0.000000 3.399460 0.000000 
#    z 0.000000 0.000000 3.733970 
# 
# 
# High freq. dielectric constant tensor:
#      x y z
#    x 1.730940 0.000000 0.000000 
#    y 0.000000 1.669630 0.000000 
#    z 0.000000 0.000000 1.752130 
# 
# From -- ./inp_files/1607.got.cif
#   From: 2010.03.12/outbox.cif.g09.slc.cpg/sg27_1_cif.got.tgz:1607.got - 2010.04.14 03:36:05.
