data_PCOD8167081
_publ_section_title
;
Structure prediction by ZEFSAII (Michael W. Deem and Ramdas Pophale) SiO2 
 PCOD8167081
Probable space group: P M C 21
;
_chemical_formula_sum "Si O2"
_cell_formula_units_Z 32
_cell_length_a 16.750466
_cell_length_b 5.343088
_cell_length_c 16.792830
_cell_angle_alpha 90.000000
_cell_angle_beta 90.000000
_cell_angle_gamma 90.000000
_cell_volume 1502.945084
_symmetry_space_group_name_H-M "P M C 21"
_symmetry_group_IT_number 26
_symmetry_cell_setting 'orthorhombic'
loop_
_space_group_symop_operation_xyz
x,y,z
-x,-y,1/2+z
-x,y,z
x,-y,1/2+z
loop_
_atom_site_type_symbol
_atom_site_label
_atom_site_fract_x
_atom_site_fract_y
_atom_site_fract_z
Si Si1 0.588343 1.000000 0.952760
Si Si2 0.617064 0.000000 0.629719
Si Si3 0.676145 0.500000 0.471441
Si Si4 0.358066 0.500000 0.161905
Si Si5 0.850998 0.500000 0.402675
Si Si6 0.188548 0.500000 0.219747
Si Si7 0.910367 1.000000 0.975070
Si Si8 0.809488 1.000000 0.131026
O O1 0.500000 1.000000 0.912565
O O2 0.636312 0.253493 0.930962
O O3 0.636312 0.746507 0.930962
O O4 0.572888 1.000000 0.046759
O O5 0.590587 0.750939 0.677822
O O6 0.713726 0.000000 0.621120
O O7 0.590587 0.249061 0.677822
O O8 0.668642 0.500000 0.567705
O O9 0.768582 0.500000 0.450803
O O10 0.284342 0.500000 0.221536
O O11 0.841042 0.500000 0.308730
O O12 0.899563 0.750351 0.422924
O O13 0.899563 0.249649 0.422924
O O14 0.158675 0.248129 0.175824
O O15 0.158675 0.751871 0.175824
O O16 0.000000 0.000000 0.010057
O O17 0.845285 1.000000 0.043851
#
# Coordination Sequence:
#
# PCOD8167081 Si02
#       8
#     4   4   4   4   4   4   4   4
#     4  10  18  29  48  82 116 144 185 238 286 330
#     4   8  14  25  46  71 100 133 170 224 272 306
#     4  10  19  33  55  80 109 151 190 236 284 337
#     4   8  14  27  46  72 100 130 177 222 265 314
#     4  12  23  40  62  88 120 151 197 244 292 351
#     4  10  20  34  59  88 111 144 192 248 287 330
#     4  12  25  42  62  86 118 158 192 237 299 357
#     4  10  19  38  60  83 112 147 199 241 281 349
#
# _framework density 21.291529000000001
#
# number of rings (size 3 to 8) (size 9 to 14) (size 15 to 20)
#    0.000    2.000    0.000    7.500    0.000    0.000 
#    0.000    3.750    0.000    0.000    0.000   47.250 
#    0.000    0.000    0.000    0.000    0.000    0.000 
#
# Total GULP energy -396486.464482 kJ/mol
# GULP energy per Si atom -12390.202015 kJ/mol
# Density = 2.124307 g / cm^3
# Si number density = 21.291529 Si / 1000 Ang^3
#
#
#
# Elastic Constant Matrix: (Units=GPa)
#
#
# Indices 1 2 3 4 5 6 
#
# 1 79.2402 21.9113 3.4527 0.0000 0.0000 0.0000
# 2 21.9113 232.1986 21.1309 0.0000 0.0000 0.0000
# 3 3.4527 21.1309 71.4641 0.0000 0.0000 0.0000
# 4 0.0000 0.0000 0.0000 21.5574 0.0000 0.0000
# 5 0.0000 0.0000 0.0000 0.0000 8.7851 0.0000
# 6 0.0000 0.0000 0.0000 0.0000 0.0000 5.4150
#
#
#
# Elastic Compliance Matrix: (Units=1/GPa)
#
#
# Indices 1 2 3 4 5 6 
#
# 1 0.012963 -0.001199 -0.000272 0.000000 0.000000 0.000000
# 2 -0.001199 0.004537 -0.001283 0.000000 0.000000 0.000000
# 3 -0.000272 -0.001283 0.014386 0.000000 0.000000 0.000000
# 4 0.000000 0.000000 0.000000 0.046388 0.000000 0.000000
# 5 0.000000 0.000000 0.000000 0.000000 0.113829 0.000000
# 6 0.000000 0.000000 0.000000 0.000000 0.000000 0.184672
#
#
# Mechanical properties :
#
#
# Convention : Reuss Voigt Hill
#
# Bulk Modulus (GPa) = 37.91109 52.87700 45.39405
# Shear Modulus (GPa) = 12.78529 29.57871 21.18200
#
# Velocity S-wave (km/s) = 2.45314 3.73127 3.15756
# Velocity P-wave (km/s) = 5.08608 6.59180 5.88728
#
# Compressibility (1/GPa) = 0.02637750
#
# Stress axis : x y z
#
# Youngs Moduli (GPa) = 77.14199 220.43144 69.51358
#
# Poissons Ratio (x) = 0.26419 0.01890
# Poissons Ratio (y) = 0.09246 0.08922
# Poissons Ratio (z) = 0.02098 0.28292
#
# Static dielectric constant tensor:
#      x y z
#    x 3.542110 0.000000 0.000000 
#    y 0.000000 5.381170 0.000000 
#    z 0.000000 0.000000 3.324550 
# 
# 
# High freq. dielectric constant tensor:
#      x y z
#    x 1.808130 0.000000 0.000000 
#    y 0.000000 1.880320 0.000000 
#    z 0.000000 0.000000 1.787980 
# 
# From -- ./inp_files/5251.got.cif
#   From: 2010.03.12/outbox.cif.g09.slc.cpg/sg26_3_cif.got.tgz:5251.got - 2010.04.14 03:33:09.
