data_PCOD8167251
_publ_section_title
;
Structure prediction by ZEFSAII (Michael W. Deem and Ramdas Pophale) SiO2 
 PCOD8167251
Probable space group: P M C 21
;
_chemical_formula_sum "Si O2"
_cell_formula_units_Z 22
_cell_length_a 28.625310
_cell_length_b 8.212470
_cell_length_c 4.975022
_cell_angle_alpha 90.000000
_cell_angle_beta 90.000000
_cell_angle_gamma 90.000000
_cell_volume 1169.550557
_symmetry_space_group_name_H-M "P M C 21"
_symmetry_group_IT_number 26
_symmetry_cell_setting 'orthorhombic'
loop_
_space_group_symop_operation_xyz
x,y,z
-x,-y,1/2+z
-x,y,z
x,-y,1/2+z
loop_
_atom_site_type_symbol
_atom_site_label
_atom_site_fract_x
_atom_site_fract_y
_atom_site_fract_z
Si Si1 0.775214 0.395954 0.622780
Si Si2 0.946628 0.893586 0.006930
Si Si3 0.600102 0.111936 0.516629
Si Si4 0.874865 0.389082 0.511777
Si Si5 0.500000 0.896382 0.123944
Si Si6 0.324964 0.388086 0.516553
O O1 0.775374 0.559789 0.437911
O O2 0.823635 0.302495 0.551229
O O3 0.726615 0.304018 0.552097
O O4 0.914442 0.741103 0.072774
O O5 0.000000 0.834387 0.038230
O O6 0.936023 0.040852 0.210366
O O7 0.548503 0.195923 0.552191
O O8 0.637561 0.250041 0.573390
O O9 0.606276 0.038772 0.220460
O O10 0.880121 0.458228 0.212344
O O11 0.500000 0.939586 0.439530
O O12 0.331129 0.461179 0.220321
#
# Coordination Sequence:
#
# PCOD8167251 Si02
#       6
#     4   4   4   4   2   4
#     4   8  16  30  48  69  96 127 156 191 241 289
#     4  10  21  36  51  71 103 135 157 191 250 299
#     4  10  19  33  51  72  96 126 164 201 237 283
#     4  10  19  33  54  76  95 124 169 207 230 274
#     4   8  16  30  48  66  92 128 158 190 240 290
#     4  10  19  33  51  72  99 130 159 194 244 292
#
# _framework density 18.810644
#
# number of rings (size 3 to 8) (size 9 to 14) (size 15 to 20)
#    0.000    2.545    0.000    2.182    0.000    0.727 
#    0.000    2.727    0.000    0.000    0.000    0.000 
#    0.000    0.000    0.000    0.000    0.000    0.000 
#
# Total GULP energy -272628.924038 kJ/mol
# GULP energy per Si atom -12392.223820 kJ/mol
# Density = 1.876783 g / cm^3
# Si number density = 18.810644 Si / 1000 Ang^3
#
#
#
# Elastic Constant Matrix: (Units=GPa)
#
#
# Indices 1 2 3 4 5 6 
#
# 1 177.3511 62.5513 16.1336 0.0000 0.0000 0.0000
# 2 62.5513 45.3620 3.4427 0.0000 0.0000 0.0000
# 3 16.1336 3.4427 74.5442 0.0000 0.0000 0.0000
# 4 0.0000 0.0000 0.0000 15.8073 0.0000 0.0000
# 5 0.0000 0.0000 0.0000 0.0000 25.5174 0.0000
# 6 0.0000 0.0000 0.0000 0.0000 0.0000 70.7360
#
#
#
# Elastic Compliance Matrix: (Units=1/GPa)
#
#
# Indices 1 2 3 4 5 6 
#
# 1 0.011192 -0.015303 -0.001716 0.000000 0.000000 0.000000
# 2 -0.015303 0.043046 0.001324 0.000000 0.000000 0.000000
# 3 -0.001716 0.001324 0.013725 0.000000 0.000000 0.000000
# 4 0.000000 0.000000 0.000000 0.063262 0.000000 0.000000
# 5 0.000000 0.000000 0.000000 0.000000 0.039189 0.000000
# 6 0.000000 0.000000 0.000000 0.000000 0.000000 0.014137
#
#
# Mechanical properties :
#
#
# Convention : Reuss Voigt Hill
#
# Bulk Modulus (GPa) = 27.34170 51.27918 39.31044
# Shear Modulus (GPa) = 21.91734 36.75413 29.33573
#
# Velocity S-wave (km/s) = 3.41714 4.42509 3.95337
# Velocity P-wave (km/s) = 5.48962 7.30948 6.46392
#
# Compressibility (1/GPa) = 0.03657416
#
# Stress axis : x y z
#
# Youngs Moduli (GPa) = 89.35142 23.23119 72.85975
#
# Poissons Ratio (x) = 0.35550 0.12499
# Poissons Ratio (y) = 1.36730 -0.09646
# Poissons Ratio (z) = 0.15328 -0.03076
#
# Static dielectric constant tensor:
#      x y z
#    x 3.935260 0.000000 0.000000 
#    y 0.000000 2.688240 0.000000 
#    z 0.000000 0.000000 3.594950 
# 
# 
# High freq. dielectric constant tensor:
#      x y z
#    x 1.758180 0.000000 0.000000 
#    y 0.000000 1.653020 0.000000 
#    z 0.000000 0.000000 1.757150 
# 
# From -- ./inp_files/1087.got.cif
#   From: 2010.03.12/outbox.cif.g09.slc.cpg/sg26_1_cif.got.tgz:1087.got - 2010.04.14 03:33:09.
