data_PCOD8167114
_publ_section_title
;
Structure prediction by ZEFSAII (Michael W. Deem and Ramdas Pophale) SiO2 
 PCOD8167114
Probable space group: P M C 21
;
_chemical_formula_sum "Si O2"
_cell_formula_units_Z 32
_cell_length_a 9.187721
_cell_length_b 12.395977
_cell_length_c 14.472641
_cell_angle_alpha 90.000000
_cell_angle_beta 90.000000
_cell_angle_gamma 90.000000
_cell_volume 1648.300346
_symmetry_space_group_name_H-M "P M C 21"
_symmetry_group_IT_number 26
_symmetry_cell_setting 'orthorhombic'
loop_
_space_group_symop_operation_xyz
x,y,z
-x,-y,1/2+z
-x,y,z
x,-y,1/2+z
loop_
_atom_site_type_symbol
_atom_site_label
_atom_site_fract_x
_atom_site_fract_y
_atom_site_fract_z
Si Si1 0.172706 0.593975 0.405200
Si Si2 0.339247 0.042347 0.918884
Si Si3 0.330518 0.132783 0.207401
Si Si4 0.827615 0.617858 0.008553
Si Si5 0.828192 0.079322 0.739254
Si Si6 0.172528 0.321636 0.708834
Si Si7 0.662343 0.247833 0.033614
Si Si8 0.665127 0.192711 0.414372
O O1 0.233545 0.482086 0.448025
O O2 0.234480 0.618314 0.301587
O O3 0.222838 0.685681 0.475484
O O4 0.000000 0.594007 0.403749
O O5 0.500000 0.039910 0.869583
O O6 0.216509 0.075901 0.846359
O O7 0.310985 0.923873 0.961864
O O8 0.339588 0.124313 0.002137
O O9 0.500000 0.106664 0.196201
O O10 0.286409 0.232196 0.139516
O O11 0.291396 0.178129 0.307668
O O12 0.245589 0.020931 0.185882
O O13 0.773974 0.615298 0.116194
O O14 0.000000 0.617422 0.007122
O O15 0.775224 0.726400 0.961470
O O16 0.775431 0.196828 0.701949
O O17 0.000000 0.067128 0.730000
O O18 0.000000 0.323710 0.715995
O O19 0.500000 0.299157 0.024873
O O20 0.500000 0.235221 0.425681
#
# Coordination Sequence:
#
# PCOD8167114 Si02
#       8
#     4   4   4   4   4   4   4   4
#     4  10  21  39  59  79 111 149 186 234 281 325
#     4   9  18  33  53  79 111 144 178 223 278 330
#     4   9  20  36  54  80 118 153 182 226 281 335
#     4  10  22  38  58  81 108 148 190 229 279 336
#     4  10  18  31  53  79 111 147 185 227 272 327
#     4   9  19  36  54  79 111 141 179 229 280 325
#     4  10  20  35  57  83 111 147 187 227 275 333
#     4   9  19  36  54  78 113 145 179 227 278 325
#
# _framework density 19.413938999999999
#
# number of rings (size 3 to 8) (size 9 to 14) (size 15 to 20)
#    0.000    2.500    1.250    1.125    1.750    4.000 
#    0.000    2.500    0.000    0.000    0.000    0.000 
#    0.000    0.000    0.000    0.000    0.000    0.000 
#
# Total GULP energy -396565.342839 kJ/mol
# GULP energy per Si atom -12392.666964 kJ/mol
# Density = 1.936975 g / cm^3
# Si number density = 19.413939 Si / 1000 Ang^3
#
#
#
# Elastic Constant Matrix: (Units=GPa)
#
#
# Indices 1 2 3 4 5 6 
#
# 1 27.1011 23.7831 21.3307 0.0000 0.0000 0.0000
# 2 23.7831 109.9444 60.1149 0.0000 0.0000 0.0000
# 3 21.3307 60.1149 97.9343 0.0000 0.0000 0.0000
# 4 0.0000 0.0000 0.0000 26.4149 0.0000 0.0000
# 5 0.0000 0.0000 0.0000 0.0000 20.5797 0.0000
# 6 0.0000 0.0000 0.0000 0.0000 0.0000 23.7941
#
#
#
# Elastic Compliance Matrix: (Units=1/GPa)
#
#
# Indices 1 2 3 4 5 6 
#
# 1 0.047868 -0.007005 -0.006126 0.000000 0.000000 0.000000
# 2 -0.007005 0.014716 -0.007507 0.000000 0.000000 0.000000
# 3 -0.006126 -0.007507 0.016153 0.000000 0.000000 0.000000
# 4 0.000000 0.000000 0.000000 0.037857 0.000000 0.000000
# 5 0.000000 0.000000 0.000000 0.000000 0.048592 0.000000
# 6 0.000000 0.000000 0.000000 0.000000 0.000000 0.042027
#
#
# Mechanical properties :
#
#
# Convention : Reuss Voigt Hill
#
# Bulk Modulus (GPa) = 26.69491 49.49302 38.09397
# Shear Modulus (GPa) = 19.15883 22.80780 20.98331
#
# Velocity S-wave (km/s) = 3.14484 3.43128 3.29118
# Velocity P-wave (km/s) = 5.19297 6.42239 5.84012
#
# Compressibility (1/GPa) = 0.03746032
#
# Stress axis : x y z
#
# Youngs Moduli (GPa) = 20.89080 67.95532 61.90709
#
# Poissons Ratio (x) = 0.47604 0.37924
# Poissons Ratio (y) = 0.14635 0.46474
# Poissons Ratio (z) = 0.12798 0.51014
#
# Static dielectric constant tensor:
#      x y z
#    x 3.310300 0.000000 0.000000 
#    y 0.000000 3.651790 0.000000 
#    z 0.000000 0.000000 3.844290 
# 
# 
# High freq. dielectric constant tensor:
#      x y z
#    x 1.731780 0.000000 0.000000 
#    y 0.000000 1.751510 0.000000 
#    z 0.000000 0.000000 1.759870 
# 
# From -- ./inp_files/4312.got.cif
#   From: 2010.03.12/outbox.cif.g09.slc.cpg/sg26_3_cif.got.tgz:4312.got - 2010.04.14 03:33:09.
