data_PCOD8167769
_publ_section_title
;
Structure prediction by ZEFSAII (Michael W. Deem and Ramdas Pophale) SiO2 
 PCOD8167769
Probable space group: P M C 21
;
_chemical_formula_sum "Si O2"
_cell_formula_units_Z 32
_cell_length_a 29.405496
_cell_length_b 5.247878
_cell_length_c 8.985521
_cell_angle_alpha 90.000000
_cell_angle_beta 90.000000
_cell_angle_gamma 90.000000
_cell_volume 1386.613752
_symmetry_space_group_name_H-M "P M C 21"
_symmetry_group_IT_number 26
_symmetry_cell_setting 'orthorhombic'
loop_
_space_group_symop_operation_xyz
x,y,z
-x,-y,1/2+z
-x,y,z
x,-y,1/2+z
loop_
_atom_site_type_symbol
_atom_site_label
_atom_site_fract_x
_atom_site_fract_y
_atom_site_fract_z
Si Si1 0.585346 0.777787 0.958790
Si Si2 0.823300 0.726832 0.337430
Si Si3 0.051037 0.807026 0.035729
Si Si4 0.862182 0.060841 0.093276
Si Si5 0.447338 0.729113 0.623587
Si Si6 0.093841 0.467827 0.285862
Si Si7 0.278382 0.303054 0.794936
Si Si8 0.309825 0.792966 0.961110
O O1 0.576188 0.759578 0.783298
O O2 0.574406 0.508653 0.036207
O O3 0.637450 0.851506 0.985828
O O4 0.556905 0.010018 0.029777
O O5 0.820785 0.925425 0.473580
O O6 0.867562 0.571171 0.401458
O O7 0.773950 0.605355 0.313875
O O8 0.843504 0.818610 0.181625
O O9 0.065418 0.652686 0.181174
O O10 0.000000 0.914434 0.055960
O O11 0.087797 0.030615 0.017633
O O12 0.053463 0.654618 0.881458
O O13 0.869180 0.291472 0.203941
O O14 0.500000 0.668507 0.649034
O O15 0.287607 0.259692 0.621135
O O16 0.307022 0.540456 0.857929
O O17 0.287414 0.040118 0.883329
#
# Coordination Sequence:
#
# PCOD8167769 Si02
#       8
#     4   4   4   4   4   4   4   4
#     4  12  25  45  71  98 152 190 232 309 360 421
#     4  11  25  41  69  91 128 163 214 274 330 383
#     4  11  24  41  63  91 120 161 206 257 313 400
#     4  11  23  43  62  91 123 164 205 257 332 389
#     4  12  24  42  69 104 137 190 247 295 355 423
#     4  11  23  42  62  89 122 160 203 256 324 387
#     4  12  27  44  75 105 142 183 248 293 348 442
#     4  12  26  48  69 109 142 193 239 289 369 427
#
# _framework density 23.077802999999999
#
# number of rings (size 3 to 8) (size 9 to 14) (size 15 to 20)
#    0.000    0.500    2.500    6.000    3.500    1.000 
#    0.000    0.000    0.000    0.000    0.000    0.000 
#    0.000    0.000    0.000    0.000    0.000    0.000 
#
# Total GULP energy -396459.377041 kJ/mol
# GULP energy per Si atom -12389.355533 kJ/mol
# Density = 2.302528 g / cm^3
# Si number density = 23.077803 Si / 1000 Ang^3
#
#
#
# Elastic Constant Matrix: (Units=GPa)
#
#
# Indices 1 2 3 4 5 6 
#
# 1 115.1702 2.5559 3.3561 0.0000 0.0000 0.0000
# 2 2.5559 93.3261 26.2352 0.0000 0.0000 0.0000
# 3 3.3561 26.2352 101.2908 0.0000 0.0000 0.0000
# 4 0.0000 0.0000 0.0000 32.1564 0.0000 0.0000
# 5 0.0000 0.0000 0.0000 0.0000 33.4048 0.0000
# 6 0.0000 0.0000 0.0000 0.0000 0.0000 32.4511
#
#
#
# Elastic Compliance Matrix: (Units=1/GPa)
#
#
# Indices 1 2 3 4 5 6 
#
# 1 0.008694 -0.000169 -0.000244 0.000000 0.000000 0.000000
# 2 -0.000169 0.011560 -0.002988 0.000000 0.000000 0.000000
# 3 -0.000244 -0.002988 0.010655 0.000000 0.000000 0.000000
# 4 0.000000 0.000000 0.000000 0.031098 0.000000 0.000000
# 5 0.000000 0.000000 0.000000 0.000000 0.029936 0.000000
# 6 0.000000 0.000000 0.000000 0.000000 0.000000 0.030816
#
#
# Mechanical properties :
#
#
# Convention : Reuss Voigt Hill
#
# Bulk Modulus (GPa) = 41.48684 41.56461 41.52573
# Shear Modulus (GPa) = 36.33811 38.11178 37.22494
#
# Velocity S-wave (km/s) = 3.97242 4.06821 4.02060
# Velocity P-wave (km/s) = 6.24949 6.33379 6.29178
#
# Compressibility (1/GPa) = 0.02410403
#
# Stress axis : x y z
#
# Youngs Moduli (GPa) = 115.02609 86.50622 93.85530
#
# Poissons Ratio (x) = 0.01466 0.02292
# Poissons Ratio (y) = 0.01949 0.28049
# Poissons Ratio (z) = 0.02808 0.25852
#
# Static dielectric constant tensor:
#      x y z
#    x 4.607780 0.000000 0.000000 
#    y 0.000000 4.249840 0.000000 
#    z 0.000000 0.000000 4.373390 
# 
# 
# High freq. dielectric constant tensor:
#      x y z
#    x 1.918690 0.000000 0.000000 
#    y 0.000000 1.912500 0.000000 
#    z 0.000000 0.000000 1.938080 
# 
# From -- ./inp_files/2526.got.cif
#   From: 2010.03.12/outbox.cif.g09.slc.cpg/sg26_2_cif.got.tgz:2526.got - 2010.04.14 03:33:09.
