data_PCOD8167865
_publ_section_title
;
Structure prediction by ZEFSAII (Michael W. Deem and Ramdas Pophale) SiO2 
 PCOD8167865
Probable space group: P C C 2
;
_chemical_formula_sum "Si O2"
_cell_formula_units_Z 32
_cell_length_a 13.207006
_cell_length_b 7.976742
_cell_length_c 13.937326
_cell_angle_alpha 90.000000
_cell_angle_beta 90.000000
_cell_angle_gamma 90.000000
_cell_volume 1468.281677
_symmetry_space_group_name_H-M "P C C 2"
_symmetry_group_IT_number 27
_symmetry_cell_setting 'orthorhombic'
loop_
_space_group_symop_operation_xyz
x,y,z
-x,-y,z
-x,y,1/2+z
x,-y,1/2+z
loop_
_atom_site_type_symbol
_atom_site_label
_atom_site_fract_x
_atom_site_fract_y
_atom_site_fract_z
Si Si1 0.107908 0.949716 0.667470
Si Si2 0.561121 0.827526 0.423578
Si Si3 0.618337 0.671090 0.019954
Si Si4 0.121881 0.851031 0.353612
Si Si5 0.255767 0.993386 0.498056
Si Si6 0.402618 0.386598 0.241936
Si Si7 0.064588 0.666689 0.808985
Si Si8 0.246036 0.480226 0.876178
O O1 0.205221 0.975885 0.601498
O O2 0.103112 0.760541 0.711673
O O3 0.130558 0.087329 0.746617
O O4 0.000000 0.000000 0.618390
O O5 0.497868 0.684807 0.481953
O O6 0.581821 0.770459 0.313951
O O7 0.500000 0.000000 0.419181
O O8 0.669749 0.848190 0.478778
O O9 0.622026 0.670903 0.134445
O O10 0.673501 0.834508 0.980766
O O11 0.678213 0.513992 0.969188
O O12 0.160794 0.996672 0.424325
O O13 0.194008 0.696440 0.369801
O O14 0.004907 0.796076 0.370445
O O15 0.500000 0.500000 0.239447
O O16 0.309579 0.497328 0.278975
O O17 0.000000 0.500000 0.779480
O O18 0.841280 0.377628 0.878629
#
# Coordination Sequence:
#
# PCOD8167865 Si02
#       8
#     4   4   4   4   4   4   4   4
#     4  10  21  39  62  96 131 166 222 263 321 394
#     4  10  24  45  63  92 127 169 217 271 328 396
#     4  10  23  43  62  95 127 163 222 268 318 404
#     4   9  21  40  61  91 128 165 212 270 313 389
#     4  10  22  40  65  89 127 169 218 266 324 388
#     4  12  25  40  67  91 130 169 210 275 332 394
#     4   9  19  39  66  90 128 173 209 269 325 378
#     4  10  21  42  62  91 127 167 213 258 333 388
#
# _framework density 21.794184000000001
#
# number of rings (size 3 to 8) (size 9 to 14) (size 15 to 20)
#    0.000    2.000    1.250    0.750    5.250    4.000 
#    0.000    5.625    0.000    0.000    0.000    0.000 
#    0.000    0.000    0.000    0.000    0.000    0.000 
#
# Total GULP energy -396490.900998 kJ/mol
# GULP energy per Si atom -12390.340656 kJ/mol
# Density = 2.174458 g / cm^3
# Si number density = 21.794184 Si / 1000 Ang^3
#
#
#
# Elastic Constant Matrix: (Units=GPa)
#
#
# Indices 1 2 3 4 5 6 
#
# 1 147.7043 31.7277 74.3323 0.0000 0.0000 0.0000
# 2 31.7277 23.9642 24.9182 0.0000 0.0000 0.0000
# 3 74.3323 24.9182 129.4192 0.0000 0.0000 0.0000
# 4 0.0000 0.0000 0.0000 27.2200 0.0000 0.0000
# 5 0.0000 0.0000 0.0000 0.0000 39.8372 0.0000
# 6 0.0000 0.0000 0.0000 0.0000 0.0000 12.9579
#
#
#
# Elastic Compliance Matrix: (Units=1/GPa)
#
#
# Indices 1 2 3 4 5 6 
#
# 1 0.011213 -0.010188 -0.004478 0.000000 0.000000 0.000000
# 2 -0.010188 0.061432 -0.005976 0.000000 0.000000 0.000000
# 3 -0.004478 -0.005976 0.011450 0.000000 0.000000 0.000000
# 4 0.000000 0.000000 0.000000 0.036738 0.000000 0.000000
# 5 0.000000 0.000000 0.000000 0.000000 0.025102 0.000000
# 6 0.000000 0.000000 0.000000 0.000000 0.000000 0.077173
#
#
# Mechanical properties :
#
#
# Convention : Reuss Voigt Hill
#
# Bulk Modulus (GPa) = 23.35992 62.56045 42.96018
# Shear Modulus (GPa) = 17.94284 27.34364 22.64324
#
# Velocity S-wave (km/s) = 2.87241 3.54592 3.22678
# Velocity P-wave (km/s) = 4.66290 6.74775 5.79978
#
# Compressibility (1/GPa) = 0.04280837
#
# Stress axis : x y z
#
# Youngs Moduli (GPa) = 89.18599 16.27809 87.33914
#
# Poissons Ratio (x) = 0.16585 0.39113
# Poissons Ratio (y) = 0.90866 0.52197
# Poissons Ratio (z) = 0.39940 0.09728
#
# Static dielectric constant tensor:
#      x y z
#    x 4.649240 0.000000 0.000000 
#    y 0.000000 3.823190 0.000000 
#    z 0.000000 0.000000 3.972670 
# 
# 
# High freq. dielectric constant tensor:
#      x y z
#    x 1.887520 0.000000 0.000000 
#    y 0.000000 1.860150 0.000000 
#    z 0.000000 0.000000 1.829150 
# 
# From -- ./inp_files/3670.got.cif
#   From: 2010.03.12/outbox.cif.g09.slc.cpg/sg27_2_cif.got.tgz:3670.got - 2010.04.14 03:36:05.
