data_PCOD8167688
_publ_section_title
;
Structure prediction by ZEFSAII (Michael W. Deem and Ramdas Pophale) SiO2 
 PCOD8167688
Probable space group: P M C 21
;
_chemical_formula_sum "Si O2"
_cell_formula_units_Z 20
_cell_length_a 13.543513
_cell_length_b 6.411769
_cell_length_c 10.214824
_cell_angle_alpha 90.000000
_cell_angle_beta 90.000000
_cell_angle_gamma 90.000000
_cell_volume 887.033628
_symmetry_space_group_name_H-M "P M C 21"
_symmetry_group_IT_number 26
_symmetry_cell_setting 'orthorhombic'
loop_
_space_group_symop_operation_xyz
x,y,z
-x,-y,1/2+z
-x,y,z
x,-y,1/2+z
loop_
_atom_site_type_symbol
_atom_site_label
_atom_site_fract_x
_atom_site_fract_y
_atom_site_fract_z
Si Si1 0.159587 0.966907 0.677700
Si Si2 0.000000 0.664834 0.789344
Si Si3 0.712626 0.628102 0.556053
Si Si4 0.500000 0.210123 0.078558
Si Si5 0.000000 0.281578 0.586716
Si Si6 0.288648 0.687639 0.270427
Si Si7 0.500000 0.859779 0.287881
O O1 0.095872 0.803213 0.760150
O O2 0.230064 0.844349 0.577689
O O3 0.230523 0.093842 0.776119
O O4 0.094204 0.131120 0.597261
O O5 0.000000 0.454732 0.702123
O O6 0.000000 0.605434 0.944187
O O7 0.596576 0.647510 0.584301
O O8 0.754306 0.448927 0.650897
O O9 0.730972 0.563236 0.405494
O O10 0.500000 0.069151 0.206003
O O11 0.500000 0.079009 0.942296
O O12 0.404788 0.723962 0.251920
#
# Coordination Sequence:
#
# PCOD8167688 Si02
#       7
#     4   2   4   2   2   4   2
#     4  11  24  43  70  94 128 167 216 267 318 382
#     4  11  26  46  69  97 127 165 211 267 328 390
#     4  11  24  41  65  97 132 172 217 263 316 376
#     4  10  21  40  64  93 131 175 217 259 311 372
#     4  11  26  46  69  97 127 165 211 267 328 390
#     4  11  24  41  65  97 132 172 217 263 316 376
#     4  10  21  40  64  93 131 175 217 259 311 372
#
# _framework density 22.547059000000001
#
# number of rings (size 3 to 8) (size 9 to 14) (size 15 to 20)
#    0.000    1.200    2.000    3.000    0.000   12.800 
#    0.000    0.000    0.000    0.000    0.000    0.000 
#    0.000    0.000    0.000    0.000    0.000    0.000 
#
# Total GULP energy -248016.721470 kJ/mol
# GULP energy per Si atom -12400.836074 kJ/mol
# Density = 2.249574 g / cm^3
# Si number density = 22.547059 Si / 1000 Ang^3
#
#
#
# Elastic Constant Matrix: (Units=GPa)
#
#
# Indices 1 2 3 4 5 6 
#
# 1 118.6078 38.7840 20.1522 0.0000 0.0000 0.0000
# 2 38.7840 79.1914 13.8247 0.0000 0.0000 0.0000
# 3 20.1522 13.8247 80.9224 0.0000 0.0000 0.0000
# 4 0.0000 0.0000 0.0000 42.7265 0.0000 0.0000
# 5 0.0000 0.0000 0.0000 0.0000 -2.7866 0.0000
# 6 0.0000 0.0000 0.0000 0.0000 0.0000 28.6160
#
#
#
# Elastic Compliance Matrix: (Units=1/GPa)
#
#
# Indices 1 2 3 4 5 6 
#
# 1 0.010274 -0.004726 -0.001751 0.000000 0.000000 0.000000
# 2 -0.004726 0.015190 -0.001418 0.000000 0.000000 0.000000
# 3 -0.001751 -0.001418 0.013036 0.000000 0.000000 0.000000
# 4 0.000000 0.000000 0.000000 0.023405 0.000000 0.000000
# 5 0.000000 0.000000 0.000000 0.000000 -0.358858 0.000000
# 6 0.000000 0.000000 0.000000 0.000000 0.000000 0.034945
#
#
# Mechanical properties :
#
#
# Convention : Reuss Voigt Hill
#
# Bulk Modulus (GPa) = 44.03510 47.13817 45.58664
# Shear Modulus (GPa) = -20.95140 27.44190 3.24525
#
# Velocity S-wave (km/s) = -3.05163 3.49247 1.20102
# Velocity P-wave (km/s) = 2.67508 6.10042 4.71016
#
# Compressibility (1/GPa) = 0.02270916
#
# Stress axis : x y z
#
# Youngs Moduli (GPa) = 97.33251 65.83381 76.71139
#
# Poissons Ratio (x) = 0.31113 0.13433
# Poissons Ratio (y) = 0.46000 0.10878
# Poissons Ratio (z) = 0.17045 0.09336
#
# Static dielectric constant tensor:
#      x y z
#    x 4.729870 0.000000 0.000000 
#    y 0.000000 3.786600 0.000000 
#    z 0.000000 0.000000 3.991480 
# 
# 
# High freq. dielectric constant tensor:
#      x y z
#    x 1.913160 0.000000 0.000000 
#    y 0.000000 1.874990 0.000000 
#    z 0.000000 0.000000 1.889420 
# 
# From -- ./inp_files/3444.got.cif
#   From: 2010.03.12/outbox.cif.g09.slc.cpg/sg26_2_cif.got.tgz:3444.got - 2010.04.14 03:33:09.
