data_PCOD8167751
_publ_section_title
;
Structure prediction by ZEFSAII (Michael W. Deem and Ramdas Pophale) SiO2 
 PCOD8167751
Probable space group: P M C 21
;
_chemical_formula_sum "Si O2"
_cell_formula_units_Z 32
_cell_length_a 8.942962
_cell_length_b 14.417876
_cell_length_c 12.312405
_cell_angle_alpha 90.000000
_cell_angle_beta 90.000000
_cell_angle_gamma 90.000000
_cell_volume 1587.543244
_symmetry_space_group_name_H-M "P M C 21"
_symmetry_group_IT_number 26
_symmetry_cell_setting 'orthorhombic'
loop_
_space_group_symop_operation_xyz
x,y,z
-x,-y,1/2+z
-x,y,z
x,-y,1/2+z
loop_
_atom_site_type_symbol
_atom_site_label
_atom_site_fract_x
_atom_site_fract_y
_atom_site_fract_z
Si Si1 0.823260 0.829212 0.034740
Si Si2 0.330364 0.358637 0.477655
Si Si3 0.331300 0.442391 0.071515
Si Si4 0.172417 0.361094 0.264542
Si Si5 0.327062 0.045009 0.350818
Si Si6 0.824343 0.861147 0.281916
Si Si7 0.329209 0.736822 0.444255
Si Si8 0.670213 0.190709 0.176452
O O1 0.775904 0.860292 0.155878
O O2 0.000000 0.835281 0.017612
O O3 0.773670 0.722842 0.022151
O O4 0.744884 0.893887 0.946103
O O5 0.500000 0.321657 0.470292
O O6 0.319076 0.449435 0.550415
O O7 0.273225 0.395459 0.362919
O O8 0.500000 0.417232 0.110103
O O9 0.293380 0.371100 0.972819
O O10 0.210091 0.426319 0.164049
O O11 0.213571 0.255096 0.239754
O O12 0.000000 0.368640 0.295405
O O13 0.500000 0.032355 0.380433
O O14 0.306959 0.090115 0.230561
O O15 0.251165 0.945446 0.345989
O O16 0.772932 0.767115 0.342899
O O17 0.000000 0.871038 0.292875
O O18 0.500000 0.748094 0.407184
O O19 0.295241 0.804410 0.547952
O O20 0.500000 0.225361 0.196633
#
# Coordination Sequence:
#
# PCOD8167751 Si02
#       8
#     4   4   4   4   4   4   4   4
#     4  11  25  44  63  92 131 165 204 255 314 375
#     4  11  22  39  64  91 122 164 210 259 311 367
#     4   9  21  40  62  88 121 163 214 262 307 366
#     4  11  21  34  57  88 121 157 198 252 314 371
#     4  11  23  40  66  93 119 158 209 258 304 367
#     4  11  26  43  60  89 131 169 202 253 315 378
#     4   9  19  39  63  89 121 158 207 259 305 363
#     4   9  19  37  61  88 116 150 200 258 304 357
#
# _framework density 20.156931
#
# number of rings (size 3 to 8) (size 9 to 14) (size 15 to 20)
#    0.000    1.750    1.250    3.375    1.750    6.500 
#    0.000    3.750    0.000    0.000    0.000    0.000 
#    0.000    0.000    0.000    0.000    0.000    0.000 
#
# Total GULP energy -396748.013057 kJ/mol
# GULP energy per Si atom -12398.375408 kJ/mol
# Density = 2.011105 g / cm^3
# Si number density = 20.156931 Si / 1000 Ang^3
#
#
#
# Elastic Constant Matrix: (Units=GPa)
#
#
# Indices 1 2 3 4 5 6 
#
# 1 77.7295 33.6115 43.3768 0.0000 0.0000 0.0000
# 2 33.6115 93.5081 32.8847 0.0000 0.0000 0.0000
# 3 43.3768 32.8847 84.8059 0.0000 0.0000 0.0000
# 4 0.0000 0.0000 0.0000 22.3928 0.0000 0.0000
# 5 0.0000 0.0000 0.0000 0.0000 33.0430 0.0000
# 6 0.0000 0.0000 0.0000 0.0000 0.0000 26.5480
#
#
#
# Elastic Compliance Matrix: (Units=1/GPa)
#
#
# Indices 1 2 3 4 5 6 
#
# 1 0.019212 -0.003995 -0.008277 0.000000 0.000000 0.000000
# 2 -0.003995 0.013213 -0.003081 0.000000 0.000000 0.000000
# 3 -0.008277 -0.003081 0.017220 0.000000 0.000000 0.000000
# 4 0.000000 0.000000 0.000000 0.044657 0.000000 0.000000
# 5 0.000000 0.000000 0.000000 0.000000 0.030264 0.000000
# 6 0.000000 0.000000 0.000000 0.000000 0.000000 0.037668
#
#
# Mechanical properties :
#
#
# Convention : Reuss Voigt Hill
#
# Bulk Modulus (GPa) = 52.79878 52.86550 52.83214
# Shear Modulus (GPa) = 25.09384 26.14146 25.61765
#
# Velocity S-wave (km/s) = 3.53218 3.60515 3.56885
# Velocity P-wave (km/s) = 6.54872 6.60404 6.57644
#
# Compressibility (1/GPa) = 0.01893983
#
# Stress axis : x y z
#
# Youngs Moduli (GPa) = 52.05158 75.68021 58.07223
#
# Poissons Ratio (x) = 0.30232 0.48069
# Poissons Ratio (y) = 0.20793 0.17889
# Poissons Ratio (z) = 0.43086 0.23314
#
# Static dielectric constant tensor:
#      x y z
#    x 3.642310 0.000000 0.000000 
#    y 0.000000 3.550200 0.000000 
#    z 0.000000 0.000000 3.796810 
# 
# 
# High freq. dielectric constant tensor:
#      x y z
#    x 1.788910 0.000000 0.000000 
#    y 0.000000 1.784000 0.000000 
#    z 0.000000 0.000000 1.786940 
# 
# From -- ./inp_files/3044.got.cif
#   From: 2010.03.12/outbox.cif.g09.slc.cpg/sg26_2_cif.got.tgz:3044.got - 2010.04.14 03:33:09.
