data_PCOD8167655
_publ_section_title
;
Structure prediction by ZEFSAII (Michael W. Deem and Ramdas Pophale) SiO2 
 PCOD8167655
Probable space group: P M C 21
;
_chemical_formula_sum "Si O2"
_cell_formula_units_Z 24
_cell_length_a 15.545769
_cell_length_b 8.645261
_cell_length_c 8.274739
_cell_angle_alpha 90.000000
_cell_angle_beta 90.000000
_cell_angle_gamma 90.000000
_cell_volume 1112.102004
_symmetry_space_group_name_H-M "P M C 21"
_symmetry_group_IT_number 26
_symmetry_cell_setting 'orthorhombic'
loop_
_space_group_symop_operation_xyz
x,y,z
-x,-y,1/2+z
-x,y,z
x,-y,1/2+z
loop_
_atom_site_type_symbol
_atom_site_label
_atom_site_fract_x
_atom_site_fract_y
_atom_site_fract_z
Si Si1 0.500000 0.716506 0.899431
Si Si2 0.667792 0.887897 0.953675
Si Si3 0.000000 0.112948 0.268105
Si Si4 0.332504 0.215423 0.819767
Si Si5 0.000000 0.215867 0.899858
Si Si6 0.161917 0.614707 0.268851
Si Si7 0.500000 0.388390 0.766987
Si Si8 0.837746 0.284804 0.400012
O O1 0.583503 0.821031 0.864980
O O2 0.500000 0.573331 0.777071
O O3 0.500000 0.650937 0.079481
O O4 0.751135 0.812258 0.871155
O O5 0.670448 0.072801 0.942605
O O6 0.664915 0.852050 0.141289
O O7 0.083578 0.174288 0.359120
O O8 0.000000 0.927586 0.276848
O O9 0.000000 0.157868 0.082229
O O10 0.249197 0.320903 0.847613
O O11 0.416130 0.319252 0.855413
O O12 0.916839 0.320236 0.871691
O O13 0.162793 0.429699 0.279440
O O14 0.152878 0.658560 0.082800
#
# Coordination Sequence:
#
# PCOD8167655 Si02
#       8
#     2   4   2   4   2   4   2   4
#     4  10  21  38  58  86 118 152 193 238 286 342
#     4  10  22  38  59  86 118 153 194 239 288 343
#     4  12  25  42  63  88 118 154 194 242 293 348
#     4  10  22  38  59  86 118 153 194 239 288 343
#     4  12  25  42  63  88 118 154 194 242 293 348
#     4  11  23  40  61  88 119 155 196 241 291 347
#     4  10  21  38  58  86 118 152 193 238 286 342
#     4  11  23  40  61  88 119 155 196 241 291 347
#
# _framework density 21.580755
#
# number of rings (size 3 to 8) (size 9 to 14) (size 15 to 20)
#    0.000    1.333    0.000    5.500    0.000    6.667 
#    0.000    0.000    0.000    0.000    0.000    0.000 
#    0.000    0.000    0.000    0.000    0.000    0.000 
#
# Total GULP energy -297793.032446 kJ/mol
# GULP energy per Si atom -12408.043019 kJ/mol
# Density = 2.153164 g / cm^3
# Si number density = 21.580755 Si / 1000 Ang^3
#
#
#
# Elastic Constant Matrix: (Units=GPa)
#
#
# Indices 1 2 3 4 5 6 
#
# 1 177.2165 28.3957 16.1583 0.0000 0.0000 0.0000
# 2 28.3957 78.8263 -9.4542 0.0000 0.0000 0.0000
# 3 16.1583 -9.4542 34.0308 0.0000 0.0000 0.0000
# 4 0.0000 0.0000 0.0000 37.3287 0.0000 0.0000
# 5 0.0000 0.0000 0.0000 0.0000 -4.3619 0.0000
# 6 0.0000 0.0000 0.0000 0.0000 0.0000 186.3663
#
#
#
# Elastic Compliance Matrix: (Units=1/GPa)
#
#
# Indices 1 2 3 4 5 6 
#
# 1 0.006437 -0.002778 -0.003828 0.000000 0.000000 0.000000
# 2 -0.002778 0.014322 0.005298 0.000000 0.000000 0.000000
# 3 -0.003828 0.005298 0.032675 0.000000 0.000000 0.000000
# 4 0.000000 0.000000 0.000000 0.026789 0.000000 0.000000
# 5 0.000000 0.000000 0.000000 0.000000 -0.229257 0.000000
# 6 0.000000 0.000000 0.000000 0.000000 0.000000 0.005366
#
#
# Mechanical properties :
#
#
# Convention : Reuss Voigt Hill
#
# Bulk Modulus (GPa) = 19.67823 40.03036 29.85430
# Shear Modulus (GPa) = -40.28580 60.86486 10.28953
#
# Velocity S-wave (km/s) = -4.32527 5.31644 2.18593
# Velocity P-wave (km/s) = 3.97565 7.50169 4.49831
#
# Compressibility (1/GPa) = 0.05081758
#
# Stress axis : x y z
#
# Youngs Moduli (GPa) = 155.35260 69.82154 30.60476
#
# Poissons Ratio (x) = 0.19396 0.11716
# Poissons Ratio (y) = 0.43156 -0.16214
# Poissons Ratio (z) = 0.59471 -0.36991
#
# Static dielectric constant tensor:
#      x y z
#    x 4.300520 0.000000 0.000000 
#    y 0.000000 4.004210 0.000000 
#    z 0.000000 0.000000 3.637400 
# 
# 
# High freq. dielectric constant tensor:
#      x y z
#    x 1.867780 0.000000 0.000000 
#    y 0.000000 1.859010 0.000000 
#    z 0.000000 0.000000 1.839450 
# 
# From -- ./inp_files/2160.got.cif
#   From: 2010.03.12/outbox.cif.g09.slc.cpg/sg26_2_cif.got.tgz:2160.got - 2010.04.14 03:33:09.
