data_PCOD8167636
_publ_section_title
;
Structure prediction by ZEFSAII (Michael W. Deem and Ramdas Pophale) SiO2 
 PCOD8167636
Probable space group: P M C 21
;
_chemical_formula_sum "Si O2"
_cell_formula_units_Z 32
_cell_length_a 13.508695
_cell_length_b 14.168691
_cell_length_c 9.056803
_cell_angle_alpha 90.000000
_cell_angle_beta 90.000000
_cell_angle_gamma 90.000000
_cell_volume 1733.476851
_symmetry_space_group_name_H-M "P M C 21"
_symmetry_group_IT_number 26
_symmetry_cell_setting 'orthorhombic'
loop_
_space_group_symop_operation_xyz
x,y,z
-x,-y,1/2+z
-x,y,z
x,-y,1/2+z
loop_
_atom_site_type_symbol
_atom_site_label
_atom_site_fract_x
_atom_site_fract_y
_atom_site_fract_z
Si Si1 0.613652 0.278668 0.144410
Si Si2 0.888856 0.565303 0.661466
Si Si3 0.281356 0.612168 0.872949
Si Si4 0.615047 0.415721 0.892600
Si Si5 0.284251 0.294494 0.675578
Si Si6 0.617801 0.102820 0.593207
Si Si7 0.617695 0.915215 0.756588
Si Si8 0.110226 0.376282 0.829488
O O1 0.500000 0.265021 0.107902
O O2 0.625818 0.335735 0.296921
O O3 0.661082 0.173981 0.163343
O O4 0.657859 0.339953 0.010508
O O5 0.810885 0.622097 0.760877
O O6 0.865081 0.576803 0.487945
O O7 0.880619 0.455312 0.702348
O O8 0.000000 0.602220 0.696847
O O9 0.314905 0.506194 0.909696
O O10 0.250305 0.669487 0.016601
O O11 0.500000 0.442521 0.916071
O O12 0.631500 0.367649 0.733362
O O13 0.328619 0.190277 0.670793
O O14 0.189567 0.295789 0.786351
O O15 0.500000 0.116917 0.604138
O O16 0.654270 0.091192 0.425241
O O17 0.654776 0.011203 0.682235
O O18 0.500000 0.911075 0.754856
O O19 0.000000 0.332076 0.830816
#
# Coordination Sequence:
#
# PCOD8167636 Si02
#       8
#     4   4   4   4   4   4   4   4
#     4  10  21  37  54  76 112 154 193 231 272 326
#     4  10  21  38  58  79 108 148 192 236 277 324
#     4  12  22  35  54  80 115 152 192 225 276 331
#     4  11  24  35  49  76 115 161 195 223 265 328
#     4  12  23  35  55  84 114 147 188 233 282 335
#     4  10  21  37  57  82 111 145 188 239 287 330
#     4   9  19  37  58  78 105 145 192 240 283 321
#     4  10  21  38  58  81 110 146 189 235 281 331
#
# _framework density 18.460011000000002
#
# number of rings (size 3 to 8) (size 9 to 14) (size 15 to 20)
#    0.000    1.500    2.500    3.000    1.750    4.000 
#    0.000    0.000    0.000    0.000    0.000    1.750 
#    0.000    0.000    0.000    0.000    0.000    0.000 
#
# Total GULP energy -396711.763608 kJ/mol
# GULP energy per Si atom -12397.242613 kJ/mol
# Density = 1.841799 g / cm^3
# Si number density = 18.460011 Si / 1000 Ang^3
#
#
#
# Elastic Constant Matrix: (Units=GPa)
#
#
# Indices 1 2 3 4 5 6 
#
# 1 73.2866 34.2045 36.7979 0.0000 0.0000 0.0000
# 2 34.2045 127.7724 44.2405 0.0000 0.0000 0.0000
# 3 36.7979 44.2405 96.1605 0.0000 0.0000 0.0000
# 4 0.0000 0.0000 0.0000 32.8741 0.0000 0.0000
# 5 0.0000 0.0000 0.0000 0.0000 24.7607 0.0000
# 6 0.0000 0.0000 0.0000 0.0000 0.0000 16.6708
#
#
#
# Elastic Compliance Matrix: (Units=1/GPa)
#
#
# Indices 1 2 3 4 5 6 
#
# 1 0.017722 -0.002850 -0.005471 0.000000 0.000000 0.000000
# 2 -0.002850 0.009768 -0.003403 0.000000 0.000000 0.000000
# 3 -0.005471 -0.003403 0.014058 0.000000 0.000000 0.000000
# 4 0.000000 0.000000 0.000000 0.030419 0.000000 0.000000
# 5 0.000000 0.000000 0.000000 0.000000 0.040387 0.000000
# 6 0.000000 0.000000 0.000000 0.000000 0.000000 0.059985
#
#
# Mechanical properties :
#
#
# Convention : Reuss Voigt Hill
#
# Bulk Modulus (GPa) = 55.24660 58.63392 56.94026
# Shear Modulus (GPa) = 24.77458 26.99291 25.88375
#
# Velocity S-wave (km/s) = 3.66740 3.82807 3.74859
# Velocity P-wave (km/s) = 6.92284 7.16732 7.04614
#
# Compressibility (1/GPa) = 0.01810066
#
# Stress axis : x y z
#
# Youngs Moduli (GPa) = 56.42692 102.37825 71.13185
#
# Poissons Ratio (x) = 0.29178 0.38913
# Poissons Ratio (y) = 0.16082 0.24208
# Poissons Ratio (z) = 0.30868 0.34841
#
# Static dielectric constant tensor:
#      x y z
#    x 3.346250 0.000000 0.000000 
#    y 0.000000 3.407600 0.000000 
#    z 0.000000 0.000000 3.586130 
# 
# 
# High freq. dielectric constant tensor:
#      x y z
#    x 1.692430 0.000000 0.000000 
#    y 0.000000 1.693730 0.000000 
#    z 0.000000 0.000000 1.734250 
# 
# From -- ./inp_files/2240.got.cif
#   From: 2010.03.12/outbox.cif.g09.slc.cpg/sg26_2_cif.got.tgz:2240.got - 2010.04.14 03:33:09.
