data_PCOD8167870
_publ_section_title
;
Structure prediction by ZEFSAII (Michael W. Deem and Ramdas Pophale) SiO2 
 PCOD8167870
Probable space group: P C C 2
;
_chemical_formula_sum "Si O2"
_cell_formula_units_Z 20
_cell_length_a 4.917183
_cell_length_b 13.436445
_cell_length_c 13.137525
_cell_angle_alpha 90.000000
_cell_angle_beta 90.000000
_cell_angle_gamma 90.000000
_cell_volume 867.989168
_symmetry_space_group_name_H-M "P C C 2"
_symmetry_group_IT_number 27
_symmetry_cell_setting 'orthorhombic'
loop_
_space_group_symop_operation_xyz
x,y,z
-x,-y,z
-x,y,1/2+z
x,-y,1/2+z
loop_
_atom_site_type_symbol
_atom_site_label
_atom_site_fract_x
_atom_site_fract_y
_atom_site_fract_z
Si Si1 0.043389 0.110468 0.670410
Si Si2 0.033855 0.304984 0.552815
Si Si3 0.463500 0.694198 0.421416
Si Si4 0.251023 0.435437 0.736583
Si Si5 0.461986 0.889626 0.808137
O O1 0.841708 0.130494 0.766038
O O2 0.016408 0.188297 0.579102
O O3 0.348598 0.121644 0.709889
O O4 0.000000 0.000000 0.625036
O O5 0.233798 0.329457 0.459373
O O6 0.116894 0.366992 0.651012
O O7 0.734985 0.333970 0.514327
O O8 0.390174 0.629512 0.323885
O O9 0.454026 0.810970 0.394100
O O10 0.500000 0.500000 0.690272
O O11 0.000000 0.500000 0.781026
O O12 0.500000 0.000000 0.855776
#
# Coordination Sequence:
#
# PCOD8167870 Si02
#       5
#     4   4   4   4   4
#     4  10  21  40  68  99 139 184 222 268 333 405
#     4  12  26  43  72 104 135 176 229 278 340 410
#     4  12  26  43  72 104 135 176 229 278 340 410
#     4  12  28  48  72  96 136 182 226 292 346 392
#     4  10  21  40  68  99 139 184 222 268 333 405
#
# _framework density 23.041763
#
# number of rings (size 3 to 8) (size 9 to 14) (size 15 to 20)
#    0.000    0.800    2.000    4.800    2.800    6.400 
#    0.000    0.000    0.000    0.000    0.000    0.000 
#    0.000    0.000    0.000    0.000    0.000    0.000 
#
# Total GULP energy -248048.628866 kJ/mol
# GULP energy per Si atom -12402.431443 kJ/mol
# Density = 2.298932 g / cm^3
# Si number density = 23.041763 Si / 1000 Ang^3
#
#
#
# Elastic Constant Matrix: (Units=GPa)
#
#
# Indices 1 2 3 4 5 6 
#
# 1 103.0904 36.9666 14.0908 0.0000 0.0000 0.0000
# 2 36.9666 113.7091 46.1686 0.0000 0.0000 0.0000
# 3 14.0908 46.1686 82.9513 0.0000 0.0000 0.0000
# 4 0.0000 0.0000 0.0000 -1.2839 0.0000 0.0000
# 5 0.0000 0.0000 0.0000 0.0000 39.3510 0.0000
# 6 0.0000 0.0000 0.0000 0.0000 0.0000 36.0385
#
#
#
# Elastic Compliance Matrix: (Units=1/GPa)
#
#
# Indices 1 2 3 4 5 6 
#
# 1 0.010982 -0.003634 0.000157 0.000000 0.000000 0.000000
# 2 -0.003634 0.012564 -0.006376 0.000000 0.000000 0.000000
# 3 0.000157 -0.006376 0.015577 0.000000 0.000000 0.000000
# 4 0.000000 0.000000 0.000000 -0.778851 0.000000 0.000000
# 5 0.000000 0.000000 0.000000 0.000000 0.025412 0.000000
# 6 0.000000 0.000000 0.000000 0.000000 0.000000 0.027748
#
#
# Mechanical properties :
#
#
# Convention : Reuss Voigt Hill
#
# Bulk Modulus (GPa) = 51.49802 54.91142 53.20472
# Shear Modulus (GPa) = -7.57130 28.32277 10.37574
#
# Velocity S-wave (km/s) = -1.81467 3.50979 2.12433
# Velocity P-wave (km/s) = 4.24354 6.34884 5.39979
#
# Compressibility (1/GPa) = 0.01941822
#
# Stress axis : x y z
#
# Youngs Moduli (GPa) = 91.05946 79.58947 64.19651
#
# Poissons Ratio (x) = 0.28922 -0.01009
# Poissons Ratio (y) = 0.33091 0.40930
# Poissons Ratio (z) = -0.01431 0.50744
#
# Static dielectric constant tensor:
#      x y z
#    x 4.464730 0.000000 0.000000 
#    y 0.000000 4.478550 0.000000 
#    z 0.000000 0.000000 3.669720 
# 
# 
# High freq. dielectric constant tensor:
#      x y z
#    x 1.933560 0.000000 0.000000 
#    y 0.000000 1.921280 0.000000 
#    z 0.000000 0.000000 1.886510 
# 
# From -- ./inp_files/1977.got.cif
#   From: 2010.03.12/outbox.cif.g09.slc.cpg/sg27_1_cif.got.tgz:1977.got - 2010.04.14 03:36:05.
