data_PCOD8167006
_publ_section_title
;
Structure prediction by ZEFSAII (Michael W. Deem and Ramdas Pophale) SiO2 
 PCOD8167006
Probable space group: P M M 2
;
_chemical_formula_sum "Si O2"
_cell_formula_units_Z 32
_cell_length_a 9.741909
_cell_length_b 24.432890
_cell_length_c 7.638493
_cell_angle_alpha 90.000000
_cell_angle_beta 90.000000
_cell_angle_gamma 90.000000
_cell_volume 1818.136950
_symmetry_space_group_name_H-M "P M M 2"
_symmetry_group_IT_number 25
_symmetry_cell_setting 'orthorhombic'
loop_
_space_group_symop_operation_xyz
x,y,z
-x,-y,z
-x,y,z
x,-y,z
loop_
_atom_site_type_symbol
_atom_site_label
_atom_site_fract_x
_atom_site_fract_y
_atom_site_fract_z
Si Si1 0.339441 0.340984 0.089730
Si Si2 0.846714 0.560398 0.084271
Si Si3 0.663237 0.061067 0.097354
Si Si4 0.337979 0.259424 0.791780
Si Si5 0.153286 0.439602 0.499286
Si Si6 0.664353 0.862753 0.791779
Si Si7 0.336763 0.061067 0.486204
Si Si8 0.660559 0.659016 0.493830
O O1 0.500000 0.353120 0.067446
O O2 0.303007 0.327060 0.291780
O O3 0.260744 0.394503 0.017858
O O4 0.291103 0.290594 0.968432
O O5 0.805163 0.500000 0.012944
O O6 0.000000 0.575437 0.018071
O O7 0.844628 0.559103 0.291779
O O8 0.500000 0.061665 0.092332
O O9 0.721898 0.105524 0.961912
O O10 0.714473 0.000000 0.046605
O O11 0.715308 0.076676 0.291779
O O12 0.500000 0.254193 0.791776
O O13 0.273923 0.198567 0.791779
O O14 0.291100 0.290595 0.615130
O O15 0.194835 0.500000 0.570614
O O16 0.260745 0.394503 0.565700
O O17 0.000000 0.424562 0.565486
O O18 0.500000 0.861918 0.791779
O O19 0.721898 0.894476 0.621646
O O20 0.500000 0.061665 0.491226
O O21 0.285528 0.000000 0.536952
O O22 0.500000 0.646881 0.516115
#
# Coordination Sequence:
#
# PCOD8167006 Si02
#       8
#     4   4   4   4   4   4   4   4
#     4   9  17  29  44  60  81 110 139 169 207 248
#     4   8  14  26  45  67  87 106 132 169 211 253
#     4   8  13  20  30  46  67  90 121 163 205 241
#     4   9  18  29  38  53  77 104 140 179 206 238
#     4   8  14  26  45  67  87 106 132 169 211 253
#     4   9  15  22  33  46  64  95 130 165 204 238
#     4   8  13  20  30  46  67  90 121 163 205 241
#     4   9  17  29  44  60  81 110 139 169 207 248
#
# _framework density 17.600434
#
# number of rings (size 3 to 8) (size 9 to 14) (size 15 to 20)
#    0.000    3.500    0.000    1.875    0.000    3.000 
#    0.000    8.750    0.000    3.750    0.000    0.000 
#    0.000    0.000    0.000    0.000    0.000   10.000 
#
# Total GULP energy -396528.261876 kJ/mol
# GULP energy per Si atom -12391.508184 kJ/mol
# Density = 1.756038 g / cm^3
# Si number density = 17.600434 Si / 1000 Ang^3
#
#
#
# Elastic Constant Matrix: (Units=GPa)
#
#
# Indices 1 2 3 4 5 6 
#
# 1 27.5040 38.4300 21.8081 0.0000 0.0000 0.0000
# 2 38.4300 180.7806 86.7414 0.0000 0.0000 0.0000
# 3 21.8081 86.7414 106.6990 0.0000 0.0000 0.0000
# 4 0.0000 0.0000 0.0000 16.5909 0.0000 0.0000
# 5 0.0000 0.0000 0.0000 0.0000 3.9221 0.0000
# 6 0.0000 0.0000 0.0000 0.0000 0.0000 1.9341
#
#
#
# Elastic Compliance Matrix: (Units=1/GPa)
#
#
# Indices 1 2 3 4 5 6 
#
# 1 0.052191 -0.009798 -0.002702 0.000000 0.000000 0.000000
# 2 -0.009798 0.010909 -0.006866 0.000000 0.000000 0.000000
# 3 -0.002702 -0.006866 0.015506 0.000000 0.000000 0.000000
# 4 0.000000 0.000000 0.000000 0.060274 0.000000 0.000000
# 5 0.000000 0.000000 0.000000 0.000000 0.254964 0.000000
# 6 0.000000 0.000000 0.000000 0.000000 0.000000 0.517025
#
#
# Mechanical properties :
#
#
# Convention : Reuss Voigt Hill
#
# Bulk Modulus (GPa) = 25.07871 67.66027 46.36949
# Shear Modulus (GPa) = 5.19269 15.68972 10.44120
#
# Velocity S-wave (km/s) = 1.71951 2.98894 2.43829
# Velocity P-wave (km/s) = 4.26874 7.10194 5.85917
#
# Compressibility (1/GPa) = 0.03987446
#
# Stress axis : x y z
#
# Youngs Moduli (GPa) = 19.16027 91.66969 64.49216
#
# Poissons Ratio (x) = 0.89822 0.17423
# Poissons Ratio (y) = 0.18774 0.44278
# Poissons Ratio (z) = 0.05176 0.62937
#
# Static dielectric constant tensor:
#      x y z
#    x 2.779970 0.000000 0.000000 
#    y 0.000000 3.647660 0.000000 
#    z 0.000000 0.000000 3.368040 
# 
# 
# High freq. dielectric constant tensor:
#      x y z
#    x 1.610220 0.000000 0.000000 
#    y 0.000000 1.682000 0.000000 
#    z 0.000000 0.000000 1.683030 
# 
# From -- ./inp_files/2921.got.cif
#   From: 2010.03.12/outbox.cif.g09.slc.cpg/sg25_2_cif.got.tgz:2921.got - 2010.04.14 03:30:10.
