data_PCOD8167051
_publ_section_title
;
Structure prediction by ZEFSAII (Michael W. Deem and Ramdas Pophale) SiO2 
 PCOD8167051
Probable space group: P M C 21
;
_chemical_formula_sum "Si O2"
_cell_formula_units_Z 32
_cell_length_a 16.069025
_cell_length_b 10.089344
_cell_length_c 9.857210
_cell_angle_alpha 90.000000
_cell_angle_beta 90.000000
_cell_angle_gamma 90.000000
_cell_volume 1598.109249
_symmetry_space_group_name_H-M "P M C 21"
_symmetry_group_IT_number 26
_symmetry_cell_setting 'orthorhombic'
loop_
_space_group_symop_operation_xyz
x,y,z
-x,-y,1/2+z
-x,y,z
x,-y,1/2+z
loop_
_atom_site_type_symbol
_atom_site_label
_atom_site_fract_x
_atom_site_fract_y
_atom_site_fract_z
Si Si1 0.906527 0.046941 0.900500
Si Si2 0.299180 0.248172 0.044535
Si Si3 0.713811 0.722490 0.086492
Si Si4 0.870861 0.346887 0.954426
Si Si5 0.157121 0.485041 0.693265
Si Si6 0.799851 0.012497 0.636001
Si Si7 0.313842 0.383433 0.308398
Si Si8 0.401891 0.347852 0.818289
O O1 0.842506 0.007585 0.782627
O O2 0.000000 0.002111 0.862445
O O3 0.908804 0.200703 0.945906
O O4 0.874510 0.964154 0.029559
O O5 0.229322 0.342693 0.974510
O O6 0.347772 0.314505 0.171233
O O7 0.254671 0.114921 0.095082
O O8 0.368017 0.237337 0.925807
O O9 0.791532 0.625478 0.111079
O O10 0.736177 0.867912 0.135555
O O11 0.632502 0.679996 0.169075
O O12 0.688807 0.723105 0.929121
O O13 0.901373 0.431917 0.086908
O O14 0.897135 0.416496 0.812552
O O15 0.218828 0.581612 0.773358
O O16 0.371383 0.504543 0.358175
O O17 0.500000 0.340115 0.816117
#
# Coordination Sequence:
#
# PCOD8167051 Si02
#       8
#     4   4   4   4   4   4   4   4
#     4  11  23  40  59  88 121 154 196 254 313 357
#     4  10  20  36  56  87 113 153 206 244 289 352
#     4  11  19  34  57  88 110 151 209 241 287 353
#     4  10  18  34  58  83 114 152 197 249 291 356
#     4  10  16  31  55  84 111 149 198 244 294 341
#     4  11  22  39  65  85 116 160 206 249 286 358
#     4  10  19  31  55  85 114 144 198 254 287 344
#     4  11  22  37  57  84 122 153 186 253 316 349
#
# _framework density 20.023664
#
# number of rings (size 3 to 8) (size 9 to 14) (size 15 to 20)
#    0.000    1.500    5.000    3.375    0.000    2.000 
#    0.000    1.250    0.000    1.500    0.000    0.000 
#    0.000    0.000    0.000    0.000    0.000    0.000 
#
# Total GULP energy -396610.885757 kJ/mol
# GULP energy per Si atom -12394.090180 kJ/mol
# Density = 1.997809 g / cm^3
# Si number density = 20.023664 Si / 1000 Ang^3
#
#
#
# Elastic Constant Matrix: (Units=GPa)
#
#
# Indices 1 2 3 4 5 6 
#
# 1 68.8210 23.7719 22.9479 0.0000 0.0000 0.0000
# 2 23.7719 49.6793 14.3999 0.0000 0.0000 0.0000
# 3 22.9479 14.3999 114.4503 0.0000 0.0000 0.0000
# 4 0.0000 0.0000 0.0000 33.8664 0.0000 0.0000
# 5 0.0000 0.0000 0.0000 0.0000 13.6987 0.0000
# 6 0.0000 0.0000 0.0000 0.0000 0.0000 11.5671
#
#
#
# Elastic Compliance Matrix: (Units=1/GPa)
#
#
# Indices 1 2 3 4 5 6 
#
# 1 0.018146 -0.007917 -0.002642 0.000000 0.000000 0.000000
# 2 -0.007917 0.024345 -0.001476 0.000000 0.000000 0.000000
# 3 -0.002642 -0.001476 0.009453 0.000000 0.000000 0.000000
# 4 0.000000 0.000000 0.000000 0.029528 0.000000 0.000000
# 5 0.000000 0.000000 0.000000 0.000000 0.073000 0.000000
# 6 0.000000 0.000000 0.000000 0.000000 0.000000 0.086452
#
#
# Mechanical properties :
#
#
# Convention : Reuss Voigt Hill
#
# Bulk Modulus (GPa) = 35.87559 39.46556 37.67058
# Shear Modulus (GPa) = 18.22918 23.28184 20.75551
#
# Velocity S-wave (km/s) = 3.02053 3.41356 3.22304
# Velocity P-wave (km/s) = 5.48819 5.94044 5.71879
#
# Compressibility (1/GPa) = 0.02787410
#
# Stress axis : x y z
#
# Youngs Moduli (GPa) = 55.10782 41.07572 105.78800
#
# Poissons Ratio (x) = 0.32521 0.27952
# Poissons Ratio (y) = 0.43630 0.15610
# Poissons Ratio (z) = 0.14561 0.06061
#
# Static dielectric constant tensor:
#      x y z
#    x 3.206120 0.000000 0.000000 
#    y 0.000000 3.592530 0.000000 
#    z 0.000000 0.000000 3.983500 
# 
# 
# High freq. dielectric constant tensor:
#      x y z
#    x 1.735690 0.000000 0.000000 
#    y 0.000000 1.768080 0.000000 
#    z 0.000000 0.000000 1.806810 
# 
# From -- ./inp_files/2237.got.cif
#   From: 2010.03.12/outbox.cif.g09.slc.cpg/sg26_2_cif.got.tgz:2237.got - 2010.04.14 03:33:09.
