data_PCOD8167670
_publ_section_title
;
Structure prediction by ZEFSAII (Michael W. Deem and Ramdas Pophale) SiO2 
 PCOD8167670
Probable space group: P M C 21
;
_chemical_formula_sum "Si O2"
_cell_formula_units_Z 20
_cell_length_a 25.264211
_cell_length_b 7.436851
_cell_length_c 5.023082
_cell_angle_alpha 90.000000
_cell_angle_beta 90.000000
_cell_angle_gamma 90.000000
_cell_volume 943.767653
_symmetry_space_group_name_H-M "P M C 21"
_symmetry_group_IT_number 26
_symmetry_cell_setting 'orthorhombic'
loop_
_space_group_symop_operation_xyz
x,y,z
-x,-y,1/2+z
-x,y,z
x,-y,1/2+z
loop_
_atom_site_type_symbol
_atom_site_label
_atom_site_fract_x
_atom_site_fract_y
_atom_site_fract_z
Si Si1 0.000000 0.120459 0.724571
Si Si2 0.287310 0.619577 0.293764
Si Si3 0.500000 0.886107 0.304763
Si Si4 0.902187 0.620944 0.225474
Si Si5 0.592008 0.615620 0.305657
Si Si6 0.194410 0.120736 0.723264
O O1 0.051500 0.238361 0.778338
O O2 0.000000 0.047678 0.424478
O O3 0.274250 0.466503 0.078350
O O4 0.347959 0.684679 0.271103
O O5 0.252887 0.797764 0.252677
O O6 0.552814 0.776378 0.239460
O O7 0.500000 0.942436 0.612346
O O8 0.906719 0.455404 0.428340
O O9 0.846681 0.719157 0.270701
O O10 0.581121 0.452385 0.103289
O O11 0.185960 0.039704 0.431460
#
# Coordination Sequence:
#
# PCOD8167670 Si02
#       6
#     2   4   2   4   4   4
#     4  12  24  42  64  92 124 152 192 246 298 342
#     4  10  21  39  61  85 112 151 195 237 282 343
#     4  12  24  36  56  86 118 146 186 240 292 336
#     4  12  24  42  64  88 119 159 201 237 281 346
#     4  10  21  39  61  81 111 153 195 231 281 347
#     4  12  24  39  60  89 121 154 190 240 295 339
#
# _framework density 21.191654
#
# number of rings (size 3 to 8) (size 9 to 14) (size 15 to 20)
#    0.000    0.800    0.000    8.400    0.000    1.600 
#    0.000    0.000    0.000    0.000    0.000    0.000 
#    0.000    0.000    0.000    0.000    0.000    0.000 
#
# Total GULP energy -248199.876848 kJ/mol
# GULP energy per Si atom -12409.993842 kJ/mol
# Density = 2.114342 g / cm^3
# Si number density = 21.191654 Si / 1000 Ang^3
#
#
#
# Elastic Constant Matrix: (Units=GPa)
#
#
# Indices 1 2 3 4 5 6 
#
# 1 125.0128 54.9893 25.8286 0.0000 0.0000 0.0000
# 2 54.9893 82.0363 13.8914 0.0000 0.0000 0.0000
# 3 25.8286 13.8914 79.7959 0.0000 0.0000 0.0000
# 4 0.0000 0.0000 0.0000 45.9277 0.0000 0.0000
# 5 0.0000 0.0000 0.0000 0.0000 27.4274 0.0000
# 6 0.0000 0.0000 0.0000 0.0000 0.0000 22.6344
#
#
#
# Elastic Compliance Matrix: (Units=1/GPa)
#
#
# Indices 1 2 3 4 5 6 
#
# 1 0.011816 -0.007494 -0.002520 0.000000 0.000000 0.000000
# 2 -0.007494 0.017312 -0.000588 0.000000 0.000000 0.000000
# 3 -0.002520 -0.000588 0.013450 0.000000 0.000000 0.000000
# 4 0.000000 0.000000 0.000000 0.021773 0.000000 0.000000
# 5 0.000000 0.000000 0.000000 0.000000 0.036460 0.000000
# 6 0.000000 0.000000 0.000000 0.000000 0.000000 0.044181
#
#
# Mechanical properties :
#
#
# Convention : Reuss Voigt Hill
#
# Bulk Modulus (GPa) = 46.78481 52.91818 49.85150
# Shear Modulus (GPa) = 28.84815 32.00694 30.42755
#
# Velocity S-wave (km/s) = 3.69358 3.89055 3.79334
# Velocity P-wave (km/s) = 6.34941 6.72363 6.53920
#
# Compressibility (1/GPa) = 0.02137446
#
# Stress axis : x y z
#
# Youngs Moduli (GPa) = 84.63040 57.76219 74.34883
#
# Poissons Ratio (x) = 0.43285 0.18737
# Poissons Ratio (y) = 0.63419 0.04374
# Poissons Ratio (z) = 0.21328 0.03398
#
# Static dielectric constant tensor:
#      x y z
#    x 4.023570 0.000000 0.000000 
#    y 0.000000 3.559890 0.000000 
#    z 0.000000 0.000000 3.926080 
# 
# 
# High freq. dielectric constant tensor:
#      x y z
#    x 1.846880 0.000000 0.000000 
#    y 0.000000 1.824400 0.000000 
#    z 0.000000 0.000000 1.848170 
# 
# From -- ./inp_files/1015.got.cif
#   From: 2010.03.12/outbox.cif.g09.slc.cpg/sg26_1_cif.got.tgz:1015.got - 2010.04.14 03:33:09.
