data_PCOD8167948
_publ_section_title
;
Structure prediction by ZEFSAII (Michael W. Deem and Ramdas Pophale) SiO2 
 PCOD8167948
Probable space group: P C C 2
;
_chemical_formula_sum "Si O2"
_cell_formula_units_Z 22
_cell_length_a 10.186970
_cell_length_b 6.726097
_cell_length_c 13.669653
_cell_angle_alpha 90.000000
_cell_angle_beta 90.000000
_cell_angle_gamma 90.000000
_cell_volume 936.624780
_symmetry_space_group_name_H-M "P C C 2"
_symmetry_group_IT_number 27
_symmetry_cell_setting 'orthorhombic'
loop_
_space_group_symop_operation_xyz
x,y,z
-x,-y,z
-x,y,1/2+z
x,-y,1/2+z
loop_
_atom_site_type_symbol
_atom_site_label
_atom_site_fract_x
_atom_site_fract_y
_atom_site_fract_z
Si Si1 0.642729 0.942806 0.638290
Si Si2 0.000000 0.500000 0.506378
Si Si3 0.905527 0.825557 0.148203
Si Si4 0.639817 0.390423 0.292392
Si Si5 0.357529 0.972564 0.413858
Si Si6 0.158902 0.284714 0.343032
O O1 0.670219 0.734457 0.692894
O O2 0.500000 0.000000 0.679634
O O3 0.754721 0.104727 0.659489
O O4 0.636653 0.932597 0.521275
O O5 0.089137 0.642895 0.572973
O O6 0.091653 0.358592 0.441702
O O7 0.949477 0.761972 0.258401
O O8 0.000000 0.000000 0.108714
O O9 0.500000 0.500000 0.291418
O O10 0.664082 0.262096 0.392796
O O11 0.749918 0.554037 0.293299
O O12 0.500000 0.000000 0.363275
O O13 0.241346 0.085262 0.359927
#
# Coordination Sequence:
#
# PCOD8167948 Si02
#       6
#     4   2   4   4   4   4
#     4  11  25  47  76 110 151 197 249 310 385 449
#     4  12  30  48  74 114 150 206 260 318 370 476
#     4  12  28  50  76 104 153 199 252 317 386 458
#     4  12  24  46  77 111 152 197 252 315 380 459
#     4  11  23  46  71 111 154 195 239 311 382 446
#     4  12  27  45  77 109 146 197 256 309 382 458
#
# _framework density 23.488595
#
# number of rings (size 3 to 8) (size 9 to 14) (size 15 to 20)
#    0.000    0.364    3.636    4.364    7.636    2.182 
#    6.545    0.000    0.000    0.000    0.000    0.000 
#    0.000    0.000    0.000    0.000    0.000    0.000 
#
# Total GULP energy -272608.602747 kJ/mol
# GULP energy per Si atom -12391.300125 kJ/mol
# Density = 2.343513 g / cm^3
# Si number density = 23.488595 Si / 1000 Ang^3
#
#
#
# Elastic Constant Matrix: (Units=GPa)
#
#
# Indices 1 2 3 4 5 6 
#
# 1 104.7126 46.2706 34.8230 0.0000 0.0000 0.0000
# 2 46.2706 133.3699 48.9643 0.0000 0.0000 0.0000
# 3 34.8230 48.9643 147.9287 0.0000 0.0000 0.0000
# 4 0.0000 0.0000 0.0000 39.7039 0.0000 0.0000
# 5 0.0000 0.0000 0.0000 0.0000 29.7902 0.0000
# 6 0.0000 0.0000 0.0000 0.0000 0.0000 40.2568
#
#
#
# Elastic Compliance Matrix: (Units=1/GPa)
#
#
# Indices 1 2 3 4 5 6 
#
# 1 0.011599 -0.003440 -0.001592 0.000000 0.000000 0.000000
# 2 -0.003440 0.009555 -0.002353 0.000000 0.000000 0.000000
# 3 -0.001592 -0.002353 0.007914 0.000000 0.000000 0.000000
# 4 0.000000 0.000000 0.000000 0.025186 0.000000 0.000000
# 5 0.000000 0.000000 0.000000 0.000000 0.033568 0.000000
# 6 0.000000 0.000000 0.000000 0.000000 0.000000 0.024841
#
#
# Mechanical properties :
#
#
# Convention : Reuss Voigt Hill
#
# Bulk Modulus (GPa) = 69.93674 71.79190 70.86432
# Shear Modulus (GPa) = 37.82180 39.01374 38.41777
#
# Velocity S-wave (km/s) = 4.01711 4.07992 4.04863
# Velocity P-wave (km/s) = 7.16628 7.26810 7.21737
#
# Compressibility (1/GPa) = 0.01429864
#
# Stress axis : x y z
#
# Youngs Moduli (GPa) = 86.21187 104.65520 126.36440
#
# Poissons Ratio (x) = 0.35999 0.20117
# Poissons Ratio (y) = 0.29655 0.29734
# Poissons Ratio (z) = 0.13725 0.24626
#
# Static dielectric constant tensor:
#      x y z
#    x 4.379320 0.000000 0.000000 
#    y 0.000000 4.208780 0.000000 
#    z 0.000000 0.000000 4.384430 
# 
# 
# High freq. dielectric constant tensor:
#      x y z
#    x 1.934470 0.000000 0.000000 
#    y 0.000000 1.934460 0.000000 
#    z 0.000000 0.000000 1.947820 
# 
# From -- ./inp_files/3553.got.cif
#   From: 2010.03.12/outbox.cif.g09.slc.cpg/sg27_2_cif.got.tgz:3553.got - 2010.04.14 03:36:05.
