data_PCOD8167383
_publ_section_title
;
Structure prediction by ZEFSAII (Michael W. Deem and Ramdas Pophale) SiO2 
 PCOD8167383
Probable space group: P M C 21
;
_chemical_formula_sum "Si O2"
_cell_formula_units_Z 32
_cell_length_a 17.260561
_cell_length_b 4.979001
_cell_length_c 19.055420
_cell_angle_alpha 90.000000
_cell_angle_beta 90.000000
_cell_angle_gamma 90.000000
_cell_volume 1637.629473
_symmetry_space_group_name_H-M "P M C 21"
_symmetry_group_IT_number 26
_symmetry_cell_setting 'orthorhombic'
loop_
_space_group_symop_operation_xyz
x,y,z
-x,-y,1/2+z
-x,y,z
x,-y,1/2+z
loop_
_atom_site_type_symbol
_atom_site_label
_atom_site_fract_x
_atom_site_fract_y
_atom_site_fract_z
Si Si1 0.290833 0.214641 0.996100
Si Si2 0.838573 0.302077 0.810650
Si Si3 0.790833 0.214641 0.662743
Si Si4 0.589649 0.803231 0.779932
Si Si5 0.812143 0.713253 0.008276
Si Si6 0.338573 0.302078 0.848192
Si Si7 0.312143 0.286747 0.150566
Si Si8 0.910351 0.803231 0.878910
O O1 0.217077 0.413747 0.991230
O O2 0.349645 0.265113 0.931914
O O3 0.259066 0.912377 0.991831
O O4 0.337021 0.261579 0.068957
O O5 0.849645 0.265113 0.726928
O O6 0.750000 0.236587 0.829421
O O7 0.859974 0.604823 0.830773
O O8 0.895140 0.103755 0.852362
O O9 0.837021 0.261579 0.589886
O O10 0.717077 0.413747 0.667613
O O11 0.759066 0.912377 0.667012
O O12 0.500000 0.731935 0.786451
O O13 0.640026 0.604823 0.828070
O O14 0.614027 0.777492 0.698560
O O15 0.604860 0.103755 0.806481
O O16 0.885973 0.777491 0.960283
O O17 0.000000 0.731936 0.872392
#
# Coordination Sequence:
#
# PCOD8167383 Si02
#       8
#     4   4   4   4   4   4   4   4
#     4  10  20  33  61  85 111 139 200 245 275 326
#     4  12  21  38  62  89 113 153 200 245 282 339
#     4  10  20  33  61  85 111 139 200 245 275 326
#     4  12  24  38  57  86 124 156 187 239 305 350
#     4  10  19  36  55  87 111 147 188 241 286 340
#     4  12  21  38  62  89 113 153 200 245 282 339
#     4  10  19  36  55  87 111 147 188 241 286 340
#     4  12  24  38  57  86 124 156 187 239 305 350
#
# _framework density 19.540438999999999
#
# number of rings (size 3 to 8) (size 9 to 14) (size 15 to 20)
#    0.000    1.000    5.000    3.000    0.000    0.000 
#    0.000    2.500    0.000    0.000    0.000    0.000 
#    0.000    0.000    0.000    0.000    0.000    0.000 
#
# Total GULP energy -396978.528256 kJ/mol
# GULP energy per Si atom -12405.579008 kJ/mol
# Density = 1.949596 g / cm^3
# Si number density = 19.540439 Si / 1000 Ang^3
#
#
#
# Elastic Constant Matrix: (Units=GPa)
#
#
# Indices 1 2 3 4 5 6 
#
# 1 68.4706 6.9466 44.3570 0.0000 0.0000 0.0000
# 2 6.9466 73.7962 11.7110 0.0000 0.0000 0.0000
# 3 44.3570 11.7110 134.2565 0.0000 0.0000 0.0000
# 4 0.0000 0.0000 0.0000 30.0267 0.0000 0.0000
# 5 0.0000 0.0000 0.0000 0.0000 19.9971 0.0000
# 6 0.0000 0.0000 0.0000 0.0000 0.0000 22.6931
#
#
#
# Elastic Compliance Matrix: (Units=1/GPa)
#
#
# Indices 1 2 3 4 5 6 
#
# 1 0.018627 -0.000788 -0.006085 0.000000 0.000000 0.000000
# 2 -0.000788 0.013774 -0.000941 0.000000 0.000000 0.000000
# 3 -0.006085 -0.000941 0.009541 0.000000 0.000000 0.000000
# 4 0.000000 0.000000 0.000000 0.033304 0.000000 0.000000
# 5 0.000000 0.000000 0.000000 0.000000 0.050007 0.000000
# 6 0.000000 0.000000 0.000000 0.000000 0.000000 0.044066
#
#
# Mechanical properties :
#
#
# Convention : Reuss Voigt Hill
#
# Bulk Modulus (GPa) = 38.00310 44.72808 41.36559
# Shear Modulus (GPa) = 25.81050 28.77731 27.29390
#
# Velocity S-wave (km/s) = 3.63833 3.84175 3.74142
# Velocity P-wave (km/s) = 6.09431 6.52828 6.31502
#
# Compressibility (1/GPa) = 0.02631364
#
# Stress axis : x y z
#
# Youngs Moduli (GPa) = 53.68536 72.59872 104.80954
#
# Poissons Ratio (x) = 0.05718 0.63782
# Poissons Ratio (y) = 0.04229 0.09866
# Poissons Ratio (z) = 0.32670 0.06834
#
# Static dielectric constant tensor:
#      x y z
#    x 3.017240 0.000000 0.000000 
#    y 0.000000 3.662150 0.000000 
#    z 0.000000 0.000000 4.018910 
# 
# 
# High freq. dielectric constant tensor:
#      x y z
#    x 1.702280 0.000000 0.000000 
#    y 0.000000 1.782860 0.000000 
#    z 0.000000 0.000000 1.782940 
# 
# From -- ./inp_files/5257.got.cif
#   From: 2010.03.12/outbox.cif.g09.slc.cpg/sg26_3_cif.got.tgz:5257.got - 2010.04.14 03:33:09.
