data_PCOD8167637
_publ_section_title
;
Structure prediction by ZEFSAII (Michael W. Deem and Ramdas Pophale) SiO2 
 PCOD8167637
Probable space group: P M C 21
;
_chemical_formula_sum "Si O2"
_cell_formula_units_Z 32
_cell_length_a 9.053135
_cell_length_b 14.295415
_cell_length_c 12.662629
_cell_angle_alpha 90.000000
_cell_angle_beta 90.000000
_cell_angle_gamma 90.000000
_cell_volume 1638.776196
_symmetry_space_group_name_H-M "P M C 21"
_symmetry_group_IT_number 26
_symmetry_cell_setting 'orthorhombic'
loop_
_space_group_symop_operation_xyz
x,y,z
-x,-y,1/2+z
-x,y,z
x,-y,1/2+z
loop_
_atom_site_type_symbol
_atom_site_label
_atom_site_fract_x
_atom_site_fract_y
_atom_site_fract_z
Si Si1 0.836764 0.165390 0.050440
Si Si2 0.176048 0.541743 0.603160
Si Si3 0.671928 0.847908 0.872905
Si Si4 0.836754 0.298966 0.249665
Si Si5 0.824246 0.654678 0.179813
Si Si6 0.175290 0.851274 0.089772
Si Si7 0.823897 0.332917 0.915575
Si Si8 0.671563 0.020682 0.175918
O O1 0.851289 0.232266 0.150112
O O2 0.723851 0.081885 0.075025
O O3 0.000000 0.123701 0.024952
O O4 0.775888 0.228779 0.953869
O O5 0.225320 0.601753 0.706657
O O6 0.235266 0.435863 0.616055
O O7 0.239543 0.587031 0.494880
O O8 0.000000 0.544078 0.599239
O O9 0.500000 0.841095 0.898800
O O10 0.726673 0.745456 0.835375
O O11 0.705813 0.925938 0.784684
O O12 0.760132 0.878749 0.976208
O O13 0.000000 0.310953 0.301967
O O14 0.769220 0.747720 0.121005
O O15 0.759603 0.651090 0.298793
O O16 0.000000 0.653525 0.185477
O O17 0.000000 0.858268 0.088075
O O18 0.238487 0.923693 0.176358
O O19 0.000000 0.337606 0.916976
O O20 0.500000 0.999602 0.161504
#
# Coordination Sequence:
#
# PCOD8167637 Si02
#       8
#     4   4   4   4   4   4   4   4
#     4   8  14  27  49  76 103 131 166 209 255 303
#     4   8  14  26  47  76 108 139 171 211 258 306
#     4  10  21  37  56  77 105 141 176 215 266 320
#     4   8  14  27  50  79 105 130 168 215 257 301
#     4   9  18  30  45  73 109 139 170 210 258 309
#     4  11  23  36  52  77 108 140 176 219 266 317
#     4   8  14  26  45  71 105 139 168 205 254 302
#     4  10  21  37  56  77 101 133 175 220 266 318
#
# _framework density 19.526767
#
# number of rings (size 3 to 8) (size 9 to 14) (size 15 to 20)
#    0.000    3.000    0.000    2.625    0.000    3.500 
#    0.000    5.000    0.000    2.250    0.000    5.250 
#    0.000    0.000    0.000    0.000    0.000    0.000 
#
# Total GULP energy -396642.669033 kJ/mol
# GULP energy per Si atom -12395.083407 kJ/mol
# Density = 1.948232 g / cm^3
# Si number density = 19.526767 Si / 1000 Ang^3
#
#
#
# Elastic Constant Matrix: (Units=GPa)
#
#
# Indices 1 2 3 4 5 6 
#
# 1 62.6863 43.2381 33.6420 0.0000 0.0000 0.0000
# 2 43.2381 139.2319 48.3323 0.0000 0.0000 0.0000
# 3 33.6420 48.3323 94.0375 0.0000 0.0000 0.0000
# 4 0.0000 0.0000 0.0000 25.1680 0.0000 0.0000
# 5 0.0000 0.0000 0.0000 0.0000 16.9620 0.0000
# 6 0.0000 0.0000 0.0000 0.0000 0.0000 9.8262
#
#
#
# Elastic Compliance Matrix: (Units=1/GPa)
#
#
# Indices 1 2 3 4 5 6 
#
# 1 0.022339 -0.005067 -0.005387 0.000000 0.000000 0.000000
# 2 -0.005067 0.009891 -0.003271 0.000000 0.000000 0.000000
# 3 -0.005387 -0.003271 0.014243 0.000000 0.000000 0.000000
# 4 0.000000 0.000000 0.000000 0.039733 0.000000 0.000000
# 5 0.000000 0.000000 0.000000 0.000000 0.058955 0.000000
# 6 0.000000 0.000000 0.000000 0.000000 0.000000 0.101768
#
#
# Mechanical properties :
#
#
# Convention : Reuss Voigt Hill
#
# Bulk Modulus (GPa) = 52.57180 60.70896 56.64038
# Shear Modulus (GPa) = 17.81127 21.77413 19.79270
#
# Velocity S-wave (km/s) = 3.02345 3.34292 3.18719
# Velocity P-wave (km/s) = 6.25857 6.78659 6.52792
#
# Compressibility (1/GPa) = 0.01902160
#
# Stress axis : x y z
#
# Youngs Moduli (GPa) = 44.76529 101.09848 70.21173
#
# Poissons Ratio (x) = 0.51228 0.37826
# Poissons Ratio (y) = 0.22683 0.22967
# Poissons Ratio (z) = 0.24117 0.33070
#
# Static dielectric constant tensor:
#      x y z
#    x 3.166720 0.000000 0.000000 
#    y 0.000000 3.863260 0.000000 
#    z 0.000000 0.000000 3.594230 
# 
# 
# High freq. dielectric constant tensor:
#      x y z
#    x 1.711390 0.000000 0.000000 
#    y 0.000000 1.764480 0.000000 
#    z 0.000000 0.000000 1.751820 
# 
# From -- ./inp_files/3057.got.cif
#   From: 2010.03.12/outbox.cif.g09.slc.cpg/sg26_2_cif.got.tgz:3057.got - 2010.04.14 03:33:09.
