data_PCOD8167017
_publ_section_title
;
Structure prediction by ZEFSAII (Michael W. Deem and Ramdas Pophale) SiO2 
 PCOD8167017
Probable space group: P M M 2
;
_chemical_formula_sum "Si O2"
_cell_formula_units_Z 28
_cell_length_a 9.212079
_cell_length_b 9.374151
_cell_length_c 18.256090
_cell_angle_alpha 90.000000
_cell_angle_beta 90.000000
_cell_angle_gamma 90.000000
_cell_volume 1576.512312
_symmetry_space_group_name_H-M "P M M 2"
_symmetry_group_IT_number 25
_symmetry_cell_setting 'orthorhombic'
loop_
_space_group_symop_operation_xyz
x,y,z
-x,-y,z
-x,y,z
x,-y,z
loop_
_atom_site_type_symbol
_atom_site_label
_atom_site_fract_x
_atom_site_fract_y
_atom_site_fract_z
Si Si1 0.838163 0.669910 0.509120
Si Si2 0.830899 0.665835 0.945802
Si Si3 0.663897 0.669743 0.089348
Si Si4 0.835807 0.670149 0.229966
Si Si5 0.173078 0.340696 0.669975
Si Si6 0.172860 0.839506 0.805152
Si Si7 0.336676 0.329820 0.370999
O O1 0.844431 0.500000 0.506483
O O2 0.779062 0.716212 0.589476
O O3 0.732927 0.730204 0.446088
O O4 0.000000 0.731017 0.495426
O O5 0.800986 0.500000 0.929940
O O6 0.773425 0.753744 0.876216
O O7 0.000000 0.693257 0.961323
O O8 0.742780 0.722462 0.015799
O O9 0.500000 0.729442 0.091080
O O10 0.663753 0.500000 0.091952
O O11 0.750936 0.730148 0.159234
O O12 0.836169 0.500000 0.229252
O O13 0.755807 0.727884 0.302462
O O14 0.000000 0.728906 0.228958
O O15 0.234286 0.500000 0.684286
O O16 0.235768 0.236124 0.732272
O O17 0.000000 0.345849 0.672555
O O18 0.000000 0.838815 0.802529
O O19 0.233974 0.000000 0.808518
O O20 0.500000 0.270961 0.364543
O O21 0.336142 0.500000 0.371336
#
# Coordination Sequence:
#
# PCOD8167017 Si02
#       7
#     4   4   4   4   4   4   4
#     4   8  13  21  33  49  70  99 135 169 199 237
#     4   9  16  26  41  60  82 109 140 172 208 251
#     4   9  16  25  37  54  77 105 138 174 208 243
#     4   9  15  22  33  50  75 107 139 168 201 244
#     4   8  13  22  37  56  78 106 140 175 210 249
#     4   9  16  25  39  61  86 108 134 173 216 252
#     4   9  15  21  30  47  74 106 136 166 202 242
#
# _framework density 17.760724
#
# number of rings (size 3 to 8) (size 9 to 14) (size 15 to 20)
#    0.000    3.286    0.000    2.571    0.000    6.857 
#    0.000    0.000    0.000    1.286    0.000    4.000 
#    0.000    1.143    0.000    9.714    0.000   10.714 
#
# Total GULP energy -347068.794311 kJ/mol
# GULP energy per Si atom -12395.314083 kJ/mol
# Density = 1.772030 g / cm^3
# Si number density = 17.760724 Si / 1000 Ang^3
#
#
#
# Elastic Constant Matrix: (Units=GPa)
#
#
# Indices 1 2 3 4 5 6 
#
# 1 100.3485 19.2324 78.3705 0.0000 0.0000 0.0000
# 2 19.2324 40.1047 44.6139 0.0000 0.0000 0.0000
# 3 78.3705 44.6139 203.5862 0.0000 0.0000 0.0000
# 4 0.0000 0.0000 0.0000 1.9141 0.0000 0.0000
# 5 0.0000 0.0000 0.0000 0.0000 10.1956 0.0000
# 6 0.0000 0.0000 0.0000 0.0000 0.0000 4.1392
#
#
#
# Elastic Compliance Matrix: (Units=1/GPa)
#
#
# Indices 1 2 3 4 5 6 
#
# 1 0.014278 -0.000969 -0.005284 0.000000 0.000000 0.000000
# 2 -0.000969 0.033039 -0.006867 0.000000 0.000000 0.000000
# 3 -0.005284 -0.006867 0.008451 0.000000 0.000000 0.000000
# 4 0.000000 0.000000 0.000000 0.522427 0.000000 0.000000
# 5 0.000000 0.000000 0.000000 0.000000 0.098082 0.000000
# 6 0.000000 0.000000 0.000000 0.000000 0.000000 0.241593
#
#
# Mechanical properties :
#
#
# Convention : Reuss Voigt Hill
#
# Bulk Modulus (GPa) = 33.86707 69.83036 51.84872
# Shear Modulus (GPa) = 5.24136 16.70461 10.97299
#
# Velocity S-wave (km/s) = 1.71974 3.07014 2.48830
# Velocity P-wave (km/s) = 4.80138 7.20905 6.12469
#
# Compressibility (1/GPa) = 0.02952720
#
# Stress axis : x y z
#
# Youngs Moduli (GPa) = 70.04002 30.26761 118.33228
#
# Poissons Ratio (x) = 0.02933 0.62524
# Poissons Ratio (y) = 0.06787 0.81260
# Poissons Ratio (z) = 0.37008 0.20785
#
# Static dielectric constant tensor:
#      x y z
#    x 3.147720 0.000000 0.000000 
#    y 0.000000 2.724270 0.000000 
#    z 0.000000 0.000000 3.657240 
# 
# 
# High freq. dielectric constant tensor:
#      x y z
#    x 1.659530 0.000000 0.000000 
#    y 0.000000 1.611960 0.000000 
#    z 0.000000 0.000000 1.709570 
# 
# From -- ./inp_files/6245.got.cif
#   From: 2010.03.12/outbox.cif.g09.slc.cpg/sg25_4_cif.got.tgz:6245.got - 2010.04.14 03:30:10.
