data_PCOD8167584
_publ_section_title
;
Structure prediction by ZEFSAII (Michael W. Deem and Ramdas Pophale) SiO2 
 PCOD8167584
Probable space group: P M C 21
;
_chemical_formula_sum "Si O2"
_cell_formula_units_Z 32
_cell_length_a 9.100226
_cell_length_b 13.373452
_cell_length_c 12.926784
_cell_angle_alpha 90.000000
_cell_angle_beta 90.000000
_cell_angle_gamma 90.000000
_cell_volume 1573.208170
_symmetry_space_group_name_H-M "P M C 21"
_symmetry_group_IT_number 26
_symmetry_cell_setting 'orthorhombic'
loop_
_space_group_symop_operation_xyz
x,y,z
-x,-y,1/2+z
-x,y,z
x,-y,1/2+z
loop_
_atom_site_type_symbol
_atom_site_label
_atom_site_fract_x
_atom_site_fract_y
_atom_site_fract_z
Si Si1 0.163484 0.600459 0.453580
Si Si2 0.672837 0.744966 0.108994
Si Si3 0.672506 0.479808 0.612178
Si Si4 0.826243 0.828436 0.478296
Si Si5 0.672765 0.100695 0.777901
Si Si6 0.672112 0.740034 0.879459
Si Si7 0.328742 0.883223 0.691702
Si Si8 0.836143 0.559056 0.796010
O O1 0.283452 0.528984 0.504784
O O2 0.216816 0.714309 0.452190
O O3 0.158399 0.554459 0.338822
O O4 0.000000 0.592453 0.504541
O O5 0.500000 0.743039 0.125019
O O6 0.736013 0.632649 0.121732
O O7 0.738394 0.816730 0.198015
O O8 0.709023 0.786254 0.993118
O O9 0.500000 0.479442 0.625616
O O10 0.742013 0.556829 0.692741
O O11 0.754634 0.895134 0.388007
O O12 0.763385 0.856954 0.590092
O O13 0.000000 0.845909 0.478590
O O14 0.500000 0.114467 0.798841
O O15 0.706270 0.995509 0.724650
O O16 0.500000 0.714822 0.872911
O O17 0.720775 0.814058 0.787860
O O18 0.761102 0.637103 0.873646
O O19 0.500000 0.868025 0.666209
O O20 0.000000 0.597549 0.771558
#
# Coordination Sequence:
#
# PCOD8167584 Si02
#       8
#     4   4   4   4   4   4   4   4
#     4  10  22  39  57  82 118 159 197 236 287 348
#     4   9  19  36  60  91 124 153 194 253 305 353
#     4  11  21  34  57  86 117 156 197 244 293 344
#     4  11  24  42  62  87 125 162 200 250 300 361
#     4  10  22  41  67  93 119 156 202 253 308 361
#     4  10  20  38  61  91 124 156 200 251 302 359
#     4  10  23  40  66  94 119 157 202 253 306 359
#     4  11  22  36  56  84 120 161 198 238 289 351
#
# _framework density 20.340600999999999
#
# number of rings (size 3 to 8) (size 9 to 14) (size 15 to 20)
#    0.000    1.750    1.250    2.625    1.750    4.500 
#    0.000    1.250    0.000    0.000    0.000    0.000 
#    0.000    0.000    0.000    0.000    0.000    0.000 
#
# Total GULP energy -396721.830210 kJ/mol
# GULP energy per Si atom -12397.557194 kJ/mol
# Density = 2.029431 g / cm^3
# Si number density = 20.340601 Si / 1000 Ang^3
#
#
#
# Elastic Constant Matrix: (Units=GPa)
#
#
# Indices 1 2 3 4 5 6 
#
# 1 72.3861 35.2565 43.3408 0.0000 0.0000 0.0000
# 2 35.2565 84.1142 26.4548 0.0000 0.0000 0.0000
# 3 43.3408 26.4548 114.5077 0.0000 0.0000 0.0000
# 4 0.0000 0.0000 0.0000 34.5859 0.0000 0.0000
# 5 0.0000 0.0000 0.0000 0.0000 24.5398 0.0000
# 6 0.0000 0.0000 0.0000 0.0000 0.0000 23.8273
#
#
#
# Elastic Compliance Matrix: (Units=1/GPa)
#
#
# Indices 1 2 3 4 5 6 
#
# 1 0.020915 -0.006769 -0.006353 0.000000 0.000000 0.000000
# 2 -0.006769 0.015011 -0.000906 0.000000 0.000000 0.000000
# 3 -0.006353 -0.000906 0.011347 0.000000 0.000000 0.000000
# 4 0.000000 0.000000 0.000000 0.028913 0.000000 0.000000
# 5 0.000000 0.000000 0.000000 0.000000 0.040750 0.000000
# 6 0.000000 0.000000 0.000000 0.000000 0.000000 0.041969
#
#
# Mechanical properties :
#
#
# Convention : Reuss Voigt Hill
#
# Bulk Modulus (GPa) = 52.03420 53.45692 52.74556
# Shear Modulus (GPa) = 25.85781 27.65433 26.75607
#
# Velocity S-wave (km/s) = 3.56931 3.69123 3.63078
# Velocity P-wave (km/s) = 6.52868 6.67119 6.60032
#
# Compressibility (1/GPa) = 0.01921813
#
# Stress axis : x y z
#
# Youngs Moduli (GPa) = 47.81236 66.61946 88.13086
#
# Poissons Ratio (x) = 0.45092 0.55985
# Poissons Ratio (y) = 0.32362 0.07985
# Poissons Ratio (z) = 0.30373 0.06036
#
# Static dielectric constant tensor:
#      x y z
#    x 3.504590 0.000000 0.000000 
#    y 0.000000 3.760550 0.000000 
#    z 0.000000 0.000000 3.729880 
# 
# 
# High freq. dielectric constant tensor:
#      x y z
#    x 1.776980 0.000000 0.000000 
#    y 0.000000 1.794770 0.000000 
#    z 0.000000 0.000000 1.806630 
# 
# From -- ./inp_files/3096.got.cif
#   From: 2010.03.12/outbox.cif.g09.slc.cpg/sg26_2_cif.got.tgz:3096.got - 2010.04.14 03:33:09.
