data_PCOD8167168
_publ_section_title
;
Structure prediction by ZEFSAII (Michael W. Deem and Ramdas Pophale) SiO2 
 PCOD8167168
Probable space group: P M C 21
;
_chemical_formula_sum "Si O2"
_cell_formula_units_Z 26
_cell_length_a 7.877291
_cell_length_b 13.681872
_cell_length_c 12.254045
_cell_angle_alpha 90.000000
_cell_angle_beta 90.000000
_cell_angle_gamma 90.000000
_cell_volume 1320.693022
_symmetry_space_group_name_H-M "P M C 21"
_symmetry_group_IT_number 26
_symmetry_cell_setting 'orthorhombic'
loop_
_space_group_symop_operation_xyz
x,y,z
-x,-y,1/2+z
-x,y,z
x,-y,1/2+z
loop_
_atom_site_type_symbol
_atom_site_label
_atom_site_fract_x
_atom_site_fract_y
_atom_site_fract_z
Si Si1 0.000000 0.149240 0.062191
Si Si2 0.000000 0.829217 0.799508
Si Si3 0.308431 0.644758 0.266920
Si Si4 0.688287 0.288581 0.367789
Si Si5 0.000000 0.930812 0.023486
Si Si6 0.806662 0.561248 0.717731
Si Si7 0.696882 0.801293 0.095441
Si Si8 0.187146 0.331445 0.004996
O O1 0.000000 0.112812 0.187044
O O2 0.833621 0.215681 0.034684
O O3 0.000000 0.046309 0.002199
O O4 0.172078 0.766869 0.797175
O O5 0.000000 0.901322 0.898878
O O6 0.500000 0.621032 0.233719
O O7 0.198332 0.555778 0.219663
O O8 0.252255 0.744578 0.206157
O O9 0.298299 0.658468 0.396691
O O10 0.500000 0.248161 0.341761
O O11 0.704309 0.400553 0.325214
O O12 0.724297 0.276329 0.496637
O O13 0.171922 0.891660 0.082515
O O14 0.729347 0.607707 0.605552
O O15 0.000000 0.597587 0.725251
O O16 0.500000 0.838853 0.098351
O O17 0.000000 0.376462 0.979796
#
# Coordination Sequence:
#
# PCOD8167168 Si02
#       8
#     2   2   4   4   2   4   4   4
#     4  10  20  42  62  92 117 151 202 254 301 371
#     4  10  18  40  54  91 117 145 201 244 301 350
#     4  11  24  38  56  86 127 164 199 244 299 364
#     4  10  18  35  60  82 114 153 195 247 290 342
#     4  10  22  36  72  87 112 168 197 248 316 357
#     4  11  21  37  58  85 117 157 201 246 287 359
#     4   9  22  40  57  89 122 150 203 253 295 355
#     4   9  21  40  58  84 120 152 197 248 299 354
#
# _framework density 19.686634999999999
#
# number of rings (size 3 to 8) (size 9 to 14) (size 15 to 20)
#    0.462    1.538    2.308    0.923    4.308    2.462 
#    0.000    1.538    0.000    3.692    0.000    0.000 
#    0.000    0.000    0.000    0.000    0.000    0.000 
#
# Total GULP energy -322186.534447 kJ/mol
# GULP energy per Si atom -12391.789786 kJ/mol
# Density = 1.964183 g / cm^3
# Si number density = 19.686635 Si / 1000 Ang^3
#
#
#
# Elastic Constant Matrix: (Units=GPa)
#
#
# Indices 1 2 3 4 5 6 
#
# 1 82.3929 26.9891 21.8460 0.0000 0.0000 0.0000
# 2 26.9891 110.2855 40.6888 0.0000 0.0000 0.0000
# 3 21.8460 40.6888 95.7793 0.0000 0.0000 0.0000
# 4 0.0000 0.0000 0.0000 22.2105 0.0000 0.0000
# 5 0.0000 0.0000 0.0000 0.0000 24.9542 0.0000
# 6 0.0000 0.0000 0.0000 0.0000 0.0000 5.9491
#
#
#
# Elastic Compliance Matrix: (Units=1/GPa)
#
#
# Indices 1 2 3 4 5 6 
#
# 1 0.013507 -0.002572 -0.001988 0.000000 0.000000 0.000000
# 2 -0.002572 0.011242 -0.004189 0.000000 0.000000 0.000000
# 3 -0.001988 -0.004189 0.012674 0.000000 0.000000 0.000000
# 4 0.000000 0.000000 0.000000 0.045024 0.000000 0.000000
# 5 0.000000 0.000000 0.000000 0.000000 0.040073 0.000000
# 6 0.000000 0.000000 0.000000 0.000000 0.000000 0.168092
#
#
# Mechanical properties :
#
#
# Convention : Reuss Voigt Hill
#
# Bulk Modulus (GPa) = 50.19031 51.94506 51.06769
# Shear Modulus (GPa) = 15.88551 23.88502 19.88526
#
# Velocity S-wave (km/s) = 2.84371 3.48697 3.18164
# Velocity P-wave (km/s) = 6.02762 6.53109 6.28440
#
# Compressibility (1/GPa) = 0.01992416
#
# Stress axis : x y z
#
# Youngs Moduli (GPa) = 74.03811 88.94908 78.90266
#
# Poissons Ratio (x) = 0.22876 0.15687
# Poissons Ratio (y) = 0.19041 0.33055
# Poissons Ratio (z) = 0.14720 0.37264
#
# Static dielectric constant tensor:
#      x y z
#    x 3.558420 0.000000 0.000000 
#    y 0.000000 3.259950 0.000000 
#    z 0.000000 0.000000 3.578420 
# 
# 
# High freq. dielectric constant tensor:
#      x y z
#    x 1.761020 0.000000 0.000000 
#    y 0.000000 1.736500 0.000000 
#    z 0.000000 0.000000 1.774240 
# 
# From -- ./inp_files/2910.got.cif
#   From: 2010.03.12/outbox.cif.g09.slc.cpg/sg26_2_cif.got.tgz:2910.got - 2010.04.14 03:33:09.
