data_PCOD8167079
_publ_section_title
;
Structure prediction by ZEFSAII (Michael W. Deem and Ramdas Pophale) SiO2 
 PCOD8167079
Probable space group: P M C 21
;
_chemical_formula_sum "Si O2"
_cell_formula_units_Z 28
_cell_length_a 10.394808
_cell_length_b 5.264678
_cell_length_c 28.473495
_cell_angle_alpha 90.000000
_cell_angle_beta 90.000000
_cell_angle_gamma 90.000000
_cell_volume 1558.221040
_symmetry_space_group_name_H-M "P M C 21"
_symmetry_group_IT_number 26
_symmetry_cell_setting 'orthorhombic'
loop_
_space_group_symop_operation_xyz
x,y,z
-x,-y,1/2+z
-x,y,z
x,-y,1/2+z
loop_
_atom_site_type_symbol
_atom_site_label
_atom_site_fract_x
_atom_site_fract_y
_atom_site_fract_z
Si Si1 0.846480 0.950279 0.341730
Si Si2 0.846403 0.943008 0.234915
Si Si3 0.746451 0.453699 0.081986
Si Si4 0.151414 0.451167 0.392153
Si Si5 0.643206 0.943863 0.046970
Si Si6 0.145736 0.313083 0.495762
Si Si7 0.150430 0.557032 0.684807
O O1 0.797266 0.942266 0.288344
O O2 0.789816 0.705690 0.369190
O O3 0.000000 0.949367 0.343771
O O4 0.790807 0.202923 0.366468
O O5 0.789932 0.694239 0.208858
O O6 0.000000 0.943458 0.232721
O O7 0.789835 0.191954 0.208921
O O8 0.653787 0.701371 0.082141
O O9 0.825979 0.441107 0.129538
O O10 0.664035 0.198881 0.076539
O O11 0.845177 0.480239 0.037856
O O12 0.185741 0.446427 0.447207
O O13 0.000000 0.453225 0.384220
O O14 0.500000 0.949458 0.024813
O O15 0.752042 0.914694 0.006121
O O16 0.000000 0.203237 0.492893
O O17 0.000000 0.556807 0.694210
#
# Coordination Sequence:
#
# PCOD8167079 Si02
#       7
#     4   4   4   4   4   4   4
#     4   9  16  27  41  62  95 138 170 202 251 308
#     4   9  17  27  42  63  98 138 173 207 252 310
#     4  10  21  34  53  73 105 139 172 217 256 307
#     4   9  17  27  43  66  97 131 171 206 250 309
#     4  10  22  38  55  73 105 144 178 217 255 306
#     4   9  21  34  53  80 109 141 175 216 262 312
#     4  10  18  29  45  71 101 135 173 209 256 310
#
# _framework density 17.969211999999999
#
# number of rings (size 3 to 8) (size 9 to 14) (size 15 to 20)
#    0.857    1.714    0.000    2.571    2.000    4.571 
#    0.000    0.000    0.000    0.000    0.000    0.000 
#    0.000   22.857    0.000    0.000    0.000    0.000 
#
# Total GULP energy -346979.148799 kJ/mol
# GULP energy per Si atom -12392.112457 kJ/mol
# Density = 1.792831 g / cm^3
# Si number density = 17.969212 Si / 1000 Ang^3
#
#
#
# Elastic Constant Matrix: (Units=GPa)
#
#
# Indices 1 2 3 4 5 6 
#
# 1 41.3008 16.2338 10.5372 0.0000 0.0000 0.0000
# 2 16.2338 161.6516 68.9159 0.0000 0.0000 0.0000
# 3 10.5372 68.9159 154.4270 0.0000 0.0000 0.0000
# 4 0.0000 0.0000 0.0000 26.6837 0.0000 0.0000
# 5 0.0000 0.0000 0.0000 0.0000 2.2174 0.0000
# 6 0.0000 0.0000 0.0000 0.0000 0.0000 7.8420
#
#
#
# Elastic Compliance Matrix: (Units=1/GPa)
#
#
# Indices 1 2 3 4 5 6 
#
# 1 0.025274 -0.002227 -0.000731 0.000000 0.000000 0.000000
# 2 -0.002227 0.007836 -0.003345 0.000000 0.000000 0.000000
# 3 -0.000731 -0.003345 0.008018 0.000000 0.000000 0.000000
# 4 0.000000 0.000000 0.000000 0.037476 0.000000 0.000000
# 5 0.000000 0.000000 0.000000 0.000000 0.450980 0.000000
# 6 0.000000 0.000000 0.000000 0.000000 0.000000 0.127519
#
#
# Mechanical properties :
#
#
# Convention : Reuss Voigt Hill
#
# Bulk Modulus (GPa) = 35.05898 60.97258 48.01578
# Shear Modulus (GPa) = 7.36144 24.79480 16.07812
#
# Velocity S-wave (km/s) = 2.02623 3.71866 2.99450
# Velocity P-wave (km/s) = 5.00271 7.24177 6.22376
#
# Compressibility (1/GPa) = 0.02852336
#
# Stress axis : x y z
#
# Youngs Moduli (GPa) = 39.56597 127.61996 124.71694
#
# Poissons Ratio (x) = 0.28415 0.09116
# Poissons Ratio (y) = 0.08810 0.41717
# Poissons Ratio (z) = 0.02892 0.42688
#
# Static dielectric constant tensor:
#      x y z
#    x 2.669640 0.000000 0.000000 
#    y 0.000000 3.595030 0.000000 
#    z 0.000000 0.000000 3.282670 
# 
# 
# High freq. dielectric constant tensor:
#      x y z
#    x 1.618680 0.000000 0.000000 
#    y 0.000000 1.712150 0.000000 
#    z 0.000000 0.000000 1.698290 
# 
# From -- ./inp_files/5652.got.cif
#   From: 2010.03.12/outbox.cif.g09.slc.cpg/sg26_3_cif.got.tgz:5652.got - 2010.04.14 03:33:09.
