data_PCOD8167302
_publ_section_title
;
Structure prediction by ZEFSAII (Michael W. Deem and Ramdas Pophale) SiO2 
 PCOD8167302
Probable space group: P M C 21
;
_chemical_formula_sum "Si O2"
_cell_formula_units_Z 32
_cell_length_a 13.390584
_cell_length_b 15.286825
_cell_length_c 8.743714
_cell_angle_alpha 90.000000
_cell_angle_beta 90.000000
_cell_angle_gamma 90.000000
_cell_volume 1789.834009
_symmetry_space_group_name_H-M "P M C 21"
_symmetry_group_IT_number 26
_symmetry_cell_setting 'orthorhombic'
loop_
_space_group_symop_operation_xyz
x,y,z
-x,-y,1/2+z
-x,y,z
x,-y,1/2+z
loop_
_atom_site_type_symbol
_atom_site_label
_atom_site_fract_x
_atom_site_fract_y
_atom_site_fract_z
Si Si1 0.111884 0.619193 0.972000
Si Si2 0.113037 0.442795 0.132318
Si Si3 0.381135 0.106326 0.637213
Si Si4 0.303014 0.722880 0.982477
Si Si5 0.381764 0.069260 0.977647
Si Si6 0.616150 0.236752 0.155538
Si Si7 0.385410 0.433951 0.661116
Si Si8 0.307843 0.602158 0.487689
O O1 0.134178 0.572920 0.810304
O O2 0.000000 0.657361 0.978086
O O3 0.129369 0.545945 0.101472
O O4 0.186535 0.699147 0.002090
O O5 0.190763 0.387080 0.030333
O O6 0.000000 0.415071 0.086374
O O7 0.500000 0.120705 0.628135
O O8 0.325302 0.192408 0.582162
O O9 0.345530 0.025784 0.532027
O O10 0.342632 0.086735 0.807472
O O11 0.371219 0.642370 0.037027
O O12 0.322521 0.739586 0.805299
O O13 0.500000 0.072384 0.977085
O O14 0.342850 0.144248 0.092345
O O15 0.500000 0.230223 0.198297
O O16 0.633407 0.308932 0.024970
O O17 0.500000 0.437763 0.713378
O O18 0.355179 0.525316 0.587946
O O19 0.317462 0.416581 0.808686
#
# Coordination Sequence:
#
# PCOD8167302 Si02
#       8
#     4   4   4   4   4   4   4   4
#     4  10  21  38  58  80 105 140 185 240 288 326
#     4  10  20  38  58  77 102 137 185 239 283 319
#     4  10  19  34  55  80 112 145 182 225 272 322
#     4  12  22  35  53  80 109 145 183 226 275 330
#     4   9  19  35  55  80 109 145 186 229 268 315
#     4  11  21  34  52  76 109 146 186 224 267 327
#     4  12  24  35  49  72 110 150 186 219 264 331
#     4  12  22  37  51  75 104 148 186 224 276 324
#
# _framework density 17.878751999999999
#
# number of rings (size 3 to 8) (size 9 to 14) (size 15 to 20)
#    0.000    1.250    2.500    5.250    0.000    3.000 
#    0.000    0.000    0.000    0.000    0.000    4.375 
#    0.000    0.000    0.000    0.000    0.000    0.000 
#
# Total GULP energy -396921.529254 kJ/mol
# GULP energy per Si atom -12403.797789 kJ/mol
# Density = 1.783806 g / cm^3
# Si number density = 17.878752 Si / 1000 Ang^3
#
#
#
# Elastic Constant Matrix: (Units=GPa)
#
#
# Indices 1 2 3 4 5 6 
#
# 1 85.9497 45.3583 32.2216 0.0000 0.0000 0.0000
# 2 45.3583 89.7674 22.5697 0.0000 0.0000 0.0000
# 3 32.2216 22.5697 82.4081 0.0000 0.0000 0.0000
# 4 0.0000 0.0000 0.0000 34.2589 0.0000 0.0000
# 5 0.0000 0.0000 0.0000 0.0000 23.7465 0.0000
# 6 0.0000 0.0000 0.0000 0.0000 0.0000 15.9430
#
#
#
# Elastic Compliance Matrix: (Units=1/GPa)
#
#
# Indices 1 2 3 4 5 6 
#
# 1 0.017427 -0.007617 -0.004728 0.000000 0.000000 0.000000
# 2 -0.007617 0.015293 -0.001210 0.000000 0.000000 0.000000
# 3 -0.004728 -0.001210 0.014315 0.000000 0.000000 0.000000
# 4 0.000000 0.000000 0.000000 0.029190 0.000000 0.000000
# 5 0.000000 0.000000 0.000000 0.000000 0.042112 0.000000
# 6 0.000000 0.000000 0.000000 0.000000 0.000000 0.062724
#
#
# Mechanical properties :
#
#
# Convention : Reuss Voigt Hill
#
# Bulk Modulus (GPa) = 50.18886 50.93605 50.56246
# Shear Modulus (GPa) = 23.27637 25.32136 24.29886
#
# Velocity S-wave (km/s) = 3.61210 3.76744 3.69059
# Velocity P-wave (km/s) = 6.74753 6.89031 6.81929
#
# Compressibility (1/GPa) = 0.01992474
#
# Stress axis : x y z
#
# Youngs Moduli (GPa) = 57.38307 65.38999 69.85808
#
# Poissons Ratio (x) = 0.49806 0.33027
# Poissons Ratio (y) = 0.43708 0.08454
# Poissons Ratio (z) = 0.27130 0.07913
#
# Static dielectric constant tensor:
#      x y z
#    x 3.281450 0.000000 0.000000 
#    y 0.000000 3.354350 0.000000 
#    z 0.000000 0.000000 3.497430 
# 
# 
# High freq. dielectric constant tensor:
#      x y z
#    x 1.667590 0.000000 0.000000 
#    y 0.000000 1.681910 0.000000 
#    z 0.000000 0.000000 1.709550 
# 
# From -- ./inp_files/2270.got.cif
#   From: 2010.03.12/outbox.cif.g09.slc.cpg/sg26_2_cif.got.tgz:2270.got - 2010.04.14 03:33:09.
