data_PCOD8167063
_publ_section_title
;
Structure prediction by ZEFSAII (Michael W. Deem and Ramdas Pophale) SiO2 
 PCOD8167063
Probable space group: P M C 21
;
_chemical_formula_sum "Si O2"
_cell_formula_units_Z 32
_cell_length_a 9.191696
_cell_length_b 9.617331
_cell_length_c 21.755091
_cell_angle_alpha 90.000000
_cell_angle_beta 90.000000
_cell_angle_gamma 90.000000
_cell_volume 1923.140970
_symmetry_space_group_name_H-M "P M C 21"
_symmetry_group_IT_number 26
_symmetry_cell_setting 'orthorhombic'
loop_
_space_group_symop_operation_xyz
x,y,z
-x,-y,1/2+z
-x,y,z
x,-y,1/2+z
loop_
_atom_site_type_symbol
_atom_site_label
_atom_site_fract_x
_atom_site_fract_y
_atom_site_fract_z
Si Si1 0.329269 0.897846 0.308450
Si Si2 0.832747 0.834908 0.829127
Si Si3 0.168241 0.258874 0.459033
Si Si4 0.665787 0.518919 0.474240
Si Si5 0.334625 0.307565 0.571138
Si Si6 0.168008 0.525400 0.793035
Si Si7 0.329730 0.670601 0.208292
Si Si8 0.831128 0.296530 0.895539
O O1 0.500000 0.900667 0.322165
O O2 0.292224 0.805791 0.248764
O O3 0.245091 0.839557 0.367944
O O4 0.269870 0.052723 0.295986
O O5 0.814780 0.850401 0.903416
O O6 0.782423 0.682436 0.807169
O O7 0.000000 0.862268 0.810717
O O8 0.251746 0.397585 0.435931
O O9 0.240262 0.209699 0.524221
O O10 0.000000 0.295986 0.470129
O O11 0.500000 0.534636 0.451193
O O12 0.671514 0.468669 0.545905
O O13 0.752610 0.662320 0.460221
O O14 0.500000 0.251828 0.569952
O O15 0.269424 0.301624 0.639544
O O16 0.256264 0.468060 0.734672
O O17 0.198272 0.425199 0.850360
O O18 0.000000 0.521583 0.775261
O O19 0.500000 0.640747 0.205817
O O20 0.000000 0.264452 0.906887
#
# Coordination Sequence:
#
# PCOD8167063 Si02
#       8
#     4   4   4   4   4   4   4   4
#     4  10  21  32  47  71  99 131 165 197 236 291
#     4  10  19  33  48  69 101 129 158 199 245 290
#     4   9  16  28  47  71  94 120 154 194 238 284
#     4   9  16  26  45  71  95 119 150 192 237 281
#     4   8  16  29  46  69  96 123 154 199 242 280
#     4   9  17  29  47  69  92 121 157 195 234 278
#     4   9  18  33  48  69  98 126 158 197 241 286
#     4  10  17  30  48  69  97 125 152 191 241 282
#
# _framework density 16.639446
#
# number of rings (size 3 to 8) (size 9 to 14) (size 15 to 20)
#    0.750    2.000    1.250    1.125    0.000    3.000 
#    0.000    0.000    0.000    1.500    0.000    5.250 
#    0.000    0.000    0.000    0.000    0.000    0.000 
#
# Total GULP energy -396443.985725 kJ/mol
# GULP energy per Si atom -12388.874554 kJ/mol
# Density = 1.660157 g / cm^3
# Si number density = 16.639446 Si / 1000 Ang^3
#
#
#
# Elastic Constant Matrix: (Units=GPa)
#
#
# Indices 1 2 3 4 5 6 
#
# 1 86.0363 36.7398 35.8560 0.0000 0.0000 0.0000
# 2 36.7398 79.7932 27.7389 0.0000 0.0000 0.0000
# 3 35.8560 27.7389 80.9301 0.0000 0.0000 0.0000
# 4 0.0000 0.0000 0.0000 14.3343 0.0000 0.0000
# 5 0.0000 0.0000 0.0000 0.0000 24.0145 0.0000
# 6 0.0000 0.0000 0.0000 0.0000 0.0000 27.3013
#
#
#
# Elastic Compliance Matrix: (Units=1/GPa)
#
#
# Indices 1 2 3 4 5 6 
#
# 1 0.016222 -0.005643 -0.005253 0.000000 0.000000 0.000000
# 2 -0.005643 0.016191 -0.003049 0.000000 0.000000 0.000000
# 3 -0.005253 -0.003049 0.015729 0.000000 0.000000 0.000000
# 4 0.000000 0.000000 0.000000 0.069763 0.000000 0.000000
# 5 0.000000 0.000000 0.000000 0.000000 0.041641 0.000000
# 6 0.000000 0.000000 0.000000 0.000000 0.000000 0.036628
#
#
# Mechanical properties :
#
#
# Convention : Reuss Voigt Hill
#
# Bulk Modulus (GPa) = 49.38047 49.71434 49.54740
# Shear Modulus (GPa) = 21.66242 22.89170 22.27706
#
# Velocity S-wave (km/s) = 3.61206 3.71313 3.66295
# Velocity P-wave (km/s) = 6.86565 6.95165 6.90878
#
# Compressibility (1/GPa) = 0.02025092
#
# Stress axis : x y z
#
# Youngs Moduli (GPa) = 61.64495 61.76381 63.57779
#
# Poissons Ratio (x) = 0.34854 0.33397
# Poissons Ratio (y) = 0.34787 0.19386
# Poissons Ratio (z) = 0.32382 0.18833
#
# Static dielectric constant tensor:
#      x y z
#    x 3.136080 0.000000 0.000000 
#    y 0.000000 2.877820 0.000000 
#    z 0.000000 0.000000 3.055730 
# 
# 
# High freq. dielectric constant tensor:
#      x y z
#    x 1.650240 0.000000 0.000000 
#    y 0.000000 1.609200 0.000000 
#    z 0.000000 0.000000 1.619430 
# 
# From -- ./inp_files/5580.got.cif
#   From: 2010.03.12/outbox.cif.g09.slc.cpg/sg26_3_cif.got.tgz:5580.got - 2010.04.14 03:33:09.
