data_PCOD8167044
_publ_section_title
;
Structure prediction by ZEFSAII (Michael W. Deem and Ramdas Pophale) SiO2 
 PCOD8167044
Probable space group: P M C 21
;
_chemical_formula_sum "Si O2"
_cell_formula_units_Z 18
_cell_length_a 20.841053
_cell_length_b 8.522979
_cell_length_c 5.289515
_cell_angle_alpha 90.000000
_cell_angle_beta 90.000000
_cell_angle_gamma 90.000000
_cell_volume 939.565214
_symmetry_space_group_name_H-M "P M C 21"
_symmetry_group_IT_number 26
_symmetry_cell_setting 'orthorhombic'
loop_
_space_group_symop_operation_xyz
x,y,z
-x,-y,1/2+z
-x,y,z
x,-y,1/2+z
loop_
_atom_site_type_symbol
_atom_site_label
_atom_site_fract_x
_atom_site_fract_y
_atom_site_fract_z
Si Si1 0.306221 0.167481 0.943060
Si Si2 0.500000 0.899126 0.958777
Si Si3 0.360294 0.816939 0.943235
Si Si4 0.157379 0.096962 0.945257
Si Si5 0.924970 0.594559 0.435232
O O1 0.330891 0.262402 0.696261
O O2 0.230587 0.149885 0.930335
O O3 0.342187 0.000774 0.954871
O O4 0.327196 0.261202 0.196463
O O5 0.436799 0.791914 0.932054
O O6 0.500000 0.026802 0.737103
O O7 0.142200 0.980008 0.715248
O O8 0.112004 0.244071 0.911721
O O9 0.905096 0.488554 0.196238
O O10 0.000000 0.633000 0.428971
#
# Coordination Sequence:
#
# PCOD8167044 Si02
#       5
#     4   2   4   4   4
#     4  10  16  27  39  62  97 127 160 203 267 300
#     4  12  16  20  34  52  78 140 178 186 230 328
#     4  10  16  25  36  56  96 134 166 200 256 312
#     4  12  21  33  58  86 107 138 184 222 269 319
#     4  10  23  43  60  78 111 149 177 215 273 325
#
# _framework density 19.157796999999999
#
# number of rings (size 3 to 8) (size 9 to 14) (size 15 to 20)
#    0.000    1.333    8.889    1.333    0.000    0.889 
#    0.000    0.000    0.000    0.000    0.000    0.000 
#    0.000    0.000    0.000   34.000    0.000    0.444 
#
# Total GULP energy -223125.689549 kJ/mol
# GULP energy per Si atom -12395.871642 kJ/mol
# Density = 1.911419 g / cm^3
# Si number density = 19.157797 Si / 1000 Ang^3
#
#
#
# Elastic Constant Matrix: (Units=GPa)
#
#
# Indices 1 2 3 4 5 6 
#
# 1 83.1788 36.5704 28.3555 0.0000 0.0000 0.0000
# 2 36.5704 27.0308 12.2249 0.0000 0.0000 0.0000
# 3 28.3555 12.2249 159.8600 0.0000 0.0000 0.0000
# 4 0.0000 0.0000 0.0000 14.3180 0.0000 0.0000
# 5 0.0000 0.0000 0.0000 0.0000 22.7726 0.0000
# 6 0.0000 0.0000 0.0000 0.0000 0.0000 0.6587
#
#
#
# Elastic Compliance Matrix: (Units=1/GPa)
#
#
# Indices 1 2 3 4 5 6 
#
# 1 0.030490 -0.040195 -0.002334 0.000000 0.000000 0.000000
# 2 -0.040195 0.091309 0.000147 0.000000 0.000000 0.000000
# 3 -0.002334 0.000147 0.006658 0.000000 0.000000 0.000000
# 4 0.000000 0.000000 0.000000 0.069842 0.000000 0.000000
# 5 0.000000 0.000000 0.000000 0.000000 0.043912 0.000000
# 6 0.000000 0.000000 0.000000 0.000000 0.000000 1.518215
#
#
# Mechanical properties :
#
#
# Convention : Reuss Voigt Hill
#
# Bulk Modulus (GPa) = 22.88721 47.15237 35.01979
# Shear Modulus (GPa) = 2.68853 20.41112 11.54982
#
# Velocity S-wave (km/s) = 1.18592 3.26762 2.45802
# Velocity P-wave (km/s) = 3.72127 6.23719 5.13568
#
# Compressibility (1/GPa) = 0.04369252
#
# Stress axis : x y z
#
# Youngs Moduli (GPa) = 32.79737 10.95185 150.18834
#
# Poissons Ratio (x) = 0.44021 0.35061
# Poissons Ratio (y) = 1.31829 -0.02208
# Poissons Ratio (z) = 0.07656 -0.00161
#
# Static dielectric constant tensor:
#      x y z
#    x 3.676320 0.000000 0.000000 
#    y 0.000000 2.751910 0.000000 
#    z 0.000000 0.000000 6.026850 
# 
# 
# High freq. dielectric constant tensor:
#      x y z
#    x 1.757960 0.000000 0.000000 
#    y 0.000000 1.658980 0.000000 
#    z 0.000000 0.000000 1.789410 
# 
# From -- ./inp_files/715.got.cif
#   From: 2010.03.12/outbox.cif.g09.slc.cpg/sg26_1_cif.got.tgz:715.got - 2010.04.14 03:33:09.
