data_PCOD8167620
_publ_section_title
;
Structure prediction by ZEFSAII (Michael W. Deem and Ramdas Pophale) SiO2 
 PCOD8167620
Probable space group: P M C 21
;
_chemical_formula_sum "Si O2"
_cell_formula_units_Z 22
_cell_length_a 15.698744
_cell_length_b 12.546505
_cell_length_c 4.956155
_cell_angle_alpha 90.000000
_cell_angle_beta 90.000000
_cell_angle_gamma 90.000000
_cell_volume 976.185948
_symmetry_space_group_name_H-M "P M C 21"
_symmetry_group_IT_number 26
_symmetry_cell_setting 'orthorhombic'
loop_
_space_group_symop_operation_xyz
x,y,z
-x,-y,1/2+z
-x,y,z
x,-y,1/2+z
loop_
_atom_site_type_symbol
_atom_site_label
_atom_site_fract_x
_atom_site_fract_y
_atom_site_fract_z
Si Si1 0.500000 0.930176 0.377350
Si Si2 0.000000 0.432212 0.326539
Si Si3 0.903818 0.927716 0.094282
Si Si4 0.635645 0.767046 0.563840
Si Si5 0.821155 0.571044 0.946941
Si Si6 0.500000 0.420113 0.083819
Si Si7 0.258405 0.777535 0.050614
O O1 0.581878 0.859102 0.426318
O O2 0.500000 0.033812 0.567440
O O3 0.086356 0.371412 0.407222
O O4 0.000000 0.541461 0.508248
O O5 0.000000 0.878491 0.060087
O O6 0.892303 0.027224 0.894199
O O7 0.829081 0.843156 0.042029
O O8 0.583249 0.656370 0.599242
O O9 0.714296 0.755236 0.357072
O O10 0.667415 0.818916 0.849203
O O11 0.809717 0.472998 0.747185
O O12 0.753419 0.663078 0.904338
O O13 0.500000 0.509023 0.315533
#
# Coordination Sequence:
#
# PCOD8167620 Si02
#       7
#     2   2   4   4   4   2   4
#     4  11  24  45  70  90 122 161 190 251 326 380
#     4   8  16  32  50  72 106 148 198 242 276 332
#     4  10  23  43  64  90 125 169 220 265 315 381
#     4  11  26  42  61 102 126 153 218 255 303 392
#     4  10  21  36  55  84 120 160 203 247 296 354
#     4  11  24  45  70  90 130 179 206 253 316 374
#     4  12  24  39  65  93 130 165 203 268 313 362
#
# _framework density 22.536688999999999
#
# number of rings (size 3 to 8) (size 9 to 14) (size 15 to 20)
#    0.000    1.455    0.000    4.364    1.273   11.636 
#    0.000    0.000    0.000    0.000    0.000    0.000 
#    0.000    0.000    0.000    0.000    0.000    0.000 
#
# Total GULP energy -272626.658230 kJ/mol
# GULP energy per Si atom -12392.120829 kJ/mol
# Density = 2.248539 g / cm^3
# Si number density = 22.536689 Si / 1000 Ang^3
#
#
#
# Elastic Constant Matrix: (Units=GPa)
#
#
# Indices 1 2 3 4 5 6 
#
# 1 110.2797 39.7805 22.3408 0.0000 0.0000 0.0000
# 2 39.7805 67.0664 5.5547 0.0000 0.0000 0.0000
# 3 22.3408 5.5547 97.8728 0.0000 0.0000 0.0000
# 4 0.0000 0.0000 0.0000 31.4599 0.0000 0.0000
# 5 0.0000 0.0000 0.0000 0.0000 33.0018 0.0000
# 6 0.0000 0.0000 0.0000 0.0000 0.0000 8.4863
#
#
#
# Elastic Compliance Matrix: (Units=1/GPa)
#
#
# Indices 1 2 3 4 5 6 
#
# 1 0.012054 -0.006955 -0.002357 0.000000 0.000000 0.000000
# 2 -0.006955 0.018994 0.000510 0.000000 0.000000 0.000000
# 3 -0.002357 0.000510 0.010726 0.000000 0.000000 0.000000
# 4 0.000000 0.000000 0.000000 0.031786 0.000000 0.000000
# 5 0.000000 0.000000 0.000000 0.000000 0.030301 0.000000
# 6 0.000000 0.000000 0.000000 0.000000 0.000000 0.117837
#
#
# Mechanical properties :
#
#
# Convention : Reuss Voigt Hill
#
# Bulk Modulus (GPa) = 41.37337 45.61899 43.49618
# Shear Modulus (GPa) = 20.21354 28.42579 24.31967
#
# Velocity S-wave (km/s) = 2.99811 3.55535 3.28855
# Velocity P-wave (km/s) = 5.51207 6.09426 5.81046
#
# Compressibility (1/GPa) = 0.02417013
#
# Stress axis : x y z
#
# Youngs Moduli (GPa) = 82.95995 52.64945 93.22803
#
# Poissons Ratio (x) = 0.36616 0.21972
# Poissons Ratio (y) = 0.57696 -0.04750
# Poissons Ratio (z) = 0.19552 -0.02683
#
# Static dielectric constant tensor:
#      x y z
#    x 4.478500 0.000000 0.000000 
#    y 0.000000 3.690320 0.000000 
#    z 0.000000 0.000000 4.106990 
# 
# 
# High freq. dielectric constant tensor:
#      x y z
#    x 1.905090 0.000000 0.000000 
#    y 0.000000 1.863950 0.000000 
#    z 0.000000 0.000000 1.906570 
# 
# From -- ./inp_files/575.got.cif
#   From: 2010.03.12/outbox.cif.g09.slc.cpg/sg26_1_cif.got.tgz:575.got - 2010.04.14 03:33:09.
