data_PCOD8167002
_publ_section_title
;
Structure prediction by ZEFSAII (Michael W. Deem and Ramdas Pophale) SiO2 
 PCOD8167002
Probable space group: P M M 2
;
_chemical_formula_sum "Si O2"
_cell_formula_units_Z 32
_cell_length_a 9.765032
_cell_length_b 9.239077
_cell_length_c 20.922660
_cell_angle_alpha 90.000000
_cell_angle_beta 90.000000
_cell_angle_gamma 90.000000
_cell_volume 1887.639928
_symmetry_space_group_name_H-M "P M M 2"
_symmetry_group_IT_number 25
_symmetry_cell_setting 'orthorhombic'
loop_
_space_group_symop_operation_xyz
x,y,z
-x,-y,z
-x,y,z
x,-y,z
loop_
_atom_site_type_symbol
_atom_site_label
_atom_site_fract_x
_atom_site_fract_y
_atom_site_fract_z
Si Si1 0.162689 0.664804 0.699220
Si Si2 0.837067 0.663486 0.455948
Si Si3 0.660192 0.166447 0.074873
Si Si4 0.348568 0.171875 0.217737
Si Si5 0.841399 0.169455 0.330993
Si Si6 0.155864 0.672811 0.974360
Si Si7 0.162215 0.340118 0.836781
Si Si8 0.836439 0.163338 0.578306
O O1 0.216449 0.500000 0.691569
O O2 0.206848 0.733044 0.768945
O O3 0.223551 0.763807 0.642783
O O4 0.000000 0.663939 0.693750
O O5 0.779795 0.500000 0.456066
O O6 0.785771 0.745602 0.392645
O O7 0.779626 0.747261 0.517792
O O8 0.000000 0.663477 0.457671
O O9 0.500000 0.186196 0.060836
O O10 0.695082 0.221135 0.146611
O O11 0.745085 0.264696 0.027275
O O12 0.703812 0.000000 0.065770
O O13 0.500000 0.232421 0.234340
O O14 0.240708 0.229564 0.269688
O O15 0.353062 0.000000 0.218356
O O16 0.000000 0.202150 0.317955
O O17 0.815762 0.000000 0.342930
O O18 0.165948 0.500000 0.973927
O O19 0.000000 0.721579 0.988895
O O20 0.205309 0.734687 0.904143
O O21 0.226525 0.500000 0.835026
O O22 0.000000 0.353082 0.838528
O O23 0.000000 0.164283 0.578475
O O24 0.780628 0.000000 0.574100
#
# Coordination Sequence:
#
# PCOD8167002 Si02
#       8
#     4   4   4   4   4   4   4   4
#     4   8  12  19  32  48  68 100 139 171 202 246
#     4   9  16  25  36  51  75 107 138 167 203 247
#     4   9  18  32  48  66  89 117 149 184 221 263
#     4   8  15  29  47  64  83 109 140 173 210 254
#     4   9  16  26  42  63  83 104 134 172 210 247
#     4   9  17  29  45  66  91 118 149 185 224 266
#     4   7  11  21  36  53  76 107 140 173 210 253
#     4   9  15  21  30  47  73 104 137 172 206 241
#
# _framework density 16.952386000000001
#
# number of rings (size 3 to 8) (size 9 to 14) (size 15 to 20)
#    0.000    3.500    0.000    3.000    0.000    4.000 
#    0.000    2.500    0.000    4.875    0.000    0.000 
#    0.000    1.000    0.000    7.250    0.000    9.500 
#
# Total GULP energy -396419.212590 kJ/mol
# GULP energy per Si atom -12388.100393 kJ/mol
# Density = 1.691380 g / cm^3
# Si number density = 16.952386 Si / 1000 Ang^3
#
#
#
# Elastic Constant Matrix: (Units=GPa)
#
#
# Indices 1 2 3 4 5 6 
#
# 1 30.8920 20.9957 49.1707 0.0000 0.0000 0.0000
# 2 20.9957 67.7848 61.2465 0.0000 0.0000 0.0000
# 3 49.1707 61.2465 189.8936 0.0000 0.0000 0.0000
# 4 0.0000 0.0000 0.0000 28.9906 0.0000 0.0000
# 5 0.0000 0.0000 0.0000 0.0000 -0.4163 0.0000
# 6 0.0000 0.0000 0.0000 0.0000 0.0000 12.5263
#
#
#
# Elastic Compliance Matrix: (Units=1/GPa)
#
#
# Indices 1 2 3 4 5 6 
#
# 1 0.056784 -0.006073 -0.012745 0.000000 0.000000 0.000000
# 2 -0.006073 0.021469 -0.005352 0.000000 0.000000 0.000000
# 3 -0.012745 -0.005352 0.010292 0.000000 0.000000 0.000000
# 4 0.000000 0.000000 0.000000 0.034494 0.000000 0.000000
# 5 0.000000 0.000000 0.000000 0.000000 -2.402190 0.000000
# 6 0.000000 0.000000 0.000000 0.000000 0.000000 0.079832
#
#
# Mechanical properties :
#
#
# Convention : Reuss Voigt Hill
#
# Bulk Modulus (GPa) = 24.87152 61.26625 43.06888
# Shear Modulus (GPa) = -2.33910 18.69729 8.17910
#
# Velocity S-wave (km/s) = -1.17593 3.32464 2.19891
# Velocity P-wave (km/s) = 3.58602 7.13837 5.64871
#
# Compressibility (1/GPa) = 0.04020663
#
# Stress axis : x y z
#
# Youngs Moduli (GPa) = 17.61046 46.57795 97.15828
#
# Poissons Ratio (x) = 0.28286 1.23828
# Poissons Ratio (y) = 0.10694 0.52000
# Poissons Ratio (z) = 0.22445 0.24929
#
# Static dielectric constant tensor:
#      x y z
#    x 2.689880 0.000000 0.000000 
#    y 0.000000 2.998890 0.000000 
#    z 0.000000 0.000000 3.674390 
# 
# 
# High freq. dielectric constant tensor:
#      x y z
#    x 1.588380 0.000000 0.000000 
#    y 0.000000 1.626650 0.000000 
#    z 0.000000 0.000000 1.678900 
# 
# From -- ./inp_files/6368.got.cif
#   From: 2010.03.12/outbox.cif.g09.slc.cpg/sg25_4_cif.got.tgz:6368.got - 2010.04.14 03:30:10.
