data_PCOD8167848
_publ_section_title
;
Structure prediction by ZEFSAII (Michael W. Deem and Ramdas Pophale) SiO2 
 PCOD8167848
Probable space group: P C C 2
;
_chemical_formula_sum "Si O2"
_cell_formula_units_Z 20
_cell_length_a 8.453778
_cell_length_b 10.804329
_cell_length_c 9.030681
_cell_angle_alpha 90.000000
_cell_angle_beta 90.000000
_cell_angle_gamma 90.000000
_cell_volume 824.838912
_symmetry_space_group_name_H-M "P C C 2"
_symmetry_group_IT_number 27
_symmetry_cell_setting 'orthorhombic'
loop_
_space_group_symop_operation_xyz
x,y,z
-x,-y,z
-x,y,1/2+z
x,-y,1/2+z
loop_
_atom_site_type_symbol
_atom_site_label
_atom_site_fract_x
_atom_site_fract_y
_atom_site_fract_z
Si Si1 0.573336 0.661521 0.079960
Si Si2 0.145764 0.922650 0.976737
Si Si3 0.660372 0.076338 0.692306
Si Si4 0.801048 0.339070 0.060600
Si Si5 0.270065 0.514896 0.318781
O O1 0.651697 0.794190 0.106674
O O2 0.386781 0.683946 0.074341
O O3 0.619024 0.567037 0.210494
O O4 0.624211 0.605765 0.921536
O O5 0.287779 0.902916 0.861172
O O6 0.098708 0.786177 0.037079
O O7 0.000000 0.000000 0.907148
O O8 0.202700 0.998623 0.117194
O O9 0.500000 0.000000 0.690984
O O10 0.849259 0.403539 0.216336
O O11 0.838168 0.428412 0.922172
#
# Coordination Sequence:
#
# PCOD8167848 Si02
#       5
#     4   4   4   4   4
#     4  11  20  37  65 108 145 177 232 302 353 426
#     4  12  28  47  68 101 149 200 240 299 372 433
#     4  12  26  45  73 105 138 191 254 303 353 429
#     4  11  20  37  65 103 144 181 235 289 365 428
#     4  10  21  35  65 110 149 180 225 303 369 422
#
# _framework density 24.247159
#
# number of rings (size 3 to 8) (size 9 to 14) (size 15 to 20)
#    0.000    0.800    4.000    6.000    2.800    0.000 
#    0.000    0.000    0.000    7.200    0.000    0.000 
#    0.000    0.000    0.000    0.000    0.000    0.000 
#
# Total GULP energy -247986.360252 kJ/mol
# GULP energy per Si atom -12399.318013 kJ/mol
# Density = 2.419197 g / cm^3
# Si number density = 24.247159 Si / 1000 Ang^3
#
#
#
# Elastic Constant Matrix: (Units=GPa)
#
#
# Indices 1 2 3 4 5 6 
#
# 1 47.2521 40.4850 17.0342 0.0000 0.0000 0.0000
# 2 40.4850 204.1083 74.1852 0.0000 0.0000 0.0000
# 3 17.0342 74.1852 157.1773 0.0000 0.0000 0.0000
# 4 0.0000 0.0000 0.0000 33.7659 0.0000 0.0000
# 5 0.0000 0.0000 0.0000 0.0000 -32.6532 0.0000
# 6 0.0000 0.0000 0.0000 0.0000 0.0000 32.7338
#
#
#
# Elastic Compliance Matrix: (Units=1/GPa)
#
#
# Indices 1 2 3 4 5 6 
#
# 1 0.025523 -0.004897 -0.000455 0.000000 0.000000 0.000000
# 2 -0.004897 0.006854 -0.002704 0.000000 0.000000 0.000000
# 3 -0.000455 -0.002704 0.007688 0.000000 0.000000 0.000000
# 4 0.000000 0.000000 0.000000 0.029616 0.000000 0.000000
# 5 0.000000 0.000000 0.000000 0.000000 -0.030625 0.000000
# 6 0.000000 0.000000 0.000000 0.000000 0.000000 0.030549
#
#
# Mechanical properties :
#
#
# Convention : Reuss Voigt Hill
#
# Bulk Modulus (GPa) = 41.74949 74.66074 58.20512
# Shear Modulus (GPa) = 53.36158 25.22485 39.29322
#
# Velocity S-wave (km/s) = 4.69629 3.22890 4.02995
# Velocity P-wave (km/s) = 6.83100 6.69025 6.76099
#
# Compressibility (1/GPa) = 0.02395239
#
# Stress axis : x y z
#
# Youngs Moduli (GPa) = 39.18053 145.91017 130.07677
#
# Poissons Ratio (x) = 0.71456 0.05914
# Poissons Ratio (y) = 0.19188 0.35173
# Poissons Ratio (z) = 0.01781 0.39454
#
# Static dielectric constant tensor:
#      x y z
#    x 4.847930 0.000000 0.000000 
#    y 0.000000 4.924610 0.000000 
#    z 0.000000 0.000000 4.738960 
# 
# 
# High freq. dielectric constant tensor:
#      x y z
#    x 1.924480 0.000000 0.000000 
#    y 0.000000 1.982660 0.000000 
#    z 0.000000 0.000000 1.983440 
# 
# From -- ./inp_files/1059.got.cif
#   From: 2010.03.12/outbox.cif.g09.slc.cpg/sg27_1_cif.got.tgz:1059.got - 2010.04.14 03:36:05.
