data_PCOD8167597
_publ_section_title
;
Structure prediction by ZEFSAII (Michael W. Deem and Ramdas Pophale) SiO2 
 PCOD8167597
Probable space group: P M C 21
;
_chemical_formula_sum "Si O2"
_cell_formula_units_Z 22
_cell_length_a 14.701015
_cell_length_b 8.663714
_cell_length_c 8.877885
_cell_angle_alpha 90.000000
_cell_angle_beta 90.000000
_cell_angle_gamma 90.000000
_cell_volume 1130.735281
_symmetry_space_group_name_H-M "P M C 21"
_symmetry_group_IT_number 26
_symmetry_cell_setting 'orthorhombic'
loop_
_space_group_symop_operation_xyz
x,y,z
-x,-y,1/2+z
-x,y,z
x,-y,1/2+z
loop_
_atom_site_type_symbol
_atom_site_label
_atom_site_fract_x
_atom_site_fract_y
_atom_site_fract_z
Si Si1 0.000000 0.399599 0.659471
Si Si2 0.000000 0.819322 0.890132
Si Si3 0.000000 0.178851 0.933634
Si Si4 0.601130 0.354667 0.534084
Si Si5 0.665522 0.633316 0.696336
Si Si6 0.500000 0.117858 0.702481
Si Si7 0.872644 0.317928 0.159410
Si Si8 0.500000 0.802120 0.553456
O O1 0.910580 0.507186 0.637247
O O2 0.000000 0.246836 0.557381
O O3 0.000000 0.321980 0.820862
O O4 0.909158 0.749759 0.816119
O O5 0.000000 0.004581 0.873155
O O6 0.091006 0.202785 0.031110
O O7 0.500000 0.429081 0.508220
O O8 0.660631 0.453680 0.651341
O O9 0.648766 0.337599 0.372707
O O10 0.589237 0.190773 0.620031
O O11 0.764748 0.693294 0.655246
O O12 0.592166 0.711331 0.587311
O O13 0.500000 0.937976 0.675350
O O14 0.500000 0.146228 0.880674
#
# Coordination Sequence:
#
# PCOD8167597 Si02
#       8
#     2   2   2   4   4   2   4   2
#     4  10  20  40  66  88 120 164 206 272 310 382
#     4  10  21  44  65  88 126 162 204 264 331 390
#     4  10  21  44  63  90 126 162 204 264 335 380
#     4  10  21  40  58  90 121 172 209 259 313 363
#     4  12  23  38  64  91 129 160 218 267 309 374
#     4  10  23  42  65  84 120 184 208 250 327 358
#     4  10  23  39  63  95 121 162 216 258 321 386
#     4  12  21  44  61  88 134 168 208 262 305 382
#
# _framework density 19.456368000000001
#
# number of rings (size 3 to 8) (size 9 to 14) (size 15 to 20)
#    0.545    1.091    1.818    5.455    5.091    0.000 
#    6.545    0.000    0.000    0.000    0.000    0.000 
#    0.000    0.000    0.000    0.000    0.000    0.000 
#
# Total GULP energy -272641.618264 kJ/mol
# GULP energy per Si atom -12392.800830 kJ/mol
# Density = 1.941208 g / cm^3
# Si number density = 19.456368 Si / 1000 Ang^3
#
#
#
# Elastic Constant Matrix: (Units=GPa)
#
#
# Indices 1 2 3 4 5 6 
#
# 1 146.2649 25.1237 19.0404 0.0000 0.0000 0.0000
# 2 25.1237 85.6767 9.5374 0.0000 0.0000 0.0000
# 3 19.0404 9.5374 88.9814 0.0000 0.0000 0.0000
# 4 0.0000 0.0000 0.0000 41.2716 0.0000 0.0000
# 5 0.0000 0.0000 0.0000 0.0000 11.5625 0.0000
# 6 0.0000 0.0000 0.0000 0.0000 0.0000 9.0768
#
#
#
# Elastic Compliance Matrix: (Units=1/GPa)
#
#
# Indices 1 2 3 4 5 6 
#
# 1 0.007359 -0.002006 -0.001360 0.000000 0.000000 0.000000
# 2 -0.002006 0.012360 -0.000895 0.000000 0.000000 0.000000
# 3 -0.001360 -0.000895 0.011625 0.000000 0.000000 0.000000
# 4 0.000000 0.000000 0.000000 0.024230 0.000000 0.000000
# 5 0.000000 0.000000 0.000000 0.000000 0.086486 0.000000
# 6 0.000000 0.000000 0.000000 0.000000 0.000000 0.110171
#
#
# Mechanical properties :
#
#
# Convention : Reuss Voigt Hill
#
# Bulk Modulus (GPa) = 43.81983 47.59177 45.70580
# Shear Modulus (GPa) = 18.63168 30.19696 24.41432
#
# Velocity S-wave (km/s) = 3.09789 3.94386 3.54619
# Velocity P-wave (km/s) = 5.94701 6.72700 6.34900
#
# Compressibility (1/GPa) = 0.02282072
#
# Stress axis : x y z
#
# Youngs Moduli (GPa) = 135.89655 80.90720 86.02009
#
# Poissons Ratio (x) = 0.16234 0.11695
# Poissons Ratio (y) = 0.27267 0.07702
# Poissons Ratio (z) = 0.18476 0.07245
#
# Static dielectric constant tensor:
#      x y z
#    x 3.349100 0.000000 0.000000 
#    y 0.000000 3.478680 0.000000 
#    z 0.000000 0.000000 3.536110 
# 
# 
# High freq. dielectric constant tensor:
#      x y z
#    x 1.735640 0.000000 0.000000 
#    y 0.000000 1.756240 0.000000 
#    z 0.000000 0.000000 1.772440 
# 
# From -- ./inp_files/2103.got.cif
#   From: 2010.03.12/outbox.cif.g09.slc.cpg/sg26_2_cif.got.tgz:2103.got - 2010.04.14 03:33:09.
