data_PCOD8167511
_publ_section_title
;
Structure prediction by ZEFSAII (Michael W. Deem and Ramdas Pophale) SiO2 
 PCOD8167511
Probable space group: P M C 21
;
_chemical_formula_sum "Si O2"
_cell_formula_units_Z 32
_cell_length_a 8.676994
_cell_length_b 14.345622
_cell_length_c 12.699238
_cell_angle_alpha 90.000000
_cell_angle_beta 90.000000
_cell_angle_gamma 90.000000
_cell_volume 1580.761474
_symmetry_space_group_name_H-M "P M C 21"
_symmetry_group_IT_number 26
_symmetry_cell_setting 'orthorhombic'
loop_
_space_group_symop_operation_xyz
x,y,z
-x,-y,1/2+z
-x,y,z
x,-y,1/2+z
loop_
_atom_site_type_symbol
_atom_site_label
_atom_site_fract_x
_atom_site_fract_y
_atom_site_fract_z
Si Si1 0.825139 0.171732 0.046270
Si Si2 0.323672 0.541501 0.592415
Si Si3 0.676386 0.861028 0.880216
Si Si4 0.673243 0.284405 0.215408
Si Si5 0.680576 0.648761 0.187444
Si Si6 0.178055 0.830443 0.097650
Si Si7 0.817450 0.334577 0.914607
Si Si8 0.818163 0.021612 0.195391
O O1 0.808207 0.237596 0.148063
O O2 0.756229 0.072552 0.086506
O O3 0.000000 0.154449 0.014695
O O4 0.748659 0.231919 0.950785
O O5 0.500000 0.534797 0.556637
O O6 0.307149 0.604318 0.699603
O O7 0.259150 0.439019 0.619261
O O8 0.233805 0.584028 0.493601
O O9 0.500000 0.881386 0.911287
O O10 0.693008 0.755223 0.833786
O O11 0.728615 0.939869 0.796755
O O12 0.783151 0.868149 0.981978
O O13 0.500000 0.255700 0.175861
O O14 0.500000 0.640817 0.207598
O O15 0.717202 0.742543 0.124745
O O16 0.764264 0.644540 0.298347
O O17 0.000000 0.801302 0.102860
O O18 0.213023 0.911877 0.182527
O O19 0.000000 0.329892 0.918639
O O20 0.000000 0.042630 0.208903
#
# Coordination Sequence:
#
# PCOD8167511 Si02
#       8
#     4   4   4   4   4   4   4   4
#     4   8  15  30  53  80 107 136 175 223 273 328
#     4   9  19  37  59  81 108 147 192 233 278 336
#     4  10  20  35  58  87 116 145 181 230 286 341
#     4   8  15  30  53  80 107 136 175 223 273 328
#     4  11  24  40  57  80 114 154 194 236 283 335
#     4  11  24  40  57  80 114 154 194 236 283 335
#     4  10  20  35  58  87 116 145 181 230 286 341
#     4   9  19  37  59  81 108 147 192 233 278 336
#
# _framework density 20.243407999999999
#
# number of rings (size 3 to 8) (size 9 to 14) (size 15 to 20)
#    0.000    2.500    0.000    1.500    0.000    5.000 
#    0.000    5.000    0.000    0.000    0.000    0.000 
#    0.000    0.000    0.000    0.000    0.000    0.000 
#
# Total GULP energy -396427.618241 kJ/mol
# GULP energy per Si atom -12388.363070 kJ/mol
# Density = 2.019733 g / cm^3
# Si number density = 20.243408 Si / 1000 Ang^3
#
#
#
# Elastic Constant Matrix: (Units=GPa)
#
#
# Indices 1 2 3 4 5 6 
#
# 1 37.5996 17.6322 15.8762 0.0000 0.0000 0.0000
# 2 17.6322 107.2933 27.0272 0.0000 0.0000 0.0000
# 3 15.8762 27.0272 85.4990 0.0000 0.0000 0.0000
# 4 0.0000 0.0000 0.0000 23.8850 0.0000 0.0000
# 5 0.0000 0.0000 0.0000 0.0000 31.5003 0.0000
# 6 0.0000 0.0000 0.0000 0.0000 0.0000 26.5874
#
#
#
# Elastic Compliance Matrix: (Units=1/GPa)
#
#
# Indices 1 2 3 4 5 6 
#
# 1 0.030266 -0.003866 -0.004398 0.000000 0.000000 0.000000
# 2 -0.003866 0.010620 -0.002639 0.000000 0.000000 0.000000
# 3 -0.004398 -0.002639 0.013347 0.000000 0.000000 0.000000
# 4 0.000000 0.000000 0.000000 0.041867 0.000000 0.000000
# 5 0.000000 0.000000 0.000000 0.000000 0.031746 0.000000
# 6 0.000000 0.000000 0.000000 0.000000 0.000000 0.037612
#
#
# Mechanical properties :
#
#
# Convention : Reuss Voigt Hill
#
# Bulk Modulus (GPa) = 30.83869 39.05146 34.94508
# Shear Modulus (GPa) = 25.24313 27.71829 26.48071
#
# Velocity S-wave (km/s) = 3.53509 3.70435 3.62071
# Velocity P-wave (km/s) = 5.65062 6.13426 5.89740
#
# Compressibility (1/GPa) = 0.03242680
#
# Stress axis : x y z
#
# Youngs Moduli (GPa) = 33.04046 94.15825 74.92296
#
# Poissons Ratio (x) = 0.36401 0.32951
# Poissons Ratio (y) = 0.12773 0.19775
# Poissons Ratio (z) = 0.14531 0.24852
#
# Static dielectric constant tensor:
#      x y z
#    x 3.583330 0.000000 0.000000 
#    y 0.000000 3.947560 0.000000 
#    z 0.000000 0.000000 3.498340 
# 
# 
# High freq. dielectric constant tensor:
#      x y z
#    x 1.781900 0.000000 0.000000 
#    y 0.000000 1.794000 0.000000 
#    z 0.000000 0.000000 1.775000 
# 
# From -- ./inp_files/3056.got.cif
#   From: 2010.03.12/outbox.cif.g09.slc.cpg/sg26_2_cif.got.tgz:3056.got - 2010.04.14 03:33:09.
