data_PCOD8167250
_publ_section_title
;
Structure prediction by ZEFSAII (Michael W. Deem and Ramdas Pophale) SiO2 
 PCOD8167250
Probable space group: P M C 21
;
_chemical_formula_sum "Si O2"
_cell_formula_units_Z 32
_cell_length_a 13.492080
_cell_length_b 15.360682
_cell_length_c 8.960101
_cell_angle_alpha 90.000000
_cell_angle_beta 90.000000
_cell_angle_gamma 90.000000
_cell_volume 1856.958984
_symmetry_space_group_name_H-M "P M C 21"
_symmetry_group_IT_number 26
_symmetry_cell_setting 'orthorhombic'
loop_
_space_group_symop_operation_xyz
x,y,z
-x,-y,1/2+z
-x,y,z
x,-y,1/2+z
loop_
_atom_site_type_symbol
_atom_site_label
_atom_site_fract_x
_atom_site_fract_y
_atom_site_fract_z
Si Si1 0.889200 0.383404 0.281240
Si Si2 0.305773 0.400493 0.809798
Si Si3 0.612564 0.940672 0.522073
Si Si4 0.696029 0.714397 0.797923
Si Si5 0.383431 0.752916 0.478923
Si Si6 0.614620 0.437759 0.491637
Si Si7 0.613672 0.104829 0.361331
Si Si8 0.111725 0.444721 0.949956
O O1 0.813115 0.305097 0.308926
O O2 0.873888 0.453252 0.413140
O O3 0.000000 0.344149 0.283751
O O4 0.867544 0.431859 0.124902
O O5 0.358204 0.307383 0.838014
O O6 0.355456 0.472079 0.915799
O O7 0.318664 0.425400 0.638171
O O8 0.189471 0.390185 0.850224
O O9 0.500000 0.949386 0.466145
O O10 0.657082 0.851477 0.450373
O O11 0.621165 0.935164 0.697955
O O12 0.663274 0.030583 0.466890
O O13 0.666230 0.712665 0.625416
O O14 0.631581 0.640711 0.877810
O O15 0.676999 0.807108 0.876206
O O16 0.500000 0.758452 0.510087
O O17 0.500000 0.441593 0.538868
O O18 0.500000 0.128092 0.402556
O O19 0.000000 0.414762 0.907087
#
# Coordination Sequence:
#
# PCOD8167250 Si02
#       8
#     4   4   4   4   4   4   4   4
#     4  10  20  35  55  76  98 131 174 223 265 303
#     4  12  22  36  49  71  99 142 175 210 257 300
#     4   8  16  29  47  70  95 128 165 207 248 291
#     4  11  20  34  51  75 103 135 170 211 258 307
#     4  10  19  33  51  71 101 136 173 210 250 305
#     4  12  24  34  47  70 104 141 177 205 246 308
#     4   9  17  31  51  73 100 131 167 207 252 301
#     4  10  20  36  54  74  98 130 174 223 263 295
#
# _framework density 17.232475000000001
#
# number of rings (size 3 to 8) (size 9 to 14) (size 15 to 20)
#    0.000    1.750    2.500    4.500    0.000    1.000 
#    0.000    2.500    0.000    0.000    0.000    4.375 
#    0.000    0.000    0.000    0.000    0.000    0.000 
#
# Total GULP energy -396750.716145 kJ/mol
# GULP energy per Si atom -12398.459880 kJ/mol
# Density = 1.719325 g / cm^3
# Si number density = 17.232475 Si / 1000 Ang^3
#
#
#
# Elastic Constant Matrix: (Units=GPa)
#
#
# Indices 1 2 3 4 5 6 
#
# 1 88.1616 50.0815 21.7428 0.0000 0.0000 0.0000
# 2 50.0815 97.1178 26.9746 0.0000 0.0000 0.0000
# 3 21.7428 26.9746 42.7072 0.0000 0.0000 0.0000
# 4 0.0000 0.0000 0.0000 31.6812 0.0000 0.0000
# 5 0.0000 0.0000 0.0000 0.0000 21.2344 0.0000
# 6 0.0000 0.0000 0.0000 0.0000 0.0000 17.3372
#
#
#
# Elastic Compliance Matrix: (Units=1/GPa)
#
#
# Indices 1 2 3 4 5 6 
#
# 1 0.016503 -0.007491 -0.003671 0.000000 0.000000 0.000000
# 2 -0.007491 0.015888 -0.006221 0.000000 0.000000 0.000000
# 3 -0.003671 -0.006221 0.029213 0.000000 0.000000 0.000000
# 4 0.000000 0.000000 0.000000 0.031564 0.000000 0.000000
# 5 0.000000 0.000000 0.000000 0.000000 0.047093 0.000000
# 6 0.000000 0.000000 0.000000 0.000000 0.000000 0.057679
#
#
# Mechanical properties :
#
#
# Convention : Reuss Voigt Hill
#
# Bulk Modulus (GPa) = 37.25936 47.28716 42.27326
# Shear Modulus (GPa) = 20.69078 22.66309 21.67694
#
# Velocity S-wave (km/s) = 3.46885 3.63042 3.55055
# Velocity P-wave (km/s) = 6.14104 6.71368 6.43374
#
# Compressibility (1/GPa) = 0.02683890
#
# Stress axis : x y z
#
# Youngs Moduli (GPa) = 60.59365 62.94223 34.23080
#
# Poissons Ratio (x) = 0.47149 0.12565
# Poissons Ratio (y) = 0.45390 0.21296
# Poissons Ratio (z) = 0.22242 0.39158
#
# Static dielectric constant tensor:
#      x y z
#    x 3.222700 0.000000 0.000000 
#    y 0.000000 3.311660 0.000000 
#    z 0.000000 0.000000 3.178670 
# 
# 
# High freq. dielectric constant tensor:
#      x y z
#    x 1.643600 0.000000 0.000000 
#    y 0.000000 1.656940 0.000000 
#    z 0.000000 0.000000 1.666360 
# 
# From -- ./inp_files/2271.got.cif
#   From: 2010.03.12/outbox.cif.g09.slc.cpg/sg26_2_cif.got.tgz:2271.got - 2010.04.14 03:33:09.
