data_PCOD8167992
_publ_section_title
;
Structure prediction by ZEFSAII (Michael W. Deem and Ramdas Pophale) SiO2 
 PCOD8167992
Probable space group: P M A 2
;
_chemical_formula_sum "Si O2"
_cell_formula_units_Z 24
_cell_length_a 8.811252
_cell_length_b 15.603031
_cell_length_c 9.491756
_cell_angle_alpha 90.000000
_cell_angle_beta 90.000000
_cell_angle_gamma 90.000000
_cell_volume 1304.947858
_symmetry_space_group_name_H-M "P M A 2"
_symmetry_group_IT_number 28
_symmetry_cell_setting 'orthorhombic'
loop_
_space_group_symop_operation_xyz
x,y,z
-x,-y,z
1/2-x,y,z
1/2+x,-y,z
loop_
_atom_site_type_symbol
_atom_site_label
_atom_site_fract_x
_atom_site_fract_y
_atom_site_fract_z
Si Si1 0.429461 0.411417 0.147890
Si Si2 0.426954 0.740632 0.320822
Si Si3 0.078285 0.730843 0.651989
Si Si4 0.927167 0.080827 0.634233
Si Si5 0.073221 0.412977 0.827733
Si Si6 0.929426 0.914593 0.330207
O O1 0.500000 0.500000 0.203641
O O2 0.250000 0.415923 0.162818
O O3 0.492505 0.336543 0.243297
O O4 0.482010 0.395130 0.986977
O O5 0.250000 0.741304 0.285433
O O6 0.457273 0.729916 0.486552
O O7 0.499149 0.828906 0.262220
O O8 0.250000 0.700818 0.680663
O O9 0.053595 0.827775 0.712501
O O10 0.966590 0.667472 0.731139
O O11 0.750000 0.065613 0.598063
O O12 0.026265 0.084425 0.493432
O O13 0.000000 0.000000 0.721946
O O14 0.250000 0.427721 0.822689
O O15 0.000000 0.500000 0.767450
O O16 0.750000 0.913737 0.309296
O O17 0.000000 0.000000 0.256922
#
# Coordination Sequence:
#
# PCOD8167992 Si02
#       6
#     4   4   4   4   4   4
#     4  10  21  37  55  76  99 130 169 208 251 305
#     4  10  20  34  52  77 105 134 168 210 254 297
#     4   9  19  33  50  75 105 132 165 206 250 295
#     4   9  16  27  44  69 100 133 167 204 245 294
#     4  10  21  36  55  75  98 130 169 207 249 301
#     4  10  17  27  45  70 101 135 168 205 247 296
#
# _framework density 18.391539000000002
#
# number of rings (size 3 to 8) (size 9 to 14) (size 15 to 20)
#    0.000    2.333    0.000    5.500    0.000    6.667 
#    0.000    0.000    0.000    1.000    0.000    2.333 
#    0.000    0.000    0.000    0.000    0.000    0.000 
#
# Total GULP energy -297503.447672 kJ/mol
# GULP energy per Si atom -12395.976986 kJ/mol
# Density = 1.834968 g / cm^3
# Si number density = 18.391539 Si / 1000 Ang^3
#
#
#
# Elastic Constant Matrix: (Units=GPa)
#
#
# Indices 1 2 3 4 5 6 
#
# 1 99.8420 59.5418 21.5555 0.0000 0.0000 0.0000
# 2 59.5418 171.6305 38.5513 0.0000 0.0000 0.0000
# 3 21.5555 38.5513 27.8194 0.0000 0.0000 0.0000
# 4 0.0000 0.0000 0.0000 -12.1974 0.0000 0.0000
# 5 0.0000 0.0000 0.0000 0.0000 20.6573 0.0000
# 6 0.0000 0.0000 0.0000 0.0000 0.0000 42.5451
#
#
#
# Elastic Compliance Matrix: (Units=1/GPa)
#
#
# Indices 1 2 3 4 5 6 
#
# 1 0.013211 -0.003316 -0.005641 0.000000 0.000000 0.000000
# 2 -0.003316 0.009292 -0.010307 0.000000 0.000000 0.000000
# 3 -0.005641 -0.010307 0.054601 0.000000 0.000000 0.000000
# 4 0.000000 0.000000 0.000000 -0.081984 0.000000 0.000000
# 5 0.000000 0.000000 0.000000 0.000000 0.048409 0.000000
# 6 0.000000 0.000000 0.000000 0.000000 0.000000 0.023504
#
#
# Mechanical properties :
#
#
# Convention : Reuss Voigt Hill
#
# Bulk Modulus (GPa) = 25.92360 59.84323 42.88341
# Shear Modulus (GPa) = 42.22234 22.17721 32.19977
#
# Velocity S-wave (km/s) = 4.79659 3.47628 4.18879
# Velocity P-wave (km/s) = 6.69346 6.98010 6.83828
#
# Compressibility (1/GPa) = 0.03857488
#
# Stress axis : x y z
#
# Youngs Moduli (GPa) = 75.69246 107.61832 18.31480
#
# Poissons Ratio (x) = 0.35688 0.10332
# Poissons Ratio (y) = 0.25101 0.18878
# Poissons Ratio (z) = 0.42700 1.10925
#
# Static dielectric constant tensor:
#      x y z
#    x 3.570660 0.000000 0.000000 
#    y 0.000000 3.958980 0.000000 
#    z 0.000000 0.000000 2.950940 
# 
# 
# High freq. dielectric constant tensor:
#      x y z
#    x 1.728830 0.000000 0.000000 
#    y 0.000000 1.740240 0.000000 
#    z 0.000000 0.000000 1.654310 
# 
# From -- ./inp_files/4696.got.cif
#   From: 2010.03.12/outbox.cif.g09.slc.cpg/sg28_3_cif.got.tgz:4696.got - 2010.04.14 03:39:34.
