data_PCOD8167815
_publ_section_title
;
Structure prediction by ZEFSAII (Michael W. Deem and Ramdas Pophale) SiO2 
 PCOD8167815
Probable space group: P C C 2
;
_chemical_formula_sum "Si O2"
_cell_formula_units_Z 24
_cell_length_a 7.544286
_cell_length_b 12.755652
_cell_length_c 9.325254
_cell_angle_alpha 90.000000
_cell_angle_beta 90.000000
_cell_angle_gamma 90.000000
_cell_volume 897.390517
_symmetry_space_group_name_H-M "P C C 2"
_symmetry_group_IT_number 27
_symmetry_cell_setting 'orthorhombic'
loop_
_space_group_symop_operation_xyz
x,y,z
-x,-y,z
-x,y,1/2+z
x,-y,1/2+z
loop_
_atom_site_type_symbol
_atom_site_label
_atom_site_fract_x
_atom_site_fract_y
_atom_site_fract_z
Si Si1 0.157991 0.572620 0.763590
Si Si2 0.040430 0.317278 0.553076
Si Si3 0.790418 0.872680 0.470688
Si Si4 0.688859 0.049085 0.676445
Si Si5 0.440856 0.254401 0.039231
Si Si6 0.647855 0.372736 0.259330
O O1 0.336800 0.501200 0.772150
O O2 0.000000 0.500000 0.703758
O O3 0.152509 0.658798 0.631359
O O4 0.102818 0.610315 0.921148
O O5 0.033812 0.197364 0.497429
O O6 0.181419 0.325604 0.681661
O O7 0.800761 0.927243 0.317495
O O8 0.626002 0.791167 0.477333
O O9 0.793648 0.962538 0.588432
O O10 0.672724 0.154258 0.583885
O O11 0.500000 0.000000 0.722565
O O12 0.472502 0.334288 0.174229
O O13 0.346962 0.321844 0.916040
#
# Coordination Sequence:
#
# PCOD8167815 Si02
#       6
#     4   4   4   4   4   4
#     4  10  21  46  70  92 122 189 245 300 355 411
#     4  10  23  44  68  96 129 181 255 298 350 412
#     4  10  21  36  62 102 140 185 224 281 349 420
#     4  10  19  34  63  97 149 191 221 267 355 439
#     4  10  19  37  60 105 146 181 222 284 347 438
#     4  10  21  39  65  99 142 180 232 286 363 428
#
# _framework density 26.744208
#
# number of rings (size 3 to 8) (size 9 to 14) (size 15 to 20)
#    0.000    2.000    1.667    3.000    4.667    0.000 
#   12.000    8.333    0.000    3.000    0.000    0.000 
#    0.000    0.000    0.000    0.000    0.000    0.000 
#
# Total GULP energy -297546.249007 kJ/mol
# GULP energy per Si atom -12397.760375 kJ/mol
# Density = 2.668334 g / cm^3
# Si number density = 26.744208 Si / 1000 Ang^3
#
#
#
# Elastic Constant Matrix: (Units=GPa)
#
#
# Indices 1 2 3 4 5 6 
#
# 1 56.3193 49.0875 40.8543 0.0000 0.0000 0.0000
# 2 49.0875 199.2674 93.3147 0.0000 0.0000 0.0000
# 3 40.8543 93.3147 204.4490 0.0000 0.0000 0.0000
# 4 0.0000 0.0000 0.0000 51.5225 0.0000 0.0000
# 5 0.0000 0.0000 0.0000 0.0000 23.6464 0.0000
# 6 0.0000 0.0000 0.0000 0.0000 0.0000 31.9517
#
#
#
# Elastic Compliance Matrix: (Units=1/GPa)
#
#
# Indices 1 2 3 4 5 6 
#
# 1 0.023674 -0.004600 -0.002631 0.000000 0.000000 0.000000
# 2 -0.004600 0.007276 -0.002402 0.000000 0.000000 0.000000
# 3 -0.002631 -0.002402 0.006513 0.000000 0.000000 0.000000
# 4 0.000000 0.000000 0.000000 0.019409 0.000000 0.000000
# 5 0.000000 0.000000 0.000000 0.000000 0.042290 0.000000
# 6 0.000000 0.000000 0.000000 0.000000 0.000000 0.031297
#
#
# Mechanical properties :
#
#
# Convention : Reuss Voigt Hill
#
# Bulk Modulus (GPa) = 54.95229 91.83874 73.39551
# Shear Modulus (GPa) = 32.09440 39.87605 35.98522
#
# Velocity S-wave (km/s) = 3.46793 3.86556 3.67213
# Velocity P-wave (km/s) = 6.05206 7.37140 6.74407
#
# Compressibility (1/GPa) = 0.01819761
#
# Stress axis : x y z
#
# Youngs Moduli (GPa) = 42.24121 137.43398 153.53262
#
# Poissons Ratio (x) = 0.63213 0.40399
# Poissons Ratio (y) = 0.19429 0.36877
# Poissons Ratio (z) = 0.11115 0.33010
#
# Static dielectric constant tensor:
#      x y z
#    x 5.166590 0.000000 0.000000 
#    y 0.000000 5.694940 0.000000 
#    z 0.000000 0.000000 4.779510 
# 
# 
# High freq. dielectric constant tensor:
#      x y z
#    x 2.069200 0.000000 0.000000 
#    y 0.000000 2.094920 0.000000 
#    z 0.000000 0.000000 2.084840 
# 
# From -- ./inp_files/1403.got.cif
#   From: 2010.03.12/outbox.cif.g09.slc.cpg/sg27_1_cif.got.tgz:1403.got - 2010.04.14 03:36:05.
