data_PCOD8167890
_publ_section_title
;
Structure prediction by ZEFSAII (Michael W. Deem and Ramdas Pophale) SiO2 
 PCOD8167890
Probable space group: P C C 2
;
_chemical_formula_sum "Si O2"
_cell_formula_units_Z 28
_cell_length_a 6.439448
_cell_length_b 19.237473
_cell_length_c 10.148746
_cell_angle_alpha 90.000000
_cell_angle_beta 90.000000
_cell_angle_gamma 90.000000
_cell_volume 1257.213533
_symmetry_space_group_name_H-M "P C C 2"
_symmetry_group_IT_number 27
_symmetry_cell_setting 'orthorhombic'
loop_
_space_group_symop_operation_xyz
x,y,z
-x,-y,z
-x,y,1/2+z
x,-y,1/2+z
loop_
_atom_site_type_symbol
_atom_site_label
_atom_site_fract_x
_atom_site_fract_y
_atom_site_fract_z
Si Si1 0.684537 0.234749 0.611120
Si Si2 0.669922 0.046360 0.387038
Si Si3 0.878193 0.431680 0.903480
Si Si4 0.188203 0.612638 0.623977
Si Si5 0.594026 0.171776 0.882372
Si Si6 0.000000 0.000000 0.213333
Si Si7 0.009647 0.873394 0.039386
Si Si8 0.500000 0.500000 0.027102
O O1 0.703068 0.316147 0.582033
O O2 0.615136 0.225742 0.762738
O O3 0.515430 0.206562 0.508504
O O4 0.908715 0.197582 0.593699
O O5 0.546637 0.110444 0.319701
O O6 0.789734 0.989056 0.297312
O O7 0.830405 0.077184 0.486734
O O8 0.500000 0.000000 0.465420
O O9 0.885715 0.381529 0.775955
O O10 0.000000 0.500000 0.858966
O O11 0.639763 0.449276 0.937623
O O12 0.989813 0.397015 0.029068
O O13 0.348241 0.548066 0.614635
O O14 0.817411 0.144564 0.932027
O O15 0.918452 0.072954 0.150947
#
# Coordination Sequence:
#
# PCOD8167890 Si02
#       8
#     4   4   4   4   4   2   4   2
#     4  11  27  44  69  99 138 186 237 289 358 425
#     4  11  22  38  63  93 128 168 222 281 337 410
#     4  10  22  44  69 104 141 177 229 285 345 419
#     4  11  25  43  69 105 139 187 229 291 354 418
#     4  11  25  48  66  99 140 182 235 291 349 430
#     4  12  22  38  64  98 128 182 230 280 350 406
#     4  11  24  42  66  96 134 181 226 291 347 419
#     4  10  22  42  74 104 136 182 234 292 344 420
#
# _framework density 22.271474999999999
#
# number of rings (size 3 to 8) (size 9 to 14) (size 15 to 20)
#    0.000    1.143    0.000    6.429    4.000    5.143 
#    0.000    0.000    0.000    0.000    0.000    0.000 
#    0.000    0.000    0.000    0.000    0.000    0.000 
#
# Total GULP energy -346938.522597 kJ/mol
# GULP energy per Si atom -12390.661521 kJ/mol
# Density = 2.222078 g / cm^3
# Si number density = 22.271475 Si / 1000 Ang^3
#
#
#
# Elastic Constant Matrix: (Units=GPa)
#
#
# Indices 1 2 3 4 5 6 
#
# 1 123.8672 38.8602 56.4346 0.0000 0.0000 0.0000
# 2 38.8602 108.6084 35.7826 0.0000 0.0000 0.0000
# 3 56.4346 35.7826 130.1925 0.0000 0.0000 0.0000
# 4 0.0000 0.0000 0.0000 22.6816 0.0000 0.0000
# 5 0.0000 0.0000 0.0000 0.0000 51.0835 0.0000
# 6 0.0000 0.0000 0.0000 0.0000 0.0000 27.0347
#
#
#
# Elastic Compliance Matrix: (Units=1/GPa)
#
#
# Indices 1 2 3 4 5 6 
#
# 1 0.010651 -0.002518 -0.003925 0.000000 0.000000 0.000000
# 2 -0.002518 0.010719 -0.001855 0.000000 0.000000 0.000000
# 3 -0.003925 -0.001855 0.009892 0.000000 0.000000 0.000000
# 4 0.000000 0.000000 0.000000 0.044089 0.000000 0.000000
# 5 0.000000 0.000000 0.000000 0.000000 0.019576 0.000000
# 6 0.000000 0.000000 0.000000 0.000000 0.000000 0.036990
#
#
# Mechanical properties :
#
#
# Convention : Reuss Voigt Hill
#
# Bulk Modulus (GPa) = 68.17790 69.42477 68.80133
# Shear Modulus (GPa) = 32.59428 35.59934 34.09681
#
# Velocity S-wave (km/s) = 3.82972 4.00237 3.91700
# Velocity P-wave (km/s) = 7.08762 7.25247 7.17052
#
# Compressibility (1/GPa) = 0.01466751
#
# Stress axis : x y z
#
# Youngs Moduli (GPa) = 93.88476 93.28915 101.09105
#
# Poissons Ratio (x) = 0.23489 0.39678
# Poissons Ratio (y) = 0.23639 0.18749
# Poissons Ratio (z) = 0.36850 0.17302
#
# Static dielectric constant tensor:
#      x y z
#    x 2.699570 0.000000 0.000000 
#    y 0.000000 4.204460 0.000000 
#    z 0.000000 0.000000 3.915060 
# 
# 
# High freq. dielectric constant tensor:
#      x y z
#    x 1.891990 0.000000 0.000000 
#    y 0.000000 1.873490 0.000000 
#    z 0.000000 0.000000 1.872620 
# 
# From -- ./inp_files/2091.got.cif
#   From: 2010.03.12/outbox.cif.g09.slc.cpg/sg27_2_cif.got.tgz:2091.got - 2010.04.14 03:36:05.
