data_PCOD8167229
_publ_section_title
;
Structure prediction by ZEFSAII (Michael W. Deem and Ramdas Pophale) SiO2 
 PCOD8167229
Probable space group: P M C 21
;
_chemical_formula_sum "Si O2"
_cell_formula_units_Z 32
_cell_length_a 9.346021
_cell_length_b 12.628886
_cell_length_c 14.027848
_cell_angle_alpha 90.000000
_cell_angle_beta 90.000000
_cell_angle_gamma 90.000000
_cell_volume 1655.704567
_symmetry_space_group_name_H-M "P M C 21"
_symmetry_group_IT_number 26
_symmetry_cell_setting 'orthorhombic'
loop_
_space_group_symop_operation_xyz
x,y,z
-x,-y,1/2+z
-x,y,z
x,-y,1/2+z
loop_
_atom_site_type_symbol
_atom_site_label
_atom_site_fract_x
_atom_site_fract_y
_atom_site_fract_z
Si Si1 0.169798 0.689248 0.227920
Si Si2 0.341897 0.042665 0.506973
Si Si3 0.168992 0.370219 0.936889
Si Si4 0.832417 0.153234 0.025158
Si Si5 0.165966 0.423219 0.536377
Si Si6 0.339224 0.091143 0.726047
Si Si7 0.839624 0.778184 0.922143
Si Si8 0.837941 0.104408 0.238270
O O1 0.206560 0.623819 0.324196
O O2 0.228389 0.621594 0.136922
O O3 0.249134 0.801546 0.233581
O O4 0.000000 0.711690 0.218843
O O5 0.500000 0.031333 0.462874
O O6 0.347959 0.048196 0.619777
O O7 0.273421 0.151722 0.476355
O O8 0.248322 0.942683 0.472134
O O9 0.000000 0.374205 0.949769
O O10 0.228777 0.261354 0.980838
O O11 0.237194 0.467452 0.998056
O O12 0.793356 0.151588 0.136551
O O13 0.000000 0.139916 0.005103
O O14 0.193269 0.342369 0.449495
O O15 0.000000 0.443001 0.554792
O O16 0.500000 0.108391 0.766913
O O17 0.258770 0.992941 0.778482
O O18 0.823985 0.795626 0.809151
O O19 0.000000 0.808543 0.956758
O O20 0.000000 0.060918 0.233761
#
# Coordination Sequence:
#
# PCOD8167229 Si02
#       8
#     4   4   4   4   4   4   4   4
#     4  10  19  33  55  79 105 140 177 220 268 319
#     4  10  20  33  51  76 107 141 176 218 269 319
#     4   9  19  33  53  82 108 137 180 223 266 316
#     4   9  18  34  52  74 107 140 176 222 268 315
#     4   9  18  33  53  79 109 138 175 224 269 312
#     4  10  20  34  52  76 108 142 178 222 268 319
#     4  10  19  32  52  78 107 141 180 217 262 319
#     4   9  19  32  50  76 107 145 180 216 266 321
#
# _framework density 19.327120000000001
#
# number of rings (size 3 to 8) (size 9 to 14) (size 15 to 20)
#    0.000    2.500    1.250    0.750    1.750    2.500 
#    0.000    5.000    0.000    3.000    0.000    1.750 
#    0.000    0.000    0.000    0.000    0.000    0.000 
#
# Total GULP energy -396615.082468 kJ/mol
# GULP energy per Si atom -12394.221327 kJ/mol
# Density = 1.928313 g / cm^3
# Si number density = 19.327120 Si / 1000 Ang^3
#
#
#
# Elastic Constant Matrix: (Units=GPa)
#
#
# Indices 1 2 3 4 5 6 
#
# 1 63.7116 36.3874 22.3842 0.0000 0.0000 0.0000
# 2 36.3874 116.8076 38.0860 0.0000 0.0000 0.0000
# 3 22.3842 38.0860 71.1013 0.0000 0.0000 0.0000
# 4 0.0000 0.0000 0.0000 29.6644 0.0000 0.0000
# 5 0.0000 0.0000 0.0000 0.0000 12.0475 0.0000
# 6 0.0000 0.0000 0.0000 0.0000 0.0000 2.5549
#
#
#
# Elastic Compliance Matrix: (Units=1/GPa)
#
#
# Indices 1 2 3 4 5 6 
#
# 1 0.019806 -0.005012 -0.003550 0.000000 0.000000 0.000000
# 2 -0.005012 0.011641 -0.004658 0.000000 0.000000 0.000000
# 3 -0.003550 -0.004658 0.017677 0.000000 0.000000 0.000000
# 4 0.000000 0.000000 0.000000 0.033710 0.000000 0.000000
# 5 0.000000 0.000000 0.000000 0.000000 0.083005 0.000000
# 6 0.000000 0.000000 0.000000 0.000000 0.000000 0.391402
#
#
# Mechanical properties :
#
#
# Convention : Reuss Voigt Hill
#
# Bulk Modulus (GPa) = 44.08527 49.48175 46.78351
# Shear Modulus (GPa) = 8.45677 19.17091 13.81384
#
# Velocity S-wave (km/s) = 2.09406 3.15289 2.67636
# Velocity P-wave (km/s) = 5.35783 6.23796 5.81457
#
# Compressibility (1/GPa) = 0.02268331
#
# Stress axis : x y z
#
# Youngs Moduli (GPa) = 50.49056 85.90219 56.57021
#
# Poissons Ratio (x) = 0.43055 0.20085
# Poissons Ratio (y) = 0.25307 0.26349
# Poissons Ratio (z) = 0.17926 0.40011
#
# Static dielectric constant tensor:
#      x y z
#    x 3.433310 0.000000 0.000000 
#    y 0.000000 3.615940 0.000000 
#    z 0.000000 0.000000 3.715810 
# 
# 
# High freq. dielectric constant tensor:
#      x y z
#    x 1.715410 0.000000 0.000000 
#    y 0.000000 1.744880 0.000000 
#    z 0.000000 0.000000 1.761000 
# 
# From -- ./inp_files/4124.got.cif
#   From: 2010.03.12/outbox.cif.g09.slc.cpg/sg26_3_cif.got.tgz:4124.got - 2010.04.14 03:33:09.
