data_PCOD8167144
_publ_section_title
;
Structure prediction by ZEFSAII (Michael W. Deem and Ramdas Pophale) SiO2 
 PCOD8167144
Probable space group: P M C 21
;
_chemical_formula_sum "Si O2"
_cell_formula_units_Z 32
_cell_length_a 8.548411
_cell_length_b 15.383811
_cell_length_c 12.134924
_cell_angle_alpha 90.000000
_cell_angle_beta 90.000000
_cell_angle_gamma 90.000000
_cell_volume 1595.829139
_symmetry_space_group_name_H-M "P M C 21"
_symmetry_group_IT_number 26
_symmetry_cell_setting 'orthorhombic'
loop_
_space_group_symop_operation_xyz
x,y,z
-x,-y,1/2+z
-x,y,z
x,-y,1/2+z
loop_
_atom_site_type_symbol
_atom_site_label
_atom_site_fract_x
_atom_site_fract_y
_atom_site_fract_z
Si Si1 0.317781 0.160730 0.495890
Si Si2 0.314238 0.751256 0.638621
Si Si3 0.686570 0.891809 0.229925
Si Si4 0.183266 0.590282 0.234179
Si Si5 0.316586 0.409705 0.287464
Si Si6 0.686069 0.737821 0.387263
Si Si7 0.313183 0.083796 0.274432
Si Si8 0.819030 0.659324 0.995374
O O1 0.500000 0.144106 0.506541
O O2 0.240116 0.139118 0.613556
O O3 0.250841 0.101133 0.398044
O O4 0.285582 0.258952 0.461790
O O5 0.500000 0.752330 0.638498
O O6 0.254289 0.668497 0.709100
O O7 0.253611 0.743649 0.512999
O O8 0.249842 0.841534 0.691241
O O9 0.500000 0.893170 0.228463
O O10 0.743040 0.825483 0.324841
O O11 0.753255 0.988836 0.245814
O O12 0.278794 0.501174 0.232292
O O13 0.236957 0.653642 0.331837
O O14 0.227630 0.631455 0.117417
O O15 0.000000 0.571148 0.245429
O O16 0.500000 0.400237 0.308255
O O17 0.225967 0.412191 0.404423
O O18 0.500000 0.727585 0.380267
O O19 0.500000 0.085350 0.270716
O O20 0.000000 0.683433 0.988512
#
# Coordination Sequence:
#
# PCOD8167144 Si02
#       8
#     4   4   4   4   4   4   4   4
#     4  10  18  33  57  83 112 151 198 242 292 347
#     4   9  19  34  54  84 118 147 183 234 291 341
#     4   9  18  29  51  86 117 147 189 239 291 340
#     4  11  25  42  59  84 116 154 192 236 292 349
#     4  11  23  40  62  88 115 149 193 242 290 346
#     4  10  20  36  57  85 116 150 192 238 285 341
#     4   9  17  30  51  84 119 147 182 240 295 340
#     4  11  23  40  61  84 115 153 195 243 292 344
#
# _framework density 20.052271999999999
#
# number of rings (size 3 to 8) (size 9 to 14) (size 15 to 20)
#    0.000    2.000    2.500    1.125    3.500    1.500 
#    0.000    0.625    0.000    1.500    0.000    0.000 
#    0.000    0.000    0.000    0.000    0.000    0.000 
#
# Total GULP energy -396761.932421 kJ/mol
# GULP energy per Si atom -12398.810388 kJ/mol
# Density = 2.000663 g / cm^3
# Si number density = 20.052272 Si / 1000 Ang^3
#
#
#
# Elastic Constant Matrix: (Units=GPa)
#
#
# Indices 1 2 3 4 5 6 
#
# 1 9.5323 14.4249 32.2702 0.0000 0.0000 0.0000
# 2 14.4249 138.8359 50.5976 0.0000 0.0000 0.0000
# 3 32.2702 50.5976 146.5496 0.0000 0.0000 0.0000
# 4 0.0000 0.0000 0.0000 29.2149 0.0000 0.0000
# 5 0.0000 0.0000 0.0000 0.0000 17.0387 0.0000
# 6 0.0000 0.0000 0.0000 0.0000 0.0000 2.5323
#
#
#
# Elastic Compliance Matrix: (Units=1/GPa)
#
#
# Indices 1 2 3 4 5 6 
#
# 1 0.427798 -0.011573 -0.090205 0.000000 0.000000 0.000000
# 2 -0.011573 0.008553 -0.000404 0.000000 0.000000 0.000000
# 3 -0.090205 -0.000404 0.026826 0.000000 0.000000 0.000000
# 4 0.000000 0.000000 0.000000 0.034229 0.000000 0.000000
# 5 0.000000 0.000000 0.000000 0.000000 0.058690 0.000000
# 6 0.000000 0.000000 0.000000 0.000000 0.000000 0.394904
#
#
# Mechanical properties :
#
#
# Convention : Reuss Voigt Hill
#
# Bulk Modulus (GPa) = 3.86382 54.38925 29.12654
# Shear Modulus (GPa) = 4.02694 22.93218 13.47956
#
# Velocity S-wave (km/s) = 1.41866 3.38541 2.59554
# Velocity P-wave (km/s) = 2.14814 6.51644 4.85173
#
# Compressibility (1/GPa) = 0.25881093
#
# Stress axis : x y z
#
# Youngs Moduli (GPa) = 2.33755 116.92371 37.27660
#
# Poissons Ratio (x) = 1.35318 3.36255
# Poissons Ratio (y) = 0.02705 0.01508
# Poissons Ratio (z) = 0.21086 0.04729
#
# Static dielectric constant tensor:
#      x y z
#    x 3.115560 0.000000 0.000000 
#    y 0.000000 3.747030 0.000000 
#    z 0.000000 0.000000 3.957730 
# 
# 
# High freq. dielectric constant tensor:
#      x y z
#    x 1.734940 0.000000 0.000000 
#    y 0.000000 1.790350 0.000000 
#    z 0.000000 0.000000 1.800590 
# 
# From -- ./inp_files/2933.got.cif
#   From: 2010.03.12/outbox.cif.g09.slc.cpg/sg26_2_cif.got.tgz:2933.got - 2010.04.14 03:33:09.
