data_PCOD8167875
_publ_section_title
;
Structure prediction by ZEFSAII (Michael W. Deem and Ramdas Pophale) SiO2 
 PCOD8167875
Probable space group: P C C 2
;
_chemical_formula_sum "Si O2"
_cell_formula_units_Z 18
_cell_length_a 5.106764
_cell_length_b 6.284363
_cell_length_c 23.059421
_cell_angle_alpha 90.000000
_cell_angle_beta 90.000000
_cell_angle_gamma 90.000000
_cell_volume 740.040435
_symmetry_space_group_name_H-M "P C C 2"
_symmetry_group_IT_number 27
_symmetry_cell_setting 'orthorhombic'
loop_
_space_group_symop_operation_xyz
x,y,z
-x,-y,z
-x,y,1/2+z
x,-y,1/2+z
loop_
_atom_site_type_symbol
_atom_site_label
_atom_site_fract_x
_atom_site_fract_y
_atom_site_fract_z
Si Si1 0.746825 0.854007 0.531280
Si Si2 0.257170 0.138784 0.661306
Si Si3 0.247521 0.367852 0.776258
Si Si4 0.247566 0.866307 0.386494
Si Si5 0.000000 0.500000 0.955032
O O1 0.691852 0.770195 0.596888
O O2 0.803232 0.645613 0.493152
O O3 0.500000 0.000000 0.510180
O O4 0.000000 0.000000 0.530436
O O5 0.228914 0.326579 0.707691
O O6 0.500000 0.000000 0.682852
O O7 0.000000 0.000000 0.663121
O O8 0.500000 0.500000 0.792455
O O9 0.255939 0.157381 0.816536
O O10 0.000000 0.500000 0.797024
O O11 0.207600 0.636421 0.416837
O O12 0.500000 0.000000 0.407744
O O13 0.000000 0.000000 0.407550
#
# Coordination Sequence:
#
# PCOD8167875 Si02
#       5
#     4   4   4   4   2
#     4  10  25  48  73 108 146 192 244 299 365 433
#     4  10  21  43  71 102 143 185 232 292 366 433
#     4  12  24  43  72 109 143 183 239 297 367 438
#     4  12  28  49  75 106 146 193 245 302 368 433
#     4  12  28  50  76 108 146 204 248 314 352 444
#
# _framework density 24.322996
#
# number of rings (size 3 to 8) (size 9 to 14) (size 15 to 20)
#    0.000    0.889    1.111    4.667    1.556    6.222 
#    0.000    0.000    0.000    0.000    0.000    0.000 
#    0.000    0.000    0.000    0.000    0.000    0.000 
#
# Total GULP energy -223196.639980 kJ/mol
# GULP energy per Si atom -12399.813332 kJ/mol
# Density = 2.426764 g / cm^3
# Si number density = 24.322996 Si / 1000 Ang^3
#
#
#
# Elastic Constant Matrix: (Units=GPa)
#
#
# Indices 1 2 3 4 5 6 
#
# 1 199.1995 63.9469 27.0372 0.0000 0.0000 0.0000
# 2 63.9469 121.9781 63.1941 0.0000 0.0000 0.0000
# 3 27.0372 63.1941 149.0855 0.0000 0.0000 0.0000
# 4 0.0000 0.0000 0.0000 46.9402 0.0000 0.0000
# 5 0.0000 0.0000 0.0000 0.0000 39.3820 0.0000
# 6 0.0000 0.0000 0.0000 0.0000 0.0000 47.2829
#
#
#
# Elastic Compliance Matrix: (Units=1/GPa)
#
#
# Indices 1 2 3 4 5 6 
#
# 1 0.006048 -0.003334 0.000317 0.000000 0.000000 0.000000
# 2 -0.003334 0.012344 -0.004628 0.000000 0.000000 0.000000
# 3 0.000317 -0.004628 0.008612 0.000000 0.000000 0.000000
# 4 0.000000 0.000000 0.000000 0.021304 0.000000 0.000000
# 5 0.000000 0.000000 0.000000 0.000000 0.025392 0.000000
# 6 0.000000 0.000000 0.000000 0.000000 0.000000 0.021149
#
#
# Mechanical properties :
#
#
# Convention : Reuss Voigt Hill
#
# Bulk Modulus (GPa) = 85.38076 86.51329 85.94702
# Shear Modulus (GPa) = 43.84316 47.79335 45.81826
#
# Velocity S-wave (km/s) = 4.25024 4.43758 4.34492
# Velocity P-wave (km/s) = 7.69839 7.86777 7.78354
#
# Compressibility (1/GPa) = 0.01171224
#
# Stress axis : x y z
#
# Youngs Moduli (GPa) = 165.35633 81.01301 116.12201
#
# Poissons Ratio (x) = 0.27014 -0.03677
# Poissons Ratio (y) = 0.55138 0.53736
# Poissons Ratio (z) = -0.05236 0.37489
#
# Static dielectric constant tensor:
#      x y z
#    x 4.651150 0.000000 0.000000 
#    y 0.000000 4.131470 0.000000 
#    z 0.000000 0.000000 4.828310 
# 
# 
# High freq. dielectric constant tensor:
#      x y z
#    x 1.982220 0.000000 0.000000 
#    y 0.000000 1.948600 0.000000 
#    z 0.000000 0.000000 1.995550 
# 
# From -- ./inp_files/4903.got.cif
#   From: 2010.03.12/outbox.cif.g09.slc.cpg/sg27_3_cif.got.tgz:4903.got - 2010.04.14 03:36:05.
