data_PCOD8167408
_publ_section_title
;
Structure prediction by ZEFSAII (Michael W. Deem and Ramdas Pophale) SiO2 
 PCOD8167408
Probable space group: P M C 21
;
_chemical_formula_sum "Si O2"
_cell_formula_units_Z 16
_cell_length_a 8.298500
_cell_length_b 10.267109
_cell_length_c 8.891832
_cell_angle_alpha 90.000000
_cell_angle_beta 90.000000
_cell_angle_gamma 90.000000
_cell_volume 757.598349
_symmetry_space_group_name_H-M "P M C 21"
_symmetry_group_IT_number 26
_symmetry_cell_setting 'orthorhombic'
loop_
_space_group_symop_operation_xyz
x,y,z
-x,-y,1/2+z
-x,y,z
x,-y,1/2+z
loop_
_atom_site_type_symbol
_atom_site_label
_atom_site_fract_x
_atom_site_fract_y
_atom_site_fract_z
Si Si1 0.690932 0.139868 0.208530
Si Si2 0.686349 0.387448 0.024165
Si Si3 0.308130 0.120902 0.547876
Si Si4 0.184442 0.624398 0.197906
O O1 0.500000 0.139122 0.215603
O O2 0.758437 0.133924 0.378167
O O3 0.752547 0.016830 0.113071
O O4 0.752890 0.271692 0.130075
O O5 0.500000 0.364652 0.981731
O O6 0.791331 0.390686 0.874919
O O7 0.702609 0.523473 0.110259
O O8 0.500000 0.132832 0.555319
O O9 0.230586 0.230609 0.651074
O O10 0.000000 0.594601 0.157919
#
# Coordination Sequence:
#
# PCOD8167408 Si02
#       4
#     4   4   4   4
#     4   9  19  35  62  92 116 147 200 256 296 342
#     4  11  22  40  64  89 116 157 205 249 295 354
#     4  10  19  37  62  89 118 154 198 247 298 356
#     4  12  25  40  58  88 124 158 195 246 303 358
#
# _framework density 21.119368999999999
#
# number of rings (size 3 to 8) (size 9 to 14) (size 15 to 20)
#    0.000    1.500    0.000    6.000    0.000    6.000 
#    0.000    7.500    0.000    0.000    0.000    0.000 
#    0.000    0.000    0.000    0.000    0.000    0.000 
#
# Total GULP energy -198501.070056 kJ/mol
# GULP energy per Si atom -12406.316878 kJ/mol
# Density = 2.107130 g / cm^3
# Si number density = 21.119369 Si / 1000 Ang^3
#
#
#
# Elastic Constant Matrix: (Units=GPa)
#
#
# Indices 1 2 3 4 5 6 
#
# 1 46.9898 14.9145 11.5040 0.0000 0.0000 0.0000
# 2 14.9145 108.6242 20.1219 0.0000 0.0000 0.0000
# 3 11.5040 20.1219 115.5684 0.0000 0.0000 0.0000
# 4 0.0000 0.0000 0.0000 46.6468 0.0000 0.0000
# 5 0.0000 0.0000 0.0000 0.0000 22.0806 0.0000
# 6 0.0000 0.0000 0.0000 0.0000 0.0000 4.2290
#
#
#
# Elastic Compliance Matrix: (Units=1/GPa)
#
#
# Indices 1 2 3 4 5 6 
#
# 1 0.022594 -0.002775 -0.001766 0.000000 0.000000 0.000000
# 2 -0.002775 0.009854 -0.001439 0.000000 0.000000 0.000000
# 3 -0.001766 -0.001439 0.009079 0.000000 0.000000 0.000000
# 4 0.000000 0.000000 0.000000 0.021438 0.000000 0.000000
# 5 0.000000 0.000000 0.000000 0.000000 0.045289 0.000000
# 6 0.000000 0.000000 0.000000 0.000000 0.000000 0.236460
#
#
# Mechanical properties :
#
#
# Convention : Reuss Voigt Hill
#
# Bulk Modulus (GPa) = 33.82217 40.47369 37.14793
# Shear Modulus (GPa) = 13.64145 29.56743 21.60444
#
# Velocity S-wave (km/s) = 2.54425 3.74574 3.20186
# Velocity P-wave (km/s) = 4.96795 6.15737 5.59436
#
# Compressibility (1/GPa) = 0.02956641
#
# Stress axis : x y z
#
# Youngs Moduli (GPa) = 44.25879 101.48437 110.14078
#
# Poissons Ratio (x) = 0.28164 0.19450
# Poissons Ratio (y) = 0.12283 0.15854
# Poissons Ratio (z) = 0.07816 0.14608
#
# Static dielectric constant tensor:
#      x y z
#    x 3.392200 0.000000 0.000000 
#    y 0.000000 3.960680 0.000000 
#    z 0.000000 0.000000 3.982800 
# 
# 
# High freq. dielectric constant tensor:
#      x y z
#    x 1.795900 0.000000 0.000000 
#    y 0.000000 1.843770 0.000000 
#    z 0.000000 0.000000 1.843760 
# 
# From -- ./inp_files/1159.got.cif
#   From: 2010.03.12/outbox.cif.g09.slc.cpg/sg26_1_cif.got.tgz:1159.got - 2010.04.14 03:33:09.
