data_PCOD8167512
_publ_section_title
;
Structure prediction by ZEFSAII (Michael W. Deem and Ramdas Pophale) SiO2 
 PCOD8167512
Probable space group: P M C 21
;
_chemical_formula_sum "Si O2"
_cell_formula_units_Z 32
_cell_length_a 8.726966
_cell_length_b 14.575473
_cell_length_c 12.318679
_cell_angle_alpha 90.000000
_cell_angle_beta 90.000000
_cell_angle_gamma 90.000000
_cell_volume 1566.931747
_symmetry_space_group_name_H-M "P M C 21"
_symmetry_group_IT_number 26
_symmetry_cell_setting 'orthorhombic'
loop_
_space_group_symop_operation_xyz
x,y,z
-x,-y,1/2+z
-x,y,z
x,-y,1/2+z
loop_
_atom_site_type_symbol
_atom_site_label
_atom_site_fract_x
_atom_site_fract_y
_atom_site_fract_z
Si Si1 0.676508 0.558313 0.612040
Si Si2 0.681149 0.861351 0.878964
Si Si3 0.325752 0.359159 0.658159
Si Si4 0.823781 0.826917 0.497236
Si Si5 0.182433 0.266538 0.211673
Si Si6 0.330771 0.334443 0.902918
Si Si7 0.182859 0.955243 0.313757
Si Si8 0.180320 0.167653 0.608988
O O1 0.500000 0.559129 0.650496
O O2 0.741872 0.454724 0.613295
O O3 0.767943 0.628650 0.689747
O O4 0.697383 0.584359 0.487108
O O5 0.500000 0.858677 0.879170
O O6 0.745308 0.768141 0.824350
O O7 0.740856 0.945382 0.804650
O O8 0.740973 0.871983 0.001348
O O9 0.500000 0.340411 0.618397
O O10 0.318691 0.377082 0.785592
O O11 0.222523 0.274101 0.622421
O O12 0.751416 0.800224 0.614363
O O13 0.799569 0.741879 0.416121
O O14 0.758377 0.913923 0.430217
O O15 0.000000 0.844881 0.517417
O O16 0.000000 0.262219 0.218104
O O17 0.500000 0.290182 0.922374
O O18 0.237482 0.891916 0.212658
O O19 0.000000 0.964177 0.311426
O O20 0.000000 0.158063 0.594512
#
# Coordination Sequence:
#
# PCOD8167512 Si02
#       8
#     4   4   4   4   4   4   4   4
#     4   9  19  35  56  86 124 168 212 255 309 365
#     4  12  27  43  62  90 127 165 204 253 312 378
#     4  10  20  35  58  88 124 164 209 257 308 365
#     4   9  18  35  60  86 112 148 194 247 301 356
#     4  10  21  39  62  89 122 160 208 258 307 365
#     4   9  17  31  52  80 114 153 199 250 300 353
#     4  10  22  41  64  90 119 157 202 251 306 366
#     4  11  24  43  66  91 124 161 206 257 309 368
#
# _framework density 20.422076000000001
#
# number of rings (size 3 to 8) (size 9 to 14) (size 15 to 20)
#    0.000    2.000    1.250    1.875    1.750    3.500 
#    0.000    2.500    0.000    0.000    0.000    0.000 
#    0.000    0.000    0.000    0.000    0.000    0.000 
#
# Total GULP energy -396653.997131 kJ/mol
# GULP energy per Si atom -12395.437410 kJ/mol
# Density = 2.037559 g / cm^3
# Si number density = 20.422076 Si / 1000 Ang^3
#
#
#
# Elastic Constant Matrix: (Units=GPa)
#
#
# Indices 1 2 3 4 5 6 
#
# 1 59.5144 31.7476 31.0074 0.0000 0.0000 0.0000
# 2 31.7476 118.2040 38.9917 0.0000 0.0000 0.0000
# 3 31.0074 38.9917 77.7616 0.0000 0.0000 0.0000
# 4 0.0000 0.0000 0.0000 30.1285 0.0000 0.0000
# 5 0.0000 0.0000 0.0000 0.0000 26.6854 0.0000
# 6 0.0000 0.0000 0.0000 0.0000 0.0000 34.1156
#
#
#
# Elastic Compliance Matrix: (Units=1/GPa)
#
#
# Indices 1 2 3 4 5 6 
#
# 1 0.022477 -0.003691 -0.007112 0.000000 0.000000 0.000000
# 2 -0.003691 0.010743 -0.003915 0.000000 0.000000 0.000000
# 3 -0.007112 -0.003915 0.017659 0.000000 0.000000 0.000000
# 4 0.000000 0.000000 0.000000 0.033191 0.000000 0.000000
# 5 0.000000 0.000000 0.000000 0.000000 0.037474 0.000000
# 6 0.000000 0.000000 0.000000 0.000000 0.000000 0.029312
#
#
# Mechanical properties :
#
#
# Convention : Reuss Voigt Hill
#
# Bulk Modulus (GPa) = 46.63570 50.99706 48.81638
# Shear Modulus (GPa) = 26.67544 28.43479 27.55512
#
# Velocity S-wave (km/s) = 3.61807 3.73548 3.67724
# Velocity P-wave (km/s) = 6.35133 6.60536 6.47959
#
# Compressibility (1/GPa) = 0.02144280
#
# Stress axis : x y z
#
# Youngs Moduli (GPa) = 44.49013 93.08675 56.62923
#
# Poissons Ratio (x) = 0.34358 0.40274
# Poissons Ratio (y) = 0.16421 0.22170
# Poissons Ratio (z) = 0.31641 0.36443
#
# Static dielectric constant tensor:
#      x y z
#    x 3.588170 0.000000 0.000000 
#    y 0.000000 3.712590 0.000000 
#    z 0.000000 0.000000 3.872360 
# 
# 
# High freq. dielectric constant tensor:
#      x y z
#    x 1.782190 0.000000 0.000000 
#    y 0.000000 1.796680 0.000000 
#    z 0.000000 0.000000 1.803490 
# 
# From -- ./inp_files/2973.got.cif
#   From: 2010.03.12/outbox.cif.g09.slc.cpg/sg26_2_cif.got.tgz:2973.got - 2010.04.14 03:33:09.
