data_PCOD8167286
_publ_section_title
;
Structure prediction by ZEFSAII (Michael W. Deem and Ramdas Pophale) SiO2 
 PCOD8167286
Probable space group: P M C 21
;
_chemical_formula_sum "Si O2"
_cell_formula_units_Z 32
_cell_length_a 8.814815
_cell_length_b 11.535135
_cell_length_c 17.192049
_cell_angle_alpha 90.000000
_cell_angle_beta 90.000000
_cell_angle_gamma 90.000000
_cell_volume 1748.088935
_symmetry_space_group_name_H-M "P M C 21"
_symmetry_group_IT_number 26
_symmetry_cell_setting 'orthorhombic'
loop_
_space_group_symop_operation_xyz
x,y,z
-x,-y,1/2+z
-x,y,z
x,-y,1/2+z
loop_
_atom_site_type_symbol
_atom_site_label
_atom_site_fract_x
_atom_site_fract_y
_atom_site_fract_z
Si Si1 0.177313 0.842680 0.527040
Si Si2 0.328421 0.684829 0.411819
Si Si3 0.176970 0.781971 0.849593
Si Si4 0.327802 0.460357 0.331053
Si Si5 0.323774 0.152817 0.656234
Si Si6 0.323476 0.925451 0.984794
Si Si7 0.176603 0.921061 0.695760
Si Si8 0.178865 0.335910 0.759324
O O1 0.256654 0.728372 0.492352
O O2 0.223884 0.853014 0.617335
O O3 0.000000 0.828641 0.516064
O O4 0.231749 0.954887 0.479102
O O5 0.500000 0.731104 0.404615
O O6 0.325049 0.543608 0.407985
O O7 0.232323 0.733179 0.337577
O O8 0.221667 0.648227 0.846618
O O9 0.274409 0.842352 0.915770
O O10 0.218092 0.839191 0.767337
O O11 0.000000 0.793590 0.869033
O O12 0.500000 0.421982 0.311271
O O13 0.258391 0.536517 0.259532
O O14 0.500000 0.172741 0.672497
O O15 0.286372 0.138819 0.565425
O O16 0.231941 0.265181 0.684075
O O17 0.270621 0.039271 0.703290
O O18 0.500000 0.954851 0.978128
O O19 0.000000 0.954393 0.693479
O O20 0.000000 0.351670 0.758220
#
# Coordination Sequence:
#
# PCOD8167286 Si02
#       8
#     4   4   4   4   4   4   4   4
#     4  10  19  35  57  82 111 141 180 226 272 321
#     4   9  19  34  55  80 108 140 178 223 269 320
#     4  11  22  37  57  79 108 146 185 223 273 329
#     4   9  20  37  55  78 109 143 183 229 268 320
#     4  10  20  36  56  82 111 143 182 225 272 322
#     4  10  22  37  55  79 113 148 181 224 272 327
#     4   9  21  37  54  80 113 145 179 223 269 325
#     4  10  19  33  57  82 107 140 178 225 273 318
#
# _framework density 18.305706000000001
#
# number of rings (size 3 to 8) (size 9 to 14) (size 15 to 20)
#    0.750    1.500    0.000    3.000    1.750    3.000 
#    0.000    1.250    0.000    3.000    0.000    0.000 
#    0.000    0.000    0.000    0.000    0.000    0.000 
#
# Total GULP energy -396736.168652 kJ/mol
# GULP energy per Si atom -12398.005270 kJ/mol
# Density = 1.826404 g / cm^3
# Si number density = 18.305706 Si / 1000 Ang^3
#
#
#
# Elastic Constant Matrix: (Units=GPa)
#
#
# Indices 1 2 3 4 5 6 
#
# 1 72.1109 18.4440 23.2152 0.0000 0.0000 0.0000
# 2 18.4440 77.6466 39.7000 0.0000 0.0000 0.0000
# 3 23.2152 39.7000 74.2852 0.0000 0.0000 0.0000
# 4 0.0000 0.0000 0.0000 3.5620 0.0000 0.0000
# 5 0.0000 0.0000 0.0000 0.0000 28.8716 0.0000
# 6 0.0000 0.0000 0.0000 0.0000 0.0000 30.0807
#
#
#
# Elastic Compliance Matrix: (Units=1/GPa)
#
#
# Indices 1 2 3 4 5 6 
#
# 1 0.015574 -0.001666 -0.003977 0.000000 0.000000 0.000000
# 2 -0.001666 0.017899 -0.009045 0.000000 0.000000 0.000000
# 3 -0.003977 -0.009045 0.019538 0.000000 0.000000 0.000000
# 4 0.000000 0.000000 0.000000 0.280744 0.000000 0.000000
# 5 0.000000 0.000000 0.000000 0.000000 0.034636 0.000000
# 6 0.000000 0.000000 0.000000 0.000000 0.000000 0.033244
#
#
# Mechanical properties :
#
#
# Convention : Reuss Voigt Hill
#
# Bulk Modulus (GPa) = 42.30894 42.97345 42.64119
# Shear Modulus (GPa) = 11.39237 22.01508 16.70372
#
# Velocity S-wave (km/s) = 2.49738 3.47166 3.02402
# Velocity P-wave (km/s) = 5.61057 6.29256 5.96133
#
# Compressibility (1/GPa) = 0.02363567
#
# Stress axis : x y z
#
# Youngs Moduli (GPa) = 64.20990 55.86790 51.18133
#
# Poissons Ratio (x) = 0.09309 0.20353
# Poissons Ratio (y) = 0.10699 0.46294
# Poissons Ratio (z) = 0.25534 0.50534
#
# Static dielectric constant tensor:
#      x y z
#    x 3.418670 0.000000 0.000000 
#    y 0.000000 3.202420 0.000000 
#    z 0.000000 0.000000 3.275260 
# 
# 
# High freq. dielectric constant tensor:
#      x y z
#    x 1.726000 0.000000 0.000000 
#    y 0.000000 1.697640 0.000000 
#    z 0.000000 0.000000 1.694110 
# 
# From -- ./inp_files/5072.got.cif
#   From: 2010.03.12/outbox.cif.g09.slc.cpg/sg26_3_cif.got.tgz:5072.got - 2010.04.14 03:33:09.
