data_PCOD8167230
_publ_section_title
;
Structure prediction by ZEFSAII (Michael W. Deem and Ramdas Pophale) SiO2 
 PCOD8167230
Probable space group: P M C 21
;
_chemical_formula_sum "Si O2"
_cell_formula_units_Z 32
_cell_length_a 9.132487
_cell_length_b 12.149247
_cell_length_c 14.401174
_cell_angle_alpha 90.000000
_cell_angle_beta 90.000000
_cell_angle_gamma 90.000000
_cell_volume 1597.851159
_symmetry_space_group_name_H-M "P M C 21"
_symmetry_group_IT_number 26
_symmetry_cell_setting 'orthorhombic'
loop_
_space_group_symop_operation_xyz
x,y,z
-x,-y,1/2+z
-x,y,z
x,-y,1/2+z
loop_
_atom_site_type_symbol
_atom_site_label
_atom_site_fract_x
_atom_site_fract_y
_atom_site_fract_z
Si Si1 0.666580 0.619457 0.985460
Si Si2 0.329305 0.895882 0.607881
Si Si3 0.825522 0.002013 0.770524
Si Si4 0.672415 0.405438 0.882101
Si Si5 0.165642 0.314439 0.174586
Si Si6 0.836680 0.218627 0.369228
Si Si7 0.333099 0.530363 0.178679
Si Si8 0.329147 0.839404 0.404055
O O1 0.500000 0.626975 0.951583
O O2 0.738195 0.507555 0.941658
O O3 0.742706 0.731619 0.952616
O O4 0.679118 0.619996 0.096910
O O5 0.500000 0.902944 0.633191
O O6 0.242274 0.988200 0.666991
O O7 0.270875 0.775513 0.630861
O O8 0.303502 0.911141 0.497403
O O9 0.774678 0.897802 0.832670
O O10 0.000000 0.007348 0.760422
O O11 0.763272 0.110387 0.819252
O O12 0.500000 0.408694 0.894531
O O13 0.719717 0.415697 0.774512
O O14 0.727874 0.286435 0.918688
O O15 0.167225 0.306095 0.285800
O O16 0.228264 0.432131 0.147314
O O17 0.000000 0.299774 0.136736
O O18 0.000000 0.201286 0.407137
O O19 0.500000 0.486567 0.187603
O O20 0.500000 0.839580 0.376041
#
# Coordination Sequence:
#
# PCOD8167230 Si02
#       8
#     4   4   4   4   4   4   4   4
#     4  10  19  32  54  82 108 143 186 225 276 337
#     4  10  20  36  61  88 112 147 199 247 287 341
#     4  10  22  40  60  84 116 150 189 240 296 351
#     4   9  18  34  54  80 115 146 180 235 286 330
#     4  10  19  32  53  81 113 147 187 232 278 336
#     4   9  19  35  53  75 106 141 179 227 277 328
#     4  10  19  32  52  79 111 149 186 225 281 342
#     4  10  21  39  61  85 115 153 196 241 291 345
#
# _framework density 20.026897000000002
#
# number of rings (size 3 to 8) (size 9 to 14) (size 15 to 20)
#    0.000    2.250    1.250    2.625    0.000    6.000 
#    2.250    1.250    0.000    0.000    0.000    0.000 
#    0.000    0.000    0.000    0.000    0.000    0.000 
#
# Total GULP energy -396733.036239 kJ/mol
# GULP energy per Si atom -12397.907382 kJ/mol
# Density = 1.998132 g / cm^3
# Si number density = 20.026897 Si / 1000 Ang^3
#
#
#
# Elastic Constant Matrix: (Units=GPa)
#
#
# Indices 1 2 3 4 5 6 
#
# 1 65.4615 11.3143 23.0805 0.0000 0.0000 0.0000
# 2 11.3143 42.7179 8.3837 0.0000 0.0000 0.0000
# 3 23.0805 8.3837 83.7280 0.0000 0.0000 0.0000
# 4 0.0000 0.0000 0.0000 26.4831 0.0000 0.0000
# 5 0.0000 0.0000 0.0000 0.0000 19.0563 0.0000
# 6 0.0000 0.0000 0.0000 0.0000 0.0000 25.7169
#
#
#
# Elastic Compliance Matrix: (Units=1/GPa)
#
#
# Indices 1 2 3 4 5 6 
#
# 1 0.017494 -0.003761 -0.004446 0.000000 0.000000 0.000000
# 2 -0.003761 0.024687 -0.001435 0.000000 0.000000 0.000000
# 3 -0.004446 -0.001435 0.013313 0.000000 0.000000 0.000000
# 4 0.000000 0.000000 0.000000 0.037760 0.000000 0.000000
# 5 0.000000 0.000000 0.000000 0.000000 0.052476 0.000000
# 6 0.000000 0.000000 0.000000 0.000000 0.000000 0.038885
#
#
# Mechanical properties :
#
#
# Convention : Reuss Voigt Hill
#
# Bulk Modulus (GPa) = 27.61680 30.82938 29.22309
# Shear Modulus (GPa) = 23.15157 24.19319 23.67238
#
# Velocity S-wave (km/s) = 3.40372 3.47945 3.44180
# Velocity P-wave (km/s) = 5.40989 5.61867 5.51527
#
# Compressibility (1/GPa) = 0.03620985
#
# Stress axis : x y z
#
# Youngs Moduli (GPa) = 57.16357 40.50688 75.11653
#
# Poissons Ratio (x) = 0.15234 0.33395
# Poissons Ratio (y) = 0.21499 0.10781
# Poissons Ratio (z) = 0.25413 0.05814
#
# Static dielectric constant tensor:
#      x y z
#    x 3.461090 0.000000 0.000000 
#    y 0.000000 3.462720 0.000000 
#    z 0.000000 0.000000 3.658070 
# 
# 
# High freq. dielectric constant tensor:
#      x y z
#    x 1.763640 0.000000 0.000000 
#    y 0.000000 1.763910 0.000000 
#    z 0.000000 0.000000 1.781150 
# 
# From -- ./inp_files/4143.got.cif
#   From: 2010.03.12/outbox.cif.g09.slc.cpg/sg26_3_cif.got.tgz:4143.got - 2010.04.14 03:33:09.
