data_PCOD8167650
_publ_section_title
;
Structure prediction by ZEFSAII (Michael W. Deem and Ramdas Pophale) SiO2 
 PCOD8167650
Probable space group: P M C 21
;
_chemical_formula_sum "Si O2"
_cell_formula_units_Z 32
_cell_length_a 13.313983
_cell_length_b 9.672432
_cell_length_c 11.994373
_cell_angle_alpha 90.000000
_cell_angle_beta 90.000000
_cell_angle_gamma 90.000000
_cell_volume 1544.618505
_symmetry_space_group_name_H-M "P M C 21"
_symmetry_group_IT_number 26
_symmetry_cell_setting 'orthorhombic'
loop_
_space_group_symop_operation_xyz
x,y,z
-x,-y,1/2+z
-x,y,z
x,-y,1/2+z
loop_
_atom_site_type_symbol
_atom_site_label
_atom_site_fract_x
_atom_site_fract_y
_atom_site_fract_z
Si Si1 0.698427 0.173979 0.439040
Si Si2 0.114930 0.241043 0.297998
Si Si3 0.607970 0.447861 0.375117
Si Si4 0.114112 0.046276 0.090309
Si Si5 0.719205 0.874952 0.412919
Si Si6 0.769218 0.482878 0.213863
Si Si7 0.778649 0.786360 0.165811
Si Si8 0.611769 0.653328 0.559883
O O1 0.814461 0.201823 0.401833
O O2 0.626881 0.283744 0.379727
O O3 0.691372 0.185959 0.574060
O O4 0.663154 0.022474 0.399555
O O5 0.139640 0.140156 0.196182
O O6 0.134501 0.398918 0.257515
O O7 0.000000 0.228614 0.337787
O O8 0.500000 0.471618 0.315131
O O9 0.696706 0.531573 0.314240
O O10 0.604188 0.506245 0.499133
O O11 0.000000 0.064816 0.051163
O O12 0.130942 0.887688 0.129512
O O13 0.180951 0.096333 0.986204
O O14 0.744900 0.817369 0.291254
O O15 0.643292 0.773410 0.474983
O O16 0.807809 0.622622 0.153747
O O17 0.698415 0.370863 0.150328
O O18 0.500000 0.689212 0.608591
#
# Coordination Sequence:
#
# PCOD8167650 Si02
#       8
#     4   4   4   4   4   4   4   4
#     4  10  22  38  63  87 125 162 200 259 311 365
#     4  10  21  40  63  88 122 163 205 252 308 371
#     4  10  21  37  60  89 121 162 206 250 310 372
#     4  10  22  40  63  89 120 162 206 254 312 374
#     4  11  22  40  62  90 126 162 206 259 311 365
#     4  11  21  39  64  89 128 162 204 261 312 369
#     4  11  22  38  61  89 122 161 208 250 310 367
#     4  11  22  38  61  91 124 162 210 255 309 371
#
# _framework density 20.717088
#
# number of rings (size 3 to 8) (size 9 to 14) (size 15 to 20)
#    0.000    1.500    5.000    0.375    0.000    3.500 
#    0.000    0.625    0.000    0.750    0.000    0.000 
#    0.000    0.000    0.000    0.000    0.000    0.000 
#
# Total GULP energy -396533.106432 kJ/mol
# GULP energy per Si atom -12391.659576 kJ/mol
# Density = 2.066994 g / cm^3
# Si number density = 20.717088 Si / 1000 Ang^3
#
#
#
# Elastic Constant Matrix: (Units=GPa)
#
#
# Indices 1 2 3 4 5 6 
#
# 1 72.0902 21.2854 17.1370 0.0000 0.0000 0.0000
# 2 21.2854 121.6052 18.3801 0.0000 0.0000 0.0000
# 3 17.1370 18.3801 82.7495 0.0000 0.0000 0.0000
# 4 0.0000 0.0000 0.0000 33.2056 0.0000 0.0000
# 5 0.0000 0.0000 0.0000 0.0000 5.8460 0.0000
# 6 0.0000 0.0000 0.0000 0.0000 0.0000 19.8671
#
#
#
# Elastic Compliance Matrix: (Units=1/GPa)
#
#
# Indices 1 2 3 4 5 6 
#
# 1 0.015165 -0.002255 -0.002640 0.000000 0.000000 0.000000
# 2 -0.002255 0.008844 -0.001497 0.000000 0.000000 0.000000
# 3 -0.002640 -0.001497 0.012964 0.000000 0.000000 0.000000
# 4 0.000000 0.000000 0.000000 0.030115 0.000000 0.000000
# 5 0.000000 0.000000 0.000000 0.000000 0.171056 0.000000
# 6 0.000000 0.000000 0.000000 0.000000 0.000000 0.050334
#
#
# Mechanical properties :
#
#
# Convention : Reuss Voigt Hill
#
# Bulk Modulus (GPa) = 41.34219 43.33885 42.34052
# Shear Modulus (GPa) = 16.16411 26.42658 21.29535
#
# Velocity S-wave (km/s) = 2.79629 3.57542 3.20959
# Velocity P-wave (km/s) = 5.51585 6.16519 5.84954
#
# Compressibility (1/GPa) = 0.02418837
#
# Stress axis : x y z
#
# Youngs Moduli (GPa) = 65.94157 113.06531 77.13723
#
# Poissons Ratio (x) = 0.25501 0.20361
# Poissons Ratio (y) = 0.14873 0.11551
# Poissons Ratio (z) = 0.17406 0.16930
#
# Static dielectric constant tensor:
#      x y z
#    x 3.550340 0.000000 0.000000 
#    y 0.000000 3.884770 0.000000 
#    z 0.000000 0.000000 3.763210 
# 
# 
# High freq. dielectric constant tensor:
#      x y z
#    x 1.783690 0.000000 0.000000 
#    y 0.000000 1.824200 0.000000 
#    z 0.000000 0.000000 1.815450 
# 
# From -- ./inp_files/3584.got.cif
#   From: 2010.03.12/outbox.cif.g09.slc.cpg/sg26_2_cif.got.tgz:3584.got - 2010.04.14 03:33:09.
