data_PCOD8167247
_publ_section_title
;
Structure prediction by ZEFSAII (Michael W. Deem and Ramdas Pophale) SiO2 
 PCOD8167247
Probable space group: P M C 21
;
_chemical_formula_sum "Si O2"
_cell_formula_units_Z 32
_cell_length_a 9.026983
_cell_length_b 12.202260
_cell_length_c 14.539108
_cell_angle_alpha 90.000000
_cell_angle_beta 90.000000
_cell_angle_gamma 90.000000
_cell_volume 1601.476837
_symmetry_space_group_name_H-M "P M C 21"
_symmetry_group_IT_number 26
_symmetry_cell_setting 'orthorhombic'
loop_
_space_group_symop_operation_xyz
x,y,z
-x,-y,1/2+z
-x,y,z
x,-y,1/2+z
loop_
_atom_site_type_symbol
_atom_site_label
_atom_site_fract_x
_atom_site_fract_y
_atom_site_fract_z
Si Si1 0.675662 0.673633 0.691540
Si Si2 0.326662 0.401279 0.991450
Si Si3 0.330659 0.049042 0.398684
Si Si4 0.174569 0.408283 0.378463
Si Si5 0.174204 0.102100 0.218707
Si Si6 0.330462 0.196445 0.877052
Si Si7 0.833868 0.206490 0.505678
Si Si8 0.833737 0.142931 0.701834
O O1 0.500000 0.683211 0.706601
O O2 0.711244 0.600102 0.600623
O O3 0.747482 0.614667 0.780435
O O4 0.739572 0.795924 0.672669
O O5 0.500000 0.425574 0.976754
O O6 0.233876 0.485046 0.930090
O O7 0.277983 0.283062 0.952361
O O8 0.500000 0.068698 0.368533
O O9 0.219020 0.102875 0.325527
O O10 0.288178 0.112117 0.490944
O O11 0.297088 0.922752 0.418382
O O12 0.213128 0.313558 0.450674
O O13 0.000000 0.419748 0.360298
O O14 0.000000 0.123838 0.206654
O O15 0.225628 0.981804 0.180765
O O16 0.500000 0.213962 0.853386
O O17 0.251023 0.209290 0.779737
O O18 0.825571 0.224034 0.615023
O O19 0.000000 0.168752 0.478298
O O20 0.000000 0.125867 0.737349
#
# Coordination Sequence:
#
# PCOD8167247 Si02
#       8
#     4   4   4   4   4   4   4   4
#     4  11  23  40  64  90 120 159 201 250 304 362
#     4  10  24  44  64  88 121 160 204 254 308 362
#     4  10  19  32  56  86 117 155 197 243 300 358
#     4  11  24  42  64  89 122 160 206 259 304 358
#     4  10  19  34  56  85 122 159 200 247 299 360
#     4   9  20  39  58  84 120 155 196 250 302 356
#     4  10  21  37  56  84 122 159 197 247 301 354
#     4   9  20  36  56  86 124 165 201 244 304 362
#
# _framework density 19.981556999999999
#
# number of rings (size 3 to 8) (size 9 to 14) (size 15 to 20)
#    0.000    2.000    1.250    1.500    1.750    4.500 
#    0.000    2.500    0.000    0.000    0.000    0.000 
#    0.000    0.000    0.000    0.000    0.000    0.000 
#
# Total GULP energy -396606.597823 kJ/mol
# GULP energy per Si atom -12393.956182 kJ/mol
# Density = 1.993608 g / cm^3
# Si number density = 19.981557 Si / 1000 Ang^3
#
#
#
# Elastic Constant Matrix: (Units=GPa)
#
#
# Indices 1 2 3 4 5 6 
#
# 1 77.2234 46.8149 49.9397 0.0000 0.0000 0.0000
# 2 46.8149 77.9388 54.2576 0.0000 0.0000 0.0000
# 3 49.9397 54.2576 111.3473 0.0000 0.0000 0.0000
# 4 0.0000 0.0000 0.0000 27.8480 0.0000 0.0000
# 5 0.0000 0.0000 0.0000 0.0000 30.7603 0.0000
# 6 0.0000 0.0000 0.0000 0.0000 0.0000 29.3101
#
#
#
# Elastic Compliance Matrix: (Units=1/GPa)
#
#
# Indices 1 2 3 4 5 6 
#
# 1 0.022216 -0.009697 -0.005239 0.000000 0.000000 0.000000
# 2 -0.009697 0.023651 -0.007175 0.000000 0.000000 0.000000
# 3 -0.005239 -0.007175 0.014827 0.000000 0.000000 0.000000
# 4 0.000000 0.000000 0.000000 0.035909 0.000000 0.000000
# 5 0.000000 0.000000 0.000000 0.000000 0.032509 0.000000
# 6 0.000000 0.000000 0.000000 0.000000 0.000000 0.034118
#
#
# Mechanical properties :
#
#
# Convention : Reuss Voigt Hill
#
# Bulk Modulus (GPa) = 60.71295 63.17043 61.94169
# Shear Modulus (GPa) = 23.48051 25.28350 24.38201
#
# Velocity S-wave (km/s) = 3.43171 3.56102 3.49696
# Velocity P-wave (km/s) = 6.79357 6.97071 6.88271
#
# Compressibility (1/GPa) = 0.01647095
#
# Stress axis : x y z
#
# Youngs Moduli (GPa) = 45.01245 42.28237 67.44574
#
# Poissons Ratio (x) = 0.41003 0.35332
# Poissons Ratio (y) = 0.43651 0.48393
# Poissons Ratio (z) = 0.23580 0.30338
#
# Static dielectric constant tensor:
#      x y z
#    x 3.656020 0.000000 0.000000 
#    y 0.000000 3.759170 0.000000 
#    z 0.000000 0.000000 3.610240 
# 
# 
# High freq. dielectric constant tensor:
#      x y z
#    x 1.780760 0.000000 0.000000 
#    y 0.000000 1.772840 0.000000 
#    z 0.000000 0.000000 1.779280 
# 
# From -- ./inp_files/4315.got.cif
#   From: 2010.03.12/outbox.cif.g09.slc.cpg/sg26_3_cif.got.tgz:4315.got - 2010.04.14 03:33:09.
