data_PCOD8167246
_publ_section_title
;
Structure prediction by ZEFSAII (Michael W. Deem and Ramdas Pophale) SiO2 
 PCOD8167246
Probable space group: P M C 21
;
_chemical_formula_sum "Si O2"
_cell_formula_units_Z 32
_cell_length_a 8.907470
_cell_length_b 11.970153
_cell_length_c 14.367561
_cell_angle_alpha 90.000000
_cell_angle_beta 90.000000
_cell_angle_gamma 90.000000
_cell_volume 1531.923645
_symmetry_space_group_name_H-M "P M C 21"
_symmetry_group_IT_number 26
_symmetry_cell_setting 'orthorhombic'
loop_
_space_group_symop_operation_xyz
x,y,z
-x,-y,1/2+z
-x,y,z
x,-y,1/2+z
loop_
_atom_site_type_symbol
_atom_site_label
_atom_site_fract_x
_atom_site_fract_y
_atom_site_fract_z
Si Si1 0.324420 0.104596 0.734050
Si Si2 0.169394 0.295236 0.214990
Si Si3 0.822984 0.335901 0.756106
Si Si4 0.670090 0.122847 0.333282
Si Si5 0.323066 0.498262 0.625968
Si Si6 0.675331 0.608332 0.436403
Si Si7 0.831260 0.811806 0.521029
Si Si8 0.669278 0.965043 0.029429
O O1 0.500000 0.127374 0.750817
O O2 0.232718 0.209742 0.773504
O O3 0.284444 0.094263 0.625056
O O4 0.271320 0.993956 0.789246
O O5 0.231475 0.228705 0.303616
O O6 0.270145 0.402233 0.193107
O O7 0.175316 0.207929 0.130878
O O8 0.000000 0.336185 0.234612
O O9 0.754901 0.384106 0.659837
O O10 0.766714 0.414866 0.841532
O O11 0.000000 0.339001 0.750142
O O12 0.500000 0.141547 0.298216
O O13 0.678536 0.122721 0.445166
O O14 0.500000 0.485758 0.635151
O O15 0.276715 0.522206 0.518450
O O16 0.500000 0.599497 0.414680
O O17 0.713905 0.732918 0.469283
O O18 0.000000 0.790748 0.482558
O O19 0.783990 0.937908 0.503099
O O20 0.500000 0.013722 0.038738
#
# Coordination Sequence:
#
# PCOD8167246 Si02
#       8
#     4   4   4   4   4   4   4   4
#     4  10  21  38  59  85 122 163 206 250 294 357
#     4  10  20  35  57  85 117 150 189 241 300 353
#     4  12  25  41  63  91 125 160 200 253 311 364
#     4  10  20  35  57  85 116 155 200 245 293 352
#     4  10  22  42  67  90 116 155 203 250 297 358
#     4  10  21  39  65  92 117 156 207 252 297 359
#     4  10  19  32  55  86 119 153 193 247 299 351
#     4  10  20  34  55  84 116 158 204 244 291 354
#
# _framework density 20.888769
#
# number of rings (size 3 to 8) (size 9 to 14) (size 15 to 20)
#    0.000    1.750    1.250    3.375    0.000    5.000 
#    2.250    0.000    0.000    0.000    0.000    0.000 
#    0.000    0.000    0.000    0.000    0.000    0.000 
#
# Total GULP energy -396877.026641 kJ/mol
# GULP energy per Si atom -12402.407083 kJ/mol
# Density = 2.084123 g / cm^3
# Si number density = 20.888769 Si / 1000 Ang^3
#
#
#
# Elastic Constant Matrix: (Units=GPa)
#
#
# Indices 1 2 3 4 5 6 
#
# 1 85.8675 14.6206 23.1319 0.0000 0.0000 0.0000
# 2 14.6206 38.9116 4.5018 0.0000 0.0000 0.0000
# 3 23.1319 4.5018 95.1245 0.0000 0.0000 0.0000
# 4 0.0000 0.0000 0.0000 26.5258 0.0000 0.0000
# 5 0.0000 0.0000 0.0000 0.0000 26.3822 0.0000
# 6 0.0000 0.0000 0.0000 0.0000 0.0000 25.0913
#
#
#
# Elastic Compliance Matrix: (Units=1/GPa)
#
#
# Indices 1 2 3 4 5 6 
#
# 1 0.013242 -0.004629 -0.003001 0.000000 0.000000 0.000000
# 2 -0.004629 0.027459 -0.000174 0.000000 0.000000 0.000000
# 3 -0.003001 -0.000174 0.011251 0.000000 0.000000 0.000000
# 4 0.000000 0.000000 0.000000 0.037699 0.000000 0.000000
# 5 0.000000 0.000000 0.000000 0.000000 0.037904 0.000000
# 6 0.000000 0.000000 0.000000 0.000000 0.000000 0.039855
#
#
# Mechanical properties :
#
#
# Convention : Reuss Voigt Hill
#
# Bulk Modulus (GPa) = 27.51462 33.82357 30.66910
# Shear Modulus (GPa) = 25.62373 27.44313 26.53343
#
# Velocity S-wave (km/s) = 3.50619 3.62853 3.56789
# Velocity P-wave (km/s) = 5.43983 5.81226 5.62913
#
# Compressibility (1/GPa) = 0.03634431
#
# Stress axis : x y z
#
# Youngs Moduli (GPa) = 75.51478 36.41853 88.88432
#
# Poissons Ratio (x) = 0.16856 0.26676
# Poissons Ratio (y) = 0.34952 0.01546
# Poissons Ratio (z) = 0.22663 0.00633
#
# Static dielectric constant tensor:
#      x y z
#    x 3.719880 0.000000 0.000000 
#    y 0.000000 3.478520 0.000000 
#    z 0.000000 0.000000 3.945840 
# 
# 
# High freq. dielectric constant tensor:
#      x y z
#    x 1.814690 0.000000 0.000000 
#    y 0.000000 1.796650 0.000000 
#    z 0.000000 0.000000 1.825090 
# 
# From -- ./inp_files/4135.got.cif
#   From: 2010.03.12/outbox.cif.g09.slc.cpg/sg26_3_cif.got.tgz:4135.got - 2010.04.14 03:33:09.
