data_PCOD8167479
_publ_section_title
;
Structure prediction by ZEFSAII (Michael W. Deem and Ramdas Pophale) SiO2 
 PCOD8167479
Probable space group: P M C 21
;
_chemical_formula_sum "Si O2"
_cell_formula_units_Z 32
_cell_length_a 9.500549
_cell_length_b 28.941496
_cell_length_c 5.363859
_cell_angle_alpha 90.000000
_cell_angle_beta 90.000000
_cell_angle_gamma 90.000000
_cell_volume 1474.847212
_symmetry_space_group_name_H-M "P M C 21"
_symmetry_group_IT_number 26
_symmetry_cell_setting 'orthorhombic'
loop_
_space_group_symop_operation_xyz
x,y,z
-x,-y,1/2+z
-x,y,z
x,-y,1/2+z
loop_
_atom_site_type_symbol
_atom_site_label
_atom_site_fract_x
_atom_site_fract_y
_atom_site_fract_z
Si Si1 0.845194 0.398897 0.493290
Si Si2 0.347288 0.741049 0.936360
Si Si3 0.846918 0.305365 0.760521
Si Si4 0.654126 0.648986 0.659852
Si Si5 0.161653 0.028583 0.684669
Si Si6 0.331772 0.878579 0.174444
Si Si7 0.336576 0.829899 0.670888
Si Si8 0.337320 0.528122 0.222483
O O1 0.871844 0.346013 0.562985
O O2 0.740465 0.396328 0.253839
O O3 0.764646 0.427213 0.710633
O O4 0.000000 0.420848 0.432251
O O5 0.500000 0.758798 0.045313
O O6 0.369303 0.687554 0.869724
O O7 0.305122 0.774849 0.707149
O O8 0.222048 0.740819 0.139616
O O9 0.000000 0.292015 0.875328
O O10 0.738367 0.324405 0.954494
O O11 0.500000 0.631414 0.567298
O O12 0.266147 0.071266 0.698682
O O13 0.000000 0.045507 0.688925
O O14 0.194034 0.002079 0.427783
O O15 0.500000 0.882785 0.177486
O O16 0.273225 0.848194 0.409722
O O17 0.276253 0.855567 0.917462
O O18 0.500000 0.840313 0.657387
O O19 0.500000 0.543722 0.216663
O O20 0.300712 0.498203 0.976820
#
# Coordination Sequence:
#
# PCOD8167479 Si02
#       8
#     4   4   4   4   4   4   4   4
#     4  10  22  39  58  83 116 152 190 238 293 347
#     4   9  19  35  55  80 107 148 196 235 281 341
#     4  10  21  36  55  82 116 149 188 242 294 343
#     4  10  20  34  58  85 110 147 195 241 286 343
#     4  10  21  37  57  80 109 146 185 231 283 339
#     4  10  20  35  56  84 113 146 185 234 287 337
#     4   9  19  34  56  82 114 148 187 234 282 336
#     4  10  23  42  63  90 121 154 194 241 290 348
#
# _framework density 21.697164000000001
#
# number of rings (size 3 to 8) (size 9 to 14) (size 15 to 20)
#    0.000    2.250    0.000    1.875    3.500    3.000 
#    0.000    1.250    0.000    0.000    0.000    0.000 
#    0.000    0.000    0.000    0.000    0.000    0.000 
#
# Total GULP energy -396468.374465 kJ/mol
# GULP energy per Si atom -12389.636702 kJ/mol
# Density = 2.164778 g / cm^3
# Si number density = 21.697164 Si / 1000 Ang^3
#
#
#
# Elastic Constant Matrix: (Units=GPa)
#
#
# Indices 1 2 3 4 5 6 
#
# 1 109.5914 5.5076 11.5444 0.0000 0.0000 0.0000
# 2 5.5076 54.6054 1.0898 0.0000 0.0000 0.0000
# 3 11.5444 1.0898 93.0502 0.0000 0.0000 0.0000
# 4 0.0000 0.0000 0.0000 30.0184 0.0000 0.0000
# 5 0.0000 0.0000 0.0000 0.0000 16.3122 0.0000
# 6 0.0000 0.0000 0.0000 0.0000 0.0000 69.6400
#
#
#
# Elastic Compliance Matrix: (Units=1/GPa)
#
#
# Indices 1 2 3 4 5 6 
#
# 1 0.009291 -0.000914 -0.001142 0.000000 0.000000 0.000000
# 2 -0.000914 0.018407 -0.000102 0.000000 0.000000 0.000000
# 3 -0.001142 -0.000102 0.010890 0.000000 0.000000 0.000000
# 4 0.000000 0.000000 0.000000 0.033313 0.000000 0.000000
# 5 0.000000 0.000000 0.000000 0.000000 0.061304 0.000000
# 6 0.000000 0.000000 0.000000 0.000000 0.000000 0.014360
#
#
# Mechanical properties :
#
#
# Convention : Reuss Voigt Hill
#
# Bulk Modulus (GPa) = 29.17888 32.61450 30.89669
# Shear Modulus (GPa) = 30.61749 39.13447 34.87598
#
# Velocity S-wave (km/s) = 3.76057 4.25157 4.01359
# Velocity P-wave (km/s) = 5.68624 6.25823 5.97908
#
# Compressibility (1/GPa) = 0.03427137
#
# Stress axis : x y z
#
# Youngs Moduli (GPa) = 107.63043 54.32574 91.82938
#
# Poissons Ratio (x) = 0.04967 0.10487
# Poissons Ratio (y) = 0.09841 0.00938
# Poissons Ratio (z) = 0.12291 0.00555
#
# Static dielectric constant tensor:
#      x y z
#    x 4.327820 0.000000 0.000000 
#    y 0.000000 3.910510 0.000000 
#    z 0.000000 0.000000 4.112640 
# 
# 
# High freq. dielectric constant tensor:
#      x y z
#    x 1.844730 0.000000 0.000000 
#    y 0.000000 1.837030 0.000000 
#    z 0.000000 0.000000 1.852140 
# 
# From -- ./inp_files/227.got.cif
#   From: 2010.03.12/outbox.cif.g09.slc.cpg/sg26_1_cif.got.tgz:227.got - 2010.04.14 03:33:09.
