data_PCOD8167433
_publ_section_title
;
Structure prediction by ZEFSAII (Michael W. Deem and Ramdas Pophale) SiO2 
 PCOD8167433
Probable space group: P M C 21
;
_chemical_formula_sum "Si O2"
_cell_formula_units_Z 28
_cell_length_a 11.118000
_cell_length_b 14.879456
_cell_length_c 9.378396
_cell_angle_alpha 90.000000
_cell_angle_beta 90.000000
_cell_angle_gamma 90.000000
_cell_volume 1551.466098
_symmetry_space_group_name_H-M "P M C 21"
_symmetry_group_IT_number 26
_symmetry_cell_setting 'orthorhombic'
loop_
_space_group_symop_operation_xyz
x,y,z
-x,-y,1/2+z
-x,y,z
x,-y,1/2+z
loop_
_atom_site_type_symbol
_atom_site_label
_atom_site_fract_x
_atom_site_fract_y
_atom_site_fract_z
Si Si1 0.135857 0.561105 0.700250
Si Si2 0.239783 0.069943 0.696261
Si Si3 0.137459 0.078267 0.002467
Si Si4 0.500000 0.023931 0.692832
Si Si5 0.500000 0.876758 0.912702
Si Si6 0.251418 0.785653 0.970987
Si Si7 0.138290 0.400834 0.520043
Si Si8 0.860564 0.756017 0.679845
O O1 0.196098 0.473112 0.629768
O O2 0.198510 0.656878 0.656813
O O3 0.000000 0.560378 0.640880
O O4 0.140911 0.549580 0.868870
O O5 0.157681 0.065292 0.835320
O O6 0.199991 0.153823 0.599463
O O7 0.224127 0.981864 0.598937
O O8 0.379062 0.073970 0.747490
O O9 0.000000 0.053080 0.038257
O O10 0.164404 0.182037 0.043000
O O11 0.500000 0.920773 0.753156
O O12 0.500000 0.036197 0.519692
O O13 0.389379 0.810507 0.941526
O O14 0.228648 0.683610 0.020209
O O15 0.184485 0.805670 0.822638
O O16 0.000000 0.371010 0.556642
O O17 0.000000 0.738334 0.708228
#
# Coordination Sequence:
#
# PCOD8167433 Si02
#       8
#     4   4   4   2   2   4   4   4
#     4   8  15  28  47  71  96 124 160 200 241 286
#     4  11  22  35  51  72  98 133 172 210 252 298
#     4  11  22  33  48  73 105 135 161 198 254 316
#     4  10  20  36  54  70  90 126 178 220 242 274
#     4  10  20  34  54  74  96 128 170 218 256 292
#     4  10  20  33  51  74  99 129 166 208 254 298
#     4   9  17  30  50  74  99 128 162 202 247 298
#     4   9  18  33  51  73 102 132 164 203 247 302
#
# _framework density 18.047445
#
# number of rings (size 3 to 8) (size 9 to 14) (size 15 to 20)
#    0.000    2.286    0.000    5.143    0.000    4.571 
#    0.000    2.857    0.000    3.429    0.000    0.000 
#    0.000    0.000    0.000    0.000    0.000    0.000 
#
# Total GULP energy -346989.155651 kJ/mol
# GULP energy per Si atom -12392.469845 kJ/mol
# Density = 1.800637 g / cm^3
# Si number density = 18.047445 Si / 1000 Ang^3
#
#
#
# Elastic Constant Matrix: (Units=GPa)
#
#
# Indices 1 2 3 4 5 6 
#
# 1 53.2504 43.6556 24.8746 0.0000 0.0000 0.0000
# 2 43.6556 118.7403 59.9479 0.0000 0.0000 0.0000
# 3 24.8746 59.9479 84.2693 0.0000 0.0000 0.0000
# 4 0.0000 0.0000 0.0000 41.9057 0.0000 0.0000
# 5 0.0000 0.0000 0.0000 0.0000 19.6500 0.0000
# 6 0.0000 0.0000 0.0000 0.0000 0.0000 21.0454
#
#
#
# Elastic Compliance Matrix: (Units=1/GPa)
#
#
# Indices 1 2 3 4 5 6 
#
# 1 0.026990 -0.009208 -0.001417 0.000000 0.000000 0.000000
# 2 -0.009208 0.016283 -0.008865 0.000000 0.000000 0.000000
# 3 -0.001417 -0.008865 0.018592 0.000000 0.000000 0.000000
# 4 0.000000 0.000000 0.000000 0.023863 0.000000 0.000000
# 5 0.000000 0.000000 0.000000 0.000000 0.050890 0.000000
# 6 0.000000 0.000000 0.000000 0.000000 0.000000 0.047516
#
#
# Mechanical properties :
#
#
# Convention : Reuss Voigt Hill
#
# Bulk Modulus (GPa) = 43.69750 57.02403 50.36076
# Shear Modulus (GPa) = 21.66926 25.03902 23.35414
#
# Velocity S-wave (km/s) = 3.46885 3.72882 3.60118
# Velocity P-wave (km/s) = 6.34894 7.08549 6.72730
#
# Compressibility (1/GPa) = 0.02288461
#
# Stress axis : x y z
#
# Youngs Moduli (GPa) = 37.05131 61.41422 53.78778
#
# Poissons Ratio (x) = 0.56549 0.07619
# Poissons Ratio (y) = 0.34116 0.47685
# Poissons Ratio (z) = 0.05249 0.54446
#
# Static dielectric constant tensor:
#      x y z
#    x 3.162500 0.000000 0.000000 
#    y 0.000000 3.450670 0.000000 
#    z 0.000000 0.000000 3.361440 
# 
# 
# High freq. dielectric constant tensor:
#      x y z
#    x 1.669290 0.000000 0.000000 
#    y 0.000000 1.696680 0.000000 
#    z 0.000000 0.000000 1.700800 
# 
# From -- ./inp_files/1925.got.cif
#   From: 2010.03.12/outbox.cif.g09.slc.cpg/sg26_1_cif.got.tgz:1925.got - 2010.04.14 03:33:09.
