data_PCOD8167399
_publ_section_title
;
Structure prediction by ZEFSAII (Michael W. Deem and Ramdas Pophale) SiO2 
 PCOD8167399
Probable space group: P M C 21
;
_chemical_formula_sum "Si O2"
_cell_formula_units_Z 32
_cell_length_a 9.051794
_cell_length_b 16.300865
_cell_length_c 10.731991
_cell_angle_alpha 90.000000
_cell_angle_beta 90.000000
_cell_angle_gamma 90.000000
_cell_volume 1583.527509
_symmetry_space_group_name_H-M "P M C 21"
_symmetry_group_IT_number 26
_symmetry_cell_setting 'orthorhombic'
loop_
_space_group_symop_operation_xyz
x,y,z
-x,-y,1/2+z
-x,y,z
x,-y,1/2+z
loop_
_atom_site_type_symbol
_atom_site_label
_atom_site_fract_x
_atom_site_fract_y
_atom_site_fract_z
Si Si1 0.827718 0.158731 0.799870
Si Si2 0.173826 0.739197 0.526354
Si Si3 0.334156 0.849533 0.961442
Si Si4 0.826067 0.979263 0.127846
Si Si5 0.329242 0.443999 0.666408
Si Si6 0.670494 0.425189 0.952106
Si Si7 0.824635 0.719453 0.091428
Si Si8 0.335769 0.142471 0.174024
O O1 0.789238 0.064915 0.761737
O O2 0.760859 0.223289 0.701860
O O3 0.000000 0.173881 0.791003
O O4 0.776061 0.184965 0.936533
O O5 0.229586 0.654573 0.469122
O O6 0.254382 0.769423 0.651726
O O7 0.000000 0.731534 0.547631
O O8 0.500000 0.848458 0.018846
O O9 0.343175 0.872911 0.818885
O O10 0.232617 0.919011 0.021983
O O11 0.256777 0.759506 0.971957
O O12 0.000000 0.991188 0.108795
O O13 0.751755 0.066897 0.113636
O O14 0.500000 0.418791 0.651806
O O15 0.291405 0.517373 0.570467
O O16 0.295664 0.464669 0.813825
O O17 0.224978 0.372225 0.618570
O O18 0.500000 0.399226 0.957892
O O19 0.000000 0.720890 0.072231
O O20 0.500000 0.145585 0.116464
#
# Coordination Sequence:
#
# PCOD8167399 Si02
#       8
#     4   4   4   4   4   4   4   4
#     4   8  17  34  57  85 114 145 186 240 292 343
#     4  11  22  39  62  89 120 158 202 249 304 364
#     4  10  22  40  59  84 120 157 198 246 300 364
#     4  10  21  38  61  88 118 154 199 250 301 354
#     4  10  21  38  61  89 123 164 207 253 311 375
#     4  10  22  40  61  89 124 164 209 257 313 377
#     4  10  19  36  62  89 116 148 195 247 299 357
#     4  11  25  41  57  85 123 160 200 248 302 364
#
# _framework density 20.208048000000002
#
# number of rings (size 3 to 8) (size 9 to 14) (size 15 to 20)
#    0.000    2.000    1.250    2.625    1.750    3.500 
#    0.000    3.750    0.000    0.000    0.000    0.000 
#    0.000    0.000    0.000    0.000    0.000    0.000 
#
# Total GULP energy -396542.546920 kJ/mol
# GULP energy per Si atom -12391.954591 kJ/mol
# Density = 2.016205 g / cm^3
# Si number density = 20.208048 Si / 1000 Ang^3
#
#
#
# Elastic Constant Matrix: (Units=GPa)
#
#
# Indices 1 2 3 4 5 6 
#
# 1 119.3756 55.9192 42.3374 0.0000 0.0000 0.0000
# 2 55.9192 97.8408 46.3879 0.0000 0.0000 0.0000
# 3 42.3374 46.3879 82.2456 0.0000 0.0000 0.0000
# 4 0.0000 0.0000 0.0000 30.7816 0.0000 0.0000
# 5 0.0000 0.0000 0.0000 0.0000 21.9794 0.0000
# 6 0.0000 0.0000 0.0000 0.0000 0.0000 38.2611
#
#
#
# Elastic Compliance Matrix: (Units=1/GPa)
#
#
# Indices 1 2 3 4 5 6 
#
# 1 0.012011 -0.005369 -0.003155 0.000000 0.000000 0.000000
# 2 -0.005369 0.016351 -0.006459 0.000000 0.000000 0.000000
# 3 -0.003155 -0.006459 0.017425 0.000000 0.000000 0.000000
# 4 0.000000 0.000000 0.000000 0.032487 0.000000 0.000000
# 5 0.000000 0.000000 0.000000 0.000000 0.045497 0.000000
# 6 0.000000 0.000000 0.000000 0.000000 0.000000 0.026136
#
#
# Mechanical properties :
#
#
# Convention : Reuss Voigt Hill
#
# Bulk Modulus (GPa) = 63.19869 65.41678 64.30773
# Shear Modulus (GPa) = 27.00568 28.52560 27.76564
#
# Velocity S-wave (km/s) = 3.65962 3.76120 3.71076
# Velocity P-wave (km/s) = 7.01420 7.16269 7.08883
#
# Compressibility (1/GPa) = 0.01582311
#
# Stress axis : x y z
#
# Youngs Moduli (GPa) = 83.25946 61.15713 57.38745
#
# Poissons Ratio (x) = 0.32834 0.18103
# Poissons Ratio (y) = 0.44701 0.37065
# Poissons Ratio (z) = 0.26265 0.39500
#
# Static dielectric constant tensor:
#      x y z
#    x 3.723130 0.000000 0.000000 
#    y 0.000000 3.571750 0.000000 
#    z 0.000000 0.000000 3.975430 
# 
# 
# High freq. dielectric constant tensor:
#      x y z
#    x 1.790050 0.000000 0.000000 
#    y 0.000000 1.782340 0.000000 
#    z 0.000000 0.000000 1.789490 
# 
# From -- ./inp_files/3032.got.cif
#   From: 2010.03.12/outbox.cif.g09.slc.cpg/sg26_2_cif.got.tgz:3032.got - 2010.04.14 03:33:09.
