data_PCOD8167099
_publ_section_title
;
Structure prediction by ZEFSAII (Michael W. Deem and Ramdas Pophale) SiO2 
 PCOD8167099
Probable space group: P M C 21
;
_chemical_formula_sum "Si O2"
_cell_formula_units_Z 32
_cell_length_a 9.041818
_cell_length_b 11.800605
_cell_length_c 14.565436
_cell_angle_alpha 90.000000
_cell_angle_beta 90.000000
_cell_angle_gamma 90.000000
_cell_volume 1554.116330
_symmetry_space_group_name_H-M "P M C 21"
_symmetry_group_IT_number 26
_symmetry_cell_setting 'orthorhombic'
loop_
_space_group_symop_operation_xyz
x,y,z
-x,-y,1/2+z
-x,y,z
x,-y,1/2+z
loop_
_atom_site_type_symbol
_atom_site_label
_atom_site_fract_x
_atom_site_fract_y
_atom_site_fract_z
Si Si1 0.672268 0.376288 0.654290
Si Si2 0.830123 0.320854 0.966015
Si Si3 0.830409 0.915666 0.556454
Si Si4 0.323234 0.594944 0.763364
Si Si5 0.327253 0.022256 0.390559
Si Si6 0.326320 0.544469 0.966793
Si Si7 0.174671 0.172235 0.248133
Si Si8 0.670572 0.214450 0.805411
O O1 0.500000 0.400033 0.657881
O O2 0.738735 0.485269 0.708514
O O3 0.722002 0.367772 0.547658
O O4 0.707907 0.254589 0.701439
O O5 0.738400 0.426207 0.003463
O O6 0.774842 0.294574 0.864212
O O7 0.000000 0.355125 0.962490
O O8 0.799416 0.213689 0.029680
O O9 0.730117 0.999033 0.494324
O O10 0.791983 0.917896 0.665167
O O11 0.000000 0.949363 0.537418
O O12 0.500000 0.608639 0.758571
O O13 0.265237 0.583771 0.868680
O O14 0.247401 0.707447 0.722779
O O15 0.500000 0.050888 0.397011
O O16 0.293346 0.916378 0.323393
O O17 0.243647 0.126937 0.343556
O O18 0.500000 0.529171 0.959164
O O19 0.000000 0.188040 0.259786
O O20 0.500000 0.239793 0.830878
#
# Coordination Sequence:
#
# PCOD8167099 Si02
#       8
#     4   4   4   4   4   4   4   4
#     4   9  17  32  55  81 109 143 180 225 280 337
#     4  10  18  30  52  80 110 142 184 231 271 325
#     4   9  20  38  59  84 112 151 194 235 289 342
#     4  10  20  35  55  82 115 147 189 234 278 339
#     4  10  21  37  61  88 112 143 191 246 288 337
#     4  10  19  32  52  78 111 149 183 224 281 337
#     4  11  23  40  60  81 117 157 191 234 287 349
#     4   9  17  34  56  78 106 138 178 225 278 330
#
# _framework density 20.590479999999999
#
# number of rings (size 3 to 8) (size 9 to 14) (size 15 to 20)
#    0.000    2.250    1.250    1.875    0.000    2.500 
#    2.250    0.625    0.000    0.000    0.000    0.000 
#    0.000    0.000    0.000    0.000    0.000    0.000 
#
# Total GULP energy -396611.141755 kJ/mol
# GULP energy per Si atom -12394.098180 kJ/mol
# Density = 2.054361 g / cm^3
# Si number density = 20.590480 Si / 1000 Ang^3
#
#
#
# Elastic Constant Matrix: (Units=GPa)
#
#
# Indices 1 2 3 4 5 6 
#
# 1 42.9143 9.5360 23.7784 0.0000 0.0000 0.0000
# 2 9.5360 34.8055 -2.6088 0.0000 0.0000 0.0000
# 3 23.7784 -2.6088 69.5071 0.0000 0.0000 0.0000
# 4 0.0000 0.0000 0.0000 26.7498 0.0000 0.0000
# 5 0.0000 0.0000 0.0000 0.0000 21.9194 0.0000
# 6 0.0000 0.0000 0.0000 0.0000 0.0000 24.3557
#
#
#
# Elastic Compliance Matrix: (Units=1/GPa)
#
#
# Indices 1 2 3 4 5 6 
#
# 1 0.031599 -0.009495 -0.011167 0.000000 0.000000 0.000000
# 2 -0.009495 0.031665 0.004437 0.000000 0.000000 0.000000
# 3 -0.011167 0.004437 0.018374 0.000000 0.000000 0.000000
# 4 0.000000 0.000000 0.000000 0.037383 0.000000 0.000000
# 5 0.000000 0.000000 0.000000 0.000000 0.045622 0.000000
# 6 0.000000 0.000000 0.000000 0.000000 0.000000 0.041058
#
#
# Mechanical properties :
#
#
# Convention : Reuss Voigt Hill
#
# Bulk Modulus (GPa) = 20.32981 23.18203 21.75592
# Shear Modulus (GPa) = 19.64280 22.37307 21.00794
#
# Velocity S-wave (km/s) = 3.09200 3.29990 3.19764
# Velocity P-wave (km/s) = 4.75837 5.07958 4.92160
#
# Compressibility (1/GPa) = 0.04918886
#
# Stress axis : x y z
#
# Youngs Moduli (GPa) = 31.64625 31.58072 54.42590
#
# Poissons Ratio (x) = 0.29984 0.60775
# Poissons Ratio (y) = 0.30047 -0.24146
# Poissons Ratio (z) = 0.35338 -0.14011
#
# Static dielectric constant tensor:
#      x y z
#    x 3.511580 0.000000 0.000000 
#    y 0.000000 3.542640 0.000000 
#    z 0.000000 0.000000 4.183500 
# 
# 
# High freq. dielectric constant tensor:
#      x y z
#    x 1.783440 0.000000 0.000000 
#    y 0.000000 1.788670 0.000000 
#    z 0.000000 0.000000 1.812230 
# 
# From -- ./inp_files/4285.got.cif
#   From: 2010.03.12/outbox.cif.g09.slc.cpg/sg26_3_cif.got.tgz:4285.got - 2010.04.14 03:33:09.
