data_PCOD8167681
_publ_section_title
;
Structure prediction by ZEFSAII (Michael W. Deem and Ramdas Pophale) SiO2 
 PCOD8167681
Probable space group: P M C 21
;
_chemical_formula_sum "Si O2"
_cell_formula_units_Z 32
_cell_length_a 9.027405
_cell_length_b 11.861860
_cell_length_c 15.242571
_cell_angle_alpha 90.000000
_cell_angle_beta 90.000000
_cell_angle_gamma 90.000000
_cell_volume 1632.202157
_symmetry_space_group_name_H-M "P M C 21"
_symmetry_group_IT_number 26
_symmetry_cell_setting 'orthorhombic'
loop_
_space_group_symop_operation_xyz
x,y,z
-x,-y,1/2+z
-x,y,z
x,-y,1/2+z
loop_
_atom_site_type_symbol
_atom_site_label
_atom_site_fract_x
_atom_site_fract_y
_atom_site_fract_z
Si Si1 0.173847 0.890686 0.989570
Si Si2 0.831234 0.021911 0.818100
Si Si3 0.167085 0.266732 0.877504
Si Si4 0.325443 0.513401 0.322433
Si Si5 0.671370 0.509128 0.622378
Si Si6 0.331674 0.018591 0.142611
Si Si7 0.333926 0.752710 0.547052
Si Si8 0.174978 0.369797 0.472355
O O1 0.000000 0.904337 0.002779
O O2 0.230151 0.966468 0.907985
O O3 0.218677 0.761367 0.972891
O O4 0.247731 0.933356 0.078644
O O5 0.820949 0.157174 0.817019
O O6 0.000000 0.982083 0.803908
O O7 0.731810 0.979890 0.739643
O O8 0.283234 0.359978 0.847836
O O9 0.000000 0.315378 0.876840
O O10 0.209591 0.227155 0.974537
O O11 0.500000 0.496492 0.334220
O O12 0.273557 0.497698 0.222513
O O13 0.245271 0.424882 0.385769
O O14 0.500000 0.473973 0.614045
O O15 0.699602 0.636525 0.595017
O O16 0.765487 0.426236 0.561325
O O17 0.500000 0.977260 0.144823
O O18 0.316609 0.147836 0.115731
O O19 0.500000 0.751914 0.506323
O O20 0.000000 0.387839 0.468717
#
# Coordination Sequence:
#
# PCOD8167681 Si02
#       8
#     4   4   4   4   4   4   4   4
#     4  10  23  44  63  86 124 164 204 251 303 362
#     4  10  23  42  63  88 123 165 203 248 308 364
#     4  11  22  39  65  91 118 158 208 255 301 359
#     4  11  24  41  63  90 126 164 200 249 308 367
#     4  10  23  42  63  88 121 163 202 245 308 365
#     4  11  24  39  63  95 123 157 204 254 304 363
#     4  10  21  40  63  89 121 156 200 255 306 358
#     4  11  24  41  63  91 122 159 207 255 300 358
#
# _framework density 19.605414
#
# number of rings (size 3 to 8) (size 9 to 14) (size 15 to 20)
#    0.000    1.500    2.500    1.500    3.500    4.000 
#    0.000    0.000    0.000    0.000    0.000    0.000 
#    0.000    0.000    0.000    0.000    0.000    0.000 
#
# Total GULP energy -396907.621353 kJ/mol
# GULP energy per Si atom -12403.363167 kJ/mol
# Density = 1.956079 g / cm^3
# Si number density = 19.605414 Si / 1000 Ang^3
#
#
#
# Elastic Constant Matrix: (Units=GPa)
#
#
# Indices 1 2 3 4 5 6 
#
# 1 70.0703 40.6883 45.9220 0.0000 0.0000 0.0000
# 2 40.6883 102.8080 27.8168 0.0000 0.0000 0.0000
# 3 45.9220 27.8168 114.6669 0.0000 0.0000 0.0000
# 4 0.0000 0.0000 0.0000 25.7853 0.0000 0.0000
# 5 0.0000 0.0000 0.0000 0.0000 42.7506 0.0000
# 6 0.0000 0.0000 0.0000 0.0000 0.0000 19.1790
#
#
#
# Elastic Compliance Matrix: (Units=1/GPa)
#
#
# Indices 1 2 3 4 5 6 
#
# 1 0.023480 -0.007222 -0.007651 0.000000 0.000000 0.000000
# 2 -0.007222 0.012632 -0.000172 0.000000 0.000000 0.000000
# 3 -0.007651 -0.000172 0.011827 0.000000 0.000000 0.000000
# 4 0.000000 0.000000 0.000000 0.038782 0.000000 0.000000
# 5 0.000000 0.000000 0.000000 0.000000 0.023392 0.000000
# 6 0.000000 0.000000 0.000000 0.000000 0.000000 0.052140
#
#
# Mechanical properties :
#
#
# Convention : Reuss Voigt Hill
#
# Bulk Modulus (GPa) = 56.03055 57.37771 56.70413
# Shear Modulus (GPa) = 25.21542 29.08418 27.14980
#
# Velocity S-wave (km/s) = 3.59018 3.85577 3.72534
# Velocity P-wave (km/s) = 6.76956 7.01088 6.89128
#
# Compressibility (1/GPa) = 0.01784741
#
# Stress axis : x y z
#
# Youngs Moduli (GPa) = 42.59028 79.16550 84.55431
#
# Poissons Ratio (x) = 0.57176 0.64693
# Poissons Ratio (y) = 0.30760 0.01453
# Poissons Ratio (z) = 0.32586 0.01361
#
# Static dielectric constant tensor:
#      x y z
#    x 3.547980 0.000000 0.000000 
#    y 0.000000 3.678460 0.000000 
#    z 0.000000 0.000000 3.671010 
# 
# 
# High freq. dielectric constant tensor:
#      x y z
#    x 1.766780 0.000000 0.000000 
#    y 0.000000 1.776050 0.000000 
#    z 0.000000 0.000000 1.769720 
# 
# From -- ./inp_files/4083.got.cif
#   From: 2010.03.12/outbox.cif.g09.slc.cpg/sg26_3_cif.got.tgz:4083.got - 2010.04.14 03:33:09.
