data_PCOD8167760
_publ_section_title
;
Structure prediction by ZEFSAII (Michael W. Deem and Ramdas Pophale) SiO2 
 PCOD8167760
Probable space group: P M C 21
;
_chemical_formula_sum "Si O2"
_cell_formula_units_Z 32
_cell_length_a 8.487931
_cell_length_b 12.689316
_cell_length_c 14.269435
_cell_angle_alpha 90.000000
_cell_angle_beta 90.000000
_cell_angle_gamma 90.000000
_cell_volume 1536.904318
_symmetry_space_group_name_H-M "P M C 21"
_symmetry_group_IT_number 26
_symmetry_cell_setting 'orthorhombic'
loop_
_space_group_symop_operation_xyz
x,y,z
-x,-y,1/2+z
-x,y,z
x,-y,1/2+z
loop_
_atom_site_type_symbol
_atom_site_label
_atom_site_fract_x
_atom_site_fract_y
_atom_site_fract_z
Si Si1 0.314852 0.289142 0.617510
Si Si2 0.817329 0.019853 0.306005
Si Si3 0.815606 0.215649 0.803064
Si Si4 0.681190 0.352992 0.345646
Si Si5 0.816808 0.481180 0.498825
Si Si6 0.683130 0.295766 0.992701
Si Si7 0.183160 0.173044 0.463359
Si Si8 0.685213 0.793258 0.687596
O O1 0.500000 0.293805 0.601542
O O2 0.275865 0.286579 0.727505
O O3 0.235423 0.391733 0.571856
O O4 0.237779 0.181417 0.572043
O O5 0.787074 0.061154 0.412806
O O6 0.749294 0.096763 0.226833
O O7 0.000000 0.013728 0.284980
O O8 0.744737 0.903189 0.299434
O O9 0.788459 0.263878 0.905002
O O10 0.000000 0.217576 0.781018
O O11 0.500000 0.389364 0.339546
O O12 0.781863 0.448612 0.390048
O O13 0.698649 0.255315 0.415834
O O14 0.747675 0.309603 0.246004
O O15 0.717764 0.584841 0.522855
O O16 0.000000 0.505036 0.510392
O O17 0.500000 0.282300 0.968454
O O18 0.732487 0.220309 0.079424
O O19 0.000000 0.206818 0.452653
O O20 0.500000 0.795048 0.702120
#
# Coordination Sequence:
#
# PCOD8167760 Si02
#       8
#     4   4   4   4   4   4   4   4
#     4  11  22  38  60  87 116 153 196 242 291 346
#     4   9  20  37  60  86 117 153 191 237 291 342
#     4  11  24  42  59  83 117 155 196 240 289 346
#     4   9  16  31  55  84 114 146 185 235 285 337
#     4  11  22  38  60  87 117 153 193 240 290 345
#     4  11  24  42  59  83 118 155 193 240 291 345
#     4   9  16  31  55  85 115 146 186 235 283 336
#     4   9  20  37  60  87 116 149 192 237 284 343
#
# _framework density 20.821075
#
# number of rings (size 3 to 8) (size 9 to 14) (size 15 to 20)
#    0.000    2.000    0.000    5.250    0.000    5.000 
#    0.000    7.500    0.000    0.000    0.000    0.000 
#    0.000    0.000    0.000    0.000    0.000    0.000 
#
# Total GULP energy -396650.765695 kJ/mol
# GULP energy per Si atom -12395.336428 kJ/mol
# Density = 2.077369 g / cm^3
# Si number density = 20.821075 Si / 1000 Ang^3
#
#
#
# Elastic Constant Matrix: (Units=GPa)
#
#
# Indices 1 2 3 4 5 6 
#
# 1 53.7361 11.8540 19.8474 0.0000 0.0000 0.0000
# 2 11.8540 89.3639 36.8476 0.0000 0.0000 0.0000
# 3 19.8474 36.8476 111.4322 0.0000 0.0000 0.0000
# 4 0.0000 0.0000 0.0000 26.2981 0.0000 0.0000
# 5 0.0000 0.0000 0.0000 0.0000 31.9288 0.0000
# 6 0.0000 0.0000 0.0000 0.0000 0.0000 23.5452
#
#
#
# Elastic Compliance Matrix: (Units=1/GPa)
#
#
# Indices 1 2 3 4 5 6 
#
# 1 0.020065 -0.001376 -0.003119 0.000000 0.000000 0.000000
# 2 -0.001376 0.013051 -0.004071 0.000000 0.000000 0.000000
# 3 -0.003119 -0.004071 0.010876 0.000000 0.000000 0.000000
# 4 0.000000 0.000000 0.000000 0.038026 0.000000 0.000000
# 5 0.000000 0.000000 0.000000 0.000000 0.031320 0.000000
# 6 0.000000 0.000000 0.000000 0.000000 0.000000 0.042471
#
#
# Mechanical properties :
#
#
# Convention : Reuss Voigt Hill
#
# Bulk Modulus (GPa) = 37.22819 43.51449 40.37134
# Shear Modulus (GPa) = 27.48877 28.75330 28.12104
#
# Velocity S-wave (km/s) = 3.63745 3.72017 3.67904
# Velocity P-wave (km/s) = 5.96324 6.27675 6.12200
#
# Compressibility (1/GPa) = 0.02686136
#
# Stress axis : x y z
#
# Youngs Moduli (GPa) = 49.83835 76.62177 91.94859
#
# Poissons Ratio (x) = 0.10540 0.28678
# Poissons Ratio (y) = 0.06855 0.37429
# Poissons Ratio (z) = 0.15544 0.31190
#
# Static dielectric constant tensor:
#      x y z
#    x 3.620570 0.000000 0.000000 
#    y 0.000000 3.876480 0.000000 
#    z 0.000000 0.000000 4.058070 
# 
# 
# High freq. dielectric constant tensor:
#      x y z
#    x 1.814770 0.000000 0.000000 
#    y 0.000000 1.799960 0.000000 
#    z 0.000000 0.000000 1.816510 
# 
# From -- ./inp_files/4262.got.cif
#   From: 2010.03.12/outbox.cif.g09.slc.cpg/sg26_3_cif.got.tgz:4262.got - 2010.04.14 03:33:09.
