data_PCOD8167034
_publ_section_title
;
Structure prediction by ZEFSAII (Michael W. Deem and Ramdas Pophale) SiO2 
 PCOD8167034
Probable space group: P M M 2
;
_chemical_formula_sum "Si O2"
_cell_formula_units_Z 28
_cell_length_a 9.571127
_cell_length_b 9.587730
_cell_length_c 17.914984
_cell_angle_alpha 90.000000
_cell_angle_beta 90.000000
_cell_angle_gamma 90.000000
_cell_volume 1643.975341
_symmetry_space_group_name_H-M "P M M 2"
_symmetry_group_IT_number 25
_symmetry_cell_setting 'orthorhombic'
loop_
_space_group_symop_operation_xyz
x,y,z
-x,-y,z
-x,y,z
x,-y,z
loop_
_atom_site_type_symbol
_atom_site_label
_atom_site_fract_x
_atom_site_fract_y
_atom_site_fract_z
Si Si1 0.161572 0.661825 0.724220
Si Si2 0.833922 0.845569 0.588567
Si Si3 0.662607 0.661355 0.867182
Si Si4 0.661281 0.662327 0.307763
Si Si5 0.666245 0.157364 0.007250
Si Si6 0.839493 0.836343 0.422743
Si Si7 0.333803 0.344996 0.140383
O O1 0.182500 0.500000 0.707555
O O2 0.221943 0.741246 0.651860
O O3 0.250263 0.709529 0.795422
O O4 0.000000 0.698856 0.739496
O O5 0.785211 0.797551 0.506100
O O6 0.000000 0.849089 0.588338
O O7 0.775576 0.000000 0.606342
O O8 0.500000 0.686277 0.850060
O O9 0.691443 0.500000 0.887460
O O10 0.716042 0.756178 0.935248
O O11 0.500000 0.702690 0.317618
O O12 0.685207 0.500000 0.324667
O O13 0.749456 0.752870 0.364105
O O14 0.712292 0.698261 0.223748
O O15 0.500000 0.154863 0.010352
O O16 0.726112 0.000000 0.003721
O O17 0.726517 0.233750 0.081071
O O18 0.000000 0.791801 0.412851
O O19 0.820909 0.000000 0.408506
O O20 0.500000 0.349341 0.136399
O O21 0.276682 0.500000 0.120959
#
# Coordination Sequence:
#
# PCOD8167034 Si02
#       7
#     4   4   4   4   4   4   4
#     4   9  17  29  46  67  87 109 143 183 217 254
#     4   8  15  29  47  65  86 114 148 183 218 260
#     4   9  17  29  44  62  87 117 143 171 215 264
#     4   9  18  31  47  70  97 122 152 191 232 274
#     4   9  16  25  40  64  89 112 144 183 216 251
#     4   9  18  32  49  69  93 122 156 191 228 274
#     4   8  14  26  43  62  87 118 148 179 218 263
#
# _framework density 17.031886
#
# number of rings (size 3 to 8) (size 9 to 14) (size 15 to 20)
#    0.000    3.286    0.000    2.143    0.000    4.000 
#    0.000    3.571    0.000    3.429    0.000    2.000 
#    0.000    0.000    0.000    0.000    0.000    0.000 
#
# Total GULP energy -347085.183351 kJ/mol
# GULP energy per Si atom -12395.899405 kJ/mol
# Density = 1.699312 g / cm^3
# Si number density = 17.031886 Si / 1000 Ang^3
#
#
#
# Elastic Constant Matrix: (Units=GPa)
#
#
# Indices 1 2 3 4 5 6 
#
# 1 35.2433 33.5835 46.9235 0.0000 0.0000 0.0000
# 2 33.5835 100.7348 97.2411 0.0000 0.0000 0.0000
# 3 46.9235 97.2411 174.7314 0.0000 0.0000 0.0000
# 4 0.0000 0.0000 0.0000 27.3124 0.0000 0.0000
# 5 0.0000 0.0000 0.0000 0.0000 78.3620 0.0000
# 6 0.0000 0.0000 0.0000 0.0000 0.0000 19.3391
#
#
#
# Elastic Compliance Matrix: (Units=1/GPa)
#
#
# Indices 1 2 3 4 5 6 
#
# 1 0.046630 -0.007472 -0.008364 0.000000 0.000000 0.000000
# 2 -0.007472 0.022648 -0.010597 0.000000 0.000000 0.000000
# 3 -0.008364 -0.010597 0.013867 0.000000 0.000000 0.000000
# 4 0.000000 0.000000 0.000000 0.036613 0.000000 0.000000
# 5 0.000000 0.000000 0.000000 0.000000 0.012761 0.000000
# 6 0.000000 0.000000 0.000000 0.000000 0.000000 0.051709
#
#
# Mechanical properties :
#
#
# Convention : Reuss Voigt Hill
#
# Bulk Modulus (GPa) = 33.02697 74.02285 53.52491
# Shear Modulus (GPa) = 20.22750 33.86678 27.04714
#
# Velocity S-wave (km/s) = 3.44993 4.46402 3.98933
# Velocity P-wave (km/s) = 5.94161 8.37411 7.26046
#
# Compressibility (1/GPa) = 0.03027828
#
# Stress axis : x y z
#
# Youngs Moduli (GPa) = 21.44531 44.15416 72.11398
#
# Poissons Ratio (x) = 0.32991 0.60318
# Poissons Ratio (y) = 0.16023 0.76423
# Poissons Ratio (z) = 0.17937 0.46792
#
# Static dielectric constant tensor:
#      x y z
#    x 2.630330 0.000000 0.000000 
#    y 0.000000 3.383860 0.000000 
#    z 0.000000 0.000000 3.415630 
# 
# 
# High freq. dielectric constant tensor:
#      x y z
#    x 1.605840 0.000000 0.000000 
#    y 0.000000 1.658010 0.000000 
#    z 0.000000 0.000000 1.669720 
# 
# From -- ./inp_files/6247.got.cif
#   From: 2010.03.12/outbox.cif.g09.slc.cpg/sg25_4_cif.got.tgz:6247.got - 2010.04.14 03:30:10.
