data_PCOD8167457
_publ_section_title
;
Structure prediction by ZEFSAII (Michael W. Deem and Ramdas Pophale) SiO2 
 PCOD8167457
Probable space group: P M C 21
;
_chemical_formula_sum "Si O2"
_cell_formula_units_Z 32
_cell_length_a 9.056075
_cell_length_b 20.368399
_cell_length_c 8.861991
_cell_angle_alpha 90.000000
_cell_angle_beta 90.000000
_cell_angle_gamma 90.000000
_cell_volume 1634.662911
_symmetry_space_group_name_H-M "P M C 21"
_symmetry_group_IT_number 26
_symmetry_cell_setting 'orthorhombic'
loop_
_space_group_symop_operation_xyz
x,y,z
-x,-y,1/2+z
-x,y,z
x,-y,1/2+z
loop_
_atom_site_type_symbol
_atom_site_label
_atom_site_fract_x
_atom_site_fract_y
_atom_site_fract_z
Si Si1 0.674431 0.446902 0.229780
Si Si2 0.325883 0.706088 0.233339
Si Si3 0.670586 0.079716 0.393540
Si Si4 0.672622 0.685156 0.887725
Si Si5 0.825707 0.826473 0.391883
Si Si6 0.328844 0.944862 0.238914
Si Si7 0.825977 0.803203 0.734236
Si Si8 0.676275 0.425074 0.895148
O O1 0.500000 0.453383 0.215658
O O2 0.717513 0.388737 0.343723
O O3 0.739205 0.514988 0.294610
O O4 0.740218 0.432546 0.064049
O O5 0.500000 0.715391 0.253380
O O6 0.246478 0.770970 0.289364
O O7 0.267062 0.643554 0.326966
O O8 0.282221 0.696019 0.060019
O O9 0.500000 0.099770 0.379007
O O10 0.711414 0.061495 0.564099
O O11 0.767083 0.141478 0.346488
O O12 0.709504 0.018814 0.286486
O O13 0.500000 0.697665 0.861256
O O14 0.760759 0.733287 0.778978
O O15 0.770796 0.896985 0.337622
O O16 0.775137 0.818061 0.564250
O O17 0.000000 0.822087 0.373895
O O18 0.500000 0.928687 0.271094
O O19 0.000000 0.800541 0.749678
O O20 0.500000 0.426348 0.894234
#
# Coordination Sequence:
#
# PCOD8167457 Si02
#       8
#     4   4   4   4   4   4   4   4
#     4   9  16  27  46  74 107 140 175 219 269 318
#     4  10  20  34  54  80 108 140 180 224 270 321
#     4  10  21  38  61  87 112 140 176 218 265 317
#     4  10  20  34  54  80 108 140 180 224 270 321
#     4  11  24  39  55  78 109 145 183 222 266 317
#     4  10  21  38  61  87 112 140 176 218 265 317
#     4  11  24  39  55  78 109 145 183 222 266 317
#     4   9  16  27  46  74 107 140 175 219 269 318
#
# _framework density 19.575900000000001
#
# number of rings (size 3 to 8) (size 9 to 14) (size 15 to 20)
#    0.000    2.000    0.000    3.750    0.000   11.500 
#    0.000    0.000    0.000    0.750    0.000    0.000 
#    0.000    0.000    0.000    0.000    0.000    0.000 
#
# Total GULP energy -396934.198144 kJ/mol
# GULP energy per Si atom -12404.193692 kJ/mol
# Density = 1.953134 g / cm^3
# Si number density = 19.575900 Si / 1000 Ang^3
#
#
#
# Elastic Constant Matrix: (Units=GPa)
#
#
# Indices 1 2 3 4 5 6 
#
# 1 29.9872 12.4077 19.6407 0.0000 0.0000 0.0000
# 2 12.4077 62.6130 0.3181 0.0000 0.0000 0.0000
# 3 19.6407 0.3181 87.4684 0.0000 0.0000 0.0000
# 4 0.0000 0.0000 0.0000 45.4704 0.0000 0.0000
# 5 0.0000 0.0000 0.0000 0.0000 23.1088 0.0000
# 6 0.0000 0.0000 0.0000 0.0000 0.0000 -4.1204
#
#
#
# Elastic Compliance Matrix: (Units=1/GPa)
#
#
# Indices 1 2 3 4 5 6 
#
# 1 0.043203 -0.008512 -0.009670 0.000000 0.000000 0.000000
# 2 -0.008512 0.017649 0.001847 0.000000 0.000000 0.000000
# 3 -0.009670 0.001847 0.013597 0.000000 0.000000 0.000000
# 4 0.000000 0.000000 0.000000 0.021992 0.000000 0.000000
# 5 0.000000 0.000000 0.000000 0.000000 0.043274 0.000000
# 6 0.000000 0.000000 0.000000 0.000000 0.000000 -0.242696
#
#
# Mechanical properties :
#
#
# Convention : Reuss Voigt Hill
#
# Bulk Modulus (GPa) = 23.93558 27.20020 25.56789
# Shear Modulus (GPa) = -88.67768 22.73856 -32.96956
#
# Velocity S-wave (km/s) = -6.73779 3.41186 -4.10834
# Velocity P-wave (km/s) = 6.94815 5.42641 3.06845
#
# Compressibility (1/GPa) = 0.04177881
#
# Stress axis : x y z
#
# Youngs Moduli (GPa) = 23.14631 56.66177 73.54351
#
# Poissons Ratio (x) = 0.48232 0.71118
# Poissons Ratio (y) = 0.19703 -0.13585
# Poissons Ratio (z) = 0.22383 -0.10467
#
# Static dielectric constant tensor:
#      x y z
#    x 3.213070 0.000000 0.000000 
#    y 0.000000 3.700500 0.000000 
#    z 0.000000 0.000000 3.824940 
# 
# 
# High freq. dielectric constant tensor:
#      x y z
#    x 1.721550 0.000000 0.000000 
#    y 0.000000 1.779470 0.000000 
#    z 0.000000 0.000000 1.782120 
# 
# From -- ./inp_files/1598.got.cif
#   From: 2010.03.12/outbox.cif.g09.slc.cpg/sg26_1_cif.got.tgz:1598.got - 2010.04.14 03:33:09.
