data_PCOD8167108
_publ_section_title
;
Structure prediction by ZEFSAII (Michael W. Deem and Ramdas Pophale) SiO2 
 PCOD8167108
Probable space group: P M C 21
;
_chemical_formula_sum "Si O2"
_cell_formula_units_Z 28
_cell_length_a 14.631877
_cell_length_b 12.704875
_cell_length_c 8.981542
_cell_angle_alpha 90.000000
_cell_angle_beta 90.000000
_cell_angle_gamma 90.000000
_cell_volume 1669.634243
_symmetry_space_group_name_H-M "P M C 21"
_symmetry_group_IT_number 26
_symmetry_cell_setting 'orthorhombic'
loop_
_space_group_symop_operation_xyz
x,y,z
-x,-y,1/2+z
-x,y,z
x,-y,1/2+z
loop_
_atom_site_type_symbol
_atom_site_label
_atom_site_fract_x
_atom_site_fract_y
_atom_site_fract_z
Si Si1 0.391357 0.873208 0.050820
Si Si2 0.702717 0.694525 0.219689
Si Si3 0.607183 0.726710 0.529938
Si Si4 0.162035 0.479104 0.416015
Si Si5 0.713462 0.451146 0.162426
Si Si6 0.098998 0.357095 0.688827
Si Si7 0.608156 0.922277 0.721328
O O1 0.500000 0.857015 0.055325
O O2 0.342935 0.764515 0.092308
O O3 0.358256 0.964532 0.163202
O O4 0.356000 0.905737 0.887885
O O5 0.659627 0.725425 0.375488
O O6 0.682603 0.572791 0.180533
O O7 0.812889 0.715959 0.221322
O O8 0.500000 0.731379 0.497084
O O9 0.627386 0.624174 0.631930
O O10 0.644188 0.829328 0.615349
O O11 0.219294 0.559059 0.520637
O O12 0.234031 0.414459 0.312347
O O13 0.104523 0.400320 0.519135
O O14 0.097991 0.546479 0.306376
O O15 0.000000 0.299008 0.703981
O O16 0.500000 0.919040 0.718721
#
# Coordination Sequence:
#
# PCOD8167108 Si02
#       7
#     4   4   4   4   4   4   4
#     4  10  19  35  53  75 102 131 172 214 260 300
#     4  10  21  33  50  73 106 140 167 212 254 307
#     4  11  21  33  49  73 106 142 177 209 247 298
#     4   8  17  31  49  66  98 132 169 211 248 296
#     4  10  18  34  46  71 105 141 168 207 244 308
#     4  10  18  31  51  76  98 132 173 215 265 301
#     4   9  20  33  53  76  97 130 175 224 251 294
#
# _framework density 16.770140999999999
#
# number of rings (size 3 to 8) (size 9 to 14) (size 15 to 20)
#    0.000    2.571    2.857    1.714    4.000    3.429 
#    0.000    0.000    0.000    0.000    0.000    4.000 
#    0.000    0.000    0.000    0.000    0.000    0.000 
#
# Total GULP energy -346989.829155 kJ/mol
# GULP energy per Si atom -12392.493898 kJ/mol
# Density = 1.673197 g / cm^3
# Si number density = 16.770141 Si / 1000 Ang^3
#
#
#
# Elastic Constant Matrix: (Units=GPa)
#
#
# Indices 1 2 3 4 5 6 
#
# 1 88.3565 29.8347 37.4347 0.0000 0.0000 0.0000
# 2 29.8347 72.6998 28.2135 0.0000 0.0000 0.0000
# 3 37.4347 28.2135 116.8375 0.0000 0.0000 0.0000
# 4 0.0000 0.0000 0.0000 24.7526 0.0000 0.0000
# 5 0.0000 0.0000 0.0000 0.0000 14.0686 0.0000
# 6 0.0000 0.0000 0.0000 0.0000 0.0000 9.4855
#
#
#
# Elastic Compliance Matrix: (Units=1/GPa)
#
#
# Indices 1 2 3 4 5 6 
#
# 1 0.014327 -0.004522 -0.003498 0.000000 0.000000 0.000000
# 2 -0.004522 0.016605 -0.002561 0.000000 0.000000 0.000000
# 3 -0.003498 -0.002561 0.010298 0.000000 0.000000 0.000000
# 4 0.000000 0.000000 0.000000 0.040400 0.000000 0.000000
# 5 0.000000 0.000000 0.000000 0.000000 0.071080 0.000000
# 6 0.000000 0.000000 0.000000 0.000000 0.000000 0.105424
#
#
# Mechanical properties :
#
#
# Convention : Reuss Voigt Hill
#
# Bulk Modulus (GPa) = 49.83170 52.09554 50.96362
# Shear Modulus (GPa) = 17.48343 21.82208 19.65275
#
# Velocity S-wave (km/s) = 3.23233 3.61119 3.42700
# Velocity P-wave (km/s) = 6.61133 6.96559 6.79077
#
# Compressibility (1/GPa) = 0.02006755
#
# Stress axis : x y z
#
# Youngs Moduli (GPa) = 69.79912 60.22398 97.10463
#
# Poissons Ratio (x) = 0.27232 0.33971
# Poissons Ratio (y) = 0.31562 0.24867
# Poissons Ratio (z) = 0.24419 0.15422
#
# Static dielectric constant tensor:
#      x y z
#    x 3.000330 0.000000 0.000000 
#    y 0.000000 3.020130 0.000000 
#    z 0.000000 0.000000 3.471310 
# 
# 
# High freq. dielectric constant tensor:
#      x y z
#    x 1.617510 0.000000 0.000000 
#    y 0.000000 1.615940 0.000000 
#    z 0.000000 0.000000 1.673000 
# 
# From -- ./inp_files/2265.got.cif
#   From: 2010.03.12/outbox.cif.g09.slc.cpg/sg26_2_cif.got.tgz:2265.got - 2010.04.14 03:33:09.
