data_PCOD8167031
_publ_section_title
;
Structure prediction by ZEFSAII (Michael W. Deem and Ramdas Pophale) SiO2 
 PCOD8167031
Probable space group: P M M 2
;
_chemical_formula_sum "Si O2"
_cell_formula_units_Z 32
_cell_length_a 19.590221
_cell_length_b 14.635181
_cell_length_c 7.604655
_cell_angle_alpha 90.000000
_cell_angle_beta 90.000000
_cell_angle_gamma 90.000000
_cell_volume 2180.303488
_symmetry_space_group_name_H-M "P M M 2"
_symmetry_group_IT_number 25
_symmetry_cell_setting 'orthorhombic'
loop_
_space_group_symop_operation_xyz
x,y,z
-x,-y,z
-x,y,z
x,-y,z
loop_
_atom_site_type_symbol
_atom_site_label
_atom_site_fract_x
_atom_site_fract_y
_atom_site_fract_z
Si Si1 0.672662 0.891449 0.038080
Si Si2 0.327338 0.891449 0.427366
Si Si3 0.920329 0.261446 0.435717
Si Si4 0.176317 0.100721 0.024610
Si Si5 0.576885 0.109182 0.732723
Si Si6 0.079671 0.738554 0.029724
Si Si7 0.823683 0.899279 0.440833
Si Si8 0.919382 0.398786 0.732721
O O1 0.658628 0.850335 0.232723
O O2 0.748227 0.864628 0.968021
O O3 0.668750 0.000000 0.047922
O O4 0.615710 0.852852 0.905114
O O5 0.384288 0.852851 0.560334
O O6 0.251773 0.864630 0.497424
O O7 0.331252 0.000000 0.417525
O O8 0.903104 0.284890 0.232720
O O9 0.880276 0.172323 0.505309
O O10 0.896355 0.346152 0.555829
O O11 0.000000 0.240105 0.460689
O O12 0.119724 0.172322 0.960133
O O13 0.174874 0.092564 0.232721
O O14 0.160697 0.000000 0.943677
O O15 0.500000 0.147632 0.732722
O O16 0.577123 0.000000 0.732721
O O17 0.000000 0.759895 0.004751
O O18 0.103646 0.653849 0.909611
O O19 0.839305 0.000000 0.521765
O O20 0.886028 0.500000 0.732721
O O21 0.000000 0.408011 0.732722
#
# Coordination Sequence:
#
# PCOD8167031 Si02
#       8
#     4   4   4   4   4   4   4   4
#     4   8  14  24  35  47  67  95 123 150 182 220
#     4   8  14  24  35  47  67  95 123 150 182 220
#     4   9  17  28  42  60  79  99 127 162 196 229
#     4   8  14  25  40  57  78 104 131 157 188 229
#     4   9  16  23  32  48  65  84 120 164 195 216
#     4   9  17  28  42  60  79  99 127 162 196 229
#     4   8  14  25  40  57  78 104 131 157 188 229
#     4   9  18  31  43  55  73  96 125 163 202 237
#
# _framework density 14.676855
#
# number of rings (size 3 to 8) (size 9 to 14) (size 15 to 20)
#    0.000    3.500    0.000    1.500    0.000    2.500 
#    0.000    9.375    0.000    2.250    0.000    0.000 
#    0.000    0.000    0.000    0.000    0.000   10.000 
#
# Total GULP energy -396538.151225 kJ/mol
# GULP energy per Si atom -12391.817226 kJ/mol
# Density = 1.464345 g / cm^3
# Si number density = 14.676855 Si / 1000 Ang^3
#
#
#
# Elastic Constant Matrix: (Units=GPa)
#
#
# Indices 1 2 3 4 5 6 
#
# 1 84.5283 43.6309 44.0409 0.0000 0.0000 0.0000
# 2 43.6309 76.0146 38.1549 0.0000 0.0000 0.0000
# 3 44.0409 38.1549 83.4422 0.0000 0.0000 0.0000
# 4 0.0000 0.0000 0.0000 12.9561 0.0000 0.0000
# 5 0.0000 0.0000 0.0000 0.0000 17.6631 0.0000
# 6 0.0000 0.0000 0.0000 0.0000 0.0000 1.1320
#
#
#
# Elastic Compliance Matrix: (Units=1/GPa)
#
#
# Indices 1 2 3 4 5 6 
#
# 1 0.019283 -0.007735 -0.006641 0.000000 0.000000 0.000000
# 2 -0.007735 0.020177 -0.005144 0.000000 0.000000 0.000000
# 3 -0.006641 -0.005144 0.017841 0.000000 0.000000 0.000000
# 4 0.000000 0.000000 0.000000 0.077184 0.000000 0.000000
# 5 0.000000 0.000000 0.000000 0.000000 0.056615 0.000000
# 6 0.000000 0.000000 0.000000 0.000000 0.000000 0.883379
#
#
# Mechanical properties :
#
#
# Convention : Reuss Voigt Hill
#
# Bulk Modulus (GPa) = 54.75638 55.07094 54.91366
# Shear Modulus (GPa) = 4.46587 14.22747 9.34667
#
# Velocity S-wave (km/s) = 1.74625 3.11687 2.52629
# Velocity P-wave (km/s) = 6.43854 7.11034 6.78276
#
# Compressibility (1/GPa) = 0.01826271
#
# Stress axis : x y z
#
# Youngs Moduli (GPa) = 51.86002 49.56205 56.04979
#
# Poissons Ratio (x) = 0.38335 0.37221
# Poissons Ratio (y) = 0.40112 0.28830
# Poissons Ratio (z) = 0.34438 0.25493
#
# Static dielectric constant tensor:
#      x y z
#    x 2.920920 0.000000 0.000000 
#    y 0.000000 2.747650 0.000000 
#    z 0.000000 0.000000 3.035800 
# 
# 
# High freq. dielectric constant tensor:
#      x y z
#    x 1.545120 0.000000 0.000000 
#    y 0.000000 1.500670 0.000000 
#    z 0.000000 0.000000 1.570450 
# 
# From -- ./inp_files/3527.got.cif
#   From: 2010.03.12/outbox.cif.g09.slc.cpg/sg25_2_cif.got.tgz:3527.got - 2010.04.14 03:30:10.
