data_PCOD8167004
_publ_section_title
;
Structure prediction by ZEFSAII (Michael W. Deem and Ramdas Pophale) SiO2 
 PCOD8167004
Probable space group: P M M 2
;
_chemical_formula_sum "Si O2"
_cell_formula_units_Z 32
_cell_length_a 9.555913
_cell_length_b 9.386532
_cell_length_c 20.843610
_cell_angle_alpha 90.000000
_cell_angle_beta 90.000000
_cell_angle_gamma 90.000000
_cell_volume 1869.606851
_symmetry_space_group_name_H-M "P M M 2"
_symmetry_group_IT_number 25
_symmetry_cell_setting 'orthorhombic'
loop_
_space_group_symop_operation_xyz
x,y,z
-x,-y,z
-x,y,z
x,-y,z
loop_
_atom_site_type_symbol
_atom_site_label
_atom_site_fract_x
_atom_site_fract_y
_atom_site_fract_z
Si Si1 0.657814 0.670793 0.811270
Si Si2 0.165276 0.837719 0.189525
Si Si3 0.338375 0.666505 0.574077
Si Si4 0.154898 0.830702 0.332004
Si Si5 0.841602 0.330421 0.694475
Si Si6 0.665542 0.344545 0.948999
Si Si7 0.337974 0.165446 0.448764
Si Si8 0.659348 0.669936 0.087473
O O1 0.500000 0.721653 0.794467
O O2 0.660602 0.500000 0.813862
O O3 0.763856 0.730168 0.757640
O O4 0.706663 0.732776 0.881541
O O5 0.206773 0.784720 0.261167
O O6 0.240006 0.735489 0.139859
O O7 0.000000 0.825608 0.180035
O O8 0.214907 0.000000 0.178422
O O9 0.500000 0.700308 0.590502
O O10 0.316047 0.500000 0.561548
O O11 0.243099 0.722649 0.632311
O O12 0.287533 0.749402 0.511108
O O13 0.257798 0.772199 0.386837
O O14 0.000000 0.769068 0.345472
O O15 0.149775 0.000000 0.333481
O O16 0.841185 0.500000 0.696393
O O17 0.000000 0.271042 0.692292
O O18 0.500000 0.364465 0.948588
O O19 0.737358 0.500000 0.948974
O O20 0.705868 0.268866 0.016615
O O21 0.500000 0.191993 0.435249
O O22 0.304055 0.000000 0.460271
O O23 0.500000 0.714955 0.102750
O O24 0.673840 0.500000 0.087907
#
# Coordination Sequence:
#
# PCOD8167004 Si02
#       8
#     4   4   4   4   4   4   4   4
#     4   8  12  20  36  55  76 107 143 173 206 251
#     4   9  18  32  48  66  89 118 152 186 219 261
#     4   9  17  29  43  59  83 114 140 162 199 252
#     4   8  15  29  47  64  83 109 141 176 212 251
#     4   9  16  24  35  55  83 110 137 173 210 241
#     4   7  11  21  37  57  82 111 141 173 210 253
#     4   9  17  29  46  67  86 104 133 174 212 245
#     4   9  17  29  45  67  94 120 147 183 226 268
#
# _framework density 17.115897
#
# number of rings (size 3 to 8) (size 9 to 14) (size 15 to 20)
#    0.000    3.500    0.000    2.625    0.000    3.000 
#    0.000    2.500    0.000    4.500    0.000    0.875 
#    0.000    3.000    0.000    0.000    0.000    0.000 
#
# Total GULP energy -396462.744764 kJ/mol
# GULP energy per Si atom -12389.460774 kJ/mol
# Density = 1.707694 g / cm^3
# Si number density = 17.115897 Si / 1000 Ang^3
#
#
#
# Elastic Constant Matrix: (Units=GPa)
#
#
# Indices 1 2 3 4 5 6 
#
# 1 77.1034 18.4609 81.4582 0.0000 0.0000 0.0000
# 2 18.4609 18.9355 32.1357 0.0000 0.0000 0.0000
# 3 81.4582 32.1357 191.0665 0.0000 0.0000 0.0000
# 4 0.0000 0.0000 0.0000 -6.3259 0.0000 0.0000
# 5 0.0000 0.0000 0.0000 0.0000 12.6284 0.0000
# 6 0.0000 0.0000 0.0000 0.0000 0.0000 15.3578
#
#
#
# Elastic Compliance Matrix: (Units=1/GPa)
#
#
# Indices 1 2 3 4 5 6 
#
# 1 0.024570 -0.008644 -0.009021 0.000000 0.000000 0.000000
# 2 -0.008644 0.076948 -0.009257 0.000000 0.000000 0.000000
# 3 -0.009021 -0.009257 0.010637 0.000000 0.000000 0.000000
# 4 0.000000 0.000000 0.000000 -0.158079 0.000000 0.000000
# 5 0.000000 0.000000 0.000000 0.000000 0.079186 0.000000
# 6 0.000000 0.000000 0.000000 0.000000 0.000000 0.065114
#
#
# Mechanical properties :
#
#
# Convention : Reuss Voigt Hill
#
# Bulk Modulus (GPa) = 17.14959 61.24612 39.19785
# Shear Modulus (GPa) = 29.12813 14.66877 21.89845
#
# Velocity S-wave (km/s) = 4.12978 2.93068 3.58078
# Velocity P-wave (km/s) = 5.72552 6.87842 6.32828
#
# Compressibility (1/GPa) = 0.05831045
#
# Stress axis : x y z
#
# Youngs Moduli (GPa) = 40.70019 12.99585 94.01437
#
# Poissons Ratio (x) = 0.11234 0.84812
# Poissons Ratio (y) = 0.35182 0.87025
# Poissons Ratio (z) = 0.36716 0.12030
#
# Static dielectric constant tensor:
#      x y z
#    x 3.162190 0.000000 0.000000 
#    y 0.000000 2.653490 0.000000 
#    z 0.000000 0.000000 3.664200 
# 
# 
# High freq. dielectric constant tensor:
#      x y z
#    x 1.645070 0.000000 0.000000 
#    y 0.000000 1.596280 0.000000 
#    z 0.000000 0.000000 1.682820 
# 
# From -- ./inp_files/6292.got.cif
#   From: 2010.03.12/outbox.cif.g09.slc.cpg/sg25_4_cif.got.tgz:6292.got - 2010.04.14 03:30:10.
