data_PCOD8167214
_publ_section_title
;
Structure prediction by ZEFSAII (Michael W. Deem and Ramdas Pophale) SiO2 
 PCOD8167214
Probable space group: P M C 21
;
_chemical_formula_sum "Si O2"
_cell_formula_units_Z 32
_cell_length_a 13.429029
_cell_length_b 9.808477
_cell_length_c 12.769959
_cell_angle_alpha 90.000000
_cell_angle_beta 90.000000
_cell_angle_gamma 90.000000
_cell_volume 1682.037572
_symmetry_space_group_name_H-M "P M C 21"
_symmetry_group_IT_number 26
_symmetry_cell_setting 'orthorhombic'
loop_
_space_group_symop_operation_xyz
x,y,z
-x,-y,1/2+z
-x,y,z
x,-y,1/2+z
loop_
_atom_site_type_symbol
_atom_site_label
_atom_site_fract_x
_atom_site_fract_y
_atom_site_fract_z
Si Si1 0.114222 0.794872 0.542610
Si Si2 0.226543 0.595315 0.402462
Si Si3 0.884111 0.686790 0.198732
Si Si4 0.269228 0.014605 0.509527
Si Si5 0.190455 0.691328 0.971242
Si Si6 0.757757 0.064210 0.732101
Si Si7 0.615789 0.811895 0.384018
Si Si8 0.110699 0.163733 0.283956
O O1 0.146356 0.656842 0.483778
O O2 0.133118 0.776998 0.667634
O O3 0.000000 0.823121 0.518625
O O4 0.170417 0.923036 0.487557
O O5 0.182856 0.604823 0.283679
O O6 0.252140 0.439342 0.430930
O O7 0.330560 0.674427 0.422775
O O8 0.854512 0.845689 0.203599
O O9 0.000000 0.665543 0.225082
O O10 0.864016 0.644137 0.078129
O O11 0.260358 0.176346 0.487071
O O12 0.288986 0.992682 0.631930
O O13 0.364692 0.945563 0.455116
O O14 0.114093 0.723869 0.875860
O O15 0.667669 0.153698 0.774546
O O16 0.802775 0.949018 0.810657
O O17 0.500000 0.783457 0.371055
O O18 0.000000 0.099641 0.283780
#
# Coordination Sequence:
#
# PCOD8167214 Si02
#       8
#     4   4   4   4   4   4   4   4
#     4   9  19  35  55  79 113 156 192 220 271 338
#     4  10  23  39  55  77 116 155 189 237 281 334
#     4  10  21  35  54  81 117 159 193 221 270 335
#     4   9  19  36  57  85 109 138 180 237 289 328
#     4  11  22  36  54  82 117 149 187 232 278 327
#     4   9  18  35  56  84 113 144 179 235 284 332
#     4  10  20  39  62  81 102 143 193 234 290 347
#     4  10  19  31  54  85 117 150 186 226 272 331
#
# _framework density 19.024545
#
# number of rings (size 3 to 8) (size 9 to 14) (size 15 to 20)
#    0.000    2.250    1.250    1.125    1.750    6.000 
#    0.000    0.625    0.000    3.000    0.000    0.000 
#    0.000    0.000    0.000    0.000    0.000    0.000 
#
# Total GULP energy -396445.774369 kJ/mol
# GULP energy per Si atom -12388.930449 kJ/mol
# Density = 1.898124 g / cm^3
# Si number density = 19.024545 Si / 1000 Ang^3
#
#
#
# Elastic Constant Matrix: (Units=GPa)
#
#
# Indices 1 2 3 4 5 6 
#
# 1 105.6869 39.3242 31.8110 0.0000 0.0000 0.0000
# 2 39.3242 106.7696 36.4006 0.0000 0.0000 0.0000
# 3 31.8110 36.4006 98.4541 0.0000 0.0000 0.0000
# 4 0.0000 0.0000 0.0000 24.9519 0.0000 0.0000
# 5 0.0000 0.0000 0.0000 0.0000 18.1269 0.0000
# 6 0.0000 0.0000 0.0000 0.0000 0.0000 14.7060
#
#
#
# Elastic Compliance Matrix: (Units=1/GPa)
#
#
# Indices 1 2 3 4 5 6 
#
# 1 0.011459 -0.003385 -0.002451 0.000000 0.000000 0.000000
# 2 -0.003385 0.011717 -0.003238 0.000000 0.000000 0.000000
# 3 -0.002451 -0.003238 0.012146 0.000000 0.000000 0.000000
# 4 0.000000 0.000000 0.000000 0.040077 0.000000 0.000000
# 5 0.000000 0.000000 0.000000 0.000000 0.055167 0.000000
# 6 0.000000 0.000000 0.000000 0.000000 0.000000 0.068000
#
#
# Mechanical properties :
#
#
# Convention : Reuss Voigt Hill
#
# Bulk Modulus (GPa) = 58.22862 58.44246 58.33554
# Shear Modulus (GPa) = 22.47815 25.11527 23.79671
#
# Velocity S-wave (km/s) = 3.44107 3.63733 3.54056
# Velocity P-wave (km/s) = 6.81627 6.95891 6.88796
#
# Compressibility (1/GPa) = 0.01717369
#
# Stress axis : x y z
#
# Youngs Moduli (GPa) = 87.26688 85.34877 82.33029
#
# Poissons Ratio (x) = 0.28889 0.20179
# Poissons Ratio (y) = 0.29539 0.26660
# Poissons Ratio (z) = 0.21389 0.27638
#
# Static dielectric constant tensor:
#      x y z
#    x 3.004890 0.000000 0.000000 
#    y 0.000000 3.399840 0.000000 
#    z 0.000000 0.000000 3.825080 
# 
# 
# High freq. dielectric constant tensor:
#      x y z
#    x 1.689260 0.000000 0.000000 
#    y 0.000000 1.730750 0.000000 
#    z 0.000000 0.000000 1.765410 
# 
# From -- ./inp_files/4554.got.cif
#   From: 2010.03.12/outbox.cif.g09.slc.cpg/sg26_3_cif.got.tgz:4554.got - 2010.04.14 03:33:09.
