data_PCOD8167768
_publ_section_title
;
Structure prediction by ZEFSAII (Michael W. Deem and Ramdas Pophale) SiO2 
 PCOD8167768
Probable space group: P M C 21
;
_chemical_formula_sum "Si O2"
_cell_formula_units_Z 32
_cell_length_a 28.974441
_cell_length_b 5.214132
_cell_length_c 8.985431
_cell_angle_alpha 90.000000
_cell_angle_beta 90.000000
_cell_angle_gamma 90.000000
_cell_volume 1357.488006
_symmetry_space_group_name_H-M "P M C 21"
_symmetry_group_IT_number 26
_symmetry_cell_setting 'orthorhombic'
loop_
_space_group_symop_operation_xyz
x,y,z
-x,-y,1/2+z
-x,y,z
x,-y,1/2+z
loop_
_atom_site_type_symbol
_atom_site_label
_atom_site_fract_x
_atom_site_fract_y
_atom_site_fract_z
Si Si1 0.946635 0.717914 0.876760
Si Si2 0.234180 0.398730 0.711243
Si Si3 0.686103 0.302530 0.287156
Si Si4 0.190957 0.221551 0.990750
Si Si5 0.553010 0.805412 0.172827
Si Si6 0.283564 0.981885 0.042482
Si Si7 0.086465 0.210932 0.042125
Si Si8 0.415471 0.317318 0.339798
O O1 0.924448 0.759048 0.715589
O O2 0.000000 0.648248 0.856814
O O3 0.922390 0.478576 0.957869
O O4 0.942829 0.977455 0.973442
O O5 0.264797 0.564823 0.830028
O O6 0.197041 0.253169 0.813041
O O7 0.202857 0.527956 0.586422
O O8 0.281473 0.264668 0.648659
O O9 0.688801 0.048560 0.390453
O O10 0.636649 0.427509 0.319005
O O11 0.690201 0.222394 0.114551
O O12 0.139589 0.129385 0.024172
O O13 0.227639 0.007120 0.035875
O O14 0.500000 0.881065 0.147317
O O15 0.554141 0.554535 0.279520
O O16 0.577487 0.054690 0.245755
O O17 0.575235 0.738234 0.013177
#
# Coordination Sequence:
#
# PCOD8167768 Si02
#       8
#     4   4   4   4   4   4   4   4
#     4  12  26  49  73 106 143 187 232 302 373 425
#     4  11  23  41  63  92 137 181 218 280 330 402
#     4  11  25  41  66  97 134 181 234 273 343 399
#     4  11  25  40  68  97 134 181 233 275 343 399
#     4  12  26  50  74 108 143 186 233 302 374 426
#     4  11  23  41  63  92 137 181 218 280 329 403
#     4  12  28  45  78 107 144 185 244 298 347 444
#     4  12  28  45  79 105 144 186 242 298 347 444
#
# _framework density 23.572952000000001
#
# number of rings (size 3 to 8) (size 9 to 14) (size 15 to 20)
#    0.000    0.500    2.500    5.250    7.000    0.000 
#    0.000    0.000    0.000    0.000    0.000    0.000 
#    0.000    0.000    0.000    0.000    0.000    0.000 
#
# Total GULP energy -396475.342166 kJ/mol
# GULP energy per Si atom -12389.854443 kJ/mol
# Density = 2.351930 g / cm^3
# Si number density = 23.572952 Si / 1000 Ang^3
#
#
#
# Elastic Constant Matrix: (Units=GPa)
#
#
# Indices 1 2 3 4 5 6 
#
# 1 87.5597 -10.1533 -11.2393 0.0000 0.0000 0.0000
# 2 -10.1533 82.8532 17.7700 0.0000 0.0000 0.0000
# 3 -11.2393 17.7700 91.5491 0.0000 0.0000 0.0000
# 4 0.0000 0.0000 0.0000 27.9193 0.0000 0.0000
# 5 0.0000 0.0000 0.0000 0.0000 28.7436 0.0000
# 6 0.0000 0.0000 0.0000 0.0000 0.0000 29.0191
#
#
#
# Elastic Compliance Matrix: (Units=1/GPa)
#
#
# Indices 1 2 3 4 5 6 
#
# 1 0.011712 0.001176 0.001210 0.000000 0.000000 0.000000
# 2 0.001176 0.012712 -0.002323 0.000000 0.000000 0.000000
# 3 0.001210 -0.002323 0.011523 0.000000 0.000000 0.000000
# 4 0.000000 0.000000 0.000000 0.035817 0.000000 0.000000
# 5 0.000000 0.000000 0.000000 0.000000 0.034790 0.000000
# 6 0.000000 0.000000 0.000000 0.000000 0.000000 0.034460
#
#
# Mechanical properties :
#
#
# Convention : Reuss Voigt Hill
#
# Bulk Modulus (GPa) = 27.72251 28.30185 28.01218
# Shear Modulus (GPa) = 32.69821 34.84207 33.77014
#
# Velocity S-wave (km/s) = 3.72843 3.84872 3.78905
# Velocity P-wave (km/s) = 5.50643 5.63758 5.57239
#
# Compressibility (1/GPa) = 0.03607177
#
# Stress axis : x y z
#
# Youngs Moduli (GPa) = 85.37953 78.66660 86.78651
#
# Poissons Ratio (x) = -0.09250 -0.10498
# Poissons Ratio (y) = -0.10039 0.20161
# Poissons Ratio (z) = -0.10328 0.18275
#
# Static dielectric constant tensor:
#      x y z
#    x 4.171210 0.000000 0.000000 
#    y 0.000000 4.341860 0.000000 
#    z 0.000000 0.000000 4.347940 
# 
# 
# High freq. dielectric constant tensor:
#      x y z
#    x 1.933760 0.000000 0.000000 
#    y 0.000000 1.938140 0.000000 
#    z 0.000000 0.000000 1.955550 
# 
# From -- ./inp_files/2525.got.cif
#   From: 2010.03.12/outbox.cif.g09.slc.cpg/sg26_2_cif.got.tgz:2525.got - 2010.04.14 03:33:09.
