data_PCOD8167814
_publ_section_title
;
Structure prediction by ZEFSAII (Michael W. Deem and Ramdas Pophale) SiO2 
 PCOD8167814
Probable space group: P C C 2
;
_chemical_formula_sum "Si O2"
_cell_formula_units_Z 32
_cell_length_a 11.268938
_cell_length_b 9.100286
_cell_length_c 13.900381
_cell_angle_alpha 90.000000
_cell_angle_beta 90.000000
_cell_angle_gamma 90.000000
_cell_volume 1425.491838
_symmetry_space_group_name_H-M "P C C 2"
_symmetry_group_IT_number 27
_symmetry_cell_setting 'orthorhombic'
loop_
_space_group_symop_operation_xyz
x,y,z
-x,-y,z
-x,y,1/2+z
x,-y,1/2+z
loop_
_atom_site_type_symbol
_atom_site_label
_atom_site_fract_x
_atom_site_fract_y
_atom_site_fract_z
Si Si1 0.636852 0.981978 0.264170
Si Si2 0.971920 0.831040 0.442475
Si Si3 0.969354 0.834541 0.228200
Si Si4 0.748385 0.173005 0.606506
Si Si5 0.788339 0.361284 0.441619
Si Si6 0.368638 0.940643 0.983995
Si Si7 0.237990 0.670795 0.028715
Si Si8 0.773579 0.272939 0.234015
O O1 0.712662 0.115191 0.219963
O O2 0.500000 0.000000 0.243752
O O3 0.673252 0.834197 0.205884
O O4 0.666997 0.976780 0.375526
O O5 0.912763 0.823765 0.335530
O O6 0.876825 0.776321 0.520101
O O7 0.088289 0.727429 0.446786
O O8 0.000000 0.000000 0.467964
O O9 0.882128 0.788038 0.141226
O O10 0.084579 0.733273 0.230865
O O11 0.000000 0.000000 0.205029
O O12 0.706770 0.295238 0.528325
O O13 0.728808 0.017746 0.551964
O O14 0.792512 0.534183 0.460556
O O15 0.730782 0.343069 0.335395
O O16 0.500000 0.000000 0.009788
O O17 0.354910 0.763863 0.996188
O O18 0.259150 0.626886 0.141046
#
# Coordination Sequence:
#
# PCOD8167814 Si02
#       8
#     4   4   4   4   4   4   4   4
#     4  11  23  41  71 100 132 175 237 298 333 400
#     4  10  22  39  66  99 136 181 232 280 337 422
#     4  10  19  34  62  99 130 167 223 288 340 395
#     4  12  21  39  68  97 131 178 233 280 343 414
#     4  11  26  42  63  98 146 178 219 287 358 427
#     4  11  24  42  70 100 132 180 245 296 345 411
#     4  12  24  41  67  97 138 183 222 280 362 423
#     4  11  23  41  63  98 138 173 229 289 344 415
#
# _framework density 22.448394
#
# number of rings (size 3 to 8) (size 9 to 14) (size 15 to 20)
#    0.000    1.000    3.750    3.000    1.750    3.000 
#    0.000    3.125    0.000    1.500    0.000    0.000 
#    0.000    0.000    0.000    0.000    0.000    0.000 
#
# Total GULP energy -396499.182939 kJ/mol
# GULP energy per Si atom -12390.599467 kJ/mol
# Density = 2.239730 g / cm^3
# Si number density = 22.448394 Si / 1000 Ang^3
#
#
#
# Elastic Constant Matrix: (Units=GPa)
#
#
# Indices 1 2 3 4 5 6 
#
# 1 89.8545 33.8536 32.0127 0.0000 0.0000 0.0000
# 2 33.8536 113.8992 36.5651 0.0000 0.0000 0.0000
# 3 32.0127 36.5651 146.3934 0.0000 0.0000 0.0000
# 4 0.0000 0.0000 0.0000 58.8640 0.0000 0.0000
# 5 0.0000 0.0000 0.0000 0.0000 -0.4999 0.0000
# 6 0.0000 0.0000 0.0000 0.0000 0.0000 22.1172
#
#
#
# Elastic Compliance Matrix: (Units=1/GPa)
#
#
# Indices 1 2 3 4 5 6 
#
# 1 0.013077 -0.003228 -0.002053 0.000000 0.000000 0.000000
# 2 -0.003228 0.010342 -0.001877 0.000000 0.000000 0.000000
# 3 -0.002053 -0.001877 0.007749 0.000000 0.000000 0.000000
# 4 0.000000 0.000000 0.000000 0.016988 0.000000 0.000000
# 5 0.000000 0.000000 0.000000 0.000000 -2.000253 0.000000
# 6 0.000000 0.000000 0.000000 0.000000 0.000000 0.045214
#
#
# Mechanical properties :
#
#
# Convention : Reuss Voigt Hill
#
# Bulk Modulus (GPa) = 59.34446 61.66774 60.50610
# Shear Modulus (GPa) = -2.64978 32.61063 14.98043
#
# Velocity S-wave (km/s) = -1.08763 3.81556 2.58607
# Velocity P-wave (km/s) = 4.99160 6.85141 5.99408
#
# Compressibility (1/GPa) = 0.01685077
#
# Stress axis : x y z
#
# Youngs Moduli (GPa) = 76.47203 96.69634 129.05164
#
# Poissons Ratio (x) = 0.31209 0.26500
# Poissons Ratio (y) = 0.24681 0.24227
# Poissons Ratio (z) = 0.15703 0.18153
#
# Static dielectric constant tensor:
#      x y z
#    x 4.017550 0.000000 0.000000 
#    y 0.000000 3.385550 0.000000 
#    z 0.000000 0.000000 4.662290 
# 
# 
# High freq. dielectric constant tensor:
#      x y z
#    x 1.856690 0.000000 0.000000 
#    y 0.000000 1.844120 0.000000 
#    z 0.000000 0.000000 1.928510 
# 
# From -- ./inp_files/3661.got.cif
#   From: 2010.03.12/outbox.cif.g09.slc.cpg/sg27_2_cif.got.tgz:3661.got - 2010.04.14 03:36:05.
