data_PCOD8167648
_publ_section_title
;
Structure prediction by ZEFSAII (Michael W. Deem and Ramdas Pophale) SiO2 
 PCOD8167648
Probable space group: P M C 21
;
_chemical_formula_sum "Si O2"
_cell_formula_units_Z 32
_cell_length_a 8.958050
_cell_length_b 11.984944
_cell_length_c 14.530307
_cell_angle_alpha 90.000000
_cell_angle_beta 90.000000
_cell_angle_gamma 90.000000
_cell_volume 1559.998862
_symmetry_space_group_name_H-M "P M C 21"
_symmetry_group_IT_number 26
_symmetry_cell_setting 'orthorhombic'
loop_
_space_group_symop_operation_xyz
x,y,z
-x,-y,1/2+z
-x,y,z
x,-y,1/2+z
loop_
_atom_site_type_symbol
_atom_site_label
_atom_site_fract_x
_atom_site_fract_y
_atom_site_fract_z
Si Si1 0.324001 0.390601 0.414640
Si Si2 0.825839 0.908414 0.704282
Si Si3 0.669079 0.898926 0.317486
Si Si4 0.824651 0.817058 0.003083
Si Si5 0.671627 0.488426 0.097975
Si Si6 0.670074 0.726027 0.171108
Si Si7 0.826655 0.345248 0.236409
Si Si8 0.327289 0.957229 0.514217
O O1 0.500000 0.371695 0.412477
O O2 0.241588 0.276840 0.438360
O O3 0.283577 0.483353 0.492026
O O4 0.262903 0.418520 0.312954
O O5 0.793162 0.786514 0.747005
O O6 0.000000 0.927255 0.688614
O O7 0.769882 0.004792 0.772326
O O8 0.750800 0.910481 0.604357
O O9 0.500000 0.939645 0.300624
O O10 0.694837 0.776534 0.272552
O O11 0.696606 0.876501 0.426012
O O12 0.786648 0.793440 0.109048
O O13 0.747156 0.931164 0.975620
O O14 0.000000 0.825511 0.987082
O O15 0.500000 0.451187 0.102559
O O16 0.702529 0.594733 0.164457
O O17 0.771941 0.387502 0.136020
O O18 0.500000 0.747274 0.135892
O O19 0.000000 0.371390 0.247100
O O20 0.500000 0.976765 0.538004
#
# Coordination Sequence:
#
# PCOD8167648 Si02
#       8
#     4   4   4   4   4   4   4   4
#     4  10  21  39  64  91 117 155 207 255 296 350
#     4  11  24  40  58  86 123 161 197 244 299 355
#     4  10  21  37  60  87 116 153 196 243 294 354
#     4  11  20  32  55  86 118 153 192 242 296 349
#     4   9  20  39  63  88 116 152 197 251 299 349
#     4   9  18  36  59  83 112 145 192 247 292 344
#     4  11  24  41  61  88 125 161 199 249 303 362
#     4  11  22  36  56  85 119 160 200 239 293 357
#
# _framework density 20.512834000000002
#
# number of rings (size 3 to 8) (size 9 to 14) (size 15 to 20)
#    0.000    1.750    1.250    4.125    0.000    7.500 
#    2.250    0.000    0.000    0.000    0.000    0.000 
#    0.000    0.000    0.000    0.000    0.000    0.000 
#
# Total GULP energy -396701.895146 kJ/mol
# GULP energy per Si atom -12396.934223 kJ/mol
# Density = 2.046615 g / cm^3
# Si number density = 20.512834 Si / 1000 Ang^3
#
#
#
# Elastic Constant Matrix: (Units=GPa)
#
#
# Indices 1 2 3 4 5 6 
#
# 1 200.5850 32.0594 23.5756 0.0000 0.0000 0.0000
# 2 32.0594 34.3990 4.9535 0.0000 0.0000 0.0000
# 3 23.5756 4.9535 107.0824 0.0000 0.0000 0.0000
# 4 0.0000 0.0000 0.0000 25.6346 0.0000 0.0000
# 5 0.0000 0.0000 0.0000 0.0000 22.6780 0.0000
# 6 0.0000 0.0000 0.0000 0.0000 0.0000 27.8273
#
#
#
# Elastic Compliance Matrix: (Units=1/GPa)
#
#
# Indices 1 2 3 4 5 6 
#
# 1 0.005976 -0.005416 -0.001065 0.000000 0.000000 0.000000
# 2 -0.005416 0.034175 -0.000388 0.000000 0.000000 0.000000
# 3 -0.001065 -0.000388 0.009591 0.000000 0.000000 0.000000
# 4 0.000000 0.000000 0.000000 0.039010 0.000000 0.000000
# 5 0.000000 0.000000 0.000000 0.000000 0.044096 0.000000
# 6 0.000000 0.000000 0.000000 0.000000 0.000000 0.035936
#
#
# Mechanical properties :
#
#
# Convention : Reuss Voigt Hill
#
# Bulk Modulus (GPa) = 27.77628 51.47149 39.62389
# Shear Modulus (GPa) = 25.70377 33.99318 29.84847
#
# Velocity S-wave (km/s) = 3.54370 4.07525 3.81873
# Velocity P-wave (km/s) = 5.50582 6.87680 6.22914
#
# Compressibility (1/GPa) = 0.03600194
#
# Stress axis : x y z
#
# Youngs Moduli (GPa) = 167.32681 29.26149 104.26347
#
# Poissons Ratio (x) = 0.15849 0.11106
# Poissons Ratio (y) = 0.90632 0.04049
# Poissons Ratio (z) = 0.17824 0.01136
#
# Static dielectric constant tensor:
#      x y z
#    x 3.713500 0.000000 0.000000 
#    y 0.000000 3.506790 0.000000 
#    z 0.000000 0.000000 3.689040 
# 
# 
# High freq. dielectric constant tensor:
#      x y z
#    x 1.802960 0.000000 0.000000 
#    y 0.000000 1.782390 0.000000 
#    z 0.000000 0.000000 1.810860 
# 
# From -- ./inp_files/4302.got.cif
#   From: 2010.03.12/outbox.cif.g09.slc.cpg/sg26_3_cif.got.tgz:4302.got - 2010.04.14 03:33:09.
