data_PCOD8167360
_publ_section_title
;
Structure prediction by ZEFSAII (Michael W. Deem and Ramdas Pophale) SiO2 
 PCOD8167360
Probable space group: P M C 21
;
_chemical_formula_sum "Si O2"
_cell_formula_units_Z 32
_cell_length_a 8.874203
_cell_length_b 9.294493
_cell_length_c 20.279619
_cell_angle_alpha 90.000000
_cell_angle_beta 90.000000
_cell_angle_gamma 90.000000
_cell_volume 1672.687669
_symmetry_space_group_name_H-M "P M C 21"
_symmetry_group_IT_number 26
_symmetry_cell_setting 'orthorhombic'
loop_
_space_group_symop_operation_xyz
x,y,z
-x,-y,1/2+z
-x,y,z
x,-y,1/2+z
loop_
_atom_site_type_symbol
_atom_site_label
_atom_site_fract_x
_atom_site_fract_y
_atom_site_fract_z
Si Si1 0.179100 0.608750 0.085280
Si Si2 0.676169 0.088487 0.583331
Si Si3 0.177477 0.919731 0.319177
Si Si4 0.179193 0.593315 0.332116
Si Si5 0.322351 0.423041 0.447524
Si Si6 0.178314 0.581019 0.706608
Si Si7 0.326965 0.903041 0.932049
Si Si8 0.179381 0.906655 0.692847
O O1 0.238183 0.766511 0.103480
O O2 0.236698 0.501852 0.142204
O O3 0.000000 0.614161 0.080118
O O4 0.247137 0.548563 0.017885
O O5 0.500000 0.111172 0.596607
O O6 0.705826 0.050268 0.507065
O O7 0.741889 0.958715 0.626090
O O8 0.233642 0.755828 0.319105
O O9 0.000000 0.926712 0.317494
O O10 0.228005 0.999052 0.385114
O O11 0.239854 0.998227 0.253892
O O12 0.257678 0.541067 0.398498
O O13 0.240609 0.496531 0.272062
O O14 0.000000 0.582889 0.340387
O O15 0.500000 0.440535 0.455821
O O16 0.280932 0.263476 0.422013
O O17 0.235313 0.744551 0.705522
O O18 0.000000 0.574707 0.708530
O O19 0.500000 0.927155 0.913422
O O20 0.000000 0.916009 0.684360
#
# Coordination Sequence:
#
# PCOD8167360 Si02
#       8
#     4   4   4   4   4   4   4   4
#     4  10  19  35  59  84 109 142 180 224 273 321
#     4  10  21  37  55  80 112 146 181 220 265 322
#     4  10  21  35  56  83 108 137 181 228 271 320
#     4  10  20  36  56  80 108 140 178 223 270 320
#     4  10  21  37  55  80 111 144 181 221 265 323
#     4   9  19  35  57  82 108 137 179 229 272 317
#     4   9  20  37  55  76 107 142 178 217 264 320
#     4  10  20  36  57  81 107 140 180 224 270 319
#
# _framework density 19.130887999999999
#
# number of rings (size 3 to 8) (size 9 to 14) (size 15 to 20)
#    0.000    2.250    0.000    3.375    0.000    8.000 
#    0.000    8.125    0.000    0.000    0.000    0.000 
#    0.000    0.000    0.000    0.000    0.000    0.000 
#
# Total GULP energy -396899.702311 kJ/mol
# GULP energy per Si atom -12403.115697 kJ/mol
# Density = 1.908735 g / cm^3
# Si number density = 19.130888 Si / 1000 Ang^3
#
#
#
# Elastic Constant Matrix: (Units=GPa)
#
#
# Indices 1 2 3 4 5 6 
#
# 1 41.4815 24.6001 25.4379 0.0000 0.0000 0.0000
# 2 24.6001 102.4825 52.4213 0.0000 0.0000 0.0000
# 3 25.4379 52.4213 99.9427 0.0000 0.0000 0.0000
# 4 0.0000 0.0000 0.0000 41.0469 0.0000 0.0000
# 5 0.0000 0.0000 0.0000 0.0000 13.5840 0.0000
# 6 0.0000 0.0000 0.0000 0.0000 0.0000 21.5360
#
#
#
# Elastic Compliance Matrix: (Units=1/GPa)
#
#
# Indices 1 2 3 4 5 6 
#
# 1 0.030015 -0.004506 -0.005276 0.000000 0.000000 0.000000
# 2 -0.004506 0.014012 -0.006203 0.000000 0.000000 0.000000
# 3 -0.005276 -0.006203 0.014602 0.000000 0.000000 0.000000
# 4 0.000000 0.000000 0.000000 0.024362 0.000000 0.000000
# 5 0.000000 0.000000 0.000000 0.000000 0.073616 0.000000
# 6 0.000000 0.000000 0.000000 0.000000 0.000000 0.046434
#
#
# Mechanical properties :
#
#
# Convention : Reuss Voigt Hill
#
# Bulk Modulus (GPa) = 37.51009 49.86946 43.68977
# Shear Modulus (GPa) = 20.50042 24.66320 22.58181
#
# Velocity S-wave (km/s) = 3.27706 3.59441 3.43940
# Velocity P-wave (km/s) = 5.82825 6.58411 6.21768
#
# Compressibility (1/GPa) = 0.02665949
#
# Stress axis : x y z
#
# Youngs Moduli (GPa) = 33.31685 71.36658 68.48374
#
# Poissons Ratio (x) = 0.32158 0.36132
# Poissons Ratio (y) = 0.15013 0.42478
# Poissons Ratio (z) = 0.17578 0.44266
#
# Static dielectric constant tensor:
#      x y z
#    x 3.289410 0.000000 0.000000 
#    y 0.000000 3.633620 0.000000 
#    z 0.000000 0.000000 3.594190 
# 
# 
# High freq. dielectric constant tensor:
#      x y z
#    x 1.728810 0.000000 0.000000 
#    y 0.000000 1.748380 0.000000 
#    z 0.000000 0.000000 1.756370 
# 
# From -- ./inp_files/5343.got.cif
#   From: 2010.03.12/outbox.cif.g09.slc.cpg/sg26_3_cif.got.tgz:5343.got - 2010.04.14 03:33:09.
