data_PCOD8167123
_publ_section_title
;
Structure prediction by ZEFSAII (Michael W. Deem and Ramdas Pophale) SiO2 
 PCOD8167123
Probable space group: P M C 21
;
_chemical_formula_sum "Si O2"
_cell_formula_units_Z 32
_cell_length_a 12.207213
_cell_length_b 20.041185
_cell_length_c 7.764268
_cell_angle_alpha 90.000000
_cell_angle_beta 90.000000
_cell_angle_gamma 90.000000
_cell_volume 1899.504983
_symmetry_space_group_name_H-M "P M C 21"
_symmetry_group_IT_number 26
_symmetry_cell_setting 'orthorhombic'
loop_
_space_group_symop_operation_xyz
x,y,z
-x,-y,1/2+z
-x,y,z
x,-y,1/2+z
loop_
_atom_site_type_symbol
_atom_site_label
_atom_site_fract_x
_atom_site_fract_y
_atom_site_fract_z
Si Si1 0.261481 0.191194 0.066710
Si Si2 0.369965 0.572243 0.854947
Si Si3 0.378089 0.062487 0.106051
Si Si4 0.768546 0.994437 0.849930
Si Si5 0.369984 0.571281 0.240475
Si Si6 0.630044 0.666696 0.547176
Si Si7 0.871989 0.871075 0.259891
Si Si8 0.124164 0.856671 0.877133
O O1 0.366020 0.141522 0.074838
O O2 0.306469 0.264466 0.041054
O O3 0.198736 0.186118 0.248600
O O4 0.183287 0.173624 0.907058
O O5 0.500000 0.568114 0.854105
O O6 0.322109 0.500634 0.796404
O O7 0.331386 0.628081 0.719383
O O8 0.327589 0.589730 0.047986
O O9 0.500000 0.040863 0.048701
O O10 0.351307 0.037435 0.297963
O O11 0.269250 0.027323 0.027902
O O12 0.819522 0.055386 0.740713
O O13 0.857604 0.936194 0.860694
O O14 0.500000 0.567176 0.240817
O O15 0.331382 0.626254 0.378037
O O16 0.500000 0.678445 0.547233
O O17 0.000000 0.878178 0.303737
O O18 0.852926 0.835168 0.075094
O O19 0.000000 0.841817 0.825396
#
# Coordination Sequence:
#
# PCOD8167123 Si02
#       8
#     4   4   4   4   4   4   4   4
#     4  10  22  34  48  70 102 136 170 198 242 308
#     4   9  15  25  44  70  97 130 173 212 242 273
#     4  10  19  31  47  66  96 134 168 201 237 286
#     4  10  18  32  50  74  96 118 164 210 258 304
#     4   9  15  25  44  70  97 130 173 212 242 273
#     4  10  19  31  47  68 104 146 172 199 237 284
#     4  10  20  35  54  74  97 120 157 216 272 309
#     4  10  20  35  54  74  97 120 157 216 272 309
#
# _framework density 16.846495999999998
#
# number of rings (size 3 to 8) (size 9 to 14) (size 15 to 20)
#    0.000    2.250    2.500    1.500    0.000    1.000 
#    0.000    0.000    0.000    0.000    0.000    0.000 
#    0.000    4.000    0.000    0.000    0.000    0.000 
#
# Total GULP energy -396471.356615 kJ/mol
# GULP energy per Si atom -12389.729894 kJ/mol
# Density = 1.680815 g / cm^3
# Si number density = 16.846496 Si / 1000 Ang^3
#
#
#
# Elastic Constant Matrix: (Units=GPa)
#
#
# Indices 1 2 3 4 5 6 
#
# 1 64.3866 32.3924 31.2290 0.0000 0.0000 0.0000
# 2 32.3924 119.0167 52.8470 0.0000 0.0000 0.0000
# 3 31.2290 52.8470 119.6381 0.0000 0.0000 0.0000
# 4 0.0000 0.0000 0.0000 23.7857 0.0000 0.0000
# 5 0.0000 0.0000 0.0000 0.0000 14.1267 0.0000
# 6 0.0000 0.0000 0.0000 0.0000 0.0000 15.8701
#
#
#
# Elastic Compliance Matrix: (Units=1/GPa)
#
#
# Indices 1 2 3 4 5 6 
#
# 1 0.019004 -0.003694 -0.003329 0.000000 0.000000 0.000000
# 2 -0.003694 0.011170 -0.003970 0.000000 0.000000 0.000000
# 3 -0.003329 -0.003970 0.010981 0.000000 0.000000 0.000000
# 4 0.000000 0.000000 0.000000 0.042042 0.000000 0.000000
# 5 0.000000 0.000000 0.000000 0.000000 0.070788 0.000000
# 6 0.000000 0.000000 0.000000 0.000000 0.000000 0.063012
#
#
# Mechanical properties :
#
#
# Convention : Reuss Voigt Hill
#
# Bulk Modulus (GPa) = 52.16551 59.55314 55.85932
# Shear Modulus (GPa) = 20.37710 23.19469 21.78589
#
# Velocity S-wave (km/s) = 3.48167 3.71459 3.60001
# Velocity P-wave (km/s) = 6.86987 7.33653 7.10703
#
# Compressibility (1/GPa) = 0.01916975
#
# Stress axis : x y z
#
# Youngs Moduli (GPa) = 52.61974 89.52233 91.06580
#
# Poissons Ratio (x) = 0.33072 0.30314
# Poissons Ratio (y) = 0.19439 0.36152
# Poissons Ratio (z) = 0.17516 0.35540
#
# Static dielectric constant tensor:
#      x y z
#    x 2.741290 0.000000 0.000000 
#    y 0.000000 3.021940 0.000000 
#    z 0.000000 0.000000 3.462030 
# 
# 
# High freq. dielectric constant tensor:
#      x y z
#    x 1.609210 0.000000 0.000000 
#    y 0.000000 1.630900 0.000000 
#    z 0.000000 0.000000 1.670960 
# 
# From -- ./inp_files/2025.got.cif
#   From: 2010.03.12/outbox.cif.g09.slc.cpg/sg26_2_cif.got.tgz:2025.got - 2010.04.14 03:33:09.
