data_PCOD8167805
_publ_section_title
;
Structure prediction by ZEFSAII (Michael W. Deem and Ramdas Pophale) SiO2 
 PCOD8167805
Probable space group: P C C 2
;
_chemical_formula_sum "Si O2"
_cell_formula_units_Z 26
_cell_length_a 10.101503
_cell_length_b 15.012175
_cell_length_c 8.939286
_cell_angle_alpha 90.000000
_cell_angle_beta 90.000000
_cell_angle_gamma 90.000000
_cell_volume 1355.602770
_symmetry_space_group_name_H-M "P C C 2"
_symmetry_group_IT_number 27
_symmetry_cell_setting 'orthorhombic'
loop_
_space_group_symop_operation_xyz
x,y,z
-x,-y,z
-x,y,1/2+z
x,-y,1/2+z
loop_
_atom_site_type_symbol
_atom_site_label
_atom_site_fract_x
_atom_site_fract_y
_atom_site_fract_z
Si Si1 0.115084 0.615145 0.969240
Si Si2 0.669690 0.261648 0.036032
Si Si3 0.388668 0.075270 0.064337
Si Si4 0.000000 0.500000 0.725526
Si Si5 0.906565 0.919752 0.128415
Si Si6 0.920968 0.809363 0.416641
Si Si7 0.525637 0.809368 0.804495
O O1 0.267415 0.641082 0.004723
O O2 0.110278 0.543741 0.834766
O O3 0.033695 0.704963 0.920989
O O4 0.059436 0.577195 0.123829
O O5 0.780368 0.184489 0.005146
O O6 0.548404 0.253291 0.922249
O O7 0.625869 0.251262 0.208158
O O8 0.239011 0.040572 0.089712
O O9 0.420308 0.146826 0.192292
O O10 0.500000 0.000000 0.075480
O O11 0.393660 0.116683 0.897921
O O12 0.896639 0.841266 0.248623
O O13 0.000000 0.000000 0.183921
O O14 0.968176 0.874076 0.982476
#
# Coordination Sequence:
#
# PCOD8167805 Si02
#       7
#     4   4   4   2   4   4   4
#     4   9  20  35  63  90 128 152 196 242 301 380
#     4   9  21  39  62  87 111 159 202 249 291 376
#     4  11  24  37  57  81 112 159 206 263 311 351
#     4  10  18  36  62 102 122 156 180 248 318 364
#     4  12  26  38  58  87 125 161 209 262 306 351
#     4  10  23  41  57  87 122 159 201 248 311 352
#     4  10  21  39  61  77 113 157 216 242 294 371
#
# _framework density 19.179659999999998
#
# number of rings (size 3 to 8) (size 9 to 14) (size 15 to 20)
#    0.923    0.923    1.538    1.846    6.462    2.462 
#    0.000    4.615    0.000    2.769    0.000    0.000 
#    0.000    0.000    0.000    0.000    0.000    0.000 
#
# Total GULP energy -322219.139658 kJ/mol
# GULP energy per Si atom -12393.043833 kJ/mol
# Density = 1.913601 g / cm^3
# Si number density = 19.179660 Si / 1000 Ang^3
#
#
#
# Elastic Constant Matrix: (Units=GPa)
#
#
# Indices 1 2 3 4 5 6 
#
# 1 119.2729 42.0851 45.4402 0.0000 0.0000 0.0000
# 2 42.0851 93.5590 39.6694 0.0000 0.0000 0.0000
# 3 45.4402 39.6694 121.2644 0.0000 0.0000 0.0000
# 4 0.0000 0.0000 0.0000 29.9900 0.0000 0.0000
# 5 0.0000 0.0000 0.0000 0.0000 23.0622 0.0000
# 6 0.0000 0.0000 0.0000 0.0000 0.0000 32.6183
#
#
#
# Elastic Compliance Matrix: (Units=1/GPa)
#
#
# Indices 1 2 3 4 5 6 
#
# 1 0.010747 -0.003630 -0.002839 0.000000 0.000000 0.000000
# 2 -0.003630 0.013636 -0.003100 0.000000 0.000000 0.000000
# 3 -0.002839 -0.003100 0.010325 0.000000 0.000000 0.000000
# 4 0.000000 0.000000 0.000000 0.033344 0.000000 0.000000
# 5 0.000000 0.000000 0.000000 0.000000 0.043361 0.000000
# 6 0.000000 0.000000 0.000000 0.000000 0.000000 0.030658
#
#
# Mechanical properties :
#
#
# Convention : Reuss Voigt Hill
#
# Bulk Modulus (GPa) = 64.23757 65.38731 64.81244
# Shear Modulus (GPa) = 30.04808 30.92754 30.48781
#
# Velocity S-wave (km/s) = 3.96240 4.01997 3.99129
# Velocity P-wave (km/s) = 7.38237 7.46411 7.42335
#
# Compressibility (1/GPa) = 0.01556721
#
# Stress axis : x y z
#
# Youngs Moduli (GPa) = 93.05064 73.33521 96.85493
#
# Poissons Ratio (x) = 0.26622 0.27502
# Poissons Ratio (y) = 0.33780 0.30029
# Poissons Ratio (z) = 0.26422 0.22737
#
# Static dielectric constant tensor:
#      x y z
#    x 3.426530 0.000000 0.000000 
#    y 0.000000 3.339520 0.000000 
#    z 0.000000 0.000000 3.555720 
# 
# 
# High freq. dielectric constant tensor:
#      x y z
#    x 1.733590 0.000000 0.000000 
#    y 0.000000 1.722780 0.000000 
#    z 0.000000 0.000000 1.763080 
# 
# From -- ./inp_files/1216.got.cif
#   From: 2010.03.12/outbox.cif.g09.slc.cpg/sg27_1_cif.got.tgz:1216.got - 2010.04.14 03:36:05.
