data_PCOD8167622
_publ_section_title
;
Structure prediction by ZEFSAII (Michael W. Deem and Ramdas Pophale) SiO2 
 PCOD8167622
Probable space group: P M C 21
;
_chemical_formula_sum "Si O2"
_cell_formula_units_Z 24
_cell_length_a 9.050240
_cell_length_b 10.995941
_cell_length_c 12.758138
_cell_angle_alpha 90.000000
_cell_angle_beta 90.000000
_cell_angle_gamma 90.000000
_cell_volume 1269.637650
_symmetry_space_group_name_H-M "P M C 21"
_symmetry_group_IT_number 26
_symmetry_cell_setting 'orthorhombic'
loop_
_space_group_symop_operation_xyz
x,y,z
-x,-y,1/2+z
-x,y,z
x,-y,1/2+z
loop_
_atom_site_type_symbol
_atom_site_label
_atom_site_fract_x
_atom_site_fract_y
_atom_site_fract_z
Si Si1 0.175772 0.708384 0.824050
Si Si2 0.827852 0.239235 0.722578
Si Si3 0.172633 0.144263 0.948690
Si Si4 0.667006 0.281881 0.121489
Si Si5 0.174930 0.120142 0.509501
Si Si6 0.333051 0.508066 0.244405
O O1 0.240446 0.775177 0.719551
O O2 0.242149 0.570920 0.831278
O O3 0.000000 0.702772 0.816832
O O4 0.232630 0.782965 0.924476
O O5 0.770854 0.159873 0.624483
O O6 0.741687 0.364568 0.723625
O O7 0.000000 0.270186 0.710805
O O8 0.794870 0.161498 0.826078
O O9 0.256805 0.249311 0.012023
O O10 0.000000 0.156387 0.973405
O O11 0.237343 0.013630 0.983415
O O12 0.500000 0.231125 0.123731
O O13 0.667608 0.429069 0.136137
O O14 0.000000 0.114294 0.502945
O O15 0.500000 0.528176 0.285002
#
# Coordination Sequence:
#
# PCOD8167622 Si02
#       6
#     4   4   4   4   4   4
#     4   9  17  34  61  86 109 145 188 230 277 331
#     4  10  21  36  56  86 115 144 189 234 279 335
#     4  10  21  36  59  85 112 149 188 233 281 331
#     4   9  20  37  56  82 113 149 187 227 279 335
#     4   9  20  36  58  87 115 145 186 236 280 327
#     4   9  20  37  56  82 116 150 186 230 282 335
#
# _framework density 18.903032
#
# number of rings (size 3 to 8) (size 9 to 14) (size 15 to 20)
#    1.000    1.667    0.000    1.000    2.333    2.000 
#    0.000    9.167    0.000    0.000    0.000    0.000 
#    0.000    0.000    0.000    0.000    0.000    0.000 
#
# Total GULP energy -297444.434171 kJ/mol
# GULP energy per Si atom -12393.518090 kJ/mol
# Density = 1.886001 g / cm^3
# Si number density = 18.903032 Si / 1000 Ang^3
#
#
#
# Elastic Constant Matrix: (Units=GPa)
#
#
# Indices 1 2 3 4 5 6 
#
# 1 85.0563 49.1490 57.1087 0.0000 0.0000 0.0000
# 2 49.1490 122.9852 55.9394 0.0000 0.0000 0.0000
# 3 57.1087 55.9394 125.6000 0.0000 0.0000 0.0000
# 4 0.0000 0.0000 0.0000 30.0780 0.0000 0.0000
# 5 0.0000 0.0000 0.0000 0.0000 12.0725 0.0000
# 6 0.0000 0.0000 0.0000 0.0000 0.0000 13.0552
#
#
#
# Elastic Compliance Matrix: (Units=1/GPa)
#
#
# Indices 1 2 3 4 5 6 
#
# 1 0.018742 -0.004532 -0.006503 0.000000 0.000000 0.000000
# 2 -0.004532 0.011293 -0.002969 0.000000 0.000000 0.000000
# 3 -0.006503 -0.002969 0.012241 0.000000 0.000000 0.000000
# 4 0.000000 0.000000 0.000000 0.033247 0.000000 0.000000
# 5 0.000000 0.000000 0.000000 0.000000 0.082833 0.000000
# 6 0.000000 0.000000 0.000000 0.000000 0.000000 0.076598
#
#
# Mechanical properties :
#
#
# Convention : Reuss Voigt Hill
#
# Bulk Modulus (GPa) = 70.08977 73.11508 71.60242
# Shear Modulus (GPa) = 18.67641 22.47077 20.57359
#
# Velocity S-wave (km/s) = 3.14667 3.45155 3.30263
# Velocity P-wave (km/s) = 7.09656 7.39238 7.24598
#
# Compressibility (1/GPa) = 0.01426742
#
# Stress axis : x y z
#
# Youngs Moduli (GPa) = 53.35556 88.55410 81.69237
#
# Poissons Ratio (x) = 0.40132 0.53128
# Poissons Ratio (y) = 0.24180 0.24253
# Poissons Ratio (z) = 0.34699 0.26290
#
# Static dielectric constant tensor:
#      x y z
#    x 3.290390 0.000000 0.000000 
#    y 0.000000 3.393500 0.000000 
#    z 0.000000 0.000000 3.443910 
# 
# 
# High freq. dielectric constant tensor:
#      x y z
#    x 1.721750 0.000000 0.000000 
#    y 0.000000 1.726860 0.000000 
#    z 0.000000 0.000000 1.728470 
# 
# From -- ./inp_files/2828.got.cif
#   From: 2010.03.12/outbox.cif.g09.slc.cpg/sg26_2_cif.got.tgz:2828.got - 2010.04.14 03:33:09.
