data_PCOD8167228
_publ_section_title
;
Structure prediction by ZEFSAII (Michael W. Deem and Ramdas Pophale) SiO2 
 PCOD8167228
Probable space group: P M C 21
;
_chemical_formula_sum "Si O2"
_cell_formula_units_Z 24
_cell_length_a 9.057060
_cell_length_b 9.330543
_cell_length_c 15.070337
_cell_angle_alpha 90.000000
_cell_angle_beta 90.000000
_cell_angle_gamma 90.000000
_cell_volume 1273.553306
_symmetry_space_group_name_H-M "P M C 21"
_symmetry_group_IT_number 26
_symmetry_cell_setting 'orthorhombic'
loop_
_space_group_symop_operation_xyz
x,y,z
-x,-y,1/2+z
-x,y,z
x,-y,1/2+z
loop_
_atom_site_type_symbol
_atom_site_label
_atom_site_fract_x
_atom_site_fract_y
_atom_site_fract_z
Si Si1 0.327324 0.474117 0.236550
Si Si2 0.836173 0.416436 0.067788
Si Si3 0.669049 0.150388 0.270660
Si Si4 0.328627 0.953004 0.432245
Si Si5 0.174473 0.335653 0.879040
Si Si6 0.835060 0.919321 0.604149
O O1 0.500000 0.505400 0.245505
O O2 0.279874 0.492336 0.133403
O O3 0.282595 0.316444 0.271076
O O4 0.237079 0.588877 0.292309
O O5 0.836932 0.247604 0.083400
O O6 0.000000 0.479149 0.085651
O O7 0.789653 0.436335 0.964796
O O8 0.500000 0.138256 0.240268
O O9 0.761926 0.056619 0.200248
O O10 0.694637 0.089223 0.368593
O O11 0.500000 0.916062 0.446212
O O12 0.250460 0.817955 0.387369
O O13 0.257886 0.996925 0.526676
O O14 0.000000 0.311606 0.870218
O O15 0.000000 0.983746 0.605583
#
# Coordination Sequence:
#
# PCOD8167228 Si02
#       6
#     4   4   4   4   4   4
#     4  10  19  32  52  76 100 129 165 204 247 295
#     4   8  16  31  49  69  95 129 166 202 241 289
#     4   9  19  34  52  75 101 131 167 205 246 294
#     4  10  19  33  53  75 101 133 168 207 249 293
#     4  10  20  34  52  75 102 131 166 207 249 295
#     4   9  17  30  50  74  99 131 168 203 244 296
#
# _framework density 18.844912999999998
#
# number of rings (size 3 to 8) (size 9 to 14) (size 15 to 20)
#    0.000    2.667    0.000    3.000    0.000    6.667 
#    0.000    1.667    0.000    6.000    0.000    0.000 
#    0.000    0.000    0.000    0.000    0.000    0.000 
#
# Total GULP energy -297565.873726 kJ/mol
# GULP energy per Si atom -12398.578072 kJ/mol
# Density = 1.880202 g / cm^3
# Si number density = 18.844913 Si / 1000 Ang^3
#
#
#
# Elastic Constant Matrix: (Units=GPa)
#
#
# Indices 1 2 3 4 5 6 
#
# 1 86.9987 6.6445 9.2784 0.0000 0.0000 0.0000
# 2 6.6445 18.3611 -10.8657 0.0000 0.0000 0.0000
# 3 9.2784 -10.8657 31.4800 0.0000 0.0000 0.0000
# 4 0.0000 0.0000 0.0000 24.4221 0.0000 0.0000
# 5 0.0000 0.0000 0.0000 0.0000 36.0787 0.0000
# 6 0.0000 0.0000 0.0000 0.0000 0.0000 18.8893
#
#
#
# Elastic Compliance Matrix: (Units=1/GPa)
#
#
# Indices 1 2 3 4 5 6 
#
# 1 0.012882 -0.008682 -0.006794 0.000000 0.000000 0.000000
# 2 -0.008682 0.074295 0.028202 0.000000 0.000000 0.000000
# 3 -0.006794 0.028202 0.043503 0.000000 0.000000 0.000000
# 4 0.000000 0.000000 0.000000 0.040946 0.000000 0.000000
# 5 0.000000 0.000000 0.000000 0.000000 0.027717 0.000000
# 6 0.000000 0.000000 0.000000 0.000000 0.000000 0.052940
#
#
# Mechanical properties :
#
#
# Convention : Reuss Voigt Hill
#
# Bulk Modulus (GPa) = 6.40479 16.32827 11.36653
# Shear Modulus (GPa) = 17.92927 24.66354 21.29640
#
# Velocity S-wave (km/s) = 3.08784 3.62161 3.36532
# Velocity P-wave (km/s) = 4.01486 5.11580 4.59840
#
# Compressibility (1/GPa) = 0.15613324
#
# Stress axis : x y z
#
# Youngs Moduli (GPa) = 77.62741 13.45994 22.98697
#
# Poissons Ratio (x) = 0.11686 0.15616
# Poissons Ratio (y) = 0.67396 -0.64829
# Poissons Ratio (z) = 0.52737 -0.37960
#
# Static dielectric constant tensor:
#      x y z
#    x 3.616060 0.000000 0.000000 
#    y 0.000000 3.015300 0.000000 
#    z 0.000000 0.000000 3.696970 
# 
# 
# High freq. dielectric constant tensor:
#      x y z
#    x 1.743540 0.000000 0.000000 
#    y 0.000000 1.684860 0.000000 
#    z 0.000000 0.000000 1.742190 
# 
# From -- ./inp_files/2795.got.cif
#   From: 2010.03.12/outbox.cif.g09.slc.cpg/sg26_2_cif.got.tgz:2795.got - 2010.04.14 03:33:09.
