data_PCOD8167532
_publ_section_title
;
Structure prediction by ZEFSAII (Michael W. Deem and Ramdas Pophale) SiO2 
 PCOD8167532
Probable space group: P M C 21
;
_chemical_formula_sum "Si O2"
_cell_formula_units_Z 32
_cell_length_a 9.044586
_cell_length_b 18.920460
_cell_length_c 10.132915
_cell_angle_alpha 90.000000
_cell_angle_beta 90.000000
_cell_angle_gamma 90.000000
_cell_volume 1734.022718
_symmetry_space_group_name_H-M "P M C 21"
_symmetry_group_IT_number 26
_symmetry_cell_setting 'orthorhombic'
loop_
_space_group_symop_operation_xyz
x,y,z
-x,-y,1/2+z
-x,y,z
x,-y,1/2+z
loop_
_atom_site_type_symbol
_atom_site_label
_atom_site_fract_x
_atom_site_fract_y
_atom_site_fract_z
Si Si1 0.827629 0.576144 0.066970
Si Si2 0.331176 0.792360 0.414748
Si Si3 0.823519 0.047095 0.182430
Si Si4 0.325180 0.047833 0.902931
Si Si5 0.331686 0.649370 0.301118
Si Si6 0.328941 0.570609 0.570982
Si Si7 0.828509 0.794603 0.679987
Si Si8 0.828234 0.652107 0.801965
O O1 0.779148 0.611346 0.203155
O O2 0.745172 0.503706 0.038526
O O3 0.000000 0.559671 0.075207
O O4 0.788170 0.630436 0.950275
O O5 0.500000 0.788280 0.460157
O O6 0.293049 0.870724 0.363351
O O7 0.299530 0.733951 0.301496
O O8 0.240637 0.771281 0.542804
O O9 0.778069 0.127083 0.224265
O O10 0.000000 0.035603 0.176894
O O11 0.750361 0.997347 0.289834
O O12 0.752820 0.028894 0.040922
O O13 0.500000 0.031837 0.912614
O O14 0.500000 0.633477 0.257393
O O15 0.301676 0.621803 0.448134
O O16 0.500000 0.556927 0.598064
O O17 0.262529 0.604045 0.702280
O O18 0.786213 0.735302 0.788320
O O19 0.000000 0.796608 0.652387
O O20 0.000000 0.639508 0.770446
#
# Coordination Sequence:
#
# PCOD8167532 Si02
#       8
#     4   4   4   4   4   4   4   4
#     4  11  24  38  53  79 114 147 181 224 278 328
#     4   9  18  35  58  83 111 143 185 232 272 324
#     4  10  20  36  58  85 117 151 190 233 282 335
#     4  10  20  36  59  85 117 151 189 233 282 335
#     4  10  21  38  58  82 111 142 183 228 275 328
#     4  11  22  37  60  83 105 140 186 228 276 330
#     4   9  18  34  58  83 110 144 185 230 273 324
#     4  10  21  38  58  82 111 142 183 228 274 328
#
# _framework density 18.454201000000001
#
# number of rings (size 3 to 8) (size 9 to 14) (size 15 to 20)
#    0.000    2.000    1.250    2.250    0.000    5.500 
#    2.250    0.000    0.000    0.000    0.000    0.000 
#    0.000    0.000    0.000    0.000    0.000    0.000 
#
# Total GULP energy -396800.289467 kJ/mol
# GULP energy per Si atom -12400.009046 kJ/mol
# Density = 1.841220 g / cm^3
# Si number density = 18.454201 Si / 1000 Ang^3
#
#
#
# Elastic Constant Matrix: (Units=GPa)
#
#
# Indices 1 2 3 4 5 6 
#
# 1 50.7346 39.7939 31.1007 0.0000 0.0000 0.0000
# 2 39.7939 114.8553 42.6426 0.0000 0.0000 0.0000
# 3 31.1007 42.6426 67.6535 0.0000 0.0000 0.0000
# 4 0.0000 0.0000 0.0000 30.1194 0.0000 0.0000
# 5 0.0000 0.0000 0.0000 0.0000 35.9526 0.0000
# 6 0.0000 0.0000 0.0000 0.0000 0.0000 26.7753
#
#
#
# Elastic Compliance Matrix: (Units=1/GPa)
#
#
# Indices 1 2 3 4 5 6 
#
# 1 0.031443 -0.007216 -0.009906 0.000000 0.000000 0.000000
# 2 -0.007216 0.013023 -0.004891 0.000000 0.000000 0.000000
# 3 -0.009906 -0.004891 0.022418 0.000000 0.000000 0.000000
# 4 0.000000 0.000000 0.000000 0.033201 0.000000 0.000000
# 5 0.000000 0.000000 0.000000 0.000000 0.027814 0.000000
# 6 0.000000 0.000000 0.000000 0.000000 0.000000 0.037348
#
#
# Mechanical properties :
#
#
# Convention : Reuss Voigt Hill
#
# Bulk Modulus (GPa) = 43.75020 51.14642 47.44831
# Shear Modulus (GPa) = 23.05289 26.54987 24.80138
#
# Velocity S-wave (km/s) = 3.53823 3.79712 3.66996
# Velocity P-wave (km/s) = 6.36011 6.85563 6.61251
#
# Compressibility (1/GPa) = 0.02285704
#
# Stress axis : x y z
#
# Youngs Moduli (GPa) = 31.80367 76.78903 44.60713
#
# Poissons Ratio (x) = 0.55412 0.44188
# Poissons Ratio (y) = 0.22950 0.21817
# Poissons Ratio (z) = 0.31505 0.37558
#
# Static dielectric constant tensor:
#      x y z
#    x 3.492440 0.000000 0.000000 
#    y 0.000000 3.907660 0.000000 
#    z 0.000000 0.000000 3.287710 
# 
# 
# High freq. dielectric constant tensor:
#      x y z
#    x 1.724300 0.000000 0.000000 
#    y 0.000000 1.731170 0.000000 
#    z 0.000000 0.000000 1.700930 
# 
# From -- ./inp_files/1602.got.cif
#   From: 2010.03.12/outbox.cif.g09.slc.cpg/sg26_1_cif.got.tgz:1602.got - 2010.04.14 03:33:09.
