data_PCOD8167733
_publ_section_title
;
Structure prediction by ZEFSAII (Michael W. Deem and Ramdas Pophale) SiO2 
 PCOD8167733
Probable space group: P M C 21
;
_chemical_formula_sum "Si O2"
_cell_formula_units_Z 24
_cell_length_a 8.852903
_cell_length_b 13.571540
_cell_length_c 9.950890
_cell_angle_alpha 90.000000
_cell_angle_beta 90.000000
_cell_angle_gamma 90.000000
_cell_volume 1195.574827
_symmetry_space_group_name_H-M "P M C 21"
_symmetry_group_IT_number 26
_symmetry_cell_setting 'orthorhombic'
loop_
_space_group_symop_operation_xyz
x,y,z
-x,-y,1/2+z
-x,y,z
x,-y,1/2+z
loop_
_atom_site_type_symbol
_atom_site_label
_atom_site_fract_x
_atom_site_fract_y
_atom_site_fract_z
Si Si1 0.178250 0.430302 0.254720
Si Si2 0.677956 0.924760 0.614769
Si Si3 0.323806 0.214817 0.876444
Si Si4 0.174440 0.135944 0.617781
Si Si5 0.323187 0.567249 0.474647
Si Si6 0.826205 0.210163 0.326547
O O1 0.270976 0.497376 0.355799
O O2 0.227161 0.317997 0.281671
O O3 0.000000 0.446783 0.274024
O O4 0.227535 0.461040 0.105712
O O5 0.500000 0.927692 0.619624
O O6 0.734199 0.865601 0.483795
O O7 0.731721 0.872522 0.750284
O O8 0.737280 0.034552 0.607752
O O9 0.500000 0.201707 0.844976
O O10 0.231876 0.202064 0.740033
O O11 0.286415 0.321085 0.935610
O O12 0.203051 0.199915 0.484860
O O13 0.000000 0.110783 0.638685
O O14 0.500000 0.552052 0.503677
O O15 0.000000 0.193139 0.289463
#
# Coordination Sequence:
#
# PCOD8167733 Si02
#       6
#     4   4   4   4   4   4
#     4  11  24  43  67  96 128 166 211 261 317 378
#     4  11  22  40  64  90 123 163 210 257 309 368
#     4  10  23  42  63  91 125 163 208 255 310 371
#     4  11  24  39  60  92 127 164 209 255 307 369
#     4  11  24  44  67  96 128 165 211 261 317 378
#     4  10  23  42  63  91 125 163 207 255 310 370
#
# _framework density 20.074024999999999
#
# number of rings (size 3 to 8) (size 9 to 14) (size 15 to 20)
#    0.000    1.333    1.667    3.000    2.333    7.333 
#    0.000    0.000    0.000    0.000    0.000    0.000 
#    0.000    0.000    0.000    0.000    0.000    0.000 
#
# Total GULP energy -297776.480435 kJ/mol
# GULP energy per Si atom -12407.353351 kJ/mol
# Density = 2.002834 g / cm^3
# Si number density = 20.074025 Si / 1000 Ang^3
#
#
#
# Elastic Constant Matrix: (Units=GPa)
#
#
# Indices 1 2 3 4 5 6 
#
# 1 56.7259 22.6296 34.4857 0.0000 0.0000 0.0000
# 2 22.6296 67.6501 27.8293 0.0000 0.0000 0.0000
# 3 34.4857 27.8293 124.7365 0.0000 0.0000 0.0000
# 4 0.0000 0.0000 0.0000 34.9509 0.0000 0.0000
# 5 0.0000 0.0000 0.0000 0.0000 34.9369 0.0000
# 6 0.0000 0.0000 0.0000 0.0000 0.0000 32.1090
#
#
#
# Elastic Compliance Matrix: (Units=1/GPa)
#
#
# Indices 1 2 3 4 5 6 
#
# 1 0.022956 -0.005580 -0.005102 0.000000 0.000000 0.000000
# 2 -0.005580 0.017632 -0.002391 0.000000 0.000000 0.000000
# 3 -0.005102 -0.002391 0.009961 0.000000 0.000000 0.000000
# 4 0.000000 0.000000 0.000000 0.028612 0.000000 0.000000
# 5 0.000000 0.000000 0.000000 0.000000 0.028623 0.000000
# 6 0.000000 0.000000 0.000000 0.000000 0.000000 0.031144
#
#
# Mechanical properties :
#
#
# Convention : Reuss Voigt Hill
#
# Bulk Modulus (GPa) = 40.97838 46.55576 43.76707
# Shear Modulus (GPa) = 28.86693 31.34387 30.10540
#
# Velocity S-wave (km/s) = 3.79624 3.95576 3.87682
# Velocity P-wave (km/s) = 6.29867 6.64127 6.47224
#
# Compressibility (1/GPa) = 0.02440311
#
# Stress axis : x y z
#
# Youngs Moduli (GPa) = 43.56096 56.71425 100.39353
#
# Poissons Ratio (x) = 0.31649 0.51218
# Poissons Ratio (y) = 0.24309 0.24004
# Poissons Ratio (z) = 0.22223 0.13561
#
# Static dielectric constant tensor:
#      x y z
#    x 4.087040 0.000000 0.000000 
#    y 0.000000 3.746940 0.000000 
#    z 0.000000 0.000000 3.839020 
# 
# 
# High freq. dielectric constant tensor:
#      x y z
#    x 1.789260 0.000000 0.000000 
#    y 0.000000 1.791810 0.000000 
#    z 0.000000 0.000000 1.799540 
# 
# From -- ./inp_files/1451.got.cif
#   From: 2010.03.12/outbox.cif.g09.slc.cpg/sg26_1_cif.got.tgz:1451.got - 2010.04.14 03:33:09.
