data_PCOD8167014
_publ_section_title
;
Structure prediction by ZEFSAII (Michael W. Deem and Ramdas Pophale) SiO2 
 PCOD8167014
Probable space group: P M M 2
;
_chemical_formula_sum "Si O2"
_cell_formula_units_Z 32
_cell_length_a 9.595760
_cell_length_b 9.654664
_cell_length_c 20.642508
_cell_angle_alpha 90.000000
_cell_angle_beta 90.000000
_cell_angle_gamma 90.000000
_cell_volume 1912.401180
_symmetry_space_group_name_H-M "P M M 2"
_symmetry_group_IT_number 25
_symmetry_cell_setting 'orthorhombic'
loop_
_space_group_symop_operation_xyz
x,y,z
-x,-y,z
-x,y,z
x,-y,z
loop_
_atom_site_type_symbol
_atom_site_label
_atom_site_fract_x
_atom_site_fract_y
_atom_site_fract_z
Si Si1 0.838100 0.160383 0.310830
Si Si2 0.155805 0.664877 0.051236
Si Si3 0.338018 0.339565 0.556416
Si Si4 0.661381 0.839887 0.434305
Si Si5 0.155997 0.664441 0.674281
Si Si6 0.834339 0.346064 0.193694
Si Si7 0.342568 0.334553 0.934303
Si Si8 0.843241 0.664795 0.817594
O O1 0.751945 0.208550 0.373252
O O2 0.778712 0.243889 0.249211
O O3 0.000000 0.192854 0.323934
O O4 0.813054 0.000000 0.295668
O O5 0.149081 0.500000 0.048433
O O6 0.211385 0.709358 0.122580
O O7 0.000000 0.723879 0.038002
O O8 0.261819 0.723120 0.997405
O O9 0.500000 0.318421 0.570324
O O10 0.301301 0.500000 0.543394
O O11 0.288953 0.252062 0.494623
O O12 0.258945 0.278505 0.619171
O O13 0.500000 0.813159 0.417865
O O14 0.689264 0.000000 0.451326
O O15 0.160969 0.500000 0.674281
O O16 0.201576 0.717405 0.745824
O O17 0.000000 0.716431 0.658684
O O18 0.773679 0.500000 0.206615
O O19 0.000000 0.351880 0.194600
O O20 0.500000 0.277023 0.934863
O O21 0.342329 0.500000 0.934322
O O22 0.264536 0.276064 0.870484
O O23 0.841233 0.500000 0.819379
O O24 0.000000 0.716264 0.833799
#
# Coordination Sequence:
#
# PCOD8167014 Si02
#       8
#     4   4   4   4   4   4   4   4
#     4   9  17  29  45  64  83 102 129 168 206 235
#     4   8  13  22  35  48  66  97 132 160 189 231
#     4   9  17  28  42  60  81 105 134 168 202 235
#     4   9  18  32  46  59  80 110 137 160 194 243
#     4   8  14  24  37  54  77 104 133 165 201 240
#     4   8  14  25  41  60  81 106 135 164 197 241
#     4   9  15  20  28  46  72 100 130 164 198 229
#     4   8  13  21  32  46  68 101 136 162 187 229
#
# _framework density 16.732892
#
# number of rings (size 3 to 8) (size 9 to 14) (size 15 to 20)
#    0.000    3.500    0.000    1.875    0.000    3.000 
#    0.000    3.125    0.000    0.750    0.000    0.000 
#    0.000    1.000    0.000    4.250    0.000    5.625 
#
# Total GULP energy -396605.099684 kJ/mol
# GULP energy per Si atom -12393.909365 kJ/mol
# Density = 1.669481 g / cm^3
# Si number density = 16.732892 Si / 1000 Ang^3
#
#
#
# Elastic Constant Matrix: (Units=GPa)
#
#
# Indices 1 2 3 4 5 6 
#
# 1 86.1509 22.9708 87.0143 0.0000 0.0000 0.0000
# 2 22.9708 26.7716 44.0309 0.0000 0.0000 0.0000
# 3 87.0143 44.0309 188.0394 0.0000 0.0000 0.0000
# 4 0.0000 0.0000 0.0000 1.9137 0.0000 0.0000
# 5 0.0000 0.0000 0.0000 0.0000 18.7340 0.0000
# 6 0.0000 0.0000 0.0000 0.0000 0.0000 9.4043
#
#
#
# Elastic Compliance Matrix: (Units=1/GPa)
#
#
# Indices 1 2 3 4 5 6 
#
# 1 0.021990 -0.003467 -0.009364 0.000000 0.000000 0.000000
# 2 -0.003467 0.061295 -0.012748 0.000000 0.000000 0.000000
# 3 -0.009364 -0.012748 0.012636 0.000000 0.000000 0.000000
# 4 0.000000 0.000000 0.000000 0.522559 0.000000 0.000000
# 5 0.000000 0.000000 0.000000 0.000000 0.053379 0.000000
# 6 0.000000 0.000000 0.000000 0.000000 0.000000 0.106334
#
#
# Mechanical properties :
#
#
# Convention : Reuss Voigt Hill
#
# Bulk Modulus (GPa) = 22.34037 67.66601 45.00319
# Shear Modulus (GPa) = 5.92226 15.80678 10.86452
#
# Velocity S-wave (km/s) = 1.88334 3.07686 2.55088
# Velocity P-wave (km/s) = 4.25552 7.29037 5.96904
#
# Compressibility (1/GPa) = 0.04476202
#
# Stress axis : x y z
#
# Youngs Moduli (GPa) = 45.47617 16.31461 79.13844
#
# Poissons Ratio (x) = 0.05657 0.74102
# Poissons Ratio (y) = 0.15768 1.00887
# Poissons Ratio (z) = 0.42582 0.20798
#
# Static dielectric constant tensor:
#      x y z
#    x 3.145860 0.000000 0.000000 
#    y 0.000000 2.673690 0.000000 
#    z 0.000000 0.000000 3.548140 
# 
# 
# High freq. dielectric constant tensor:
#      x y z
#    x 1.631480 0.000000 0.000000 
#    y 0.000000 1.581350 0.000000 
#    z 0.000000 0.000000 1.660290 
# 
# From -- ./inp_files/6271.got.cif
#   From: 2010.03.12/outbox.cif.g09.slc.cpg/sg25_4_cif.got.tgz:6271.got - 2010.04.14 03:30:10.
