data_PCOD8167612
_publ_section_title
;
Structure prediction by ZEFSAII (Michael W. Deem and Ramdas Pophale) SiO2 
 PCOD8167612
Probable space group: P M C 21
;
_chemical_formula_sum "Si O2"
_cell_formula_units_Z 24
_cell_length_a 8.776198
_cell_length_b 12.039336
_cell_length_c 11.974862
_cell_angle_alpha 90.000000
_cell_angle_beta 90.000000
_cell_angle_gamma 90.000000
_cell_volume 1265.259087
_symmetry_space_group_name_H-M "P M C 21"
_symmetry_group_IT_number 26
_symmetry_cell_setting 'orthorhombic'
loop_
_space_group_symop_operation_xyz
x,y,z
-x,-y,1/2+z
-x,y,z
x,-y,1/2+z
loop_
_atom_site_type_symbol
_atom_site_label
_atom_site_fract_x
_atom_site_fract_y
_atom_site_fract_z
Si Si1 0.318672 0.659934 0.990740
Si Si2 0.179187 0.216509 0.070631
Si Si3 0.320377 0.165815 0.305930
Si Si4 0.320571 0.719890 0.231621
Si Si5 0.318986 0.413505 0.942679
Si Si6 0.321619 0.920298 0.379901
O O1 0.500000 0.659734 0.995975
O O2 0.263464 0.745632 0.897090
O O3 0.256996 0.537692 0.960557
O O4 0.247599 0.696633 0.110289
O O5 0.227634 0.187218 0.194857
O O6 0.000000 0.227742 0.062603
O O7 0.252611 0.334218 0.038127
O O8 0.233688 0.117366 0.990368
O O9 0.500000 0.175118 0.281701
O O10 0.276081 0.045186 0.352051
O O11 0.500000 0.710268 0.219429
O O12 0.263251 0.628273 0.320955
O O13 0.274632 0.842367 0.275092
O O14 0.500000 0.407841 0.952464
O O15 0.500000 0.907496 0.405705
#
# Coordination Sequence:
#
# PCOD8167612 Si02
#       6
#     4   4   4   4   4   4
#     4   9  18  30  54  87 112 136 178 235 288 332
#     4  11  23  38  56  79 115 155 187 225 277 340
#     4  10  21  35  59  89 113 142 186 236 282 329
#     4   8  15  29  50  80 110 135 171 225 283 328
#     4   9  18  34  57  81 108 143 185 234 281 332
#     4   9  19  36  60  84 110 143 185 237 281 327
#
# _framework density 18.968447000000001
#
# number of rings (size 3 to 8) (size 9 to 14) (size 15 to 20)
#    0.000    2.667    0.000    2.500    4.667    0.667 
#    0.000    0.833    0.000    1.000    0.000    0.000 
#    0.000    0.000    0.000    0.000    0.000    0.000 
#
# Total GULP energy -297586.225137 kJ/mol
# GULP energy per Si atom -12399.426047 kJ/mol
# Density = 1.892527 g / cm^3
# Si number density = 18.968447 Si / 1000 Ang^3
#
#
#
# Elastic Constant Matrix: (Units=GPa)
#
#
# Indices 1 2 3 4 5 6 
#
# 1 34.8596 28.8406 24.9730 0.0000 0.0000 0.0000
# 2 28.8406 176.0063 74.9167 0.0000 0.0000 0.0000
# 3 24.9730 74.9167 124.0272 0.0000 0.0000 0.0000
# 4 0.0000 0.0000 0.0000 20.9438 0.0000 0.0000
# 5 0.0000 0.0000 0.0000 0.0000 8.8990 0.0000
# 6 0.0000 0.0000 0.0000 0.0000 0.0000 5.9313
#
#
#
# Elastic Compliance Matrix: (Units=1/GPa)
#
#
# Indices 1 2 3 4 5 6 
#
# 1 0.035231 -0.003707 -0.004855 0.000000 0.000000 0.000000
# 2 -0.003707 0.008038 -0.004109 0.000000 0.000000 0.000000
# 3 -0.004855 -0.004109 0.011522 0.000000 0.000000 0.000000
# 4 0.000000 0.000000 0.000000 0.047747 0.000000 0.000000
# 5 0.000000 0.000000 0.000000 0.000000 0.112373 0.000000
# 6 0.000000 0.000000 0.000000 0.000000 0.000000 0.168596
#
#
# Mechanical properties :
#
#
# Convention : Reuss Voigt Hill
#
# Bulk Modulus (GPa) = 33.95530 65.81709 49.88619
# Shear Modulus (GPa) = 11.94274 20.89899 16.42087
#
# Velocity S-wave (km/s) = 2.51193 3.32290 2.94546
# Velocity P-wave (km/s) = 5.13350 7.03532 6.15827
#
# Compressibility (1/GPa) = 0.02945048
#
# Stress axis : x y z
#
# Youngs Moduli (GPa) = 28.38408 124.41066 86.78906
#
# Poissons Ratio (x) = 0.46113 0.42136
# Poissons Ratio (y) = 0.10521 0.35660
# Poissons Ratio (z) = 0.13780 0.51119
#
# Static dielectric constant tensor:
#      x y z
#    x 2.983330 0.000000 0.000000 
#    y 0.000000 3.836480 0.000000 
#    z 0.000000 0.000000 3.688990 
# 
# 
# High freq. dielectric constant tensor:
#      x y z
#    x 1.687720 0.000000 0.000000 
#    y 0.000000 1.748700 0.000000 
#    z 0.000000 0.000000 1.747500 
# 
# From -- ./inp_files/2796.got.cif
#   From: 2010.03.12/outbox.cif.g09.slc.cpg/sg26_2_cif.got.tgz:2796.got - 2010.04.14 03:33:09.
