data_PCOD8167327
_publ_section_title
;
Structure prediction by ZEFSAII (Michael W. Deem and Ramdas Pophale) SiO2 
 PCOD8167327
Probable space group: P M C 21
;
_chemical_formula_sum "Si O2"
_cell_formula_units_Z 32
_cell_length_a 8.975079
_cell_length_b 11.445221
_cell_length_c 16.597210
_cell_angle_alpha 90.000000
_cell_angle_beta 90.000000
_cell_angle_gamma 90.000000
_cell_volume 1704.894666
_symmetry_space_group_name_H-M "P M C 21"
_symmetry_group_IT_number 26
_symmetry_cell_setting 'orthorhombic'
loop_
_space_group_symop_operation_xyz
x,y,z
-x,-y,1/2+z
-x,y,z
x,-y,1/2+z
loop_
_atom_site_type_symbol
_atom_site_label
_atom_site_fract_x
_atom_site_fract_y
_atom_site_fract_z
Si Si1 0.823979 0.433064 0.705340
Si Si2 0.338830 0.895869 0.266725
Si Si3 0.665217 0.244299 0.607567
Si Si4 0.670721 0.142800 0.308457
Si Si5 0.322082 0.319104 0.180078
Si Si6 0.323627 0.202590 0.012865
Si Si7 0.321914 0.937623 0.979323
Si Si8 0.173391 0.714347 0.359342
O O1 0.774561 0.348951 0.632063
O O2 0.745606 0.553725 0.686869
O O3 0.774056 0.383706 0.793718
O O4 0.000000 0.446896 0.702196
O O5 0.500000 0.882316 0.313019
O O6 0.354075 0.841595 0.180849
O O7 0.209252 0.840160 0.320511
O O8 0.308216 0.031525 0.250477
O O9 0.500000 0.292794 0.583353
O O10 0.738146 0.163328 0.538815
O O11 0.500000 0.174682 0.324900
O O12 0.741663 0.250179 0.258793
O O13 0.743889 0.106579 0.393668
O O14 0.500000 0.326591 0.181459
O O15 0.269175 0.253139 0.098852
O O16 0.500000 0.206805 0.006691
O O17 0.258870 0.291088 0.944519
O O18 0.264137 0.068825 0.000785
O O19 0.500000 0.940456 0.981559
O O20 0.000000 0.702583 0.376669
#
# Coordination Sequence:
#
# PCOD8167327 Si02
#       8
#     4   4   4   4   4   4   4   4
#     4  10  22  40  56  72 105 148 187 224 269 321
#     4   9  15  28  52  79 106 137 170 210 268 320
#     4   9  17  30  54  82 106 135 175 221 261 312
#     4   9  16  29  52  81 112 139 167 213 271 323
#     4  10  21  36  56  82 109 142 186 229 268 322
#     4  10  19  34  57  85 112 138 175 224 277 328
#     4   9  16  29  53  86 116 136 165 214 273 327
#     4  10  20  34  54  79 106 141 183 223 263 317
#
# _framework density 18.769489
#
# number of rings (size 3 to 8) (size 9 to 14) (size 15 to 20)
#    0.000    2.500    1.250    1.500    0.000    5.000 
#    2.250    1.250    0.000    3.000    0.000    0.000 
#    0.000    0.000    0.000    0.000    0.000    0.000 
#
# Total GULP energy -396456.942757 kJ/mol
# GULP energy per Si atom -12389.279461 kJ/mol
# Density = 1.872677 g / cm^3
# Si number density = 18.769489 Si / 1000 Ang^3
#
#
#
# Elastic Constant Matrix: (Units=GPa)
#
#
# Indices 1 2 3 4 5 6 
#
# 1 26.7759 23.8189 31.7148 0.0000 0.0000 0.0000
# 2 23.8189 132.8728 79.1421 0.0000 0.0000 0.0000
# 3 31.7148 79.1421 116.1312 0.0000 0.0000 0.0000
# 4 0.0000 0.0000 0.0000 26.1973 0.0000 0.0000
# 5 0.0000 0.0000 0.0000 0.0000 18.4803 0.0000
# 6 0.0000 0.0000 0.0000 0.0000 0.0000 -9.8704
#
#
#
# Elastic Compliance Matrix: (Units=1/GPa)
#
#
# Indices 1 2 3 4 5 6 
#
# 1 0.055392 -0.001548 -0.014073 0.000000 0.000000 0.000000
# 2 -0.001548 0.012711 -0.008240 0.000000 0.000000 0.000000
# 3 -0.014073 -0.008240 0.018070 0.000000 0.000000 0.000000
# 4 0.000000 0.000000 0.000000 0.038172 0.000000 0.000000
# 5 0.000000 0.000000 0.000000 0.000000 0.054112 0.000000
# 6 0.000000 0.000000 0.000000 0.000000 0.000000 -0.101313
#
#
# Mechanical properties :
#
#
# Convention : Reuss Voigt Hill
#
# Bulk Modulus (GPa) = 26.00607 60.57017 43.28812
# Shear Modulus (GPa) = 36.31579 16.36839 26.34209
#
# Velocity S-wave (km/s) = 4.40344 2.95629 3.75033
# Velocity P-wave (km/s) = 6.30391 6.63276 6.47043
#
# Compressibility (1/GPa) = 0.03845256
#
# Stress axis : x y z
#
# Youngs Moduli (GPa) = 18.05312 78.66984 55.34179
#
# Poissons Ratio (x) = 0.12176 0.77880
# Poissons Ratio (y) = 0.02794 0.45602
# Poissons Ratio (z) = 0.25405 0.64824
#
# Static dielectric constant tensor:
#      x y z
#    x 3.111520 0.000000 0.000000 
#    y 0.000000 3.494260 0.000000 
#    z 0.000000 0.000000 3.786380 
# 
# 
# High freq. dielectric constant tensor:
#      x y z
#    x 1.686880 0.000000 0.000000 
#    y 0.000000 1.723570 0.000000 
#    z 0.000000 0.000000 1.736300 
# 
# From -- ./inp_files/4223.got.cif
#   From: 2010.03.12/outbox.cif.g09.slc.cpg/sg26_3_cif.got.tgz:4223.got - 2010.04.14 03:33:09.
