data_PCOD8167755
_publ_section_title
;
Structure prediction by ZEFSAII (Michael W. Deem and Ramdas Pophale) SiO2 
 PCOD8167755
Probable space group: P M C 21
;
_chemical_formula_sum "Si O2"
_cell_formula_units_Z 32
_cell_length_a 8.724765
_cell_length_b 14.239423
_cell_length_c 14.344645
_cell_angle_alpha 90.000000
_cell_angle_beta 90.000000
_cell_angle_gamma 90.000000
_cell_volume 1782.115857
_symmetry_space_group_name_H-M "P M C 21"
_symmetry_group_IT_number 26
_symmetry_cell_setting 'orthorhombic'
loop_
_space_group_symop_operation_xyz
x,y,z
-x,-y,1/2+z
-x,y,z
x,-y,1/2+z
loop_
_atom_site_type_symbol
_atom_site_label
_atom_site_fract_x
_atom_site_fract_y
_atom_site_fract_z
Si Si1 0.818498 0.499837 0.758420
Si Si2 0.816771 0.352969 0.111790
Si Si3 0.179976 0.345589 0.611772
Si Si4 0.181503 0.499857 0.465143
Si Si5 0.818312 0.992777 0.256396
Si Si6 0.181666 0.992777 0.967193
Si Si7 0.180866 0.855244 0.611812
Si Si8 0.679853 0.856518 0.111812
O O1 0.757616 0.591458 0.703178
O O2 0.774156 0.405054 0.703532
O O3 0.744858 0.499984 0.861781
O O4 0.000000 0.506474 0.764902
O O5 0.744559 0.248403 0.111801
O O6 0.000000 0.350000 0.111776
O O7 0.757613 0.408527 0.020394
O O8 0.225846 0.405072 0.520024
O O9 0.279156 0.252365 0.611753
O O10 0.000000 0.321056 0.611771
O O11 0.000000 0.506492 0.458658
O O12 0.747103 0.902890 0.205451
O O13 0.000000 0.979875 0.253364
O O14 0.757006 0.000004 0.361796
O O15 0.766573 0.087789 0.203512
O O16 0.000000 0.979736 0.970201
O O17 0.253038 0.902968 0.018178
O O18 0.233171 0.087865 0.020015
O O19 0.000000 0.844336 0.611944
O O20 0.500000 0.870435 0.111871
#
# Coordination Sequence:
#
# PCOD8167755 Si02
#       8
#     4   4   4   4   4   4   4   4
#     4   8  14  24  40  65  94 119 146 188 238 280
#     4   8  13  21  34  57  88 115 139 174 225 281
#     4   9  17  30  48  70  96 125 161 201 238 287
#     4   8  14  24  40  65  94 119 146 188 238 280
#     4   9  18  33  52  73  96 124 161 204 248 292
#     4   9  18  33  52  73  96 124 161 204 248 292
#     4   8  14  25  42  67  96 119 143 184 240 293
#     4  11  22  34  49  70 100 135 167 203 247 297
#
# _framework density 17.956184
#
# number of rings (size 3 to 8) (size 9 to 14) (size 15 to 20)
#    0.000    3.250    0.000    3.375    0.000    2.500 
#    0.000    7.500    0.000    0.750    0.000   14.000 
#    0.000    0.000    0.000    0.000    0.000    0.000 
#
# Total GULP energy -396631.771313 kJ/mol
# GULP energy per Si atom -12394.742854 kJ/mol
# Density = 1.791532 g / cm^3
# Si number density = 17.956184 Si / 1000 Ang^3
#
#
#
# Elastic Constant Matrix: (Units=GPa)
#
#
# Indices 1 2 3 4 5 6 
#
# 1 25.0338 17.5049 20.8925 0.0000 0.0000 0.0000
# 2 17.5049 156.7852 85.3580 0.0000 0.0000 0.0000
# 3 20.8925 85.3580 193.3738 0.0000 0.0000 0.0000
# 4 0.0000 0.0000 0.0000 13.9008 0.0000 0.0000
# 5 0.0000 0.0000 0.0000 0.0000 5.8391 0.0000
# 6 0.0000 0.0000 0.0000 0.0000 0.0000 4.4547
#
#
#
# Elastic Compliance Matrix: (Units=1/GPa)
#
#
# Indices 1 2 3 4 5 6 
#
# 1 0.045044 -0.003132 -0.003484 0.000000 0.000000 0.000000
# 2 -0.003132 0.008614 -0.003464 0.000000 0.000000 0.000000
# 3 -0.003484 -0.003464 0.007077 0.000000 0.000000 0.000000
# 4 0.000000 0.000000 0.000000 0.071939 0.000000 0.000000
# 5 0.000000 0.000000 0.000000 0.000000 0.171261 0.000000
# 6 0.000000 0.000000 0.000000 0.000000 0.000000 0.224482
#
#
# Mechanical properties :
#
#
# Convention : Reuss Voigt Hill
#
# Bulk Modulus (GPa) = 24.64628 69.18927 46.91778
# Shear Modulus (GPa) = 8.89521 21.60140 15.24830
#
# Velocity S-wave (km/s) = 2.22814 3.47220 2.91726
# Velocity P-wave (km/s) = 4.51387 7.39533 6.12641
#
# Compressibility (1/GPa) = 0.04057407
#
# Stress axis : x y z
#
# Youngs Moduli (GPa) = 22.20059 116.09498 141.30881
#
# Poissons Ratio (x) = 0.36365 0.49232
# Poissons Ratio (y) = 0.06954 0.48946
# Poissons Ratio (z) = 0.07735 0.40213
#
# Static dielectric constant tensor:
#      x y z
#    x 2.713470 0.000000 0.000000 
#    y 0.000000 3.501450 0.000000 
#    z 0.000000 0.000000 3.871020 
# 
# 
# High freq. dielectric constant tensor:
#      x y z
#    x 1.635210 0.000000 0.000000 
#    y 0.000000 1.700530 0.000000 
#    z 0.000000 0.000000 1.703000 
# 
# From -- ./inp_files/4343.got.cif
#   From: 2010.03.12/outbox.cif.g09.slc.cpg/sg26_3_cif.got.tgz:4343.got - 2010.04.14 03:33:09.
