data_PCOD8167070
_publ_section_title
;
Structure prediction by ZEFSAII (Michael W. Deem and Ramdas Pophale) SiO2 
 PCOD8167070
Probable space group: P M C 21
;
_chemical_formula_sum "Si O2"
_cell_formula_units_Z 24
_cell_length_a 7.767735
_cell_length_b 9.359791
_cell_length_c 17.281041
_cell_angle_alpha 90.000000
_cell_angle_beta 90.000000
_cell_angle_gamma 90.000000
_cell_volume 1256.407305
_symmetry_space_group_name_H-M "P M C 21"
_symmetry_group_IT_number 26
_symmetry_cell_setting 'orthorhombic'
loop_
_space_group_symop_operation_xyz
x,y,z
-x,-y,1/2+z
-x,y,z
x,-y,1/2+z
loop_
_atom_site_type_symbol
_atom_site_label
_atom_site_fract_x
_atom_site_fract_y
_atom_site_fract_z
Si Si1 0.309584 0.289105 0.613160
Si Si2 0.500000 0.482303 0.386084
Si Si3 0.500000 0.807534 0.653683
Si Si4 0.194308 0.704872 0.945197
Si Si5 0.500000 0.776988 0.469637
Si Si6 0.190686 0.971233 0.460826
Si Si7 0.187975 0.004317 0.144140
Si Si8 0.500000 0.494713 0.710431
O O1 0.500000 0.235554 0.585748
O O2 0.203715 0.330522 0.536832
O O3 0.221823 0.162478 0.662597
O O4 0.329734 0.426619 0.669558
O O5 0.671325 0.389257 0.397707
O O6 0.500000 0.612397 0.446146
O O7 0.500000 0.545787 0.300224
O O8 0.500000 0.779347 0.562326
O O9 0.500000 0.663255 0.701612
O O10 0.668280 0.894415 0.681590
O O11 0.235282 0.871473 0.928363
O O12 0.000000 0.667500 0.918415
O O13 0.332169 0.855964 0.433968
O O14 0.193441 0.980310 0.552585
O O15 0.000000 0.923132 0.432381
O O16 0.000000 0.047528 0.177152
#
# Coordination Sequence:
#
# PCOD8167070 Si02
#       8
#     4   2   2   4   2   4   4   2
#     4   9  16  34  57  82 102 137 184 219 269 319
#     4  12  23  38  50  76 116 152 185 216 268 320
#     4  10  17  34  53  78 107 134 175 222 270 320
#     4  10  19  35  61  83 103 137 184 230 271 322
#     4  10  19  30  57  78 103 136 171 220 270 318
#     4   8  16  30  52  83 105 124 166 224 276 315
#     4   9  16  29  55  84 106 129 168 228 277 316
#     4  10  23  36  54  72 114 158 181 218 264 322
#
# _framework density 19.102086
#
# number of rings (size 3 to 8) (size 9 to 14) (size 15 to 20)
#    0.500    2.000    1.667    3.000    2.333    0.667 
#    0.000   10.833    0.000    2.000    0.000    0.000 
#    0.000    0.000    0.000    0.000    0.000    0.000 
#
# Total GULP energy -297476.020309 kJ/mol
# GULP energy per Si atom -12394.834180 kJ/mol
# Density = 1.905861 g / cm^3
# Si number density = 19.102086 Si / 1000 Ang^3
#
#
#
# Elastic Constant Matrix: (Units=GPa)
#
#
# Indices 1 2 3 4 5 6 
#
# 1 142.2010 49.7015 4.0462 0.0000 0.0000 0.0000
# 2 49.7015 85.2430 4.7397 0.0000 0.0000 0.0000
# 3 4.0462 4.7397 30.8640 0.0000 0.0000 0.0000
# 4 0.0000 0.0000 0.0000 8.7109 0.0000 0.0000
# 5 0.0000 0.0000 0.0000 0.0000 7.9634 0.0000
# 6 0.0000 0.0000 0.0000 0.0000 0.0000 16.1433
#
#
#
# Elastic Compliance Matrix: (Units=1/GPa)
#
#
# Indices 1 2 3 4 5 6 
#
# 1 0.008836 -0.005132 -0.000370 0.000000 0.000000 0.000000
# 2 -0.005132 0.014812 -0.001602 0.000000 0.000000 0.000000
# 3 -0.000370 -0.001602 0.032695 0.000000 0.000000 0.000000
# 4 0.000000 0.000000 0.000000 0.114799 0.000000 0.000000
# 5 0.000000 0.000000 0.000000 0.000000 0.125574 0.000000
# 6 0.000000 0.000000 0.000000 0.000000 0.000000 0.061945
#
#
# Mechanical properties :
#
#
# Convention : Reuss Voigt Hill
#
# Bulk Modulus (GPa) = 23.73288 41.69810 32.71549
# Shear Modulus (GPa) = 12.92275 19.88489 16.40382
#
# Velocity S-wave (km/s) = 2.60380 3.22992 2.93361
# Velocity P-wave (km/s) = 4.63583 5.98217 5.35151
#
# Compressibility (1/GPa) = 0.04213564
#
# Stress axis : x y z
#
# Youngs Moduli (GPa) = 113.16840 67.51186 30.58594
#
# Poissons Ratio (x) = 0.34644 0.01133
# Poissons Ratio (y) = 0.58073 0.04900
# Poissons Ratio (z) = 0.04192 0.10815
#
# Static dielectric constant tensor:
#      x y z
#    x 3.807520 0.000000 0.000000 
#    y 0.000000 3.440240 0.000000 
#    z 0.000000 0.000000 2.898280 
# 
# 
# High freq. dielectric constant tensor:
#      x y z
#    x 1.751010 0.000000 0.000000 
#    y 0.000000 1.738960 0.000000 
#    z 0.000000 0.000000 1.687380 
# 
# From -- ./inp_files/5295.got.cif
#   From: 2010.03.12/outbox.cif.g09.slc.cpg/sg26_3_cif.got.tgz:5295.got - 2010.04.14 03:33:09.
