data_PCOD8167896
_publ_section_title
;
Structure prediction by ZEFSAII (Michael W. Deem and Ramdas Pophale) SiO2 
 PCOD8167896
Probable space group: P C C 2
;
_chemical_formula_sum "Si O2"
_cell_formula_units_Z 32
_cell_length_a 12.520073
_cell_length_b 9.105228
_cell_length_c 13.115612
_cell_angle_alpha 90.000000
_cell_angle_beta 90.000000
_cell_angle_gamma 90.000000
_cell_volume 1495.155101
_symmetry_space_group_name_H-M "P C C 2"
_symmetry_group_IT_number 27
_symmetry_cell_setting 'orthorhombic'
loop_
_space_group_symop_operation_xyz
x,y,z
-x,-y,z
-x,y,1/2+z
x,-y,1/2+z
loop_
_atom_site_type_symbol
_atom_site_label
_atom_site_fract_x
_atom_site_fract_y
_atom_site_fract_z
Si Si1 0.569026 0.361064 0.868060
Si Si2 0.250189 0.523808 0.470790
Si Si3 0.919463 0.875389 0.736888
Si Si4 0.748537 0.998256 0.377341
Si Si5 0.958751 0.660636 0.895727
Si Si6 0.148551 0.763764 0.026217
Si Si7 0.588935 0.114737 0.721978
Si Si8 0.397404 0.218471 0.000421
O O1 0.500000 0.500000 0.845883
O O2 0.689056 0.417830 0.889873
O O3 0.561309 0.275587 0.762307
O O4 0.515914 0.258615 0.957448
O O5 0.165779 0.641421 0.425464
O O6 0.193930 0.402134 0.542323
O O7 0.337069 0.627468 0.526142
O O8 0.854997 0.924528 0.837849
O O9 0.978210 0.733981 0.784590
O O10 0.850812 0.833708 0.638414
O O11 0.000000 0.000000 0.700135
O O12 0.667147 0.118530 0.420978
O O13 0.776595 0.868999 0.457346
O O14 0.699913 0.928422 0.274914
O O15 0.000000 0.500000 0.879837
O O16 0.028401 0.749720 0.980266
O O17 0.595116 0.120277 0.600676
O O18 0.500000 0.000000 0.756444
#
# Coordination Sequence:
#
# PCOD8167896 Si02
#       8
#     4   4   4   4   4   4   4   4
#     4  10  23  44  67  97 136 176 223 282 334 405
#     4  10  22  46  70  94 140 176 220 292 338 398
#     4  12  26  42  70 100 134 182 221 276 349 409
#     4  12  24  46  66 102 138 178 226 286 334 414
#     4  10  23  44  67  97 136 176 223 282 334 405
#     4  11  25  43  69  99 137 177 231 278 341 408
#     4  12  26  42  70 100 134 182 221 276 349 409
#     4  11  25  43  69  99 137 177 231 278 341 408
#
# _framework density 21.402460000000001
#
# number of rings (size 3 to 8) (size 9 to 14) (size 15 to 20)
#    0.000    1.000    5.000    0.750    3.500    6.000 
#    0.000    0.000    0.000    0.000    0.000    0.000 
#    0.000    0.000    0.000    0.000    0.000    0.000 
#
# Total GULP energy -396606.506829 kJ/mol
# GULP energy per Si atom -12393.953338 kJ/mol
# Density = 2.135375 g / cm^3
# Si number density = 21.402460 Si / 1000 Ang^3
#
#
#
# Elastic Constant Matrix: (Units=GPa)
#
#
# Indices 1 2 3 4 5 6 
#
# 1 78.6713 16.0472 7.6665 0.0000 0.0000 0.0000
# 2 16.0472 91.5275 22.4478 0.0000 0.0000 0.0000
# 3 7.6665 22.4478 76.4996 0.0000 0.0000 0.0000
# 4 0.0000 0.0000 0.0000 26.7145 0.0000 0.0000
# 5 0.0000 0.0000 0.0000 0.0000 23.2162 0.0000
# 6 0.0000 0.0000 0.0000 0.0000 0.0000 37.9524
#
#
#
# Elastic Compliance Matrix: (Units=1/GPa)
#
#
# Indices 1 2 3 4 5 6 
#
# 1 0.013217 -0.002147 -0.000695 0.000000 0.000000 0.000000
# 2 -0.002147 0.012122 -0.003342 0.000000 0.000000 0.000000
# 3 -0.000695 -0.003342 0.014122 0.000000 0.000000 0.000000
# 4 0.000000 0.000000 0.000000 0.037433 0.000000 0.000000
# 5 0.000000 0.000000 0.000000 0.000000 0.043073 0.000000
# 6 0.000000 0.000000 0.000000 0.000000 0.000000 0.026349
#
#
# Mechanical properties :
#
#
# Convention : Reuss Voigt Hill
#
# Bulk Modulus (GPa) = 36.90840 37.66903 37.28872
# Shear Modulus (GPa) = 29.81276 30.94576 30.37926
#
# Velocity S-wave (km/s) = 3.73629 3.80662 3.77162
# Velocity P-wave (km/s) = 5.99128 6.07939 6.03550
#
# Compressibility (1/GPa) = 0.02709410
#
# Stress axis : x y z
#
# Youngs Moduli (GPa) = 75.66178 82.49678 70.81063
#
# Poissons Ratio (x) = 0.17711 0.04918
# Poissons Ratio (y) = 0.16244 0.23663
# Poissons Ratio (z) = 0.05255 0.27569
#
# Static dielectric constant tensor:
#      x y z
#    x 4.658970 0.000000 0.000000 
#    y 0.000000 4.217060 0.000000 
#    z 0.000000 0.000000 3.499810 
# 
# 
# High freq. dielectric constant tensor:
#      x y z
#    x 1.845420 0.000000 0.000000 
#    y 0.000000 1.868820 0.000000 
#    z 0.000000 0.000000 1.812870 
# 
# From -- ./inp_files/2780.got.cif
#   From: 2010.03.12/outbox.cif.g09.slc.cpg/sg27_2_cif.got.tgz:2780.got - 2010.04.14 03:36:05.
