data_PCOD8167495
_publ_section_title
;
Structure prediction by ZEFSAII (Michael W. Deem and Ramdas Pophale) SiO2 
 PCOD8167495
Probable space group: P M C 21
;
_chemical_formula_sum "Si O2"
_cell_formula_units_Z 32
_cell_length_a 9.037333
_cell_length_b 11.356433
_cell_length_c 16.380186
_cell_angle_alpha 90.000000
_cell_angle_beta 90.000000
_cell_angle_gamma 90.000000
_cell_volume 1681.129066
_symmetry_space_group_name_H-M "P M C 21"
_symmetry_group_IT_number 26
_symmetry_cell_setting 'orthorhombic'
loop_
_space_group_symop_operation_xyz
x,y,z
-x,-y,1/2+z
-x,y,z
x,-y,1/2+z
loop_
_atom_site_type_symbol
_atom_site_label
_atom_site_fract_x
_atom_site_fract_y
_atom_site_fract_z
Si Si1 0.326865 0.923042 0.733400
Si Si2 0.675722 0.576416 0.504357
Si Si3 0.837958 0.404472 0.281958
Si Si4 0.327107 0.196606 0.719876
Si Si5 0.326617 0.227897 0.382972
Si Si6 0.170185 0.260588 0.125851
Si Si7 0.323939 0.685270 0.052736
Si Si8 0.167236 0.352148 0.842480
O O1 0.500000 0.893579 0.725208
O O2 0.268746 0.878230 0.823477
O O3 0.240252 0.859000 0.660579
O O4 0.293405 0.058800 0.719351
O O5 0.500000 0.583056 0.503376
O O6 0.738681 0.691346 0.549642
O O7 0.729583 0.450559 0.541738
O O8 0.738586 0.591629 0.414547
O O9 0.714811 0.352041 0.341991
O O10 0.810682 0.363450 0.190871
O O11 0.831948 0.544798 0.275318
O O12 0.000000 0.361949 0.313486
O O13 0.500000 0.223435 0.729729
O O14 0.264387 0.257395 0.637024
O O15 0.244106 0.241134 0.800570
O O16 0.500000 0.218476 0.388731
O O17 0.265352 0.232980 0.476466
O O18 0.000000 0.236843 0.101660
O O19 0.500000 0.687534 0.053506
O O20 0.000000 0.319213 0.870023
#
# Coordination Sequence:
#
# PCOD8167495 Si02
#       8
#     4   4   4   4   4   4   4   4
#     4   9  19  36  57  81 110 148 195 235 272 325
#     4  11  21  35  56  84 111 143 184 229 284 340
#     4   9  18  32  52  79 109 142 176 218 279 337
#     4  10  21  38  56  81 114 151 193 235 280 331
#     4   9  16  31  55  80 106 141 186 232 274 320
#     4  10  20  35  56  81 111 145 181 228 280 333
#     4   9  18  33  56  83 111 142 184 237 285 330
#     4  11  22  36  54  79 114 148 179 226 284 340
#
# _framework density 19.034827
#
# number of rings (size 3 to 8) (size 9 to 14) (size 15 to 20)
#    0.000    2.250    1.250    1.875    0.000    1.500 
#    2.250    1.250    0.000    0.000    0.000    0.000 
#    0.000    0.000    0.000    0.000    0.000    0.000 
#
# Total GULP energy -396562.434619 kJ/mol
# GULP energy per Si atom -12392.576082 kJ/mol
# Density = 1.899150 g / cm^3
# Si number density = 19.034827 Si / 1000 Ang^3
#
#
#
# Elastic Constant Matrix: (Units=GPa)
#
#
# Indices 1 2 3 4 5 6 
#
# 1 55.7535 45.4908 31.3565 0.0000 0.0000 0.0000
# 2 45.4908 107.3597 52.9668 0.0000 0.0000 0.0000
# 3 31.3565 52.9668 79.2596 0.0000 0.0000 0.0000
# 4 0.0000 0.0000 0.0000 24.9721 0.0000 0.0000
# 5 0.0000 0.0000 0.0000 0.0000 21.2404 0.0000
# 6 0.0000 0.0000 0.0000 0.0000 0.0000 20.4295
#
#
#
# Elastic Compliance Matrix: (Units=1/GPa)
#
#
# Indices 1 2 3 4 5 6 
#
# 1 0.028586 -0.009746 -0.004796 0.000000 0.000000 0.000000
# 2 -0.009746 0.017219 -0.007651 0.000000 0.000000 0.000000
# 3 -0.004796 -0.007651 0.019627 0.000000 0.000000 0.000000
# 4 0.000000 0.000000 0.000000 0.040045 0.000000 0.000000
# 5 0.000000 0.000000 0.000000 0.000000 0.047080 0.000000
# 6 0.000000 0.000000 0.000000 0.000000 0.000000 0.048949
#
#
# Mechanical properties :
#
#
# Convention : Reuss Voigt Hill
#
# Bulk Modulus (GPa) = 47.51677 55.77788 51.64732
# Shear Modulus (GPa) = 19.77012 20.83230 20.30121
#
# Velocity S-wave (km/s) = 3.22627 3.31181 3.26932
# Velocity P-wave (km/s) = 6.23664 6.63255 6.43764
#
# Compressibility (1/GPa) = 0.02104520
#
# Stress axis : x y z
#
# Youngs Moduli (GPa) = 34.98260 58.07546 50.95013
#
# Poissons Ratio (x) = 0.56603 0.24435
# Poissons Ratio (y) = 0.34095 0.38982
# Poissons Ratio (z) = 0.16777 0.44434
#
# Static dielectric constant tensor:
#      x y z
#    x 3.400120 0.000000 0.000000 
#    y 0.000000 3.391720 0.000000 
#    z 0.000000 0.000000 3.660430 
# 
# 
# High freq. dielectric constant tensor:
#      x y z
#    x 1.726400 0.000000 0.000000 
#    y 0.000000 1.729060 0.000000 
#    z 0.000000 0.000000 1.741300 
# 
# From -- ./inp_files/4222.got.cif
#   From: 2010.03.12/outbox.cif.g09.slc.cpg/sg26_3_cif.got.tgz:4222.got - 2010.04.14 03:33:09.
