data_PCOD8167011
_publ_section_title
;
Structure prediction by ZEFSAII (Michael W. Deem and Ramdas Pophale) SiO2 
 PCOD8167011
Probable space group: P M M 2
;
_chemical_formula_sum "Si O2"
_cell_formula_units_Z 24
_cell_length_a 9.334789
_cell_length_b 9.990317
_cell_length_c 15.492021
_cell_angle_alpha 90.000000
_cell_angle_beta 90.000000
_cell_angle_gamma 90.000000
_cell_volume 1444.747168
_symmetry_space_group_name_H-M "P M M 2"
_symmetry_group_IT_number 25
_symmetry_cell_setting 'orthorhombic'
loop_
_space_group_symop_operation_xyz
x,y,z
-x,-y,z
-x,y,z
x,-y,z
loop_
_atom_site_type_symbol
_atom_site_label
_atom_site_fract_x
_atom_site_fract_y
_atom_site_fract_z
Si Si1 0.329075 0.649286 0.988810
Si Si2 0.668217 0.345421 0.506407
Si Si3 0.670131 0.149670 0.654483
Si Si4 0.340397 0.340711 0.179154
Si Si5 0.160796 0.340833 0.338591
Si Si6 0.670446 0.149888 0.846540
O O1 0.500000 0.646859 0.985547
O O2 0.269559 0.500000 0.970680
O O3 0.263504 0.747949 0.916524
O O4 0.282008 0.700098 0.084149
O O5 0.500000 0.323900 0.490555
O O6 0.702671 0.500000 0.527080
O O7 0.728089 0.257550 0.585973
O O8 0.749806 0.293972 0.421627
O O9 0.500000 0.151691 0.654235
O O10 0.724759 0.189056 0.750454
O O11 0.724111 0.000000 0.630348
O O12 0.500000 0.282339 0.194737
O O13 0.347681 0.500000 0.184531
O O14 0.235394 0.282079 0.252421
O O15 0.158875 0.500000 0.334111
O O16 0.000000 0.283298 0.344445
O O17 0.500000 0.156866 0.849296
O O18 0.721988 0.000000 0.869561
#
# Coordination Sequence:
#
# PCOD8167011 Si02
#       6
#     4   4   4   4   4   4
#     4   8  13  20  32  52  76 101 128 157 189 224
#     4   9  16  25  39  60  82 103 130 164 198 230
#     4   8  14  24  37  54  78 107 134 159 192 234
#     4   8  13  22  36  54  77 104 132 161 193 230
#     4   9  16  25  38  57  80 105 132 162 197 236
#     4   8  13  21  33  51  77 105 128 153 189 230
#
# _framework density 16.611903000000002
#
# number of rings (size 3 to 8) (size 9 to 14) (size 15 to 20)
#    0.000    3.667    0.000    2.500    0.000    2.667 
#    0.000    3.333    0.000    1.500    0.000    5.833 
#    0.000    6.667    0.000    0.000    0.000    0.000 
#
# Total GULP energy -297399.764021 kJ/mol
# GULP energy per Si atom -12391.656834 kJ/mol
# Density = 1.657409 g / cm^3
# Si number density = 16.611903 Si / 1000 Ang^3
#
#
#
# Elastic Constant Matrix: (Units=GPa)
#
#
# Indices 1 2 3 4 5 6 
#
# 1 41.1162 20.6976 42.8790 0.0000 0.0000 0.0000
# 2 20.6976 66.6667 77.7980 0.0000 0.0000 0.0000
# 3 42.8790 77.7980 178.8312 0.0000 0.0000 0.0000
# 4 0.0000 0.0000 0.0000 9.4597 0.0000 0.0000
# 5 0.0000 0.0000 0.0000 0.0000 2.4114 0.0000
# 6 0.0000 0.0000 0.0000 0.0000 0.0000 4.8172
#
#
#
# Elastic Compliance Matrix: (Units=1/GPa)
#
#
# Indices 1 2 3 4 5 6 
#
# 1 0.032565 -0.002028 -0.006926 0.000000 0.000000 0.000000
# 2 -0.002028 0.030594 -0.012823 0.000000 0.000000 0.000000
# 3 -0.006926 -0.012823 0.012831 0.000000 0.000000 0.000000
# 4 0.000000 0.000000 0.000000 0.105711 0.000000 0.000000
# 5 0.000000 0.000000 0.000000 0.000000 0.414704 0.000000
# 6 0.000000 0.000000 0.000000 0.000000 0.000000 0.207589
#
#
# Mechanical properties :
#
#
# Convention : Reuss Voigt Hill
#
# Bulk Modulus (GPa) = 30.83003 63.26259 47.04631
# Shear Modulus (GPa) = 5.82506 13.02029 9.42268
#
# Velocity S-wave (km/s) = 1.87461 2.80267 2.38423
# Velocity P-wave (km/s) = 4.82544 6.97414 5.99681
#
# Compressibility (1/GPa) = 0.03243591
#
# Stress axis : x y z
#
# Youngs Moduli (GPa) = 30.70775 32.68629 77.93549
#
# Poissons Ratio (x) = 0.06628 0.53979
# Poissons Ratio (y) = 0.06227 0.99938
# Poissons Ratio (z) = 0.21268 0.41914
#
# Static dielectric constant tensor:
#      x y z
#    x 2.733230 0.000000 0.000000 
#    y 0.000000 2.994060 0.000000 
#    z 0.000000 0.000000 3.548030 
# 
# 
# High freq. dielectric constant tensor:
#      x y z
#    x 1.583570 0.000000 0.000000 
#    y 0.000000 1.601840 0.000000 
#    z 0.000000 0.000000 1.656070 
# 
# From -- ./inp_files/3920.got.cif
#   From: 2010.03.12/outbox.cif.g09.slc.cpg/sg25_2_cif.got.tgz:3920.got - 2010.04.14 03:30:10.
