data_PCOD8167646
_publ_section_title
;
Structure prediction by ZEFSAII (Michael W. Deem and Ramdas Pophale) SiO2 
 PCOD8167646
Probable space group: P M C 21
;
_chemical_formula_sum "Si O2"
_cell_formula_units_Z 26
_cell_length_a 7.222331
_cell_length_b 18.528477
_cell_length_c 9.254924
_cell_angle_alpha 90.000000
_cell_angle_beta 90.000000
_cell_angle_gamma 90.000000
_cell_volume 1238.482767
_symmetry_space_group_name_H-M "P M C 21"
_symmetry_group_IT_number 26
_symmetry_cell_setting 'orthorhombic'
loop_
_space_group_symop_operation_xyz
x,y,z
-x,-y,1/2+z
-x,y,z
x,-y,1/2+z
loop_
_atom_site_type_symbol
_atom_site_label
_atom_site_fract_x
_atom_site_fract_y
_atom_site_fract_z
Si Si1 0.500000 0.910988 0.120660
Si Si2 0.779080 0.429382 0.777760
Si Si3 0.218822 0.708544 0.781142
Si Si4 0.500000 0.173714 0.334987
Si Si5 0.780430 0.864213 0.347465
Si Si6 0.216952 0.705815 0.454366
Si Si7 0.500000 0.075004 0.061245
Si Si8 0.219063 0.433032 0.452026
O O1 0.687423 0.880830 0.193743
O O2 0.500000 0.996991 0.133020
O O3 0.500000 0.887559 0.955474
O O4 0.700876 0.432444 0.614601
O O5 0.000000 0.428910 0.774926
O O6 0.699188 0.357652 0.855071
O O7 0.702475 0.498085 0.865860
O O8 0.316424 0.777719 0.851667
O O9 0.292611 0.699459 0.617356
O O10 0.000000 0.721664 0.789116
O O11 0.283202 0.638667 0.869677
O O12 0.500000 0.135489 0.181904
O O13 0.729497 0.782019 0.385429
O O14 0.686152 0.916052 0.466049
O O15 0.000000 0.878592 0.342608
O O16 0.000000 0.695462 0.461395
O O17 0.000000 0.437429 0.456334
#
# Coordination Sequence:
#
# PCOD8167646 Si02
#       8
#     2   4   4   2   4   4   2   4
#     4  11  27  43  65  98 136 165 204 260 319 387
#     4   9  16  27  50  83 120 160 206 258 311 365
#     4  10  21  37  59  88 123 163 212 260 309 372
#     4  12  24  40  66  94 128 164 204 261 322 379
#     4  10  22  43  69  96 129 169 215 259 313 378
#     4   9  17  32  57  87 117 159 212 258 304 367
#     4  11  23  47  69  94 128 167 212 257 315 384
#     4   9  17  29  49  82 121 161 206 257 310 367
#
# _framework density 20.993428999999999
#
# number of rings (size 3 to 8) (size 9 to 14) (size 15 to 20)
#    0.000    2.154    1.538    1.846    2.154    4.923 
#    0.000    1.538    0.000    5.538    0.000    0.000 
#    0.000    0.000    0.000    0.000    0.000    0.000 
#
# Total GULP energy -322401.812938 kJ/mol
# GULP energy per Si atom -12400.069728 kJ/mol
# Density = 2.094565 g / cm^3
# Si number density = 20.993429 Si / 1000 Ang^3
#
#
#
# Elastic Constant Matrix: (Units=GPa)
#
#
# Indices 1 2 3 4 5 6 
#
# 1 97.6672 29.4147 28.3238 0.0000 0.0000 0.0000
# 2 29.4147 132.6064 47.2053 0.0000 0.0000 0.0000
# 3 28.3238 47.2053 116.6217 0.0000 0.0000 0.0000
# 4 0.0000 0.0000 0.0000 46.4263 0.0000 0.0000
# 5 0.0000 0.0000 0.0000 0.0000 13.4012 0.0000
# 6 0.0000 0.0000 0.0000 0.0000 0.0000 2.9169
#
#
#
# Elastic Compliance Matrix: (Units=1/GPa)
#
#
# Indices 1 2 3 4 5 6 
#
# 1 0.011370 -0.001798 -0.002034 0.000000 0.000000 0.000000
# 2 -0.001798 0.009095 -0.003245 0.000000 0.000000 0.000000
# 3 -0.002034 -0.003245 0.010382 0.000000 0.000000 0.000000
# 4 0.000000 0.000000 0.000000 0.021540 0.000000 0.000000
# 5 0.000000 0.000000 0.000000 0.000000 0.074620 0.000000
# 6 0.000000 0.000000 0.000000 0.000000 0.000000 0.342835
#
#
# Mechanical properties :
#
#
# Convention : Reuss Voigt Hill
#
# Bulk Modulus (GPa) = 59.90104 61.86479 60.88291
# Shear Modulus (GPa) = 10.21327 28.67897 19.44612
#
# Velocity S-wave (km/s) = 2.20806 3.70008 3.04681
# Velocity P-wave (km/s) = 5.92418 6.91279 6.43749
#
# Compressibility (1/GPa) = 0.01669420
#
# Stress axis : x y z
#
# Youngs Moduli (GPa) = 87.94946 109.95006 96.32053
#
# Poissons Ratio (x) = 0.19771 0.19588
# Poissons Ratio (y) = 0.15815 0.31253
# Poissons Ratio (z) = 0.17885 0.35675
#
# Static dielectric constant tensor:
#      x y z
#    x 3.507280 0.000000 0.000000 
#    y 0.000000 3.826050 0.000000 
#    z 0.000000 0.000000 3.953590 
# 
# 
# High freq. dielectric constant tensor:
#      x y z
#    x 1.813460 0.000000 0.000000 
#    y 0.000000 1.824860 0.000000 
#    z 0.000000 0.000000 1.830030 
# 
# From -- ./inp_files/1563.got.cif
#   From: 2010.03.12/outbox.cif.g09.slc.cpg/sg26_1_cif.got.tgz:1563.got - 2010.04.14 03:33:09.
