data_PCOD8167566
_publ_section_title
;
Structure prediction by ZEFSAII (Michael W. Deem and Ramdas Pophale) SiO2 
 PCOD8167566
Probable space group: P M C 21
;
_chemical_formula_sum "Si O2"
_cell_formula_units_Z 24
_cell_length_a 8.979988
_cell_length_b 7.505876
_cell_length_c 18.654252
_cell_angle_alpha 90.000000
_cell_angle_beta 90.000000
_cell_angle_gamma 90.000000
_cell_volume 1257.346511
_symmetry_space_group_name_H-M "P M C 21"
_symmetry_group_IT_number 26
_symmetry_cell_setting 'orthorhombic'
loop_
_space_group_symop_operation_xyz
x,y,z
-x,-y,1/2+z
-x,y,z
x,-y,1/2+z
loop_
_atom_site_type_symbol
_atom_site_label
_atom_site_fract_x
_atom_site_fract_y
_atom_site_fract_z
Si Si1 0.672368 0.517096 0.043300
Si Si2 0.671351 0.517121 0.208956
Si Si3 0.325347 0.187579 0.307814
Si Si4 0.173372 0.177298 0.791296
Si Si5 0.170463 0.780230 0.454876
Si Si6 0.826429 0.811284 0.956654
O O1 0.500000 0.553585 0.027846
O O2 0.704128 0.479738 0.126148
O O3 0.720821 0.343464 0.999701
O O4 0.764181 0.690993 0.020484
O O5 0.500000 0.569466 0.222581
O O6 0.714884 0.339330 0.251007
O O7 0.773932 0.678559 0.234233
O O8 0.500000 0.164621 0.319155
O O9 0.253421 0.242744 0.383125
O O10 0.259729 0.005323 0.276651
O O11 0.206380 0.248114 0.871180
O O12 0.000000 0.137284 0.781164
O O13 0.000000 0.728740 0.471615
O O14 0.203362 0.983746 0.476821
O O15 0.000000 0.774279 0.945531
#
# Coordination Sequence:
#
# PCOD8167566 Si02
#       6
#     4   4   4   4   4   4
#     4  11  23  37  55  81 113 148 184 225 275 329
#     4  10  23  39  54  79 114 149 185 225 272 329
#     4  10  20  37  61  84 109 145 186 230 277 325
#     4  10  21  37  59  85 111 143 184 231 279 327
#     4   9  20  38  58  81 109 141 180 227 274 324
#     4  10  21  38  59  84 112 142 183 232 277 328
#
# _framework density 19.087816
#
# number of rings (size 3 to 8) (size 9 to 14) (size 15 to 20)
#    0.000    2.000    0.000    4.000    0.000   10.667 
#    0.000    5.000    0.000    0.000    0.000    0.000 
#    0.000    0.000    0.000    0.000    0.000    0.000 
#
# Total GULP energy -297732.733453 kJ/mol
# GULP energy per Si atom -12405.530561 kJ/mol
# Density = 1.904437 g / cm^3
# Si number density = 19.087816 Si / 1000 Ang^3
#
#
#
# Elastic Constant Matrix: (Units=GPa)
#
#
# Indices 1 2 3 4 5 6 
#
# 1 85.4837 44.4148 29.0833 0.0000 0.0000 0.0000
# 2 44.4148 95.7019 39.5401 0.0000 0.0000 0.0000
# 3 29.0833 39.5401 60.8099 0.0000 0.0000 0.0000
# 4 0.0000 0.0000 0.0000 10.4675 0.0000 0.0000
# 5 0.0000 0.0000 0.0000 0.0000 22.2514 0.0000
# 6 0.0000 0.0000 0.0000 0.0000 0.0000 34.2223
#
#
#
# Elastic Compliance Matrix: (Units=1/GPa)
#
#
# Indices 1 2 3 4 5 6 
#
# 1 0.016056 -0.005851 -0.003875 0.000000 0.000000 0.000000
# 2 -0.005851 0.016419 -0.007878 0.000000 0.000000 0.000000
# 3 -0.003875 -0.007878 0.023420 0.000000 0.000000 0.000000
# 4 0.000000 0.000000 0.000000 0.095534 0.000000 0.000000
# 5 0.000000 0.000000 0.000000 0.000000 0.044941 0.000000
# 6 0.000000 0.000000 0.000000 0.000000 0.000000 0.029221
#
#
# Mechanical properties :
#
#
# Convention : Reuss Voigt Hill
#
# Bulk Modulus (GPa) = 48.33554 52.00799 50.17176
# Shear Modulus (GPa) = 18.67797 21.98540 20.33169
#
# Velocity S-wave (km/s) = 3.13154 3.39750 3.26723
# Velocity P-wave (km/s) = 6.20105 6.53426 6.36984
#
# Compressibility (1/GPa) = 0.02068871
#
# Stress axis : x y z
#
# Youngs Moduli (GPa) = 62.28078 60.90404 42.69775
#
# Poissons Ratio (x) = 0.35633 0.16545
# Poissons Ratio (y) = 0.36439 0.33637
# Poissons Ratio (z) = 0.24133 0.47980
#
# Static dielectric constant tensor:
#      x y z
#    x 3.583240 0.000000 0.000000 
#    y 0.000000 3.541390 0.000000 
#    z 0.000000 0.000000 3.436050 
# 
# 
# High freq. dielectric constant tensor:
#      x y z
#    x 1.753090 0.000000 0.000000 
#    y 0.000000 1.752440 0.000000 
#    z 0.000000 0.000000 1.736240 
# 
# From -- ./inp_files/4866.got.cif
#   From: 2010.03.12/outbox.cif.g09.slc.cpg/sg26_3_cif.got.tgz:4866.got - 2010.04.14 03:33:09.
