data_PCOD8167307
_publ_section_title
;
Structure prediction by ZEFSAII (Michael W. Deem and Ramdas Pophale) SiO2 
 PCOD8167307
Probable space group: P M C 21
;
_chemical_formula_sum "Si O2"
_cell_formula_units_Z 32
_cell_length_a 8.463174
_cell_length_b 35.739547
_cell_length_c 5.140157
_cell_angle_alpha 90.000000
_cell_angle_beta 90.000000
_cell_angle_gamma 90.000000
_cell_volume 1554.743313
_symmetry_space_group_name_H-M "P M C 21"
_symmetry_group_IT_number 26
_symmetry_cell_setting 'orthorhombic'
loop_
_space_group_symop_operation_xyz
x,y,z
-x,-y,1/2+z
-x,y,z
x,-y,1/2+z
loop_
_atom_site_type_symbol
_atom_site_label
_atom_site_fract_x
_atom_site_fract_y
_atom_site_fract_z
Si Si1 0.188138 0.478470 0.603000
Si Si2 0.315891 0.644323 0.628567
Si Si3 0.184963 0.768043 0.082719
Si Si4 0.315537 0.976693 0.570717
Si Si5 0.185759 0.895059 0.601647
Si Si6 0.315964 0.730205 0.583300
Si Si7 0.814877 0.606446 0.129172
Si Si8 0.811636 0.853133 0.101369
O O1 0.256039 0.499064 0.349406
O O2 0.248249 0.435926 0.608096
O O3 0.000000 0.479216 0.608784
O O4 0.500000 0.639171 0.569105
O O5 0.264223 0.687259 0.605230
O O6 0.217365 0.620616 0.420126
O O7 0.277867 0.631198 0.920000
O O8 0.278542 0.743506 0.292055
O O9 0.246927 0.810489 0.103164
O O10 0.000000 0.765316 0.143390
O O11 0.217214 0.753819 0.791906
O O12 0.500000 0.967472 0.583154
O O13 0.221494 0.938686 0.605277
O O14 0.265755 0.995065 0.298833
O O15 0.259021 0.874715 0.350125
O O16 0.000000 0.889326 0.600316
O O17 0.259411 0.874676 0.852546
O O18 0.500000 0.735298 0.643700
O O19 0.000000 0.608916 0.069084
O O20 0.000000 0.854481 0.097341
#
# Coordination Sequence:
#
# PCOD8167307 Si02
#       8
#     4   4   4   4   4   4   4   4
#     4   9  17  31  53  82 114 145 180 230 290 338
#     4  11  24  41  59  81 119 162 189 228 298 356
#     4  11  22  39  64  89 115 152 195 238 288 344
#     4  10  21  36  52  73 105 140 173 216 268 316
#     4  10  19  34  56  79 105 138 177 219 264 323
#     4  11  24  41  59  84 119 156 193 236 290 346
#     4  11  22  37  62  91 114 145 198 249 278 329
#     4   9  19  35  55  81 111 140 173 222 280 326
#
# _framework density 20.582173999999998
#
# number of rings (size 3 to 8) (size 9 to 14) (size 15 to 20)
#    0.000    1.750    0.000    4.500    0.000    9.500 
#    0.000    3.750    0.000    7.500    0.000    0.000 
#    0.000    0.000    0.000    0.000    0.000    0.000 
#
# Total GULP energy -396966.854632 kJ/mol
# GULP energy per Si atom -12405.214207 kJ/mol
# Density = 2.053533 g / cm^3
# Si number density = 20.582174 Si / 1000 Ang^3
#
#
#
# Elastic Constant Matrix: (Units=GPa)
#
#
# Indices 1 2 3 4 5 6 
#
# 1 25.6081 26.4323 13.5841 0.0000 0.0000 0.0000
# 2 26.4323 120.7285 32.0805 0.0000 0.0000 0.0000
# 3 13.5841 32.0805 124.3712 0.0000 0.0000 0.0000
# 4 0.0000 0.0000 0.0000 45.6923 0.0000 0.0000
# 5 0.0000 0.0000 0.0000 0.0000 23.7782 0.0000
# 6 0.0000 0.0000 0.0000 0.0000 0.0000 -16.6236
#
#
#
# Elastic Compliance Matrix: (Units=1/GPa)
#
#
# Indices 1 2 3 4 5 6 
#
# 1 0.051415 -0.010483 -0.002912 0.000000 0.000000 0.000000
# 2 -0.010483 0.011030 -0.001700 0.000000 0.000000 0.000000
# 3 -0.002912 -0.001700 0.008797 0.000000 0.000000 0.000000
# 4 0.000000 0.000000 0.000000 0.021886 0.000000 0.000000
# 5 0.000000 0.000000 0.000000 0.000000 0.042055 0.000000
# 6 0.000000 0.000000 0.000000 0.000000 0.000000 -0.060156
#
#
# Mechanical properties :
#
#
# Convention : Reuss Voigt Hill
#
# Bulk Modulus (GPa) = 24.35914 46.10018 35.22966
# Shear Modulus (GPa) = 42.05176 23.81012 32.93094
#
# Velocity S-wave (km/s) = 4.52499 3.40491 4.00431
# Velocity P-wave (km/s) = 6.25791 6.15667 6.20750
#
# Compressibility (1/GPa) = 0.04105235
#
# Stress axis : x y z
#
# Youngs Moduli (GPa) = 19.44956 90.66203 113.67526
#
# Poissons Ratio (x) = 0.95042 0.33098
# Poissons Ratio (y) = 0.20389 0.19326
# Poissons Ratio (z) = 0.05663 0.15414
#
# Static dielectric constant tensor:
#      x y z
#    x 3.348180 0.000000 0.000000 
#    y 0.000000 3.836650 0.000000 
#    z 0.000000 0.000000 3.943510 
# 
# 
# High freq. dielectric constant tensor:
#      x y z
#    x 1.775360 0.000000 0.000000 
#    y 0.000000 1.821220 0.000000 
#    z 0.000000 0.000000 1.824030 
# 
# From -- ./inp_files/254.got.cif
#   From: 2010.03.12/outbox.cif.g09.slc.cpg/sg26_1_cif.got.tgz:254.got - 2010.04.14 03:33:09.
