data_PCOD8167405
_publ_section_title
;
Structure prediction by ZEFSAII (Michael W. Deem and Ramdas Pophale) SiO2 
 PCOD8167405
Probable space group: P M C 21
;
_chemical_formula_sum "Si O2"
_cell_formula_units_Z 32
_cell_length_a 8.887598
_cell_length_b 16.131657
_cell_length_c 10.978702
_cell_angle_alpha 90.000000
_cell_angle_beta 90.000000
_cell_angle_gamma 90.000000
_cell_volume 1574.034977
_symmetry_space_group_name_H-M "P M C 21"
_symmetry_group_IT_number 26
_symmetry_cell_setting 'orthorhombic'
loop_
_space_group_symop_operation_xyz
x,y,z
-x,-y,1/2+z
-x,y,z
x,-y,1/2+z
loop_
_atom_site_type_symbol
_atom_site_label
_atom_site_fract_x
_atom_site_fract_y
_atom_site_fract_z
Si Si1 0.670206 0.243255 0.839420
Si Si2 0.669966 0.486079 0.449892
Si Si3 0.326874 0.658800 0.760626
Si Si4 0.668407 0.661373 0.102966
Si Si5 0.825956 0.643089 0.511918
Si Si6 0.824957 0.779796 0.927642
Si Si7 0.322011 0.061993 0.764468
Si Si8 0.678746 0.048477 0.490066
O O1 0.500000 0.231380 0.888617
O O2 0.677309 0.319353 0.745046
O O3 0.727897 0.157904 0.778992
O O4 0.780073 0.270573 0.947776
O O5 0.500000 0.521196 0.441152
O O6 0.703233 0.419064 0.346567
O O7 0.695074 0.436611 0.578459
O O8 0.786337 0.561506 0.432695
O O9 0.500000 0.685205 0.758613
O O10 0.275069 0.630878 0.629367
O O11 0.229999 0.738521 0.801768
O O12 0.500000 0.684678 0.052564
O O13 0.793721 0.715813 0.036182
O O14 0.000000 0.646375 0.544073
O O15 0.730751 0.861608 0.951145
O O16 0.000000 0.801467 0.920354
O O17 0.500000 0.054076 0.764077
O O18 0.263527 0.029340 0.630397
O O19 0.257782 0.013312 0.883896
O O20 0.500000 0.045424 0.491197
#
# Coordination Sequence:
#
# PCOD8167405 Si02
#       8
#     4   4   4   4   4   4   4   4
#     4  10  20  38  61  87 117 159 208 251 295 358
#     4   9  20  38  61  87 111 152 203 249 295 349
#     4  10  22  42  64  84 112 156 207 254 296 356
#     4   9  18  36  63  87 112 150 202 250 284 343
#     4  12  26  39  55  87 127 159 191 248 315 372
#     4  11  21  35  59  90 120 153 191 241 307 368
#     4   9  19  35  62  91 120 155 212 268 308 356
#     4  10  19  37  61  91 121 158 206 259 308 368
#
# _framework density 20.329916000000001
#
# number of rings (size 3 to 8) (size 9 to 14) (size 15 to 20)
#    0.000    2.000    1.250    3.375    1.750    4.000 
#    0.000    3.750    0.000    0.000    0.000    0.000 
#    0.000    0.000    0.000    0.000    0.000    0.000 
#
# Total GULP energy -396628.443559 kJ/mol
# GULP energy per Si atom -12394.638861 kJ/mol
# Density = 2.028364 g / cm^3
# Si number density = 20.329916 Si / 1000 Ang^3
#
#
#
# Elastic Constant Matrix: (Units=GPa)
#
#
# Indices 1 2 3 4 5 6 
#
# 1 22.1050 5.5859 29.3312 0.0000 0.0000 0.0000
# 2 5.5859 74.9186 46.5999 0.0000 0.0000 0.0000
# 3 29.3312 46.5999 110.4126 0.0000 0.0000 0.0000
# 4 0.0000 0.0000 0.0000 25.6076 0.0000 0.0000
# 5 0.0000 0.0000 0.0000 0.0000 19.7889 0.0000
# 6 0.0000 0.0000 0.0000 0.0000 0.0000 15.0402
#
#
#
# Elastic Compliance Matrix: (Units=1/GPa)
#
#
# Indices 1 2 3 4 5 6 
#
# 1 0.074195 0.009123 -0.023560 0.000000 0.000000 0.000000
# 2 0.009123 0.019221 -0.010536 0.000000 0.000000 0.000000
# 3 -0.023560 -0.010536 0.019762 0.000000 0.000000 0.000000
# 4 0.000000 0.000000 0.000000 0.039051 0.000000 0.000000
# 5 0.000000 0.000000 0.000000 0.000000 0.050533 0.000000
# 6 0.000000 0.000000 0.000000 0.000000 0.000000 0.066489
#
#
# Mechanical properties :
#
#
# Convention : Reuss Voigt Hill
#
# Bulk Modulus (GPa) = 15.81476 41.16335 28.48906
# Shear Modulus (GPa) = 14.69398 20.48196 17.58797
#
# Velocity S-wave (km/s) = 2.69137 3.17752 2.94450
# Velocity P-wave (km/s) = 4.17778 5.80981 5.06003
#
# Compressibility (1/GPa) = 0.06323206
#
# Stress axis : x y z
#
# Youngs Moduli (GPa) = 13.47793 52.02669 50.60127
#
# Poissons Ratio (x) = -0.47462 1.19218
# Poissons Ratio (y) = -0.12295 0.53312
# Poissons Ratio (z) = 0.31754 0.54814
#
# Static dielectric constant tensor:
#      x y z
#    x 3.348750 0.000000 0.000000 
#    y 0.000000 3.670960 0.000000 
#    z 0.000000 0.000000 3.977110 
# 
# 
# High freq. dielectric constant tensor:
#      x y z
#    x 1.762370 0.000000 0.000000 
#    y 0.000000 1.789430 0.000000 
#    z 0.000000 0.000000 1.798890 
# 
# From -- ./inp_files/3084.got.cif
#   From: 2010.03.12/outbox.cif.g09.slc.cpg/sg26_2_cif.got.tgz:3084.got - 2010.04.14 03:33:09.
