data_PCOD8167529
_publ_section_title
;
Structure prediction by ZEFSAII (Michael W. Deem and Ramdas Pophale) SiO2 
 PCOD8167529
Probable space group: P M C 21
;
_chemical_formula_sum "Si O2"
_cell_formula_units_Z 32
_cell_length_a 9.059928
_cell_length_b 11.860351
_cell_length_c 14.351540
_cell_angle_alpha 90.000000
_cell_angle_beta 90.000000
_cell_angle_gamma 90.000000
_cell_volume 1542.129319
_symmetry_space_group_name_H-M "P M C 21"
_symmetry_group_IT_number 26
_symmetry_cell_setting 'orthorhombic'
loop_
_space_group_symop_operation_xyz
x,y,z
-x,-y,1/2+z
-x,y,z
x,-y,1/2+z
loop_
_atom_site_type_symbol
_atom_site_label
_atom_site_fract_x
_atom_site_fract_y
_atom_site_fract_z
Si Si1 0.326013 0.622046 0.186030
Si Si2 0.834603 0.218046 0.813320
Si Si3 0.163035 0.692775 0.508737
Si Si4 0.171604 0.003187 0.422454
Si Si5 0.170974 0.165654 0.265579
Si Si6 0.826678 0.422016 0.297544
Si Si7 0.326926 0.897713 0.587385
Si Si8 0.830237 0.438355 0.509147
O O1 0.500000 0.611191 0.187603
O O2 0.277401 0.738419 0.235034
O O3 0.258510 0.513497 0.237126
O O4 0.269083 0.633221 0.079953
O O5 0.000000 0.210118 0.771427
O O6 0.781876 0.097820 0.852775
O O7 0.831229 0.309426 0.896693
O O8 0.287240 0.773438 0.550074
O O9 0.187767 0.566845 0.543896
O O10 0.000000 0.736259 0.540987
O O11 0.208734 0.120190 0.369809
O O12 0.000000 0.991766 0.448036
O O13 0.260833 0.993828 0.519172
O O14 0.208588 0.297792 0.257136
O O15 0.262668 0.092113 0.191351
O O16 0.000000 0.142703 0.245493
O O17 0.771358 0.423365 0.404361
O O18 0.000000 0.449933 0.292210
O O19 0.500000 0.913981 0.590876
O O20 0.000000 0.398461 0.515786
#
# Coordination Sequence:
#
# PCOD8167529 Si02
#       8
#     4   4   4   4   4   4   4   4
#     4  12  24  35  53  85 122 156 188 230 289 355
#     4   9  17  35  59  80 105 141 190 241 286 328
#     4   9  17  33  58  82 108 145 194 243 277 325
#     4   9  20  40  64  87 111 146 199 253 288 329
#     4  10  21  40  65  89 114 149 199 249 289 339
#     4  10  21  40  63  87 115 152 196 243 291 339
#     4  11  22  35  57  89 122 156 191 233 294 356
#     4  10  20  36  57  81 113 153 195 236 284 341
#
# _framework density 20.750529
#
# number of rings (size 3 to 8) (size 9 to 14) (size 15 to 20)
#    0.000    2.000    1.250    3.750    0.000    7.000 
#    2.250    0.000    0.000    0.000    0.000    0.000 
#    0.000    0.000    0.000    0.000    0.000    0.000 
#
# Total GULP energy -396803.153931 kJ/mol
# GULP energy per Si atom -12400.098560 kJ/mol
# Density = 2.070330 g / cm^3
# Si number density = 20.750529 Si / 1000 Ang^3
#
#
#
# Elastic Constant Matrix: (Units=GPa)
#
#
# Indices 1 2 3 4 5 6 
#
# 1 95.9496 16.3389 42.9438 0.0000 0.0000 0.0000
# 2 16.3389 28.7146 -1.3925 0.0000 0.0000 0.0000
# 3 42.9438 -1.3925 91.4041 0.0000 0.0000 0.0000
# 4 0.0000 0.0000 0.0000 28.6488 0.0000 0.0000
# 5 0.0000 0.0000 0.0000 0.0000 10.0275 0.0000
# 6 0.0000 0.0000 0.0000 0.0000 0.0000 13.3328
#
#
#
# Elastic Compliance Matrix: (Units=1/GPa)
#
#
# Indices 1 2 3 4 5 6 
#
# 1 0.015218 -0.009013 -0.007287 0.000000 0.000000 0.000000
# 2 -0.009013 0.040189 0.004847 0.000000 0.000000 0.000000
# 3 -0.007287 0.004847 0.014438 0.000000 0.000000 0.000000
# 4 0.000000 0.000000 0.000000 0.034906 0.000000 0.000000
# 5 0.000000 0.000000 0.000000 0.000000 0.099726 0.000000
# 6 0.000000 0.000000 0.000000 0.000000 0.000000 0.075003
#
#
# Mechanical properties :
#
#
# Convention : Reuss Voigt Hill
#
# Bulk Modulus (GPa) = 21.30446 36.87208 29.08827
# Shear Modulus (GPa) = 15.72166 20.94702 18.33434
#
# Velocity S-wave (km/s) = 2.75553 3.18066 2.97570
# Velocity P-wave (km/s) = 4.51809 5.59434 5.08477
#
# Compressibility (1/GPa) = 0.04693854
#
# Stress axis : x y z
#
# Youngs Moduli (GPa) = 65.70975 24.88247 69.26162
#
# Poissons Ratio (x) = 0.22426 0.50473
# Poissons Ratio (y) = 0.59223 -0.33569
# Poissons Ratio (z) = 0.47885 -0.12060
#
# Static dielectric constant tensor:
#      x y z
#    x 3.430200 0.000000 0.000000 
#    y 0.000000 3.623030 0.000000 
#    z 0.000000 0.000000 3.855120 
# 
# 
# High freq. dielectric constant tensor:
#      x y z
#    x 1.782580 0.000000 0.000000 
#    y 0.000000 1.798930 0.000000 
#    z 0.000000 0.000000 1.819820 
# 
# From -- ./inp_files/4277.got.cif
#   From: 2010.03.12/outbox.cif.g09.slc.cpg/sg26_3_cif.got.tgz:4277.got - 2010.04.14 03:33:09.
