data_PCOD8167713
_publ_section_title
;
Structure prediction by ZEFSAII (Michael W. Deem and Ramdas Pophale) SiO2 
 PCOD8167713
Probable space group: P M C 21
;
_chemical_formula_sum "Si O2"
_cell_formula_units_Z 20
_cell_length_a 9.788631
_cell_length_b 8.420353
_cell_length_c 12.213370
_cell_angle_alpha 90.000000
_cell_angle_beta 90.000000
_cell_angle_gamma 90.000000
_cell_volume 1006.671492
_symmetry_space_group_name_H-M "P M C 21"
_symmetry_group_IT_number 26
_symmetry_cell_setting 'orthorhombic'
loop_
_space_group_symop_operation_xyz
x,y,z
-x,-y,1/2+z
-x,y,z
x,-y,1/2+z
loop_
_atom_site_type_symbol
_atom_site_label
_atom_site_fract_x
_atom_site_fract_y
_atom_site_fract_z
Si Si1 0.500000 0.986232 0.311381
Si Si2 0.500000 0.341875 0.932675
Si Si3 0.781763 0.016625 0.203764
Si Si4 0.000000 0.203474 0.605505
Si Si5 0.723444 0.325884 0.104666
Si Si6 0.000000 0.809205 0.844100
Si Si7 0.000000 0.544894 0.668543
Si Si8 0.500000 0.650292 0.784292
O O1 0.500000 0.844784 0.399961
O O2 0.635480 0.951629 0.241323
O O3 0.500000 0.175734 0.348772
O O4 0.500000 0.485652 0.848510
O O5 0.637349 0.372402 0.999607
O O6 0.760325 0.140745 0.105565
O O7 0.865865 0.092997 0.305754
O O8 0.862314 0.879520 0.143243
O O9 0.000000 0.222865 0.473781
O O10 0.000000 0.358041 0.681355
O O11 0.637623 0.359298 0.214385
O O12 0.864712 0.419731 0.098338
O O13 0.000000 0.637658 0.784025
#
# Coordination Sequence:
#
# PCOD8167713 Si02
#       8
#     2   2   4   2   4   2   2   2
#     4  10  22  40  64  93 126 169 205 270 316 381
#     4  11  23  39  68  95 120 173 218 243 328 394
#     4   9  21  43  62  91 131 156 212 273 313 388
#     4  11  23  39  66  96 120 175 219 257 333 395
#     4   9  21  43  60  89 130 163 200 272 316 365
#     4   9  21  43  62  86 130 171 203 269 334 368
#     4  10  22  40  62  88 130 164 214 266 311 381
#     4   9  21  43  64  88 134 160 203 271 318 367
#
# _framework density 19.867453999999999
#
# number of rings (size 3 to 8) (size 9 to 14) (size 15 to 20)
#    0.000    2.400    0.000    1.200    5.600    4.800 
#    0.000    2.000    0.000    0.000    0.000    0.000 
#    0.000    0.000    0.000    0.000    0.000    0.000 
#
# Total GULP energy -247765.048241 kJ/mol
# GULP energy per Si atom -12388.252412 kJ/mol
# Density = 1.982224 g / cm^3
# Si number density = 19.867454 Si / 1000 Ang^3
#
#
#
# Elastic Constant Matrix: (Units=GPa)
#
#
# Indices 1 2 3 4 5 6 
#
# 1 167.8325 54.2250 36.0727 0.0000 0.0000 0.0000
# 2 54.2250 140.9391 60.6356 0.0000 0.0000 0.0000
# 3 36.0727 60.6356 74.5255 0.0000 0.0000 0.0000
# 4 0.0000 0.0000 0.0000 23.2703 0.0000 0.0000
# 5 0.0000 0.0000 0.0000 0.0000 -106.4884 0.0000
# 6 0.0000 0.0000 0.0000 0.0000 0.0000 31.2403
#
#
#
# Elastic Compliance Matrix: (Units=1/GPa)
#
#
# Indices 1 2 3 4 5 6 
#
# 1 0.006963 -0.001891 -0.001832 0.000000 0.000000 0.000000
# 2 -0.001891 0.011430 -0.008384 0.000000 0.000000 0.000000
# 3 -0.001832 -0.008384 0.021127 0.000000 0.000000 0.000000
# 4 0.000000 0.000000 0.000000 0.042973 0.000000 0.000000
# 5 0.000000 0.000000 0.000000 0.000000 -0.009391 0.000000
# 6 0.000000 0.000000 0.000000 0.000000 0.000000 0.032010
#
#
# Mechanical properties :
#
#
# Convention : Reuss Voigt Hill
#
# Bulk Modulus (GPa) = 65.33680 76.12929 70.73304
# Shear Modulus (GPa) = 37.19464 5.09538 21.14501
#
# Velocity S-wave (km/s) = 4.33152 1.60320 3.26591
# Velocity P-wave (km/s) = 7.61405 6.46752 7.06408
#
# Compressibility (1/GPa) = 0.01530531
#
# Stress axis : x y z
#
# Youngs Moduli (GPa) = 143.61722 87.48966 47.33352
#
# Poissons Ratio (x) = 0.16543 0.08671
# Poissons Ratio (y) = 0.27155 0.39686
# Poissons Ratio (z) = 0.26309 0.73355
#
# Static dielectric constant tensor:
#      x y z
#    x 14.385430 0.000000 0.000000 
#    y 0.000000 3.678280 0.000000 
#    z 0.000000 0.000000 3.259520 
# 
# 
# High freq. dielectric constant tensor:
#      x y z
#    x 1.804800 0.000000 0.000000 
#    y 0.000000 1.779810 0.000000 
#    z 0.000000 0.000000 1.741640 
# 
# From -- ./inp_files/2759.got.cif
#   From: 2010.03.12/outbox.cif.g09.slc.cpg/sg26_2_cif.got.tgz:2759.got - 2010.04.14 03:33:09.
