data_PCOD8167389
_publ_section_title
;
Structure prediction by ZEFSAII (Michael W. Deem and Ramdas Pophale) SiO2 
 PCOD8167389
Probable space group: P M C 21
;
_chemical_formula_sum "Si O2"
_cell_formula_units_Z 24
_cell_length_a 8.511607
_cell_length_b 15.315018
_cell_length_c 9.330200
_cell_angle_alpha 90.000000
_cell_angle_beta 90.000000
_cell_angle_gamma 90.000000
_cell_volume 1216.242088
_symmetry_space_group_name_H-M "P M C 21"
_symmetry_group_IT_number 26
_symmetry_cell_setting 'orthorhombic'
loop_
_space_group_symop_operation_xyz
x,y,z
-x,-y,1/2+z
-x,y,z
x,-y,1/2+z
loop_
_atom_site_type_symbol
_atom_site_label
_atom_site_fract_x
_atom_site_fract_y
_atom_site_fract_z
Si Si1 0.685938 0.564342 0.917930
Si Si2 0.814845 0.252604 0.379931
Si Si3 0.185835 0.588640 0.228958
Si Si4 0.313009 0.902726 0.705829
Si Si5 0.313435 0.228255 0.691542
Si Si6 0.313715 0.068575 0.882726
O O1 0.500000 0.561769 0.922906
O O2 0.740975 0.653392 0.841017
O O3 0.751494 0.479706 0.841866
O O4 0.755005 0.559306 0.075361
O O5 0.765486 0.187265 0.254262
O O6 0.753680 0.217288 0.532033
O O7 0.000000 0.263212 0.387281
O O8 0.254715 0.683532 0.267292
O O9 0.000000 0.592967 0.231984
O O10 0.500000 0.892817 0.710324
O O11 0.252753 0.924374 0.545572
O O12 0.253086 0.978929 0.811840
O O13 0.500000 0.228818 0.679596
O O14 0.250020 0.149014 0.788411
O O15 0.500000 0.069633 0.880740
#
# Coordination Sequence:
#
# PCOD8167389 Si02
#       6
#     4   4   4   4   4   4
#     4  11  22  39  61  85 112 151 195 236 279 339
#     4  11  22  37  55  81 113 149 187 232 284 335
#     4  11  22  38  58  85 118 152 187 236 291 339
#     4  10  19  36  58  83 110 144 186 232 280 334
#     4  10  19  36  59  84 111 147 189 232 278 336
#     4   9  19  34  59  86 110 141 186 234 278 329
#
# _framework density 19.732914000000001
#
# number of rings (size 3 to 8) (size 9 to 14) (size 15 to 20)
#    0.000    1.667    0.000    8.000    0.000    4.000 
#    0.000   10.833    0.000    0.000    0.000    0.000 
#    0.000    0.000    0.000    0.000    0.000    0.000 
#
# Total GULP energy -297668.714221 kJ/mol
# GULP energy per Si atom -12402.863093 kJ/mol
# Density = 1.968800 g / cm^3
# Si number density = 19.732914 Si / 1000 Ang^3
#
#
#
# Elastic Constant Matrix: (Units=GPa)
#
#
# Indices 1 2 3 4 5 6 
#
# 1 143.0334 24.4386 15.3443 0.0000 0.0000 0.0000
# 2 24.4386 70.7326 12.0456 0.0000 0.0000 0.0000
# 3 15.3443 12.0456 52.9757 0.0000 0.0000 0.0000
# 4 0.0000 0.0000 0.0000 46.3802 0.0000 0.0000
# 5 0.0000 0.0000 0.0000 0.0000 38.4424 0.0000
# 6 0.0000 0.0000 0.0000 0.0000 0.0000 -6.5881
#
#
#
# Elastic Compliance Matrix: (Units=1/GPa)
#
#
# Indices 1 2 3 4 5 6 
#
# 1 0.007568 -0.002332 -0.001662 0.000000 0.000000 0.000000
# 2 -0.002332 0.015426 -0.002832 0.000000 0.000000 0.000000
# 3 -0.001662 -0.002832 0.020002 0.000000 0.000000 0.000000
# 4 0.000000 0.000000 0.000000 0.021561 0.000000 0.000000
# 5 0.000000 0.000000 0.000000 0.000000 0.026013 0.000000
# 6 0.000000 0.000000 0.000000 0.000000 0.000000 -0.151790
#
#
# Mechanical properties :
#
#
# Convention : Reuss Voigt Hill
#
# Bulk Modulus (GPa) = 34.07838 41.15543 37.61691
# Shear Modulus (GPa) = -132.31993 29.97444 -51.17275
#
# Velocity S-wave (km/s) = -8.19762 3.90167 -5.09794
# Velocity P-wave (km/s) = 8.50259 6.41864 3.94304
#
# Compressibility (1/GPa) = 0.02934412
#
# Stress axis : x y z
#
# Youngs Moduli (GPa) = 132.13413 64.82685 49.99526
#
# Poissons Ratio (x) = 0.15116 0.08309
# Poissons Ratio (y) = 0.30811 0.14159
# Poissons Ratio (z) = 0.21959 0.18360
#
# Static dielectric constant tensor:
#      x y z
#    x 3.496070 0.000000 0.000000 
#    y 0.000000 3.896060 0.000000 
#    z 0.000000 0.000000 3.654310 
# 
# 
# High freq. dielectric constant tensor:
#      x y z
#    x 1.763820 0.000000 0.000000 
#    y 0.000000 1.785980 0.000000 
#    z 0.000000 0.000000 1.767910 
# 
# From -- ./inp_files/1449.got.cif
#   From: 2010.03.12/outbox.cif.g09.slc.cpg/sg26_1_cif.got.tgz:1449.got - 2010.04.14 03:33:09.
