data_PCOD8167553
_publ_section_title
;
Structure prediction by ZEFSAII (Michael W. Deem and Ramdas Pophale) SiO2 
 PCOD8167553
Probable space group: P M C 21
;
_chemical_formula_sum "Si O2"
_cell_formula_units_Z 32
_cell_length_a 8.919882
_cell_length_b 11.801330
_cell_length_c 15.068275
_cell_angle_alpha 90.000000
_cell_angle_beta 90.000000
_cell_angle_gamma 90.000000
_cell_volume 1586.184134
_symmetry_space_group_name_H-M "P M C 21"
_symmetry_group_IT_number 26
_symmetry_cell_setting 'orthorhombic'
loop_
_space_group_symop_operation_xyz
x,y,z
-x,-y,1/2+z
-x,y,z
x,-y,1/2+z
loop_
_atom_site_type_symbol
_atom_site_label
_atom_site_fract_x
_atom_site_fract_y
_atom_site_fract_z
Si Si1 0.325835 0.659979 0.937520
Si Si2 0.671661 0.004103 0.837045
Si Si3 0.329159 0.003529 0.542060
Si Si4 0.176967 0.786658 0.775751
Si Si5 0.828059 0.237641 0.797975
Si Si6 0.828443 0.218731 0.595977
Si Si7 0.673629 0.395272 0.931773
Si Si8 0.324511 0.753505 0.597107
O O1 0.500000 0.688235 0.923179
O O2 0.232785 0.716461 0.859457
O O3 0.293340 0.527342 0.937805
O O4 0.276000 0.708011 0.032175
O O5 0.500000 0.002009 0.805972
O O6 0.731949 0.129653 0.825258
O O7 0.761542 0.915225 0.776748
O O8 0.687867 0.966228 0.938749
O O9 0.500000 0.020687 0.573318
O O10 0.276684 0.875626 0.559072
O O11 0.223401 0.087653 0.597126
O O12 0.234469 0.725825 0.686621
O O13 0.000000 0.790399 0.776684
O O14 0.809511 0.267418 0.694589
O O15 0.770735 0.346285 0.851415
O O16 0.000000 0.212466 0.821886
O O17 0.000000 0.225265 0.563659
O O18 0.500000 0.368174 0.912741
O O19 0.723104 0.339197 0.024566
O O20 0.500000 0.747304 0.618455
#
# Coordination Sequence:
#
# PCOD8167553 Si02
#       8
#     4   4   4   4   4   4   4   4
#     4  11  24  43  66  89 117 160 212 262 305 355
#     4  11  21  38  64  93 125 162 205 250 300 362
#     4  10  20  36  63  92 122 159 200 248 303 360
#     4  12  25  40  61  93 128 163 201 248 309 373
#     4  11  24  40  62  95 131 163 198 246 309 371
#     4  11  24  40  60  90 128 163 200 248 304 370
#     4  10  23  44  67  90 118 159 213 260 302 356
#     4  10  21  41  65  92 123 157 201 254 304 361
#
# _framework density 20.174204
#
# number of rings (size 3 to 8) (size 9 to 14) (size 15 to 20)
#    0.000    1.250    2.500    3.375    0.000    7.500 
#    0.000    3.750    0.000    0.000    0.000    0.000 
#    0.000    0.000    0.000    0.000    0.000    0.000 
#
# Total GULP energy -397032.640003 kJ/mol
# GULP energy per Si atom -12407.270000 kJ/mol
# Density = 2.012829 g / cm^3
# Si number density = 20.174204 Si / 1000 Ang^3
#
#
#
# Elastic Constant Matrix: (Units=GPa)
#
#
# Indices 1 2 3 4 5 6 
#
# 1 115.1962 48.2198 50.6686 0.0000 0.0000 0.0000
# 2 48.2198 98.7312 32.7210 0.0000 0.0000 0.0000
# 3 50.6686 32.7210 94.1423 0.0000 0.0000 0.0000
# 4 0.0000 0.0000 0.0000 13.5279 0.0000 0.0000
# 5 0.0000 0.0000 0.0000 0.0000 33.3651 0.0000
# 6 0.0000 0.0000 0.0000 0.0000 0.0000 16.2489
#
#
#
# Elastic Compliance Matrix: (Units=1/GPa)
#
#
# Indices 1 2 3 4 5 6 
#
# 1 0.012953 -0.004539 -0.005394 0.000000 0.000000 0.000000
# 2 -0.004539 0.013037 -0.002089 0.000000 0.000000 0.000000
# 3 -0.005394 -0.002089 0.014251 0.000000 0.000000 0.000000
# 4 0.000000 0.000000 0.000000 0.073921 0.000000 0.000000
# 5 0.000000 0.000000 0.000000 0.000000 0.029971 0.000000
# 6 0.000000 0.000000 0.000000 0.000000 0.000000 0.061543
#
#
# Mechanical properties :
#
#
# Convention : Reuss Voigt Hill
#
# Bulk Modulus (GPa) = 61.73149 63.47651 62.60400
# Shear Modulus (GPa) = 21.26577 24.39242 22.82910
#
# Velocity S-wave (km/s) = 3.25022 3.48097 3.36757
# Velocity P-wave (km/s) = 6.68961 6.90570 6.79852
#
# Compressibility (1/GPa) = 0.01619919
#
# Stress axis : x y z
#
# Youngs Moduli (GPa) = 77.20089 76.70276 70.16879
#
# Poissons Ratio (x) = 0.34812 0.37850
# Poissons Ratio (y) = 0.35038 0.14656
# Poissons Ratio (z) = 0.41643 0.16021
#
# Static dielectric constant tensor:
#      x y z
#    x 3.680980 0.000000 0.000000 
#    y 0.000000 3.600910 0.000000 
#    z 0.000000 0.000000 3.761340 
# 
# 
# High freq. dielectric constant tensor:
#      x y z
#    x 1.789490 0.000000 0.000000 
#    y 0.000000 1.784850 0.000000 
#    z 0.000000 0.000000 1.799790 
# 
# From -- ./inp_files/4248.got.cif
#   From: 2010.03.12/outbox.cif.g09.slc.cpg/sg26_3_cif.got.tgz:4248.got - 2010.04.14 03:33:09.
