data_PCOD8167428
_publ_section_title
;
Structure prediction by ZEFSAII (Michael W. Deem and Ramdas Pophale) SiO2 
 PCOD8167428
Probable space group: P M C 21
;
_chemical_formula_sum "Si O2"
_cell_formula_units_Z 32
_cell_length_a 8.952344
_cell_length_b 14.229352
_cell_length_c 13.991295
_cell_angle_alpha 90.000000
_cell_angle_beta 90.000000
_cell_angle_gamma 90.000000
_cell_volume 1782.295860
_symmetry_space_group_name_H-M "P M C 21"
_symmetry_group_IT_number 26
_symmetry_cell_setting 'orthorhombic'
loop_
_space_group_symop_operation_xyz
x,y,z
-x,-y,1/2+z
-x,y,z
x,-y,1/2+z
loop_
_atom_site_type_symbol
_atom_site_label
_atom_site_fract_x
_atom_site_fract_y
_atom_site_fract_z
Si Si1 0.671325 0.512448 0.439580
Si Si2 0.327964 0.844920 0.314033
Si Si3 0.176289 0.670369 0.946637
Si Si4 0.674545 0.027691 0.198838
Si Si5 0.326912 0.021069 0.982949
Si Si6 0.825285 0.867346 0.861224
Si Si7 0.328488 0.402713 0.617991
Si Si8 0.176625 0.351855 0.806192
O O1 0.500000 0.516509 0.405282
O O2 0.752311 0.420601 0.393203
O O3 0.680956 0.500465 0.555988
O O4 0.756065 0.605802 0.404383
O O5 0.500000 0.814016 0.302216
O O6 0.283377 0.923829 0.236386
O O7 0.298230 0.886051 0.419870
O O8 0.222742 0.756350 0.296493
O O9 0.218840 0.760847 0.885034
O O10 0.000000 0.657399 0.958055
O O11 0.250004 0.678484 0.052992
O O12 0.500000 0.044604 0.212793
O O13 0.726747 0.040931 0.090244
O O14 0.756920 0.107740 0.258848
O O15 0.500000 0.992368 0.979408
O O16 0.235398 0.933305 0.944628
O O17 0.000000 0.881882 0.855798
O O18 0.500000 0.374457 0.637533
O O19 0.241884 0.412289 0.717780
O O20 0.000000 0.360405 0.807784
#
# Coordination Sequence:
#
# PCOD8167428 Si02
#       8
#     4   4   4   4   4   4   4   4
#     4   9  20  37  57  79 106 141 181 225 273 324
#     4   9  19  35  54  80 112 144 187 233 273 327
#     4   9  18  34  53  79 110 136 173 220 273 323
#     4   9  19  35  55  78 105 144 188 228 270 322
#     4   9  19  36  56  78 106 144 187 230 272 318
#     4  10  20  32  51  80 111 142 174 220 276 330
#     4   9  20  36  57  81 106 139 181 224 268 321
#     4  12  23  35  57  83 114 148 181 228 281 335
#
# _framework density 17.954370999999998
#
# number of rings (size 3 to 8) (size 9 to 14) (size 15 to 20)
#    0.750    1.750    0.000    3.000    1.750    4.500 
#    0.000    1.250    0.000    4.500    0.000    0.000 
#    0.000    0.000    0.000    0.000    0.000    0.000 
#
# Total GULP energy -396653.992574 kJ/mol
# GULP energy per Si atom -12395.437268 kJ/mol
# Density = 1.791351 g / cm^3
# Si number density = 17.954371 Si / 1000 Ang^3
#
#
#
# Elastic Constant Matrix: (Units=GPa)
#
#
# Indices 1 2 3 4 5 6 
#
# 1 93.5489 30.9609 28.5601 0.0000 0.0000 0.0000
# 2 30.9609 53.6844 19.6775 0.0000 0.0000 0.0000
# 3 28.5601 19.6775 102.2691 0.0000 0.0000 0.0000
# 4 0.0000 0.0000 0.0000 17.7939 0.0000 0.0000
# 5 0.0000 0.0000 0.0000 0.0000 24.4365 0.0000
# 6 0.0000 0.0000 0.0000 0.0000 0.0000 32.1016
#
#
#
# Elastic Compliance Matrix: (Units=1/GPa)
#
#
# Indices 1 2 3 4 5 6 
#
# 1 0.013779 -0.007032 -0.002495 0.000000 0.000000 0.000000
# 2 -0.007032 0.023630 -0.002583 0.000000 0.000000 0.000000
# 3 -0.002495 -0.002583 0.010972 0.000000 0.000000 0.000000
# 4 0.000000 0.000000 0.000000 0.056199 0.000000 0.000000
# 5 0.000000 0.000000 0.000000 0.000000 0.040922 0.000000
# 6 0.000000 0.000000 0.000000 0.000000 0.000000 0.031151
#
#
# Mechanical properties :
#
#
# Convention : Reuss Voigt Hill
#
# Bulk Modulus (GPa) = 41.38937 45.32217 43.35577
# Shear Modulus (GPa) = 23.93204 26.22000 25.07602
#
# Velocity S-wave (km/s) = 3.65490 3.82562 3.74124
# Velocity P-wave (km/s) = 6.39638 6.69415 6.54696
#
# Compressibility (1/GPa) = 0.02416080
#
# Stress axis : x y z
#
# Youngs Moduli (GPa) = 72.57666 42.31991 91.14277
#
# Poissons Ratio (x) = 0.29759 0.22739
# Poissons Ratio (y) = 0.51035 0.23540
# Poissons Ratio (z) = 0.18107 0.10930
#
# Static dielectric constant tensor:
#      x y z
#    x 3.315830 0.000000 0.000000 
#    y 0.000000 3.120860 0.000000 
#    z 0.000000 0.000000 3.382160 
# 
# 
# High freq. dielectric constant tensor:
#      x y z
#    x 1.702850 0.000000 0.000000 
#    y 0.000000 1.675730 0.000000 
#    z 0.000000 0.000000 1.688940 
# 
# From -- ./inp_files/4339.got.cif
#   From: 2010.03.12/outbox.cif.g09.slc.cpg/sg26_3_cif.got.tgz:4339.got - 2010.04.14 03:33:09.
