data_PCOD8167425
_publ_section_title
;
Structure prediction by ZEFSAII (Michael W. Deem and Ramdas Pophale) SiO2 
 PCOD8167425
Probable space group: P M C 21
;
_chemical_formula_sum "Si O2"
_cell_formula_units_Z 24
_cell_length_a 9.305811
_cell_length_b 9.043893
_cell_length_c 16.776591
_cell_angle_alpha 90.000000
_cell_angle_beta 90.000000
_cell_angle_gamma 90.000000
_cell_volume 1411.930631
_symmetry_space_group_name_H-M "P M C 21"
_symmetry_group_IT_number 26
_symmetry_cell_setting 'orthorhombic'
loop_
_space_group_symop_operation_xyz
x,y,z
-x,-y,1/2+z
-x,y,z
x,-y,1/2+z
loop_
_atom_site_type_symbol
_atom_site_label
_atom_site_fract_x
_atom_site_fract_y
_atom_site_fract_z
Si Si1 0.836154 0.197377 0.013770
Si Si2 0.832954 0.151389 0.839007
Si Si3 0.332035 0.352568 0.154320
Si Si4 0.839762 0.932412 0.115908
Si Si5 0.838043 0.358086 0.688966
Si Si6 0.334195 0.925620 0.749785
O O1 0.743041 0.294519 0.074122
O O2 0.000000 0.252985 0.022066
O O3 0.826114 0.020113 0.032677
O O4 0.779181 0.217786 0.923531
O O5 0.798742 0.269057 0.769725
O O6 0.000000 0.114713 0.845232
O O7 0.754810 0.993703 0.823380
O O8 0.500000 0.362904 0.135559
O O9 0.274114 0.512035 0.178031
O O10 0.302896 0.247215 0.231154
O O11 0.824430 0.753871 0.112658
O O12 0.000000 0.965527 0.153226
O O13 0.711748 0.989494 0.170446
O O14 0.000000 0.421891 0.694500
O O15 0.500000 0.954705 0.767341
#
# Coordination Sequence:
#
# PCOD8167425 Si02
#       6
#     4   4   4   4   4   4
#     4   9  17  32  53  73  94 121 155 200 246 283
#     4   9  18  32  51  74  95 119 157 200 242 286
#     4  10  20  32  47  70  98 129 163 193 229 282
#     4   8  15  29  49  70  90 116 154 194 232 278
#     4   9  17  30  48  70  96 125 157 193 233 281
#     4   9  17  29  46  67  91 120 154 190 228 274
#
# _framework density 16.998000999999999
#
# number of rings (size 3 to 8) (size 9 to 14) (size 15 to 20)
#    0.000    3.000    0.000    2.000    0.000    5.333 
#    0.000    1.667    0.000    8.000    0.000    0.000 
#    0.000    0.000    0.000    0.000    0.000    0.000 
#
# Total GULP energy -297319.300555 kJ/mol
# GULP energy per Si atom -12388.304190 kJ/mol
# Density = 1.695931 g / cm^3
# Si number density = 16.998001 Si / 1000 Ang^3
#
#
#
# Elastic Constant Matrix: (Units=GPa)
#
#
# Indices 1 2 3 4 5 6 
#
# 1 70.6350 53.4549 37.0304 0.0000 0.0000 0.0000
# 2 53.4549 105.7146 42.3678 0.0000 0.0000 0.0000
# 3 37.0304 42.3678 84.7057 0.0000 0.0000 0.0000
# 4 0.0000 0.0000 0.0000 17.7835 0.0000 0.0000
# 5 0.0000 0.0000 0.0000 0.0000 17.7745 0.0000
# 6 0.0000 0.0000 0.0000 0.0000 0.0000 29.1018
#
#
#
# Elastic Compliance Matrix: (Units=1/GPa)
#
#
# Indices 1 2 3 4 5 6 
#
# 1 0.024994 -0.010330 -0.005760 0.000000 0.000000 0.000000
# 2 -0.010330 0.016100 -0.003537 0.000000 0.000000 0.000000
# 3 -0.005760 -0.003537 0.016093 0.000000 0.000000 0.000000
# 4 0.000000 0.000000 0.000000 0.056232 0.000000 0.000000
# 5 0.000000 0.000000 0.000000 0.000000 0.056260 0.000000
# 6 0.000000 0.000000 0.000000 0.000000 0.000000 0.034362
#
#
# Mechanical properties :
#
#
# Convention : Reuss Voigt Hill
#
# Bulk Modulus (GPa) = 55.76135 58.52908 57.14522
# Shear Modulus (GPa) = 20.05823 21.47877 20.76850
#
# Velocity S-wave (km/s) = 3.43889 3.55858 3.49925
# Velocity P-wave (km/s) = 6.97451 7.16884 7.07235
#
# Compressibility (1/GPa) = 0.01793357
#
# Stress axis : x y z
#
# Youngs Moduli (GPa) = 40.00881 62.10995 62.13976
#
# Poissons Ratio (x) = 0.64160 0.35792
# Poissons Ratio (y) = 0.41330 0.21979
# Poissons Ratio (z) = 0.23044 0.21969
#
# Static dielectric constant tensor:
#      x y z
#    x 3.172770 0.000000 0.000000 
#    y 0.000000 3.198540 0.000000 
#    z 0.000000 0.000000 3.152360 
# 
# 
# High freq. dielectric constant tensor:
#      x y z
#    x 1.658540 0.000000 0.000000 
#    y 0.000000 1.645100 0.000000 
#    z 0.000000 0.000000 1.631360 
# 
# From -- ./inp_files/4861.got.cif
#   From: 2010.03.12/outbox.cif.g09.slc.cpg/sg26_3_cif.got.tgz:4861.got - 2010.04.14 03:33:09.
