data_PCOD8167522
_publ_section_title
;
Structure prediction by ZEFSAII (Michael W. Deem and Ramdas Pophale) SiO2 
 PCOD8167522
Probable space group: P M C 21
;
_chemical_formula_sum "Si O2"
_cell_formula_units_Z 24
_cell_length_a 8.773469
_cell_length_b 15.567120
_cell_length_c 9.604679
_cell_angle_alpha 90.000000
_cell_angle_beta 90.000000
_cell_angle_gamma 90.000000
_cell_volume 1311.784436
_symmetry_space_group_name_H-M "P M C 21"
_symmetry_group_IT_number 26
_symmetry_cell_setting 'orthorhombic'
loop_
_space_group_symop_operation_xyz
x,y,z
-x,-y,1/2+z
-x,y,z
x,-y,1/2+z
loop_
_atom_site_type_symbol
_atom_site_label
_atom_site_fract_x
_atom_site_fract_y
_atom_site_fract_z
Si Si1 0.821078 0.579835 0.068780
Si Si2 0.820417 0.923422 0.389302
Si Si3 0.668420 0.249985 0.569830
Si Si4 0.328851 0.749400 0.400543
Si Si5 0.319022 0.939475 0.089686
Si Si6 0.818712 0.423984 0.884784
O O1 0.773773 0.673778 0.010675
O O2 0.761630 0.565215 0.225825
O O3 0.000000 0.574964 0.063971
O O4 0.754176 0.505289 0.970345
O O5 0.770117 0.830832 0.450215
O O6 0.728234 0.946350 0.250365
O O7 0.000000 0.923396 0.359143
O O8 0.778796 0.992707 0.505058
O O9 0.500000 0.266822 0.510852
O O10 0.668474 0.252199 0.735275
O O11 0.723924 0.154661 0.526609
O O12 0.500000 0.756786 0.461129
O O13 0.251237 0.661669 0.454344
O O14 0.500000 0.956405 0.078382
O O15 0.000000 0.416454 0.891866
#
# Coordination Sequence:
#
# PCOD8167522 Si02
#       6
#     4   4   4   4   4   4
#     4   9  17  29  47  68  93 123 156 196 243 289
#     4  11  21  34  54  80 105 133 171 215 257 304
#     4   8  16  30  49  70  93 124 164 201 237 289
#     4   9  17  31  50  71  95 129 167 203 244 296
#     4  10  20  36  55  76 104 138 172 211 257 307
#     4   9  17  30  47  69  94 123 158 198 242 291
#
# _framework density 18.295688999999999
#
# number of rings (size 3 to 8) (size 9 to 14) (size 15 to 20)
#    0.000    2.667    0.000    3.500    0.000    5.333 
#    0.000    1.667    0.000    6.000    0.000    0.000 
#    0.000    0.000    0.000    0.000    0.000    0.000 
#
# Total GULP energy -297506.502473 kJ/mol
# GULP energy per Si atom -12396.104270 kJ/mol
# Density = 1.825405 g / cm^3
# Si number density = 18.295689 Si / 1000 Ang^3
#
#
#
# Elastic Constant Matrix: (Units=GPa)
#
#
# Indices 1 2 3 4 5 6 
#
# 1 53.5346 22.2314 7.3650 0.0000 0.0000 0.0000
# 2 22.2314 81.7051 7.6010 0.0000 0.0000 0.0000
# 3 7.3650 7.6010 24.0113 0.0000 0.0000 0.0000
# 4 0.0000 0.0000 0.0000 31.3156 0.0000 0.0000
# 5 0.0000 0.0000 0.0000 0.0000 19.0201 0.0000
# 6 0.0000 0.0000 0.0000 0.0000 0.0000 36.0585
#
#
#
# Elastic Compliance Matrix: (Units=1/GPa)
#
#
# Indices 1 2 3 4 5 6 
#
# 1 0.021607 -0.005422 -0.004911 0.000000 0.000000 0.000000
# 2 -0.005422 0.013971 -0.002760 0.000000 0.000000 0.000000
# 3 -0.004911 -0.002760 0.044027 0.000000 0.000000 0.000000
# 4 0.000000 0.000000 0.000000 0.031933 0.000000 0.000000
# 5 0.000000 0.000000 0.000000 0.000000 0.052576 0.000000
# 6 0.000000 0.000000 0.000000 0.000000 0.000000 0.027733
#
#
# Mechanical properties :
#
#
# Convention : Reuss Voigt Hill
#
# Bulk Modulus (GPa) = 18.71975 25.96063 22.34019
# Shear Modulus (GPa) = 21.20093 25.41575 23.30834
#
# Velocity S-wave (km/s) = 3.40780 3.73120 3.57316
# Velocity P-wave (km/s) = 5.07328 5.72562 5.40929
#
# Compressibility (1/GPa) = 0.05341951
#
# Stress axis : x y z
#
# Youngs Moduli (GPa) = 46.28164 71.57580 22.71333
#
# Poissons Ratio (x) = 0.38810 0.11155
# Poissons Ratio (y) = 0.25095 0.06268
# Poissons Ratio (z) = 0.22729 0.19752
#
# Static dielectric constant tensor:
#      x y z
#    x 3.376970 0.000000 0.000000 
#    y 0.000000 3.822100 0.000000 
#    z 0.000000 0.000000 3.139600 
# 
# 
# High freq. dielectric constant tensor:
#      x y z
#    x 1.708790 0.000000 0.000000 
#    y 0.000000 1.728470 0.000000 
#    z 0.000000 0.000000 1.662600 
# 
# From -- ./inp_files/1434.got.cif
#   From: 2010.03.12/outbox.cif.g09.slc.cpg/sg26_1_cif.got.tgz:1434.got - 2010.04.14 03:33:09.
