data_PCOD8167931
_publ_section_title
;
Structure prediction by ZEFSAII (Michael W. Deem and Ramdas Pophale) SiO2 
 PCOD8167931
Probable space group: P C C 2
;
_chemical_formula_sum "Si O2"
_cell_formula_units_Z 30
_cell_length_a 12.319061
_cell_length_b 8.623879
_cell_length_c 13.569944
_cell_angle_alpha 90.000000
_cell_angle_beta 90.000000
_cell_angle_gamma 90.000000
_cell_volume 1441.644952
_symmetry_space_group_name_H-M "P C C 2"
_symmetry_group_IT_number 27
_symmetry_cell_setting 'orthorhombic'
loop_
_space_group_symop_operation_xyz
x,y,z
-x,-y,z
-x,y,1/2+z
x,-y,1/2+z
loop_
_atom_site_type_symbol
_atom_site_label
_atom_site_fract_x
_atom_site_fract_y
_atom_site_fract_z
Si Si1 0.356252 0.864629 0.763820
Si Si2 0.416108 0.189310 0.685855
Si Si3 0.381522 0.941509 0.973358
Si Si4 0.800807 0.799255 0.964592
Si Si5 0.229757 0.648190 0.264425
Si Si6 0.834671 0.321884 0.676411
Si Si7 0.000000 0.000000 0.993349
Si Si8 0.953262 0.844039 0.682080
O O1 0.456285 0.782397 0.706171
O O2 0.349814 0.831243 0.881186
O O3 0.243294 0.808873 0.720327
O O4 0.369919 0.048380 0.751169
O O5 0.390407 0.160487 0.571608
O O6 0.352512 0.340426 0.723634
O O7 0.500000 0.000000 0.946157
O O8 0.299096 0.085305 0.986214
O O9 0.774095 0.670837 0.881833
O O10 0.822387 0.690008 0.058714
O O11 0.907943 0.902876 0.933578
O O12 0.187117 0.485959 0.225714
O O13 0.162532 0.792335 0.220899
O O14 0.959131 0.289491 0.703459
O O15 0.936991 0.121509 0.065153
O O16 0.000000 0.000000 0.734808
#
# Coordination Sequence:
#
# PCOD8167931 Si02
#       8
#     4   4   4   4   4   4   2   4
#     4  11  21  38  63  91 120 164 209 254 304 355
#     4  11  21  38  62  94 121 159 208 263 297 350
#     4  12  20  35  65  93 118 154 214 259 301 353
#     4  11  22  38  62  91 120 161 205 252 306 368
#     4  12  24  38  62  91 127 165 198 246 315 376
#     4  11  24  42  59  89 132 160 197 254 309 371
#     4   8  20  36  64  92 114 150 206 260 296 352
#     4   9  20  41  65  87 117 160 199 252 302 348
#
# _framework density 20.809560000000001
#
# number of rings (size 3 to 8) (size 9 to 14) (size 15 to 20)
#    0.400    0.800    5.333    2.000    0.933    1.600 
#    0.000    5.333    0.000    4.800    0.000    0.000 
#    0.000    0.000    0.000    0.000    0.000    0.000 
#
# Total GULP energy -371799.925403 kJ/mol
# GULP energy per Si atom -12393.330847 kJ/mol
# Density = 2.076220 g / cm^3
# Si number density = 20.809560 Si / 1000 Ang^3
#
#
#
# Elastic Constant Matrix: (Units=GPa)
#
#
# Indices 1 2 3 4 5 6 
#
# 1 63.9585 3.8896 13.1938 0.0000 0.0000 0.0000
# 2 3.8896 57.7243 17.0367 0.0000 0.0000 0.0000
# 3 13.1938 17.0367 124.2511 0.0000 0.0000 0.0000
# 4 0.0000 0.0000 0.0000 20.1835 0.0000 0.0000
# 5 0.0000 0.0000 0.0000 0.0000 21.4775 0.0000
# 6 0.0000 0.0000 0.0000 0.0000 0.0000 30.5838
#
#
#
# Elastic Compliance Matrix: (Units=1/GPa)
#
#
# Indices 1 2 3 4 5 6 
#
# 1 0.016005 -0.000601 -0.001617 0.000000 0.000000 0.000000
# 2 -0.000601 0.018077 -0.002415 0.000000 0.000000 0.000000
# 3 -0.001617 -0.002415 0.008551 0.000000 0.000000 0.000000
# 4 0.000000 0.000000 0.000000 0.049545 0.000000 0.000000
# 5 0.000000 0.000000 0.000000 0.000000 0.046560 0.000000
# 6 0.000000 0.000000 0.000000 0.000000 0.000000 0.032697
#
#
# Mechanical properties :
#
#
# Convention : Reuss Voigt Hill
#
# Bulk Modulus (GPa) = 29.96965 34.90823 32.43894
# Shear Modulus (GPa) = 26.06546 28.56987 27.31767
#
# Velocity S-wave (km/s) = 3.54301 3.70931 3.62711
# Velocity P-wave (km/s) = 5.58304 5.92932 5.75878
#
# Compressibility (1/GPa) = 0.03336709
#
# Stress axis : x y z
#
# Youngs Moduli (GPa) = 62.47932 55.31911 116.94489
#
# Poissons Ratio (x) = 0.03326 0.18911
# Poissons Ratio (y) = 0.03756 0.28240
# Poissons Ratio (z) = 0.10104 0.13358
#
# Static dielectric constant tensor:
#      x y z
#    x 3.969450 0.000000 0.000000 
#    y 0.000000 3.337250 0.000000 
#    z 0.000000 0.000000 3.828310 
# 
# 
# High freq. dielectric constant tensor:
#      x y z
#    x 1.831780 0.000000 0.000000 
#    y 0.000000 1.772800 0.000000 
#    z 0.000000 0.000000 1.821830 
# 
# From -- ./inp_files/3626.got.cif
#   From: 2010.03.12/outbox.cif.g09.slc.cpg/sg27_2_cif.got.tgz:3626.got - 2010.04.14 03:36:05.
