data_PCOD8167069
_publ_section_title
;
Structure prediction by ZEFSAII (Michael W. Deem and Ramdas Pophale) SiO2 
 PCOD8167069
Probable space group: P M C 21
;
_chemical_formula_sum "Si O2"
_cell_formula_units_Z 32
_cell_length_a 8.515749
_cell_length_b 12.057905
_cell_length_c 15.600436
_cell_angle_alpha 90.000000
_cell_angle_beta 90.000000
_cell_angle_gamma 90.000000
_cell_volume 1601.885412
_symmetry_space_group_name_H-M "P M C 21"
_symmetry_group_IT_number 26
_symmetry_cell_setting 'orthorhombic'
loop_
_space_group_symop_operation_xyz
x,y,z
-x,-y,1/2+z
-x,y,z
x,-y,1/2+z
loop_
_atom_site_type_symbol
_atom_site_label
_atom_site_fract_x
_atom_site_fract_y
_atom_site_fract_z
Si Si1 0.685966 0.630899 0.949810
Si Si2 0.686157 0.003812 0.854244
Si Si3 0.686286 0.006697 0.548843
Si Si4 0.313235 0.770553 0.791311
Si Si5 0.686704 0.238301 0.787586
Si Si6 0.816801 0.232896 0.606679
Si Si7 0.686940 0.381958 0.948904
Si Si8 0.313683 0.765656 0.602880
O O1 0.500000 0.627005 0.942482
O O2 0.757031 0.692675 0.866018
O O3 0.754924 0.506484 0.951586
O O4 0.729141 0.695600 0.035311
O O5 0.500000 0.012194 0.854617
O O6 0.751910 0.116112 0.811919
O O7 0.747299 0.896903 0.802307
O O8 0.745035 0.990765 0.951254
O O9 0.500000 0.022902 0.556890
O O10 0.768826 0.104522 0.600916
O O11 0.743963 0.891094 0.588773
O O12 0.500000 0.771123 0.798148
O O13 0.259079 0.726660 0.697805
O O14 0.500000 0.238716 0.776626
O O15 0.765677 0.278256 0.699568
O O16 0.741385 0.322936 0.861552
O O17 0.000000 0.248399 0.593334
O O18 0.500000 0.381995 0.954106
O O19 0.757533 0.315971 0.030894
O O20 0.500000 0.764033 0.594904
#
# Coordination Sequence:
#
# PCOD8167069 Si02
#       8
#     4   4   4   4   4   4   4   4
#     4  10  20  36  57  80 110 147 187 233 279 324
#     4   9  15  27  53  84 108 137 176 218 276 339
#     4  10  17  32  59  83 108 143 179 225 282 336
#     4   9  16  26  46  77 108 138 172 213 266 326
#     4  10  19  35  59  86 113 143 181 231 284 337
#     4  12  25  38  53  79 114 154 194 231 272 327
#     4   9  18  32  55  87 114 138 178 232 281 327
#     4   9  16  28  52  86 115 134 167 223 284 340
#
# _framework density 19.976462000000001
#
# number of rings (size 3 to 8) (size 9 to 14) (size 15 to 20)
#    0.000    2.250    2.500    1.875    0.000    3.000 
#    0.000    5.000    0.000    0.750    0.000    0.000 
#    0.000    0.000    0.000    0.000    0.000    0.000 
#
# Total GULP energy -396747.155060 kJ/mol
# GULP energy per Si atom -12398.348596 kJ/mol
# Density = 1.993099 g / cm^3
# Si number density = 19.976462 Si / 1000 Ang^3
#
#
#
# Elastic Constant Matrix: (Units=GPa)
#
#
# Indices 1 2 3 4 5 6 
#
# 1 10.9938 4.8525 0.1033 0.0000 0.0000 0.0000
# 2 4.8525 154.8313 71.6892 0.0000 0.0000 0.0000
# 3 0.1033 71.6892 164.1176 0.0000 0.0000 0.0000
# 4 0.0000 0.0000 0.0000 16.4294 0.0000 0.0000
# 5 0.0000 0.0000 0.0000 0.0000 3.2248 0.0000
# 6 0.0000 0.0000 0.0000 0.0000 0.0000 2.1762
#
#
#
# Elastic Compliance Matrix: (Units=1/GPa)
#
#
# Indices 1 2 3 4 5 6 
#
# 1 0.092535 -0.003602 0.001515 0.000000 0.000000 0.000000
# 2 -0.003602 0.008236 -0.003595 0.000000 0.000000 0.000000
# 3 0.001515 -0.003595 0.007663 0.000000 0.000000 0.000000
# 4 0.000000 0.000000 0.000000 0.060867 0.000000 0.000000
# 5 0.000000 0.000000 0.000000 0.000000 0.310096 0.000000
# 6 0.000000 0.000000 0.000000 0.000000 0.000000 0.459509
#
#
# Mechanical properties :
#
#
# Convention : Reuss Voigt Hill
#
# Bulk Modulus (GPa) = 10.30181 53.69254 31.99718
# Shear Modulus (GPa) = 5.08840 21.25259 13.17049
#
# Velocity S-wave (km/s) = 1.59773 3.26526 2.57047
# Velocity P-wave (km/s) = 2.92776 6.41499 4.98618
#
# Compressibility (1/GPa) = 0.09707030
#
# Stress axis : x y z
#
# Youngs Moduli (GPa) = 10.80667 121.41408 130.50068
#
# Poissons Ratio (x) = 0.43728 -0.19770
# Poissons Ratio (y) = 0.03892 0.46921
# Poissons Ratio (z) = -0.01637 0.43654
#
# Static dielectric constant tensor:
#      x y z
#    x 2.923670 0.000000 0.000000 
#    y 0.000000 3.841010 0.000000 
#    z 0.000000 0.000000 3.881300 
# 
# 
# High freq. dielectric constant tensor:
#      x y z
#    x 1.707820 0.000000 0.000000 
#    y 0.000000 1.780900 0.000000 
#    z 0.000000 0.000000 1.799070 
# 
# From -- ./inp_files/4290.got.cif
#   From: 2010.03.12/outbox.cif.g09.slc.cpg/sg26_3_cif.got.tgz:4290.got - 2010.04.14 03:33:09.
