data_PCOD8167274
_publ_section_title
;
Structure prediction by ZEFSAII (Michael W. Deem and Ramdas Pophale) SiO2 
 PCOD8167274
Probable space group: P M C 21
;
_chemical_formula_sum "Si O2"
_cell_formula_units_Z 32
_cell_length_a 9.716660
_cell_length_b 12.109303
_cell_length_c 14.581509
_cell_angle_alpha 90.000000
_cell_angle_beta 90.000000
_cell_angle_gamma 90.000000
_cell_volume 1715.689222
_symmetry_space_group_name_H-M "P M C 21"
_symmetry_group_IT_number 26
_symmetry_cell_setting 'orthorhombic'
loop_
_space_group_symop_operation_xyz
x,y,z
-x,-y,1/2+z
-x,y,z
x,-y,1/2+z
loop_
_atom_site_type_symbol
_atom_site_label
_atom_site_fract_x
_atom_site_fract_y
_atom_site_fract_z
Si Si1 0.656034 0.880399 0.941210
Si Si2 0.339107 0.893054 0.541840
Si Si3 0.161997 0.319536 0.017306
Si Si4 0.836520 0.506480 0.146331
Si Si5 0.844715 0.271129 0.550883
Si Si6 0.154791 0.162014 0.740675
Si Si7 0.654682 0.960795 0.744306
Si Si8 0.160586 0.384221 0.822025
O O1 0.500000 0.858412 0.973601
O O2 0.666225 0.879200 0.830816
O O3 0.748638 0.777286 0.971513
O O4 0.704371 0.996628 0.986598
O O5 0.500000 0.866583 0.526092
O O6 0.247964 0.791867 0.504960
O O7 0.302745 0.902198 0.649699
O O8 0.189213 0.401184 0.929599
O O9 0.000000 0.289460 0.023813
O O10 0.216751 0.390650 0.104193
O O11 0.786255 0.611144 0.085968
O O12 0.782526 0.520405 0.252324
O O13 0.000000 0.504342 0.141143
O O14 0.842519 0.182244 0.632292
O O15 0.000000 0.284358 0.512504
O O16 0.221798 0.265984 0.793010
O O17 0.000000 0.137337 0.774536
O O18 0.246433 0.060083 0.768309
O O19 0.500000 0.007322 0.734397
O O20 0.000000 0.376932 0.799300
#
# Coordination Sequence:
#
# PCOD8167274 Si02
#       8
#     4   4   4   4   4   4   4   4
#     4  10  20  34  52  74 100 135 172 203 249 310
#     4  10  21  36  51  72 107 138 161 208 260 295
#     4  10  19  33  55  78 100 134 175 207 245 305
#     4   8  16  32  51  75 104 131 164 210 257 296
#     4   9  17  31  51  73  99 128 163 211 258 293
#     4   9  16  28  49  73  98 129 166 210 250 290
#     4  10  20  33  49  71 101 137 167 198 252 309
#     4   8  15  29  50  76 103 130 164 211 257 288
#
# _framework density 18.651398
#
# number of rings (size 3 to 8) (size 9 to 14) (size 15 to 20)
#    0.000    2.750    1.250    2.250    0.000    1.500 
#    2.250    0.625    0.000    1.500    0.000    0.000 
#    0.000    0.000    0.000    0.000    0.000    0.000 
#
# Total GULP energy -396547.845341 kJ/mol
# GULP energy per Si atom -12392.120167 kJ/mol
# Density = 1.860895 g / cm^3
# Si number density = 18.651398 Si / 1000 Ang^3
#
#
#
# Elastic Constant Matrix: (Units=GPa)
#
#
# Indices 1 2 3 4 5 6 
#
# 1 36.4266 13.2010 10.7576 0.0000 0.0000 0.0000
# 2 13.2010 42.1525 8.7115 0.0000 0.0000 0.0000
# 3 10.7576 8.7115 83.3981 0.0000 0.0000 0.0000
# 4 0.0000 0.0000 0.0000 23.8950 0.0000 0.0000
# 5 0.0000 0.0000 0.0000 0.0000 20.5113 0.0000
# 6 0.0000 0.0000 0.0000 0.0000 0.0000 1.7929
#
#
#
# Elastic Compliance Matrix: (Units=1/GPa)
#
#
# Indices 1 2 3 4 5 6 
#
# 1 0.031744 -0.009296 -0.003124 0.000000 0.000000 0.000000
# 2 -0.009296 0.026969 -0.001618 0.000000 0.000000 0.000000
# 3 -0.003124 -0.001618 0.012563 0.000000 0.000000 0.000000
# 4 0.000000 0.000000 0.000000 0.041850 0.000000 0.000000
# 5 0.000000 0.000000 0.000000 0.000000 0.048754 0.000000
# 6 0.000000 0.000000 0.000000 0.000000 0.000000 0.557753
#
#
# Mechanical properties :
#
#
# Convention : Reuss Voigt Hill
#
# Bulk Modulus (GPa) = 23.14788 25.25749 24.20269
# Shear Modulus (GPa) = 6.56077 17.86031 12.21054
#
# Velocity S-wave (km/s) = 1.87755 3.09785 2.56143
# Velocity P-wave (km/s) = 4.13981 5.13486 4.66395
#
# Compressibility (1/GPa) = 0.04320050
#
# Stress axis : x y z
#
# Youngs Moduli (GPa) = 31.50233 37.07967 79.60124
#
# Poissons Ratio (x) = 0.34468 0.24865
# Poissons Ratio (y) = 0.29284 0.12880
# Poissons Ratio (z) = 0.09840 0.06000
#
# Static dielectric constant tensor:
#      x y z
#    x 3.138760 0.000000 0.000000 
#    y 0.000000 3.226370 0.000000 
#    z 0.000000 0.000000 3.601320 
# 
# 
# High freq. dielectric constant tensor:
#      x y z
#    x 1.689420 0.000000 0.000000 
#    y 0.000000 1.702630 0.000000 
#    z 0.000000 0.000000 1.733530 
# 
# From -- ./inp_files/4138.got.cif
#   From: 2010.03.12/outbox.cif.g09.slc.cpg/sg26_3_cif.got.tgz:4138.got - 2010.04.14 03:33:09.
