data_PCOD8167784
_publ_section_title
;
Structure prediction by ZEFSAII (Michael W. Deem and Ramdas Pophale) SiO2 
 PCOD8167784
Probable space group: P C C 2
;
_chemical_formula_sum "Si O2"
_cell_formula_units_Z 24
_cell_length_a 8.570871
_cell_length_b 25.921371
_cell_length_c 5.347141
_cell_angle_alpha 90.000000
_cell_angle_beta 90.000000
_cell_angle_gamma 90.000000
_cell_volume 1187.967509
_symmetry_space_group_name_H-M "P C C 2"
_symmetry_group_IT_number 27
_symmetry_cell_setting 'orthorhombic'
loop_
_space_group_symop_operation_xyz
x,y,z
-x,-y,z
-x,y,1/2+z
x,-y,1/2+z
loop_
_atom_site_type_symbol
_atom_site_label
_atom_site_fract_x
_atom_site_fract_y
_atom_site_fract_z
Si Si1 0.935236 0.942323 0.982930
Si Si2 0.677005 0.521388 0.478053
Si Si3 0.683929 0.746633 0.482696
Si Si4 0.401988 0.364111 0.458463
Si Si5 0.593991 0.909348 0.982821
Si Si6 0.336210 0.789030 0.482718
O O1 0.000008 0.913682 0.732936
O O2 0.748907 0.943632 0.982910
O O3 0.000000 0.000000 0.982955
O O4 0.500000 0.500000 0.473322
O O5 0.761543 0.500515 0.226945
O O6 0.692476 0.582992 0.484367
O O7 0.712413 0.685073 0.484778
O O8 0.499287 0.758639 0.480090
O O9 0.758643 0.772183 0.232506
O O10 0.758586 0.772192 0.732663
O O11 0.473891 0.361979 0.181972
O O12 0.499938 0.923764 0.232761
O O13 0.637756 0.849616 0.982870
#
# Coordination Sequence:
#
# PCOD8167784 Si02
#       6
#     4   4   4   4   4   4
#     4  10  23  45  62  81 120 155 174 213 274 323
#     4  10  16  22  26  35  53  82 138 196 222 262
#     4  10  16  25  36  58  94 112 135 188 270 310
#     4  12  16  20  31  42  62 105 132 168 252 308
#     4  12  21  35  62  92 106 137 188 227 259 312
#     4  10  16  27  41  66  98 112 141 201 251 293
#
# _framework density 20.202575
#
# number of rings (size 3 to 8) (size 9 to 14) (size 15 to 20)
#    0.000    1.333   10.000    1.000    0.000    0.000 
#    0.000   10.000    0.000    0.000    0.000    0.000 
#    0.000    0.000    0.000    0.000    0.000    0.000 
#
# Total GULP energy -297398.441980 kJ/mol
# GULP energy per Si atom -12391.601749 kJ/mol
# Density = 2.015659 g / cm^3
# Si number density = 20.202575 Si / 1000 Ang^3
#
#
#
# Elastic Constant Matrix: (Units=GPa)
#
#
# Indices 1 2 3 4 5 6 
#
# 1 60.0848 38.2920 42.0537 0.0000 0.0000 0.0000
# 2 38.2920 89.0558 29.8200 0.0000 0.0000 0.0000
# 3 42.0537 29.8200 234.9023 0.0000 0.0000 0.0000
# 4 0.0000 0.0000 0.0000 12.3432 0.0000 0.0000
# 5 0.0000 0.0000 0.0000 0.0000 14.3120 0.0000
# 6 0.0000 0.0000 0.0000 0.0000 0.0000 0.7641
#
#
#
# Elastic Compliance Matrix: (Units=1/GPa)
#
#
# Indices 1 2 3 4 5 6 
#
# 1 0.025112 -0.009705 -0.003264 0.000000 0.000000 0.000000
# 2 -0.009705 0.015478 -0.000227 0.000000 0.000000 0.000000
# 3 -0.003264 -0.000227 0.004870 0.000000 0.000000 0.000000
# 4 0.000000 0.000000 0.000000 0.081016 0.000000 0.000000
# 5 0.000000 0.000000 0.000000 0.000000 0.069871 0.000000
# 6 0.000000 0.000000 0.000000 0.000000 0.000000 1.308653
#
#
# Mechanical properties :
#
#
# Convention : Reuss Voigt Hill
#
# Bulk Modulus (GPa) = 52.44280 67.15269 59.79774
# Shear Modulus (GPa) = 3.25150 23.74234 13.49692
#
# Velocity S-wave (km/s) = 1.27002 3.43186 2.58753
# Velocity P-wave (km/s) = 5.30711 7.00110 6.21212
#
# Compressibility (1/GPa) = 0.01906840
#
# Stress axis : x y z
#
# Youngs Moduli (GPa) = 39.82090 64.60793 205.32761
#
# Poissons Ratio (x) = 0.62701 0.67015
# Poissons Ratio (y) = 0.38646 0.04670
# Poissons Ratio (z) = 0.12997 0.01469
#
# Static dielectric constant tensor:
#      x y z
#    x 2.884990 0.000000 0.000000 
#    y 0.000000 3.894260 0.000000 
#    z 0.000000 0.000000 6.995660 
# 
# 
# High freq. dielectric constant tensor:
#      x y z
#    x 1.680770 0.000000 0.000000 
#    y 0.000000 1.791620 0.000000 
#    z 0.000000 0.000000 1.841240 
# 
# From -- ./inp_files/187.got.cif
#   From: 2010.03.12/outbox.cif.g09.slc.cpg/sg27_1_cif.got.tgz:187.got - 2010.04.14 03:36:05.
