data_PCOD8167804
_publ_section_title
;
Structure prediction by ZEFSAII (Michael W. Deem and Ramdas Pophale) SiO2 
 PCOD8167804
Probable space group: P C C 2
;
_chemical_formula_sum "Si O2"
_cell_formula_units_Z 30
_cell_length_a 14.455448
_cell_length_b 5.122605
_cell_length_c 21.309752
_cell_angle_alpha 90.000000
_cell_angle_beta 90.000000
_cell_angle_gamma 90.000000
_cell_volume 1577.977551
_symmetry_space_group_name_H-M "P C C 2"
_symmetry_group_IT_number 27
_symmetry_cell_setting 'orthorhombic'
loop_
_space_group_symop_operation_xyz
x,y,z
-x,-y,z
-x,y,1/2+z
x,-y,1/2+z
loop_
_atom_site_type_symbol
_atom_site_label
_atom_site_fract_x
_atom_site_fract_y
_atom_site_fract_z
Si Si1 0.213982 0.962212 0.716900
Si Si2 0.310392 0.063002 0.341746
Si Si3 0.264400 0.917325 0.577247
Si Si4 0.582604 0.654911 0.008325
Si Si5 0.795059 0.430497 0.378518
Si Si6 0.500000 0.000000 0.902453
Si Si7 0.106289 0.449759 0.754512
Si Si8 0.227770 0.569610 0.010387
O O1 0.292115 0.017638 0.769397
O O2 0.165616 0.686290 0.727285
O O3 0.266558 0.971011 0.650762
O O4 0.136602 0.187317 0.718811
O O5 0.273116 0.350863 0.352669
O O6 0.418323 0.082777 0.355928
O O7 0.258232 0.847541 0.385260
O O8 0.211702 0.148591 0.540406
O O9 0.370921 0.878718 0.552826
O O10 0.205718 0.654564 0.561976
O O11 0.500000 0.500000 0.044671
O O12 0.664014 0.452494 0.988865
O O13 0.535921 0.766138 0.945777
O O14 0.879925 0.409513 0.329604
O O15 0.832548 0.518562 0.447370
O O16 0.000000 0.500000 0.740184
#
# Coordination Sequence:
#
# PCOD8167804 Si02
#       8
#     4   4   4   4   4   2   4   4
#     4  10  21  40  59  84 121 151 193 227 285 355
#     4  10  21  32  55  78 112 152 184 240 281 320
#     4  10  21  35  56  78 110 155 195 222 287 332
#     4  10  20  30  53  77 112 143 201 245 268 325
#     4  10  18  36  54  84 114 138 183 235 294 337
#     4  12  20  34  52  84 112 150 210 244 276 320
#     4  10  21  37  66  90 109 144 186 241 291 348
#     4  10  19  33  54  81 109 150 191 226 288 328
#
# _framework density 19.011676000000001
#
# number of rings (size 3 to 8) (size 9 to 14) (size 15 to 20)
#    0.800    1.067    1.333    4.400    0.000    0.000 
#    0.000    2.000    0.000    4.800    0.000    0.000 
#    0.000    0.000    0.000    0.000    0.000    0.000 
#
# Total GULP energy -371800.744060 kJ/mol
# GULP energy per Si atom -12393.358135 kJ/mol
# Density = 1.896840 g / cm^3
# Si number density = 19.011676 Si / 1000 Ang^3
#
#
#
# Elastic Constant Matrix: (Units=GPa)
#
#
# Indices 1 2 3 4 5 6 
#
# 1 53.1067 2.5339 27.4738 0.0000 0.0000 0.0000
# 2 2.5339 85.2460 18.6566 0.0000 0.0000 0.0000
# 3 27.4738 18.6566 120.1160 0.0000 0.0000 0.0000
# 4 0.0000 0.0000 0.0000 23.4642 0.0000 0.0000
# 5 0.0000 0.0000 0.0000 0.0000 13.9531 0.0000
# 6 0.0000 0.0000 0.0000 0.0000 0.0000 19.5516
#
#
#
# Elastic Compliance Matrix: (Units=1/GPa)
#
#
# Indices 1 2 3 4 5 6 
#
# 1 0.021374 0.000450 -0.004959 0.000000 0.000000 0.000000
# 2 0.000450 0.012153 -0.001991 0.000000 0.000000 0.000000
# 3 -0.004959 -0.001991 0.009769 0.000000 0.000000 0.000000
# 4 0.000000 0.000000 0.000000 0.042618 0.000000 0.000000
# 5 0.000000 0.000000 0.000000 0.000000 0.071669 0.000000
# 6 0.000000 0.000000 0.000000 0.000000 0.000000 0.051147
#
#
# Mechanical properties :
#
#
# Convention : Reuss Voigt Hill
#
# Bulk Modulus (GPa) = 33.00665 39.53304 36.26985
# Shear Modulus (GPa) = 21.56784 25.38073 23.47428
#
# Velocity S-wave (km/s) = 3.37182 3.65774 3.51768
# Velocity P-wave (km/s) = 5.70595 6.21916 5.96807
#
# Compressibility (1/GPa) = 0.03029692
#
# Stress axis : x y z
#
# Youngs Moduli (GPa) = 46.78618 82.28401 102.36840
#
# Poissons Ratio (x) = -0.03702 0.50761
# Poissons Ratio (y) = -0.02105 0.20377
# Poissons Ratio (z) = 0.23200 0.16379
#
# Static dielectric constant tensor:
#      x y z
#    x 3.143890 0.000000 0.000000 
#    y 0.000000 3.606250 0.000000 
#    z 0.000000 0.000000 3.454880 
# 
# 
# High freq. dielectric constant tensor:
#      x y z
#    x 1.695150 0.000000 0.000000 
#    y 0.000000 1.759710 0.000000 
#    z 0.000000 0.000000 1.729790 
# 
# From -- ./inp_files/4497.got.cif
#   From: 2010.03.12/outbox.cif.g09.slc.cpg/sg27_3_cif.got.tgz:4497.got - 2010.04.14 03:36:05.
