data_PCOD8167668
_publ_section_title
;
Structure prediction by ZEFSAII (Michael W. Deem and Ramdas Pophale) SiO2 
 PCOD8167668
Probable space group: P M C 21
;
_chemical_formula_sum "Si O2"
_cell_formula_units_Z 32
_cell_length_a 8.673057
_cell_length_b 14.718213
_cell_length_c 12.469353
_cell_angle_alpha 90.000000
_cell_angle_beta 90.000000
_cell_angle_gamma 90.000000
_cell_volume 1591.736606
_symmetry_space_group_name_H-M "P M C 21"
_symmetry_group_IT_number 26
_symmetry_cell_setting 'orthorhombic'
loop_
_space_group_symop_operation_xyz
x,y,z
-x,-y,1/2+z
-x,y,z
x,-y,1/2+z
loop_
_atom_site_type_symbol
_atom_site_label
_atom_site_fract_x
_atom_site_fract_y
_atom_site_fract_z
Si Si1 0.678444 0.559362 0.586560
Si Si2 0.681706 0.863971 0.845017
Si Si3 0.325533 0.366311 0.637137
Si Si4 0.823143 0.825174 0.464375
Si Si5 0.183564 0.263008 0.179120
Si Si6 0.329479 0.338726 0.877687
Si Si7 0.183420 0.950892 0.281307
Si Si8 0.317091 0.167761 0.589006
O O1 0.500000 0.558147 0.624023
O O2 0.753873 0.458285 0.592800
O O3 0.766766 0.632949 0.659860
O O4 0.697570 0.581922 0.462237
O O5 0.500000 0.871246 0.831913
O O6 0.741726 0.771473 0.789746
O O7 0.761550 0.945744 0.780555
O O8 0.729290 0.865119 0.970096
O O9 0.500000 0.362188 0.593938
O O10 0.316061 0.383333 0.763089
O O11 0.247977 0.270099 0.604284
O O12 0.750989 0.802001 0.581502
O O13 0.800523 0.737587 0.389358
O O14 0.752485 0.908113 0.394254
O O15 0.000000 0.846039 0.483121
O O16 0.000000 0.258333 0.185466
O O17 0.500000 0.294285 0.894113
O O18 0.246578 0.900021 0.176442
O O19 0.000000 0.945412 0.276147
O O20 0.500000 0.168651 0.606854
#
# Coordination Sequence:
#
# PCOD8167668 Si02
#       8
#     4   4   4   4   4   4   4   4
#     4   9  18  32  54  85 115 153 200 242 292 349
#     4  11  25  41  60  88 121 158 198 245 298 356
#     4   9  17  32  56  84 116 151 193 243 296 349
#     4   9  19  35  56  81 109 145 187 238 289 340
#     4  10  21  39  59  83 118 157 197 242 294 349
#     4   9  16  29  52  79 108 147 191 239 287 338
#     4  11  23  39  61  87 116 153 195 242 297 359
#     4  10  22  41  62  89 121 154 197 249 299 352
#
# _framework density 20.103828
#
# number of rings (size 3 to 8) (size 9 to 14) (size 15 to 20)
#    0.000    2.250    1.250    1.125    1.750    3.000 
#    0.000    5.000    0.000    3.000    0.000    0.000 
#    0.000    0.000    0.000    0.000    0.000    0.000 
#
# Total GULP energy -396556.169243 kJ/mol
# GULP energy per Si atom -12392.380289 kJ/mol
# Density = 2.005807 g / cm^3
# Si number density = 20.103828 Si / 1000 Ang^3
#
#
#
# Elastic Constant Matrix: (Units=GPa)
#
#
# Indices 1 2 3 4 5 6 
#
# 1 38.8892 22.8945 34.9290 0.0000 0.0000 0.0000
# 2 22.8945 134.7130 60.9195 0.0000 0.0000 0.0000
# 3 34.9290 60.9195 94.1049 0.0000 0.0000 0.0000
# 4 0.0000 0.0000 0.0000 29.7398 0.0000 0.0000
# 5 0.0000 0.0000 0.0000 0.0000 21.8697 0.0000
# 6 0.0000 0.0000 0.0000 0.0000 0.0000 19.5196
#
#
#
# Elastic Compliance Matrix: (Units=1/GPa)
#
#
# Indices 1 2 3 4 5 6 
#
# 1 0.038575 -0.000115 -0.014244 0.000000 0.000000 0.000000
# 2 -0.000115 0.010496 -0.006752 0.000000 0.000000 0.000000
# 3 -0.014244 -0.006752 0.020284 0.000000 0.000000 0.000000
# 4 0.000000 0.000000 0.000000 0.033625 0.000000 0.000000
# 5 0.000000 0.000000 0.000000 0.000000 0.045725 0.000000
# 6 0.000000 0.000000 0.000000 0.000000 0.000000 0.051230
#
#
# Mechanical properties :
#
#
# Convention : Reuss Voigt Hill
#
# Bulk Modulus (GPa) = 36.85364 56.13254 46.49309
# Shear Modulus (GPa) = 19.90432 24.15676 22.03054
#
# Velocity S-wave (km/s) = 3.14996 3.47017 3.31394
# Velocity P-wave (km/s) = 5.62149 6.63612 6.14976
#
# Compressibility (1/GPa) = 0.02713436
#
# Stress axis : x y z
#
# Youngs Moduli (GPa) = 25.92371 95.27328 49.29910
#
# Poissons Ratio (x) = 0.01092 0.70220
# Poissons Ratio (y) = 0.00297 0.33288
# Poissons Ratio (z) = 0.36925 0.64331
#
# Static dielectric constant tensor:
#      x y z
#    x 3.435230 0.000000 0.000000 
#    y 0.000000 3.778860 0.000000 
#    z 0.000000 0.000000 3.794910 
# 
# 
# High freq. dielectric constant tensor:
#      x y z
#    x 1.757140 0.000000 0.000000 
#    y 0.000000 1.786830 0.000000 
#    z 0.000000 0.000000 1.789860 
# 
# From -- ./inp_files/3066.got.cif
#   From: 2010.03.12/outbox.cif.g09.slc.cpg/sg26_2_cif.got.tgz:3066.got - 2010.04.14 03:33:09.
