data_PCOD8167578
_publ_section_title
;
Structure prediction by ZEFSAII (Michael W. Deem and Ramdas Pophale) SiO2 
 PCOD8167578
Probable space group: P M C 21
;
_chemical_formula_sum "Si O2"
_cell_formula_units_Z 32
_cell_length_a 13.138373
_cell_length_b 6.578449
_cell_length_c 18.935440
_cell_angle_alpha 90.000000
_cell_angle_beta 90.000000
_cell_angle_gamma 90.000000
_cell_volume 1636.592289
_symmetry_space_group_name_H-M "P M C 21"
_symmetry_group_IT_number 26
_symmetry_cell_setting 'orthorhombic'
loop_
_space_group_symop_operation_xyz
x,y,z
-x,-y,1/2+z
-x,y,z
x,-y,1/2+z
loop_
_atom_site_type_symbol
_atom_site_label
_atom_site_fract_x
_atom_site_fract_y
_atom_site_fract_z
Si Si1 0.885682 0.392791 0.443420
Si Si2 0.228247 0.211501 0.571780
Si Si3 0.882963 0.783499 0.215749
Si Si4 0.280535 0.523509 0.770079
Si Si5 0.386930 0.123632 0.031511
Si Si6 0.388282 0.513224 0.628463
Si Si7 0.277825 0.716899 0.403146
Si Si8 0.185783 0.906249 0.828159
O O1 0.853617 0.275759 0.514011
O O2 0.820471 0.595503 0.431328
O O3 0.000000 0.470315 0.453215
O O4 0.882625 0.238419 0.377310
O O5 0.169243 0.143760 0.642651
O O6 0.302930 0.397566 0.585185
O O7 0.296774 0.035107 0.539520
O O8 0.824727 0.586818 0.246491
O O9 0.880512 0.967957 0.271716
O O10 0.000000 0.722097 0.202308
O O11 0.366522 0.506305 0.711346
O O12 0.325946 0.411807 0.838949
O O13 0.262268 0.761066 0.784884
O O14 0.500000 0.026628 0.021106
O O15 0.362393 0.264960 0.963890
O O16 0.387870 0.255645 0.102505
O O17 0.500000 0.414766 0.616280
O O18 0.249029 0.942173 0.377631
#
# Coordination Sequence:
#
# PCOD8167578 Si02
#       8
#     4   4   4   4   4   4   4   4
#     4  11  22  36  59  86 120 161 198 237 292 349
#     4  11  21  39  59  85 121 154 199 246 291 341
#     4  10  21  36  57  85 117 154 197 240 291 348
#     4   9  21  37  59  84 116 152 192 247 290 346
#     4  11  22  38  61  87 115 157 200 244 297 349
#     4  10  21  39  62  86 114 154 195 243 298 348
#     4  10  21  39  57  87 122 153 197 248 286 345
#     4  10  20  38  59  82 121 155 195 239 296 336
#
# _framework density 19.552823
#
# number of rings (size 3 to 8) (size 9 to 14) (size 15 to 20)
#    0.000    1.750    2.500    1.875    0.000    6.000 
#    0.000    0.625    0.000    0.000    0.000    0.000 
#    0.000    0.000    0.000    0.000    0.000    0.000 
#
# Total GULP energy -396789.604671 kJ/mol
# GULP energy per Si atom -12399.675146 kJ/mol
# Density = 1.950832 g / cm^3
# Si number density = 19.552823 Si / 1000 Ang^3
#
#
#
# Elastic Constant Matrix: (Units=GPa)
#
#
# Indices 1 2 3 4 5 6 
#
# 1 76.2708 22.3234 33.1811 0.0000 0.0000 0.0000
# 2 22.3234 83.6056 26.5885 0.0000 0.0000 0.0000
# 3 33.1811 26.5885 109.8869 0.0000 0.0000 0.0000
# 4 0.0000 0.0000 0.0000 29.3390 0.0000 0.0000
# 5 0.0000 0.0000 0.0000 0.0000 -23.9288 0.0000
# 6 0.0000 0.0000 0.0000 0.0000 0.0000 12.6894
#
#
#
# Elastic Compliance Matrix: (Units=1/GPa)
#
#
# Indices 1 2 3 4 5 6 
#
# 1 0.015722 -0.002912 -0.004043 0.000000 0.000000 0.000000
# 2 -0.002912 0.013497 -0.002386 0.000000 0.000000 0.000000
# 3 -0.004043 -0.002386 0.010898 0.000000 0.000000 0.000000
# 4 0.000000 0.000000 0.000000 0.034084 0.000000 0.000000
# 5 0.000000 0.000000 0.000000 0.000000 -0.041791 0.000000
# 6 0.000000 0.000000 0.000000 0.000000 0.000000 0.078806
#
#
# Mechanical properties :
#
#
# Convention : Reuss Voigt Hill
#
# Bulk Modulus (GPa) = 46.65243 48.21659 47.43451
# Shear Modulus (GPa) = 36.48407 16.13127 26.30767
#
# Velocity S-wave (km/s) = 4.32432 2.87541 3.67204
# Velocity P-wave (km/s) = 6.98888 5.97806 6.50314
#
# Compressibility (1/GPa) = 0.02143511
#
# Stress axis : x y z
#
# Youngs Moduli (GPa) = 63.60362 74.08789 91.75607
#
# Poissons Ratio (x) = 0.21577 0.37095
# Poissons Ratio (y) = 0.18523 0.21897
# Poissons Ratio (z) = 0.25714 0.17681
#
# Static dielectric constant tensor:
#      x y z
#    x 3.375630 0.000000 0.000000 
#    y 0.000000 3.477950 0.000000 
#    z 0.000000 0.000000 3.797620 
# 
# 
# High freq. dielectric constant tensor:
#      x y z
#    x 1.747840 0.000000 0.000000 
#    y 0.000000 1.757570 0.000000 
#    z 0.000000 0.000000 1.780160 
# 
# From -- ./inp_files/5247.got.cif
#   From: 2010.03.12/outbox.cif.g09.slc.cpg/sg26_3_cif.got.tgz:5247.got - 2010.04.14 03:33:09.
