data_PCOD8167217
_publ_section_title
;
Structure prediction by ZEFSAII (Michael W. Deem and Ramdas Pophale) SiO2 
 PCOD8167217
Probable space group: P M C 21
;
_chemical_formula_sum "Si O2"
_cell_formula_units_Z 32
_cell_length_a 9.008969
_cell_length_b 11.525976
_cell_length_c 17.507686
_cell_angle_alpha 90.000000
_cell_angle_beta 90.000000
_cell_angle_gamma 90.000000
_cell_volume 1817.948401
_symmetry_space_group_name_H-M "P M C 21"
_symmetry_group_IT_number 26
_symmetry_cell_setting 'orthorhombic'
loop_
_space_group_symop_operation_xyz
x,y,z
-x,-y,1/2+z
-x,y,z
x,-y,1/2+z
loop_
_atom_site_type_symbol
_atom_site_label
_atom_site_fract_x
_atom_site_fract_y
_atom_site_fract_z
Si Si1 0.323510 0.233141 0.388420
Si Si2 0.165609 0.452999 0.328798
Si Si3 0.836412 0.343253 0.163284
Si Si4 0.175034 0.120951 0.246829
Si Si5 0.665938 0.342496 0.770487
Si Si6 0.334440 0.544123 0.104987
Si Si7 0.827211 0.863195 0.201248
Si Si8 0.825730 0.244969 0.540897
O O1 0.500000 0.232938 0.387268
O O2 0.264390 0.363721 0.376910
O O3 0.263754 0.145554 0.324297
O O4 0.261953 0.188823 0.469856
O O5 0.154039 0.411108 0.242461
O O6 0.242114 0.579732 0.330821
O O7 0.000000 0.461057 0.364340
O O8 0.778037 0.213075 0.180935
O O9 0.727110 0.411936 0.106217
O O10 0.000000 0.338795 0.125633
O O11 0.000000 0.133886 0.264272
O O12 0.219041 0.995172 0.216215
O O13 0.500000 0.325367 0.802330
O O14 0.662469 0.406597 0.689879
O O15 0.740960 0.216904 0.761524
O O16 0.500000 0.542979 0.069938
O O17 0.228061 0.622796 0.053086
O O18 0.784566 0.832554 0.114356
O O19 0.000000 0.841181 0.215280
O O20 0.000000 0.245301 0.523957
#
# Coordination Sequence:
#
# PCOD8167217 Si02
#       8
#     4   4   4   4   4   4   4   4
#     4  11  21  32  48  72 100 128 160 203 255 306
#     4   9  16  28  46  67  92 122 155 190 232 285
#     4   8  14  25  43  66  91 118 149 189 234 279
#     4   9  18  33  51  72  98 130 171 213 248 291
#     4   9  16  26  43  69  98 123 150 191 240 284
#     4   9  16  26  42  66  94 120 148 186 234 287
#     4   9  18  32  51  73  97 130 173 213 246 289
#     4  10  19  32  50  71  96 127 162 203 251 301
#
# _framework density 17.602259
#
# number of rings (size 3 to 8) (size 9 to 14) (size 15 to 20)
#    0.000    2.750    0.000    3.375    0.000    7.000 
#    0.000    0.000    0.000    1.500    0.000    3.500 
#    0.000    0.000    0.000    0.000    0.000    0.000 
#
# Total GULP energy -396718.125237 kJ/mol
# GULP energy per Si atom -12397.441414 kJ/mol
# Density = 1.756220 g / cm^3
# Si number density = 17.602259 Si / 1000 Ang^3
#
#
#
# Elastic Constant Matrix: (Units=GPa)
#
#
# Indices 1 2 3 4 5 6 
#
# 1 115.5710 58.6630 38.9365 0.0000 0.0000 0.0000
# 2 58.6630 139.7774 38.5823 0.0000 0.0000 0.0000
# 3 38.9365 38.5823 55.1568 0.0000 0.0000 0.0000
# 4 0.0000 0.0000 0.0000 13.2876 0.0000 0.0000
# 5 0.0000 0.0000 0.0000 0.0000 21.1740 0.0000
# 6 0.0000 0.0000 0.0000 0.0000 0.0000 21.1101
#
#
#
# Elastic Compliance Matrix: (Units=1/GPa)
#
#
# Indices 1 2 3 4 5 6 
#
# 1 0.012606 -0.003512 -0.006442 0.000000 0.000000 0.000000
# 2 -0.003512 0.009845 -0.004407 0.000000 0.000000 0.000000
# 3 -0.006442 -0.004407 0.025760 0.000000 0.000000 0.000000
# 4 0.000000 0.000000 0.000000 0.075258 0.000000 0.000000
# 5 0.000000 0.000000 0.000000 0.000000 0.047228 0.000000
# 6 0.000000 0.000000 0.000000 0.000000 0.000000 0.047371
#
#
# Mechanical properties :
#
#
# Convention : Reuss Voigt Hill
#
# Bulk Modulus (GPa) = 51.31235 64.76322 58.03779
# Shear Modulus (GPa) = 19.74054 22.73590 21.23822
#
# Velocity S-wave (km/s) = 3.35248 3.59785 3.47733
# Velocity P-wave (km/s) = 6.64829 7.35743 7.01183
#
# Compressibility (1/GPa) = 0.01948848
#
# Stress axis : x y z
#
# Youngs Moduli (GPa) = 79.32824 101.57653 38.81947
#
# Poissons Ratio (x) = 0.35678 0.25007
# Poissons Ratio (y) = 0.27863 0.17108
# Poissons Ratio (z) = 0.51102 0.44764
#
# Static dielectric constant tensor:
#      x y z
#    x 3.437800 0.000000 0.000000 
#    y 0.000000 3.299870 0.000000 
#    z 0.000000 0.000000 2.968680 
# 
# 
# High freq. dielectric constant tensor:
#      x y z
#    x 1.690200 0.000000 0.000000 
#    y 0.000000 1.667630 0.000000 
#    z 0.000000 0.000000 1.639470 
# 
# From -- ./inp_files/5015.got.cif
#   From: 2010.03.12/outbox.cif.g09.slc.cpg/sg26_3_cif.got.tgz:5015.got - 2010.04.14 03:33:09.
