data_PCOD8167000
_publ_section_title
;
Structure prediction by ZEFSAII (Michael W. Deem and Ramdas Pophale) SiO2 
 PCOD8167000
Probable space group: P M M 2
;
_chemical_formula_sum "Si O2"
_cell_formula_units_Z 32
_cell_length_a 9.321600
_cell_length_b 9.585165
_cell_length_c 20.980204
_cell_angle_alpha 90.000000
_cell_angle_beta 90.000000
_cell_angle_gamma 90.000000
_cell_volume 1874.561801
_symmetry_space_group_name_H-M "P M M 2"
_symmetry_group_IT_number 25
_symmetry_cell_setting 'orthorhombic'
loop_
_space_group_symop_operation_xyz
x,y,z
-x,-y,z
-x,y,z
x,-y,z
loop_
_atom_site_type_symbol
_atom_site_label
_atom_site_fract_x
_atom_site_fract_y
_atom_site_fract_z
Si Si1 0.667025 0.662707 0.715070
Si Si2 0.341111 0.165484 0.969092
Si Si3 0.333449 0.161283 0.348145
Si Si4 0.162080 0.665852 0.592517
Si Si5 0.161385 0.833819 0.225207
Si Si6 0.333517 0.661879 0.469934
Si Si7 0.328483 0.156943 0.832863
Si Si8 0.663142 0.834126 0.106394
O O1 0.500000 0.694182 0.702849
O O2 0.694764 0.500000 0.726249
O O3 0.754293 0.721114 0.654609
O O4 0.726738 0.741986 0.777261
O O5 0.500000 0.229977 0.971545
O O6 0.266366 0.211703 0.902015
O O7 0.351821 0.000000 0.965892
O O8 0.268836 0.210073 0.036833
O O9 0.500000 0.183957 0.332297
O O10 0.244520 0.217403 0.287938
O O11 0.284676 0.250789 0.408733
O O12 0.299832 0.000000 0.362828
O O13 0.164433 0.500000 0.592991
O O14 0.242496 0.719637 0.529423
O O15 0.000000 0.723915 0.593066
O O16 0.239149 0.770718 0.162578
O O17 0.000000 0.775363 0.227323
O O18 0.162559 0.000000 0.222469
O O19 0.500000 0.686083 0.486033
O O20 0.301401 0.500000 0.456219
O O21 0.500000 0.159492 0.837048
O O22 0.274645 0.000000 0.818106
O O23 0.500000 0.778886 0.113841
O O24 0.661761 0.000000 0.111829
#
# Coordination Sequence:
#
# PCOD8167000 Si02
#       8
#     4   4   4   4   4   4   4   4
#     4   9  16  26  42  63  83 103 131 168 204 235
#     4   7  10  17  31  52  75  98 128 166 202 235
#     4   9  17  29  44  62  85 111 135 160 196 243
#     4   9  17  29  45  63  82 106 136 167 198 236
#     4   9  16  24  35  54  81 110 137 167 202 236
#     4   9  17  30  48  67  84 103 131 168 204 235
#     4   8  13  22  37  58  83 108 133 163 201 243
#     4   8  12  19  33  52  73  99 133 170 203 236
#
# _framework density 17.070657000000001
#
# number of rings (size 3 to 8) (size 9 to 14) (size 15 to 20)
#    0.000    3.500    0.000    2.250    0.000    3.500 
#    0.000    0.625    0.000    4.875    0.000    2.625 
#    0.000    5.000    0.000    0.000    0.000    0.000 
#
# Total GULP energy -396466.258825 kJ/mol
# GULP energy per Si atom -12389.570588 kJ/mol
# Density = 1.703180 g / cm^3
# Si number density = 17.070657 Si / 1000 Ang^3
#
#
#
# Elastic Constant Matrix: (Units=GPa)
#
#
# Indices 1 2 3 4 5 6 
#
# 1 73.3616 19.7580 77.5252 0.0000 0.0000 0.0000
# 2 19.7580 27.8348 44.7072 0.0000 0.0000 0.0000
# 3 77.5252 44.7072 212.4511 0.0000 0.0000 0.0000
# 4 0.0000 0.0000 0.0000 5.2530 0.0000 0.0000
# 5 0.0000 0.0000 0.0000 0.0000 6.4831 0.0000
# 6 0.0000 0.0000 0.0000 0.0000 0.0000 8.3260
#
#
#
# Elastic Compliance Matrix: (Units=1/GPa)
#
#
# Indices 1 2 3 4 5 6 
#
# 1 0.022508 -0.004207 -0.007328 0.000000 0.000000 0.000000
# 2 -0.004207 0.055055 -0.010050 0.000000 0.000000 0.000000
# 3 -0.007328 -0.010050 0.009496 0.000000 0.000000 0.000000
# 4 0.000000 0.000000 0.000000 0.190366 0.000000 0.000000
# 5 0.000000 0.000000 0.000000 0.000000 0.154246 0.000000
# 6 0.000000 0.000000 0.000000 0.000000 0.000000 0.120105
#
#
# Mechanical properties :
#
#
# Convention : Reuss Voigt Hill
#
# Bulk Modulus (GPa) = 22.78507 66.40315 44.59411
# Shear Modulus (GPa) = 8.20241 15.45624 11.82932
#
# Velocity S-wave (km/s) = 2.19440 3.01230 2.63527
# Velocity P-wave (km/s) = 4.44938 7.14717 5.95311
#
# Compressibility (1/GPa) = 0.04388839
#
# Stress axis : x y z
#
# Youngs Moduli (GPa) = 44.42830 18.16367 105.30718
#
# Poissons Ratio (x) = 0.07641 0.77171
# Poissons Ratio (y) = 0.18690 1.05838
# Poissons Ratio (z) = 0.32558 0.18255
#
# Static dielectric constant tensor:
#      x y z
#    x 3.025810 0.000000 0.000000 
#    y 0.000000 2.692230 0.000000 
#    z 0.000000 0.000000 3.674460 
# 
# 
# High freq. dielectric constant tensor:
#      x y z
#    x 1.627100 0.000000 0.000000 
#    y 0.000000 1.595440 0.000000 
#    z 0.000000 0.000000 1.684070 
# 
# From -- ./inp_files/6293.got.cif
#   From: 2010.03.12/outbox.cif.g09.slc.cpg/sg25_4_cif.got.tgz:6293.got - 2010.04.14 03:30:10.
