data_PCOD8167735
_publ_section_title
;
Structure prediction by ZEFSAII (Michael W. Deem and Ramdas Pophale) SiO2 
 PCOD8167735
Probable space group: P M C 21
;
_chemical_formula_sum "Si O2"
_cell_formula_units_Z 16
_cell_length_a 11.252349
_cell_length_b 4.760308
_cell_length_c 10.304929
_cell_angle_alpha 90.000000
_cell_angle_beta 90.000000
_cell_angle_gamma 90.000000
_cell_volume 551.979884
_symmetry_space_group_name_H-M "P M C 21"
_symmetry_group_IT_number 26
_symmetry_cell_setting 'orthorhombic'
loop_
_space_group_symop_operation_xyz
x,y,z
-x,-y,1/2+z
-x,y,z
x,-y,1/2+z
loop_
_atom_site_type_symbol
_atom_site_label
_atom_site_fract_x
_atom_site_fract_y
_atom_site_fract_z
Si Si1 0.868350 0.096003 0.970100
Si Si2 0.134994 0.401162 0.299212
Si Si3 0.297806 0.828182 0.159038
Si Si4 0.500000 0.176680 0.240836
Si Si5 0.500000 0.572908 0.004771
O O1 0.824710 0.914088 0.843314
O O2 0.000000 0.987444 0.000944
O O3 0.864881 0.422415 0.933903
O O4 0.796371 0.055357 0.102988
O O5 0.233141 0.546033 0.208551
O O6 0.000000 0.403675 0.238566
O O7 0.380571 0.738843 0.039270
O O8 0.383073 0.983265 0.263672
O O9 0.500000 0.286905 0.090341
O O10 0.500000 0.436813 0.345387
#
# Coordination Sequence:
#
# PCOD8167735 Si02
#       5
#     4   4   4   2   2
#     4  10  23  42  70 107 147 188 241 306 378 458
#     4  10  23  42  69 107 147 188 241 304 379 458
#     4  11  25  44  73 101 147 197 258 312 387 456
#     4  11  28  50  69 114 142 212 260 330 386 455
#     4  11  28  46  75 102 152 196 268 324 384 455
#
# _framework density 28.986563
#
# number of rings (size 3 to 8) (size 9 to 14) (size 15 to 20)
#    0.000    1.500    0.000    2.250   10.500    4.000 
#    0.000    7.500    0.000    0.000    0.000    0.000 
#    0.000    0.000    0.000    0.000    0.000    0.000 
#
# Total GULP energy -198353.360239 kJ/mol
# GULP energy per Si atom -12397.085015 kJ/mol
# Density = 2.892059 g / cm^3
# Si number density = 28.986563 Si / 1000 Ang^3
#
#
#
# Elastic Constant Matrix: (Units=GPa)
#
#
# Indices 1 2 3 4 5 6 
#
# 1 138.5120 -9.6134 18.8991 0.0000 0.0000 0.0000
# 2 -9.6134 86.2475 0.1889 0.0000 0.0000 0.0000
# 3 18.8991 0.1889 111.1336 0.0000 0.0000 0.0000
# 4 0.0000 0.0000 0.0000 42.7030 0.0000 0.0000
# 5 0.0000 0.0000 0.0000 0.0000 25.9380 0.0000
# 6 0.0000 0.0000 0.0000 0.0000 0.0000 18.8552
#
#
#
# Elastic Compliance Matrix: (Units=1/GPa)
#
#
# Indices 1 2 3 4 5 6 
#
# 1 0.007450 0.000833 -0.001268 0.000000 0.000000 0.000000
# 2 0.000833 0.011688 -0.000162 0.000000 0.000000 0.000000
# 3 -0.001268 -0.000162 0.009214 0.000000 0.000000 0.000000
# 4 0.000000 0.000000 0.000000 0.023418 0.000000 0.000000
# 5 0.000000 0.000000 0.000000 0.000000 0.038554 0.000000
# 6 0.000000 0.000000 0.000000 0.000000 0.000000 0.053036
#
#
# Mechanical properties :
#
#
# Convention : Reuss Voigt Hill
#
# Bulk Modulus (GPa) = 36.82034 39.42692 38.12363
# Shear Modulus (GPa) = 32.55086 39.26047 35.90567
#
# Velocity S-wave (km/s) = 3.35470 3.68426 3.52334
# Velocity P-wave (km/s) = 5.26645 5.63291 5.45276
#
# Compressibility (1/GPa) = 0.02715890
#
# Stress axis : x y z
#
# Youngs Moduli (GPa) = 134.21939 85.55953 108.52861
#
# Poissons Ratio (x) = -0.07129 0.13766
# Poissons Ratio (y) = -0.11184 0.01753
# Poissons Ratio (z) = 0.17025 0.01382
#
# Static dielectric constant tensor:
#      x y z
#    x 5.699560 0.000000 0.000000 
#    y 0.000000 5.202410 0.000000 
#    z 0.000000 0.000000 4.843690 
# 
# 
# High freq. dielectric constant tensor:
#      x y z
#    x 2.203660 0.000000 0.000000 
#    y 0.000000 2.181690 0.000000 
#    z 0.000000 0.000000 2.164480 
# 
# From -- ./inp_files/3159.got.cif
#   From: 2010.03.12/outbox.cif.g09.slc.cpg/sg26_2_cif.got.tgz:3159.got - 2010.04.14 03:33:09.
