data_PCOD8167884
_publ_section_title
;
Structure prediction by ZEFSAII (Michael W. Deem and Ramdas Pophale) SiO2 
 PCOD8167884
Probable space group: P C C 2
;
_chemical_formula_sum "Si O2"
_cell_formula_units_Z 24
_cell_length_a 10.678297
_cell_length_b 6.081577
_cell_length_c 17.032631
_cell_angle_alpha 90.000000
_cell_angle_beta 90.000000
_cell_angle_gamma 90.000000
_cell_volume 1106.114138
_symmetry_space_group_name_H-M "P C C 2"
_symmetry_group_IT_number 27
_symmetry_cell_setting 'orthorhombic'
loop_
_space_group_symop_operation_xyz
x,y,z
-x,-y,z
-x,y,1/2+z
x,-y,1/2+z
loop_
_atom_site_type_symbol
_atom_site_label
_atom_site_fract_x
_atom_site_fract_y
_atom_site_fract_z
Si Si1 0.183019 0.857078 0.414530
Si Si2 0.800382 0.821409 0.275521
Si Si3 0.623635 0.877764 0.674182
Si Si4 0.819926 0.187869 0.054158
Si Si5 0.367816 0.581869 0.321049
Si Si6 0.000000 0.500000 0.465040
Si Si7 0.000000 0.000000 0.678019
O O1 0.311767 0.736515 0.389315
O O2 0.062492 0.694135 0.413955
O O3 0.160971 0.045632 0.352237
O O4 0.194362 0.973759 0.498967
O O5 0.740364 0.594728 0.303607
O O6 0.931351 0.808314 0.228805
O O7 0.706592 0.940520 0.216840
O O8 0.685945 0.767050 0.596165
O O9 0.595045 0.694580 0.739213
O O10 0.500000 0.000000 0.644519
O O11 0.906983 0.138594 0.126738
O O12 0.881280 0.401415 0.013345
O O13 0.500000 0.500000 0.356567
#
# Coordination Sequence:
#
# PCOD8167884 Si02
#       7
#     4   4   4   4   4   2   2
#     4  11  25  43  65  98 137 178 224 290 346 413
#     4  10  23  41  68  97 130 172 229 284 346 402
#     4  10  22  44  66  99 133 176 225 292 341 406
#     4  11  24  43  65  95 139 180 220 287 348 420
#     4  11  23  43  74  99 133 183 237 285 346 423
#     4  12  24  44  70  96 138 180 230 278 352 424
#     4  10  22  40  66  94 134 170 220 292 348 402
#
# _framework density 21.697579000000001
#
# number of rings (size 3 to 8) (size 9 to 14) (size 15 to 20)
#    0.000    1.333    3.333    1.000    7.000    0.000 
#    6.000    0.000    0.000    0.000    0.000    0.000 
#    0.000    0.000    0.000    0.000    0.000    0.000 
#
# Total GULP energy -297401.624035 kJ/mol
# GULP energy per Si atom -12391.734335 kJ/mol
# Density = 2.164819 g / cm^3
# Si number density = 21.697579 Si / 1000 Ang^3
#
#
#
# Elastic Constant Matrix: (Units=GPa)
#
#
# Indices 1 2 3 4 5 6 
#
# 1 124.0429 43.7615 66.0581 0.0000 0.0000 0.0000
# 2 43.7615 92.4647 36.8541 0.0000 0.0000 0.0000
# 3 66.0581 36.8541 92.5065 0.0000 0.0000 0.0000
# 4 0.0000 0.0000 0.0000 22.2722 0.0000 0.0000
# 5 0.0000 0.0000 0.0000 0.0000 22.0389 0.0000
# 6 0.0000 0.0000 0.0000 0.0000 0.0000 41.9291
#
#
#
# Elastic Compliance Matrix: (Units=1/GPa)
#
#
# Indices 1 2 3 4 5 6 
#
# 1 0.013706 -0.003074 -0.008563 0.000000 0.000000 0.000000
# 2 -0.003074 0.013546 -0.003202 0.000000 0.000000 0.000000
# 3 -0.008563 -0.003202 0.018200 0.000000 0.000000 0.000000
# 4 0.000000 0.000000 0.000000 0.044899 0.000000 0.000000
# 5 0.000000 0.000000 0.000000 0.000000 0.045374 0.000000
# 6 0.000000 0.000000 0.000000 0.000000 0.000000 0.023850
#
#
# Mechanical properties :
#
#
# Convention : Reuss Voigt Hill
#
# Bulk Modulus (GPa) = 63.38896 66.92905 65.15901
# Shear Modulus (GPa) = 25.70554 28.07075 26.88815
#
# Velocity S-wave (km/s) = 3.44571 3.60074 3.52408
# Velocity P-wave (km/s) = 6.71630 6.94265 6.83042
#
# Compressibility (1/GPa) = 0.01577562
#
# Stress axis : x y z
#
# Youngs Moduli (GPa) = 72.95913 73.82364 54.94435
#
# Poissons Ratio (x) = 0.22693 0.47048
# Poissons Ratio (y) = 0.22427 0.17591
# Poissons Ratio (z) = 0.62474 0.23635
#
# Static dielectric constant tensor:
#      x y z
#    x 4.973470 0.000000 0.000000 
#    y 0.000000 3.790790 0.000000 
#    z 0.000000 0.000000 4.135000 
# 
# 
# High freq. dielectric constant tensor:
#      x y z
#    x 1.862370 0.000000 0.000000 
#    y 0.000000 1.843270 0.000000 
#    z 0.000000 0.000000 1.854170 
# 
# From -- ./inp_files/4418.got.cif
#   From: 2010.03.12/outbox.cif.g09.slc.cpg/sg27_3_cif.got.tgz:4418.got - 2010.04.14 03:36:05.
