data_PCOD8167546
_publ_section_title
;
Structure prediction by ZEFSAII (Michael W. Deem and Ramdas Pophale) SiO2 
 PCOD8167546
Probable space group: P M C 21
;
_chemical_formula_sum "Si O2"
_cell_formula_units_Z 32
_cell_length_a 9.052301
_cell_length_b 11.799517
_cell_length_c 15.221300
_cell_angle_alpha 90.000000
_cell_angle_beta 90.000000
_cell_angle_gamma 90.000000
_cell_volume 1625.829361
_symmetry_space_group_name_H-M "P M C 21"
_symmetry_group_IT_number 26
_symmetry_cell_setting 'orthorhombic'
loop_
_space_group_symop_operation_xyz
x,y,z
-x,-y,1/2+z
-x,y,z
x,-y,1/2+z
loop_
_atom_site_type_symbol
_atom_site_label
_atom_site_fract_x
_atom_site_fract_y
_atom_site_fract_z
Si Si1 0.171745 0.234301 0.762910
Si Si2 0.825310 0.639081 0.086922
Si Si3 0.669883 0.768313 0.437171
Si Si4 0.669186 0.233465 0.240894
Si Si5 0.328632 0.783967 0.938514
Si Si6 0.832634 0.991294 0.692730
Si Si7 0.670604 0.402325 0.094884
Si Si8 0.171633 0.996397 0.490470
O O1 0.224778 0.301815 0.677123
O O2 0.268616 0.277479 0.844493
O O3 0.000000 0.257766 0.781614
O O4 0.202661 0.100749 0.751369
O O5 0.773710 0.510539 0.087735
O O6 0.000000 0.646972 0.074331
O O7 0.751409 0.701959 0.005678
O O8 0.500000 0.805392 0.427641
O O9 0.688054 0.667224 0.505598
O O10 0.765192 0.873827 0.469325
O O11 0.500000 0.221303 0.214415
O O12 0.691361 0.270221 0.341738
O O13 0.733294 0.110415 0.224058
O O14 0.735524 0.329049 0.176462
O O15 0.500000 0.795135 0.963915
O O16 0.256347 0.908204 0.935471
O O17 0.803252 0.025183 0.592242
O O18 0.000000 0.951420 0.704997
O O19 0.500000 0.438253 0.109893
O O20 0.000000 0.998753 0.463954
#
# Coordination Sequence:
#
# PCOD8167546 Si02
#       8
#     4   4   4   4   4   4   4   4
#     4  10  22  41  61  88 123 157 196 247 303 361
#     4  11  24  43  64  87 118 157 204 252 302 359
#     4  11  23  39  62  92 122 159 203 247 300 360
#     4  10  22  40  61  88 122 156 197 245 295 355
#     4  11  23  39  63  93 123 159 200 246 302 360
#     4  10  20  36  60  88 121 158 195 240 299 355
#     4  10  23  43  62  84 119 158 201 251 300 355
#     4  11  21  37  61  90 126 162 198 246 299 357
#
# _framework density 19.682262000000001
#
# number of rings (size 3 to 8) (size 9 to 14) (size 15 to 20)
#    0.000    1.500    2.500    2.250    0.000    7.500 
#    0.000    3.750    0.000    0.000    0.000    0.000 
#    0.000    0.000    0.000    0.000    0.000    0.000 
#
# Total GULP energy -396950.781238 kJ/mol
# GULP energy per Si atom -12404.711914 kJ/mol
# Density = 1.963746 g / cm^3
# Si number density = 19.682262 Si / 1000 Ang^3
#
#
#
# Elastic Constant Matrix: (Units=GPa)
#
#
# Indices 1 2 3 4 5 6 
#
# 1 92.7546 41.3265 41.5325 0.0000 0.0000 0.0000
# 2 41.3265 92.1161 16.7430 0.0000 0.0000 0.0000
# 3 41.5325 16.7430 -13.6531 0.0000 0.0000 0.0000
# 4 0.0000 0.0000 0.0000 10.4342 0.0000 0.0000
# 5 0.0000 0.0000 0.0000 0.0000 33.2447 0.0000
# 6 0.0000 0.0000 0.0000 0.0000 0.0000 37.2924
#
#
#
# Elastic Compliance Matrix: (Units=1/GPa)
#
#
# Indices 1 2 3 4 5 6 
#
# 1 0.006967 -0.005706 0.014196 0.000000 0.000000 0.000000
# 2 -0.005706 0.013550 -0.000740 0.000000 0.000000 0.000000
# 3 0.014196 -0.000740 -0.030967 0.000000 0.000000 0.000000
# 4 0.000000 0.000000 0.000000 0.095839 0.000000 0.000000
# 5 0.000000 0.000000 0.000000 0.000000 0.030080 0.000000
# 6 0.000000 0.000000 0.000000 0.000000 0.000000 0.026815
#
#
# Mechanical properties :
#
#
# Convention : Reuss Voigt Hill
#
# Bulk Modulus (GPa) = 198.03401 41.15795 119.59598
# Shear Modulus (GPa) = 38.92041 20.96862 29.94451
#
# Velocity S-wave (km/s) = 4.45166 3.26752 3.90474
# Velocity P-wave (km/s) = 11.28082 5.93230 9.01247
#
# Compressibility (1/GPa) = 0.00504964
#
# Stress axis : x y z
#
# Youngs Moduli (GPa) = 143.53625 73.79946 -32.29208
#
# Poissons Ratio (x) = 0.42109 0.45842
# Poissons Ratio (y) = 0.81899 -0.02390
# Poissons Ratio (z) = -2.03763 0.05462
#
# Static dielectric constant tensor:
#      x y z
#    x 3.631960 0.000000 0.000000 
#    y 0.000000 3.470390 0.000000 
#    z 0.000000 0.000000 3.839560 
# 
# 
# High freq. dielectric constant tensor:
#      x y z
#    x 1.769560 0.000000 0.000000 
#    y 0.000000 1.761650 0.000000 
#    z 0.000000 0.000000 1.784960 
# 
# From -- ./inp_files/4252.got.cif
#   From: 2010.03.12/outbox.cif.g09.slc.cpg/sg26_3_cif.got.tgz:4252.got - 2010.04.14 03:33:09.
