data_PCOD8167270
_publ_section_title
;
Structure prediction by ZEFSAII (Michael W. Deem and Ramdas Pophale) SiO2 
 PCOD8167270
Probable space group: P M C 21
;
_chemical_formula_sum "Si O2"
_cell_formula_units_Z 32
_cell_length_a 9.019569
_cell_length_b 11.688989
_cell_length_c 14.537355
_cell_angle_alpha 90.000000
_cell_angle_beta 90.000000
_cell_angle_gamma 90.000000
_cell_volume 1532.668145
_symmetry_space_group_name_H-M "P M C 21"
_symmetry_group_IT_number 26
_symmetry_cell_setting 'orthorhombic'
loop_
_space_group_symop_operation_xyz
x,y,z
-x,-y,1/2+z
-x,y,z
x,-y,1/2+z
loop_
_atom_site_type_symbol
_atom_site_label
_atom_site_fract_x
_atom_site_fract_y
_atom_site_fract_z
Si Si1 0.828513 0.419271 0.232320
Si Si2 0.823960 0.864395 0.139326
Si Si3 0.830173 0.939580 0.329362
Si Si4 0.326047 0.326418 0.064396
Si Si5 0.672078 0.288056 0.504699
Si Si6 0.327939 0.485610 0.902136
Si Si7 0.822906 0.907494 0.532795
Si Si8 0.166348 0.194122 0.343172
O O1 0.741542 0.420367 0.135478
O O2 0.763475 0.510061 0.306607
O O3 0.803903 0.290849 0.268437
O O4 0.000000 0.449689 0.216245
O O5 0.762564 0.867568 0.244529
O O6 0.000000 0.857585 0.137088
O O7 0.757579 0.748355 0.097004
O O8 0.770698 0.978177 0.085334
O O9 0.757396 0.915469 0.428527
O O10 0.000000 0.905849 0.341074
O O11 0.814423 0.071207 0.296430
O O12 0.500000 0.316552 0.084438
O O13 0.296973 0.369829 0.959492
O O14 0.248652 0.204259 0.079016
O O15 0.500000 0.282150 0.526096
O O16 0.722994 0.412597 0.470394
O O17 0.716191 0.198605 0.425502
O O18 0.500000 0.500067 0.876533
O O19 0.000000 0.895450 0.536862
O O20 0.000000 0.206592 0.384978
#
# Coordination Sequence:
#
# PCOD8167270 Si02
#       8
#     4   4   4   4   4   4   4   4
#     4  10  20  35  62  93 114 142 193 248 289 336
#     4  10  19  34  56  81 112 149 183 225 288 348
#     4   9  17  31  53  79 108 146 183 219 275 340
#     4  11  23  40  60  82 117 160 197 233 287 351
#     4  10  19  33  54  79 106 137 183 233 275 327
#     4   9  21  41  60  80 112 155 193 234 287 343
#     4  10  20  36  57  82 116 150 189 239 282 337
#     4   9  16  32  56  80 107 143 183 225 279 332
#
# _framework density 20.878625
#
# number of rings (size 3 to 8) (size 9 to 14) (size 15 to 20)
#    0.000    2.250    1.250    1.875    0.000    4.500 
#    2.250    1.250    0.000    0.000    0.000    0.000 
#    0.000    0.000    0.000    0.000    0.000    0.000 
#
# Total GULP energy -396676.848168 kJ/mol
# GULP energy per Si atom -12396.151505 kJ/mol
# Density = 2.083110 g / cm^3
# Si number density = 20.878625 Si / 1000 Ang^3
#
#
#
# Elastic Constant Matrix: (Units=GPa)
#
#
# Indices 1 2 3 4 5 6 
#
# 1 52.8921 10.8647 23.2201 0.0000 0.0000 0.0000
# 2 10.8647 28.6733 -6.3124 0.0000 0.0000 0.0000
# 3 23.2201 -6.3124 83.7377 0.0000 0.0000 0.0000
# 4 0.0000 0.0000 0.0000 26.1676 0.0000 0.0000
# 5 0.0000 0.0000 0.0000 0.0000 27.7698 0.0000
# 6 0.0000 0.0000 0.0000 0.0000 0.0000 24.3242
#
#
#
# Elastic Compliance Matrix: (Units=1/GPa)
#
#
# Indices 1 2 3 4 5 6 
#
# 1 0.024504 -0.010963 -0.007621 0.000000 0.000000 0.000000
# 2 -0.010963 0.040369 0.006083 0.000000 0.000000 0.000000
# 3 -0.007621 0.006083 0.014514 0.000000 0.000000 0.000000
# 4 0.000000 0.000000 0.000000 0.038215 0.000000 0.000000
# 5 0.000000 0.000000 0.000000 0.000000 0.036010 0.000000
# 6 0.000000 0.000000 0.000000 0.000000 0.000000 0.041111
#
#
# Mechanical properties :
#
#
# Convention : Reuss Voigt Hill
#
# Bulk Modulus (GPa) = 18.38747 24.53864 21.46305
# Shear Modulus (GPa) = 21.02131 24.82103 22.92117
#
# Velocity S-wave (km/s) = 3.17651 3.45167 3.31695
# Velocity P-wave (km/s) = 4.72012 5.25965 4.99717
#
# Compressibility (1/GPa) = 0.05438486
#
# Stress axis : x y z
#
# Youngs Moduli (GPa) = 40.80953 24.77165 68.89917
#
# Poissons Ratio (x) = 0.27156 0.52510
# Poissons Ratio (y) = 0.44738 -0.41912
# Poissons Ratio (z) = 0.31102 -0.15069
#
# Static dielectric constant tensor:
#      x y z
#    x 3.504300 0.000000 0.000000 
#    y 0.000000 3.612640 0.000000 
#    z 0.000000 0.000000 3.952590 
# 
# 
# High freq. dielectric constant tensor:
#      x y z
#    x 1.790660 0.000000 0.000000 
#    y 0.000000 1.802350 0.000000 
#    z 0.000000 0.000000 1.825010 
# 
# From -- ./inp_files/4159.got.cif
#   From: 2010.03.12/outbox.cif.g09.slc.cpg/sg26_3_cif.got.tgz:4159.got - 2010.04.14 03:33:09.
