data_PCOD8167075
_publ_section_title
;
Structure prediction by ZEFSAII (Michael W. Deem and Ramdas Pophale) SiO2 
 PCOD8167075
Probable space group: P M C 21
;
_chemical_formula_sum "Si O2"
_cell_formula_units_Z 32
_cell_length_a 8.982696
_cell_length_b 9.622216
_cell_length_c 21.937236
_cell_angle_alpha 90.000000
_cell_angle_beta 90.000000
_cell_angle_gamma 90.000000
_cell_volume 1896.110797
_symmetry_space_group_name_H-M "P M C 21"
_symmetry_group_IT_number 26
_symmetry_cell_setting 'orthorhombic'
loop_
_space_group_symop_operation_xyz
x,y,z
-x,-y,1/2+z
-x,y,z
x,-y,1/2+z
loop_
_atom_site_type_symbol
_atom_site_label
_atom_site_fract_x
_atom_site_fract_y
_atom_site_fract_z
Si Si1 0.324198 0.830261 0.612050
Si Si2 0.327648 0.308963 0.480591
Si Si3 0.330661 0.012692 0.846607
Si Si4 0.176089 0.743106 0.863283
Si Si5 0.668964 0.809094 0.748302
Si Si6 0.171425 0.199749 0.925422
Si Si7 0.174028 0.033485 0.525328
Si Si8 0.330012 0.388912 0.012552
O O1 0.500000 0.858562 0.612788
O O2 0.263657 0.805845 0.680701
O O3 0.281155 0.692354 0.573794
O O4 0.243732 0.966831 0.586289
O O5 0.500000 0.272348 0.469876
O O6 0.251778 0.350189 0.415649
O O7 0.248092 0.182445 0.514447
O O8 0.308891 0.446390 0.522587
O O9 0.500000 0.008038 0.870924
O O10 0.228718 0.898947 0.882393
O O11 0.325459 0.968824 0.774862
O O12 0.258020 0.162484 0.862113
O O13 0.236650 0.709893 0.794687
O O14 0.000000 0.727468 0.865462
O O15 0.500000 0.753277 0.748211
O O16 0.000000 0.220416 0.909989
O O17 0.232420 0.340781 0.954765
O O18 0.206496 0.073778 0.971209
O O19 0.000000 0.057398 0.535081
O O20 0.500000 0.351865 0.996945
#
# Coordination Sequence:
#
# PCOD8167075 Si02
#       8
#     4   4   4   4   4   4   4   4
#     4   9  17  33  52  72  97 126 163 203 244 291
#     4  11  20  32  49  72  99 131 167 203 246 294
#     4   9  16  27  46  71  95 121 153 196 239 283
#     4  10  18  28  46  72  97 123 155 199 246 288
#     4   8  16  29  48  72  95 124 160 202 244 289
#     4  10  18  29  46  71  99 126 155 192 241 290
#     4  10  19  29  46  71  97 125 158 197 240 286
#     4   9  20  33  49  71  99 132 165 202 244 291
#
# _framework density 16.876650000000001
#
# number of rings (size 3 to 8) (size 9 to 14) (size 15 to 20)
#    0.750    1.750    1.250    2.250    0.000    2.500 
#    0.000    0.000    0.000    1.500    0.000    5.250 
#    0.000    0.000    0.000    0.000    0.000    0.000 
#
# Total GULP energy -396471.593963 kJ/mol
# GULP energy per Si atom -12389.737311 kJ/mol
# Density = 1.683824 g / cm^3
# Si number density = 16.876650 Si / 1000 Ang^3
#
#
#
# Elastic Constant Matrix: (Units=GPa)
#
#
# Indices 1 2 3 4 5 6 
#
# 1 96.8164 34.7947 37.4891 0.0000 0.0000 0.0000
# 2 34.7947 74.2813 34.9889 0.0000 0.0000 0.0000
# 3 37.4891 34.9889 96.2784 0.0000 0.0000 0.0000
# 4 0.0000 0.0000 0.0000 16.5823 0.0000 0.0000
# 5 0.0000 0.0000 0.0000 0.0000 19.5361 0.0000
# 6 0.0000 0.0000 0.0000 0.0000 0.0000 18.0443
#
#
#
# Elastic Compliance Matrix: (Units=1/GPa)
#
#
# Indices 1 2 3 4 5 6 
#
# 1 0.013344 -0.004589 -0.003528 0.000000 0.000000 0.000000
# 2 -0.004589 0.017821 -0.004690 0.000000 0.000000 0.000000
# 3 -0.003528 -0.004690 0.013465 0.000000 0.000000 0.000000
# 4 0.000000 0.000000 0.000000 0.060305 0.000000 0.000000
# 5 0.000000 0.000000 0.000000 0.000000 0.051187 0.000000
# 6 0.000000 0.000000 0.000000 0.000000 0.000000 0.055419
#
#
# Mechanical properties :
#
#
# Convention : Reuss Voigt Hill
#
# Bulk Modulus (GPa) = 52.58634 53.54683 53.06659
# Shear Modulus (GPa) = 20.53445 21.50611 21.02028
#
# Velocity S-wave (km/s) = 3.49196 3.57362 3.53303
# Velocity P-wave (km/s) = 6.89095 6.98748 6.93939
#
# Compressibility (1/GPa) = 0.01901635
#
# Stress axis : x y z
#
# Youngs Moduli (GPa) = 74.93890 56.11456 74.26832
#
# Poissons Ratio (x) = 0.25749 0.26205
# Poissons Ratio (y) = 0.34387 0.34828
# Poissons Ratio (z) = 0.26442 0.26315
#
# Static dielectric constant tensor:
#      x y z
#    x 3.145790 0.000000 0.000000 
#    y 0.000000 2.911410 0.000000 
#    z 0.000000 0.000000 3.129140 
# 
# 
# High freq. dielectric constant tensor:
#      x y z
#    x 1.659520 0.000000 0.000000 
#    y 0.000000 1.617270 0.000000 
#    z 0.000000 0.000000 1.631380 
# 
# From -- ./inp_files/5566.got.cif
#   From: 2010.03.12/outbox.cif.g09.slc.cpg/sg26_3_cif.got.tgz:5566.got - 2010.04.14 03:33:09.
