data_PCOD8167700
_publ_section_title
;
Structure prediction by ZEFSAII (Michael W. Deem and Ramdas Pophale) SiO2 
 PCOD8167700
Probable space group: P M C 21
;
_chemical_formula_sum "Si O2"
_cell_formula_units_Z 32
_cell_length_a 9.046571
_cell_length_b 14.184900
_cell_length_c 12.514265
_cell_angle_alpha 90.000000
_cell_angle_beta 90.000000
_cell_angle_gamma 90.000000
_cell_volume 1605.889364
_symmetry_space_group_name_H-M "P M C 21"
_symmetry_group_IT_number 26
_symmetry_cell_setting 'orthorhombic'
loop_
_space_group_symop_operation_xyz
x,y,z
-x,-y,1/2+z
-x,y,z
x,-y,1/2+z
loop_
_atom_site_type_symbol
_atom_site_label
_atom_site_fract_x
_atom_site_fract_y
_atom_site_fract_z
Si Si1 0.824256 0.648646 0.901440
Si Si2 0.827722 0.172174 0.847996
Si Si3 0.828229 0.158658 0.089901
Si Si4 0.334945 0.192911 0.523099
Si Si5 0.662300 0.678779 0.230447
Si Si6 0.172192 0.048352 0.652008
Si Si7 0.328290 0.662405 0.682870
Si Si8 0.671672 0.473558 0.573951
O O1 0.767859 0.628556 0.782862
O O2 0.000000 0.653030 0.904997
O O3 0.760205 0.750166 0.936311
O O4 0.769323 0.562744 0.975660
O O5 0.763914 0.276075 0.821779
O O6 0.771680 0.092241 0.764716
O O7 0.000000 0.183346 0.836660
O O8 0.781766 0.142160 0.966828
O O9 0.726024 0.237770 0.140397
O O10 0.000000 0.188375 0.099082
O O11 0.796187 0.062908 0.154490
O O12 0.500000 0.174532 0.478044
O O13 0.341822 0.252122 0.630408
O O14 0.257166 0.093875 0.551103
O O15 0.500000 0.666433 0.281377
O O16 0.720520 0.578646 0.184865
O O17 0.000000 0.069086 0.633601
O O18 0.500000 0.669062 0.715591
O O19 0.304990 0.584950 0.589379
O O20 0.500000 0.447950 0.550555
#
# Coordination Sequence:
#
# PCOD8167700 Si02
#       8
#     4   4   4   4   4   4   4   4
#     4  11  22  37  60  87 116 149 186 233 288 342
#     4   9  18  33  53  78 109 144 181 227 281 332
#     4  10  22  38  54  79 116 151 190 239 287 340
#     4   9  17  32  55  83 113 143 184 235 281 333
#     4   8  15  30  53  79 105 135 175 224 274 326
#     4   9  18  34  56  81 111 151 196 239 287 341
#     4  11  24  41  59  81 114 153 192 234 282 338
#     4   9  20  39  60  82 110 146 190 237 282 334
#
# _framework density 19.926653000000002
#
# number of rings (size 3 to 8) (size 9 to 14) (size 15 to 20)
#    0.000    2.500    0.000    2.625    0.000    7.000 
#    0.000    6.250    0.000    0.000    0.000    0.000 
#    0.000    0.000    0.000    0.000    0.000    0.000 
#
# Total GULP energy -396747.365656 kJ/mol
# GULP energy per Si atom -12398.355177 kJ/mol
# Density = 1.988130 g / cm^3
# Si number density = 19.926653 Si / 1000 Ang^3
#
#
#
# Elastic Constant Matrix: (Units=GPa)
#
#
# Indices 1 2 3 4 5 6 
#
# 1 102.3051 47.2613 49.5546 0.0000 0.0000 0.0000
# 2 47.2613 108.1426 36.7896 0.0000 0.0000 0.0000
# 3 49.5546 36.7896 84.9514 0.0000 0.0000 0.0000
# 4 0.0000 0.0000 0.0000 23.6508 0.0000 0.0000
# 5 0.0000 0.0000 0.0000 0.0000 28.1994 0.0000
# 6 0.0000 0.0000 0.0000 0.0000 0.0000 32.8051
#
#
#
# Elastic Compliance Matrix: (Units=1/GPa)
#
#
# Indices 1 2 3 4 5 6 
#
# 1 0.015110 -0.004228 -0.006983 0.000000 0.000000 0.000000
# 2 -0.004228 0.012028 -0.002743 0.000000 0.000000 0.000000
# 3 -0.006983 -0.002743 0.017033 0.000000 0.000000 0.000000
# 4 0.000000 0.000000 0.000000 0.042282 0.000000 0.000000
# 5 0.000000 0.000000 0.000000 0.000000 0.035462 0.000000
# 6 0.000000 0.000000 0.000000 0.000000 0.000000 0.030483
#
#
# Mechanical properties :
#
#
# Convention : Reuss Voigt Hill
#
# Bulk Modulus (GPa) = 61.48842 62.51225 62.00033
# Shear Modulus (GPa) = 26.92129 27.71729 27.31929
#
# Velocity S-wave (km/s) = 3.67961 3.73361 3.70671
# Velocity P-wave (km/s) = 6.99836 7.07289 7.03572
#
# Compressibility (1/GPa) = 0.01626322
#
# Stress axis : x y z
#
# Youngs Moduli (GPa) = 66.17927 83.14085 58.71044
#
# Poissons Ratio (x) = 0.35152 0.41000
# Poissons Ratio (y) = 0.27980 0.16101
# Poissons Ratio (z) = 0.46216 0.22802
#
# Static dielectric constant tensor:
#      x y z
#    x 3.677530 0.000000 0.000000 
#    y 0.000000 3.735470 0.000000 
#    z 0.000000 0.000000 3.592200 
# 
# 
# High freq. dielectric constant tensor:
#      x y z
#    x 1.771940 0.000000 0.000000 
#    y 0.000000 1.774910 0.000000 
#    z 0.000000 0.000000 1.763710 
# 
# From -- ./inp_files/2978.got.cif
#   From: 2010.03.12/outbox.cif.g09.slc.cpg/sg26_2_cif.got.tgz:2978.got - 2010.04.14 03:33:09.
