data_PCOD8167707
_publ_section_title
;
Structure prediction by ZEFSAII (Michael W. Deem and Ramdas Pophale) SiO2 
 PCOD8167707
Probable space group: P M C 21
;
_chemical_formula_sum "Si O2"
_cell_formula_units_Z 24
_cell_length_a 8.937715
_cell_length_b 9.911865
_cell_length_c 13.890612
_cell_angle_alpha 90.000000
_cell_angle_beta 90.000000
_cell_angle_gamma 90.000000
_cell_volume 1230.561323
_symmetry_space_group_name_H-M "P M C 21"
_symmetry_group_IT_number 26
_symmetry_cell_setting 'orthorhombic'
loop_
_space_group_symop_operation_xyz
x,y,z
-x,-y,1/2+z
-x,y,z
x,-y,1/2+z
loop_
_atom_site_type_symbol
_atom_site_label
_atom_site_fract_x
_atom_site_fract_y
_atom_site_fract_z
Si Si1 0.326712 0.399315 0.622830
Si Si2 0.830420 0.919456 0.617977
Si Si3 0.671657 0.137618 0.502559
Si Si4 0.829384 0.010097 0.330254
Si Si5 0.824958 0.359878 0.017919
Si Si6 0.322610 0.720996 0.327116
O O1 0.500000 0.440399 0.628363
O O2 0.299441 0.286142 0.542481
O O3 0.230556 0.526750 0.591279
O O4 0.270904 0.347427 0.727101
O O5 0.813501 0.906786 0.732153
O O6 0.785030 0.780803 0.568135
O O7 0.000000 0.960598 0.589897
O O8 0.715181 0.032870 0.585359
O O9 0.500000 0.115447 0.474408
O O10 0.773190 0.114841 0.409667
O O11 0.000000 0.968744 0.351783
O O12 0.735252 0.873463 0.332000
O O13 0.000000 0.378091 0.000322
O O14 0.742454 0.367351 0.914970
O O15 0.500000 0.724623 0.335091
#
# Coordination Sequence:
#
# PCOD8167707 Si02
#       6
#     4   4   4   4   4   4
#     4  10  24  43  62  90 126 164 208 255 307 370
#     4  10  22  39  60  89 123 158 204 256 303 364
#     4  11  22  38  62  91 121 158 208 256 305 364
#     4  11  22  37  61  93 127 162 206 257 310 364
#     4  11  24  41  63  93 126 164 208 254 311 371
#     4  11  22  40  64  90 123 164 208 254 310 369
#
# _framework density 19.503294
#
# number of rings (size 3 to 8) (size 9 to 14) (size 15 to 20)
#    0.000    1.333    3.333    2.000    0.000    5.333 
#    0.000    3.333    0.000    0.000    0.000    0.000 
#    0.000    0.000    0.000    0.000    0.000    0.000 
#
# Total GULP energy -297705.905567 kJ/mol
# GULP energy per Si atom -12404.412732 kJ/mol
# Density = 1.945890 g / cm^3
# Si number density = 19.503294 Si / 1000 Ang^3
#
#
#
# Elastic Constant Matrix: (Units=GPa)
#
#
# Indices 1 2 3 4 5 6 
#
# 1 75.3894 28.3998 33.5817 0.0000 0.0000 0.0000
# 2 28.3998 47.2248 9.0697 0.0000 0.0000 0.0000
# 3 33.5817 9.0697 115.8255 0.0000 0.0000 0.0000
# 4 0.0000 0.0000 0.0000 31.3390 0.0000 0.0000
# 5 0.0000 0.0000 0.0000 0.0000 33.4641 0.0000
# 6 0.0000 0.0000 0.0000 0.0000 0.0000 31.4182
#
#
#
# Elastic Compliance Matrix: (Units=1/GPa)
#
#
# Indices 1 2 3 4 5 6 
#
# 1 0.019464 -0.010784 -0.004799 0.000000 0.000000 0.000000
# 2 -0.010784 0.027473 0.000975 0.000000 0.000000 0.000000
# 3 -0.004799 0.000975 0.009949 0.000000 0.000000 0.000000
# 4 0.000000 0.000000 0.000000 0.031909 0.000000 0.000000
# 5 0.000000 0.000000 0.000000 0.000000 0.029883 0.000000
# 6 0.000000 0.000000 0.000000 0.000000 0.000000 0.031829
#
#
# Mechanical properties :
#
#
# Convention : Reuss Voigt Hill
#
# Bulk Modulus (GPa) = 36.13848 42.28247 39.21048
# Shear Modulus (GPa) = 26.46267 30.40350 28.43308
#
# Velocity S-wave (km/s) = 3.68751 3.95256 3.82234
# Velocity P-wave (km/s) = 6.05805 6.52358 6.29512
#
# Compressibility (1/GPa) = 0.02767134
#
# Stress axis : x y z
#
# Youngs Moduli (GPa) = 51.37569 36.39928 100.51569
#
# Poissons Ratio (x) = 0.39252 0.48237
# Poissons Ratio (y) = 0.55402 -0.09803
# Poissons Ratio (z) = 0.24655 -0.03550
#
# Static dielectric constant tensor:
#      x y z
#    x 3.638540 0.000000 0.000000 
#    y 0.000000 3.420380 0.000000 
#    z 0.000000 0.000000 3.812950 
# 
# 
# High freq. dielectric constant tensor:
#      x y z
#    x 1.767960 0.000000 0.000000 
#    y 0.000000 1.749710 0.000000 
#    z 0.000000 0.000000 1.778050 
# 
# From -- ./inp_files/2811.got.cif
#   From: 2010.03.12/outbox.cif.g09.slc.cpg/sg26_2_cif.got.tgz:2811.got - 2010.04.14 03:33:09.
