data_PCOD8167306
_publ_section_title
;
Structure prediction by ZEFSAII (Michael W. Deem and Ramdas Pophale) SiO2 
 PCOD8167306
Probable space group: P M C 21
;
_chemical_formula_sum "Si O2"
_cell_formula_units_Z 32
_cell_length_a 8.560810
_cell_length_b 35.728852
_cell_length_c 5.186312
_cell_angle_alpha 90.000000
_cell_angle_beta 90.000000
_cell_angle_gamma 90.000000
_cell_volume 1586.326430
_symmetry_space_group_name_H-M "P M C 21"
_symmetry_group_IT_number 26
_symmetry_cell_setting 'orthorhombic'
loop_
_space_group_symop_operation_xyz
x,y,z
-x,-y,1/2+z
-x,y,z
x,-y,1/2+z
loop_
_atom_site_type_symbol
_atom_site_label
_atom_site_fract_x
_atom_site_fract_y
_atom_site_fract_z
Si Si1 0.182239 0.398316 0.600850
Si Si2 0.685892 0.770836 0.123647
Si Si3 0.315894 0.143782 0.600566
Si Si4 0.684201 0.479618 0.619796
Si Si5 0.184167 0.106353 0.100548
Si Si6 0.315881 0.270556 0.123855
Si Si7 0.185810 0.021060 0.127611
Si Si8 0.817767 0.648127 0.600998
O O1 0.277281 0.436167 0.627842
O O2 0.230826 0.378878 0.334462
O O3 0.000000 0.407923 0.609732
O O4 0.230419 0.371306 0.834445
O O5 0.500000 0.768817 0.120238
O O6 0.755870 0.749786 0.874281
O O7 0.741778 0.813591 0.126090
O O8 0.755583 0.749716 0.372782
O O9 0.500000 0.140108 0.646871
O O10 0.274322 0.130346 0.313903
O O11 0.225371 0.119865 0.813913
O O12 0.500000 0.484667 0.619503
O O13 0.757272 0.500632 0.867482
O O14 0.242556 0.063764 0.125645
O O15 0.000000 0.109833 0.147070
O O16 0.500000 0.265527 0.122664
O O17 0.277221 0.314008 0.126938
O O18 0.000000 0.019318 0.123072
O O19 0.253742 0.000558 0.379591
O O20 0.000000 0.657707 0.610902
#
# Coordination Sequence:
#
# PCOD8167306 Si02
#       8
#     4   4   4   4   4   4   4   4
#     4  10  21  36  54  75 103 139 174 206 247 310
#     4   9  19  35  55  78 105 140 183 224 261 320
#     4  11  22  39  61  83 115 158 193 227 287 355
#     4  10  21  36  54  78 106 133 166 213 261 299
#     4  11  22  37  59  88 117 144 189 248 287 328
#     4  10  19  34  56  79 101 133 180 224 261 308
#     4   9  17  31  53  79 107 144 187 229 279 337
#     4  10  21  36  52  76 108 137 168 211 263 311
#
# _framework density 20.172391000000001
#
# number of rings (size 3 to 8) (size 9 to 14) (size 15 to 20)
#    0.000    2.000    0.000    3.750    0.000    5.500 
#    0.000    3.750    0.000    7.500    0.000    0.000 
#    0.000    0.000    0.000    0.000    0.000    0.000 
#
# Total GULP energy -396916.044844 kJ/mol
# GULP energy per Si atom -12403.626401 kJ/mol
# Density = 2.012648 g / cm^3
# Si number density = 20.172391 Si / 1000 Ang^3
#
#
#
# Elastic Constant Matrix: (Units=GPa)
#
#
# Indices 1 2 3 4 5 6 
#
# 1 17.3818 15.4123 15.3262 0.0000 0.0000 0.0000
# 2 15.4123 108.8702 36.0789 0.0000 0.0000 0.0000
# 3 15.3262 36.0789 139.0788 0.0000 0.0000 0.0000
# 4 0.0000 0.0000 0.0000 43.9307 0.0000 0.0000
# 5 0.0000 0.0000 0.0000 0.0000 16.6937 0.0000
# 6 0.0000 0.0000 0.0000 0.0000 0.0000 32.5091
#
#
#
# Elastic Compliance Matrix: (Units=1/GPa)
#
#
# Indices 1 2 3 4 5 6 
#
# 1 0.069548 -0.007993 -0.005591 0.000000 0.000000 0.000000
# 2 -0.007993 0.010968 -0.001964 0.000000 0.000000 0.000000
# 3 -0.005591 -0.001964 0.008316 0.000000 0.000000 0.000000
# 4 0.000000 0.000000 0.000000 0.022763 0.000000 0.000000
# 5 0.000000 0.000000 0.000000 0.000000 0.059903 0.000000
# 6 0.000000 0.000000 0.000000 0.000000 0.000000 0.030761
#
#
# Mechanical properties :
#
#
# Convention : Reuss Voigt Hill
#
# Bulk Modulus (GPa) = 17.32028 44.32951 30.82490
# Shear Modulus (GPa) = 19.79420 31.86092 25.82756
#
# Velocity S-wave (km/s) = 3.13589 3.97852 3.58207
# Velocity P-wave (km/s) = 4.66010 6.56718 5.69405
#
# Compressibility (1/GPa) = 0.05773578
#
# Stress axis : x y z
#
# Youngs Moduli (GPa) = 14.37856 91.17637 120.25270
#
# Poissons Ratio (x) = 0.72877 0.67228
# Poissons Ratio (y) = 0.11493 0.23622
# Poissons Ratio (z) = 0.08038 0.17910
#
# Static dielectric constant tensor:
#      x y z
#    x 3.263860 0.000000 0.000000 
#    y 0.000000 3.684570 0.000000 
#    z 0.000000 0.000000 4.123580 
# 
# 
# High freq. dielectric constant tensor:
#      x y z
#    x 1.751220 0.000000 0.000000 
#    y 0.000000 1.802420 0.000000 
#    z 0.000000 0.000000 1.811240 
# 
# From -- ./inp_files/258.got.cif
#   From: 2010.03.12/outbox.cif.g09.slc.cpg/sg26_1_cif.got.tgz:258.got - 2010.04.14 03:33:09.
