data_PCOD8167080
_publ_section_title
;
Structure prediction by ZEFSAII (Michael W. Deem and Ramdas Pophale) SiO2 
 PCOD8167080
Probable space group: P M C 21
;
_chemical_formula_sum "Si O2"
_cell_formula_units_Z 32
_cell_length_a 12.843657
_cell_length_b 15.873823
_cell_length_c 8.874265
_cell_angle_alpha 90.000000
_cell_angle_beta 90.000000
_cell_angle_gamma 90.000000
_cell_volume 1809.266848
_symmetry_space_group_name_H-M "P M C 21"
_symmetry_group_IT_number 26
_symmetry_cell_setting 'orthorhombic'
loop_
_space_group_symop_operation_xyz
x,y,z
-x,-y,1/2+z
-x,y,z
x,-y,1/2+z
loop_
_atom_site_type_symbol
_atom_site_label
_atom_site_fract_x
_atom_site_fract_y
_atom_site_fract_z
Si Si1 0.613233 0.895556 0.202020
Si Si2 0.623353 0.613978 0.215474
Si Si3 0.223851 0.029992 0.236883
Si Si4 0.381695 0.309122 0.178603
Si Si5 0.621539 0.450584 0.391703
Si Si6 0.715051 0.763138 0.384551
Si Si7 0.878332 0.895354 0.445507
Si Si8 0.386185 0.150898 0.381098
O O1 0.500000 0.935952 0.227256
O O2 0.640575 0.843658 0.353181
O O3 0.692203 0.969550 0.159404
O O4 0.616003 0.832594 0.060115
O O5 0.500000 0.637567 0.211848
O O6 0.644564 0.547470 0.351083
O O7 0.696380 0.694284 0.253083
O O8 0.663741 0.574208 0.057527
O O9 0.162244 0.082537 0.112042
O O10 0.288615 0.093541 0.339650
O O11 0.144839 0.973885 0.335377
O O12 0.500000 0.322693 0.118431
O O13 0.333796 0.393128 0.255033
O O14 0.376268 0.241633 0.309964
O O15 0.309915 0.279707 0.042519
O O16 0.500000 0.431865 0.394271
O O17 0.829575 0.805969 0.388347
O O18 0.000000 0.879650 0.451204
O O19 0.500000 0.110897 0.337197
#
# Coordination Sequence:
#
# PCOD8167080 Si02
#       8
#     4   4   4   4   4   4   4   4
#     4  10  20  32  48  73 107 141 171 207 258 323
#     4  10  18  31  49  77 113 150 180 210 251 308
#     4  11  20  38  54  74 100 132 176 220 273 327
#     4  10  18  29  47  75 108 142 174 210 252 308
#     4   9  18  30  49  77 116 153 182 207 241 305
#     4  11  21  33  52  75 105 139 181 223 270 317
#     4  11  24  40  58  75  97 133 182 240 287 319
#     4  10  19  31  48  74 108 140 169 205 255 319
#
# _framework density 17.686723000000001
#
# number of rings (size 3 to 8) (size 9 to 14) (size 15 to 20)
#    0.000    1.750    2.500    3.375    0.000    4.000 
#    0.000    0.000    0.000    0.000    0.000    3.500 
#    0.000    0.000    0.000    0.000    0.000    0.000 
#
# Total GULP energy -396576.240188 kJ/mol
# GULP energy per Si atom -12393.007506 kJ/mol
# Density = 1.764647 g / cm^3
# Si number density = 17.686723 Si / 1000 Ang^3
#
#
#
# Elastic Constant Matrix: (Units=GPa)
#
#
# Indices 1 2 3 4 5 6 
#
# 1 100.5193 41.5384 32.7189 0.0000 0.0000 0.0000
# 2 41.5384 84.4275 22.7101 0.0000 0.0000 0.0000
# 3 32.7189 22.7101 66.9163 0.0000 0.0000 0.0000
# 4 0.0000 0.0000 0.0000 37.6371 0.0000 0.0000
# 5 0.0000 0.0000 0.0000 0.0000 9.6152 0.0000
# 6 0.0000 0.0000 0.0000 0.0000 0.0000 17.6920
#
#
#
# Elastic Compliance Matrix: (Units=1/GPa)
#
#
# Indices 1 2 3 4 5 6 
#
# 1 0.013803 -0.005476 -0.004891 0.000000 0.000000 0.000000
# 2 -0.005476 0.015206 -0.002484 0.000000 0.000000 0.000000
# 3 -0.004891 -0.002484 0.018178 0.000000 0.000000 0.000000
# 4 0.000000 0.000000 0.000000 0.026570 0.000000 0.000000
# 5 0.000000 0.000000 0.000000 0.000000 0.104002 0.000000
# 6 0.000000 0.000000 0.000000 0.000000 0.000000 0.056523
#
#
# Mechanical properties :
#
#
# Convention : Reuss Voigt Hill
#
# Bulk Modulus (GPa) = 46.53722 49.53310 48.03516
# Shear Modulus (GPa) = 18.71651 23.31524 21.01588
#
# Velocity S-wave (km/s) = 3.25656 3.63469 3.45081
# Velocity P-wave (km/s) = 6.36470 6.75879 6.56470
#
# Compressibility (1/GPa) = 0.02148818
#
# Stress axis : x y z
#
# Youngs Moduli (GPa) = 72.44838 65.76144 55.01088
#
# Poissons Ratio (x) = 0.36008 0.26904
# Poissons Ratio (y) = 0.39669 0.13662
# Poissons Ratio (z) = 0.35432 0.16332
#
# Static dielectric constant tensor:
#      x y z
#    x 2.894890 0.000000 0.000000 
#    y 0.000000 3.360450 0.000000 
#    z 0.000000 0.000000 3.398740 
# 
# 
# High freq. dielectric constant tensor:
#      x y z
#    x 1.623390 0.000000 0.000000 
#    y 0.000000 1.689350 0.000000 
#    z 0.000000 0.000000 1.700820 
# 
# From -- ./inp_files/1982.got.cif
#   From: 2010.03.12/outbox.cif.g09.slc.cpg/sg26_1_cif.got.tgz:1982.got - 2010.04.14 03:33:09.
