data_PCOD8167599
_publ_section_title
;
Structure prediction by ZEFSAII (Michael W. Deem and Ramdas Pophale) SiO2 
 PCOD8167599
Probable space group: P M C 21
;
_chemical_formula_sum "Si O2"
_cell_formula_units_Z 18
_cell_length_a 11.000123
_cell_length_b 5.291144
_cell_length_c 13.465006
_cell_angle_alpha 90.000000
_cell_angle_beta 90.000000
_cell_angle_gamma 90.000000
_cell_volume 783.706906
_symmetry_space_group_name_H-M "P M C 21"
_symmetry_group_IT_number 26
_symmetry_cell_setting 'orthorhombic'
loop_
_space_group_symop_operation_xyz
x,y,z
-x,-y,1/2+z
-x,y,z
x,-y,1/2+z
loop_
_atom_site_type_symbol
_atom_site_label
_atom_site_fract_x
_atom_site_fract_y
_atom_site_fract_z
Si Si1 0.000000 0.526173 0.406271
Si Si2 0.000000 0.099289 0.052557
Si Si3 0.643161 0.903314 0.763347
Si Si4 0.000000 0.253312 0.713364
Si Si5 0.740562 0.596826 0.158867
Si Si6 0.788065 0.790376 0.953974
O O1 0.123858 0.379175 0.385285
O O2 0.000000 0.606467 0.523298
O O3 0.000000 0.769694 0.332869
O O4 0.000000 0.033590 0.169657
O O5 0.125375 0.995202 0.006342
O O6 0.500000 0.886792 0.770611
O O7 0.687224 0.669713 0.695335
O O8 0.692521 0.904311 0.876414
O O9 0.680824 0.168668 0.715943
O O10 0.115020 0.411687 0.675905
O O11 0.717404 0.632621 0.040107
#
# Coordination Sequence:
#
# PCOD8167599 Si02
#       6
#     2   2   4   2   4   4
#     4  11  19  41  68 103 140 179 226 288 365 428
#     4   9  21  37  63 107 137 174 224 282 361 421
#     4  12  27  47  70  98 139 192 242 282 341 413
#     4  10  20  40  71 102 143 177 218 294 358 419
#     4  11  26  45  72 107 137 182 230 294 354 417
#     4  10  24  42  68 101 137 181 231 291 352 418
#
# _framework density 22.967770999999999
#
# number of rings (size 3 to 8) (size 9 to 14) (size 15 to 20)
#    0.000    1.333    2.222    2.667    6.222    3.556 
#    0.000    0.000    0.000    0.000    0.000    0.000 
#    0.000    0.000    0.000    0.000    0.000    0.000 
#
# Total GULP energy -223049.371334 kJ/mol
# GULP energy per Si atom -12391.631741 kJ/mol
# Density = 2.291550 g / cm^3
# Si number density = 22.967771 Si / 1000 Ang^3
#
#
#
# Elastic Constant Matrix: (Units=GPa)
#
#
# Indices 1 2 3 4 5 6 
#
# 1 141.4825 17.2397 23.5614 0.0000 0.0000 0.0000
# 2 17.2397 63.6952 -4.0153 0.0000 0.0000 0.0000
# 3 23.5614 -4.0153 109.6558 0.0000 0.0000 0.0000
# 4 0.0000 0.0000 0.0000 33.2130 0.0000 0.0000
# 5 0.0000 0.0000 0.0000 0.0000 17.9388 0.0000
# 6 0.0000 0.0000 0.0000 0.0000 0.0000 -73.6940
#
#
#
# Elastic Compliance Matrix: (Units=1/GPa)
#
#
# Indices 1 2 3 4 5 6 
#
# 1 0.007618 -0.002170 -0.001716 0.000000 0.000000 0.000000
# 2 -0.002170 0.016354 0.001065 0.000000 0.000000 0.000000
# 3 -0.001716 0.001065 0.009527 0.000000 0.000000 0.000000
# 4 0.000000 0.000000 0.000000 0.030109 0.000000 0.000000
# 5 0.000000 0.000000 0.000000 0.000000 0.055745 0.000000
# 6 0.000000 0.000000 0.000000 0.000000 0.000000 -0.013570
#
#
# Mechanical properties :
#
#
# Convention : Reuss Voigt Hill
#
# Bulk Modulus (GPa) = 35.89760 43.15612 39.52686
# Shear Modulus (GPa) = 41.42071 14.02806 27.72438
#
# Velocity S-wave (km/s) = 4.25129 2.47406 3.47810
# Velocity P-wave (km/s) = 6.30566 5.19538 5.77725
#
# Compressibility (1/GPa) = 0.02785702
#
# Stress axis : x y z
#
# Youngs Moduli (GPa) = 131.26321 61.14600 104.96218
#
# Poissons Ratio (x) = 0.13270 0.18015
# Poissons Ratio (y) = 0.28486 -0.11180
# Poissons Ratio (z) = 0.22530 -0.06513
#
# Static dielectric constant tensor:
#      x y z
#    x 4.097420 0.000000 0.000000 
#    y 0.000000 4.041170 0.000000 
#    z 0.000000 0.000000 4.416140 
# 
# 
# High freq. dielectric constant tensor:
#      x y z
#    x 1.893860 0.000000 0.000000 
#    y 0.000000 1.902650 0.000000 
#    z 0.000000 0.000000 1.927530 
# 
# From -- ./inp_files/4389.got.cif
#   From: 2010.03.12/outbox.cif.g09.slc.cpg/sg26_3_cif.got.tgz:4389.got - 2010.04.14 03:33:09.
