data_PCOD8167170
_publ_section_title
;
Structure prediction by ZEFSAII (Michael W. Deem and Ramdas Pophale) SiO2 
 PCOD8167170
Probable space group: P M C 21
;
_chemical_formula_sum "Si O2"
_cell_formula_units_Z 32
_cell_length_a 8.654023
_cell_length_b 12.186349
_cell_length_c 15.279211
_cell_angle_alpha 90.000000
_cell_angle_beta 90.000000
_cell_angle_gamma 90.000000
_cell_volume 1611.360024
_symmetry_space_group_name_H-M "P M C 21"
_symmetry_group_IT_number 26
_symmetry_cell_setting 'orthorhombic'
loop_
_space_group_symop_operation_xyz
x,y,z
-x,-y,1/2+z
-x,y,z
x,-y,1/2+z
loop_
_atom_site_type_symbol
_atom_site_label
_atom_site_fract_x
_atom_site_fract_y
_atom_site_fract_z
Si Si1 0.679579 0.027516 0.877530
Si Si2 0.183854 0.643004 0.029297
Si Si3 0.171987 0.750665 0.627558
Si Si4 0.815505 0.518864 0.680053
Si Si5 0.816382 0.484333 0.876126
Si Si6 0.182306 0.974731 0.695547
Si Si7 0.173333 0.245955 0.923972
Si Si8 0.317678 0.884402 0.044160
O O1 0.500000 0.007190 0.858904
O O2 0.710620 0.156801 0.885220
O O3 0.780544 0.987024 0.796872
O O4 0.735585 0.962568 0.964104
O O5 0.242737 0.577845 0.115786
O O6 0.255135 0.763053 0.027638
O O7 0.000000 0.653111 0.029033
O O8 0.243666 0.577447 0.943127
O O9 0.255907 0.635481 0.648715
O O10 0.255499 0.856419 0.669456
O O11 0.164110 0.772066 0.525966
O O12 0.000000 0.743186 0.667853
O O13 0.753834 0.503048 0.778322
O O14 0.000000 0.520821 0.674873
O O15 0.755404 0.365230 0.904794
O O16 0.000000 0.484258 0.879362
O O17 0.000000 0.977861 0.679214
O O18 0.255061 0.070233 0.636172
O O19 0.000000 0.233133 0.883411
O O20 0.500000 0.879878 0.050136
#
# Coordination Sequence:
#
# PCOD8167170 Si02
#       8
#     4   4   4   4   4   4   4   4
#     4  11  25  42  59  84 121 163 197 240 301 361
#     4  10  20  35  58  86 115 150 197 243 287 346
#     4   9  17  32  56  85 116 145 187 248 297 337
#     4   9  17  31  52  85 120 146 180 236 301 348
#     4   9  18  31  54  86 118 148 184 240 300 343
#     4  11  23  39  64  93 116 149 201 255 296 346
#     4  10  18  35  60  86 114 149 199 250 288 340
#     4  11  25  43  59  81 124 168 199 238 296 361
#
# _framework density 19.859002
#
# number of rings (size 3 to 8) (size 9 to 14) (size 15 to 20)
#    0.000    2.000    2.500    1.125    3.500    1.500 
#    0.000    0.625    0.000    2.250    0.000    0.000 
#    0.000    0.000    0.000    0.000    0.000    0.000 
#
# Total GULP energy -396729.254255 kJ/mol
# GULP energy per Si atom -12397.789195 kJ/mol
# Density = 1.981380 g / cm^3
# Si number density = 19.859002 Si / 1000 Ang^3
#
#
#
# Elastic Constant Matrix: (Units=GPa)
#
#
# Indices 1 2 3 4 5 6 
#
# 1 36.6612 31.6238 25.9535 0.0000 0.0000 0.0000
# 2 31.6238 136.2840 30.1202 0.0000 0.0000 0.0000
# 3 25.9535 30.1202 102.4158 0.0000 0.0000 0.0000
# 4 0.0000 0.0000 0.0000 35.8540 0.0000 0.0000
# 5 0.0000 0.0000 0.0000 0.0000 16.1704 0.0000
# 6 0.0000 0.0000 0.0000 0.0000 0.0000 20.0602
#
#
#
# Elastic Compliance Matrix: (Units=1/GPa)
#
#
# Indices 1 2 3 4 5 6 
#
# 1 0.039112 -0.007364 -0.007746 0.000000 0.000000 0.000000
# 2 -0.007364 0.009234 -0.000850 0.000000 0.000000 0.000000
# 3 -0.007746 -0.000850 0.011977 0.000000 0.000000 0.000000
# 4 0.000000 0.000000 0.000000 0.027891 0.000000 0.000000
# 5 0.000000 0.000000 0.000000 0.000000 0.061841 0.000000
# 6 0.000000 0.000000 0.000000 0.000000 0.000000 0.049850
#
#
# Mechanical properties :
#
#
# Convention : Reuss Voigt Hill
#
# Bulk Modulus (GPa) = 35.20552 50.08400 42.64476
# Shear Modulus (GPa) = 20.72175 26.92783 23.82479
#
# Velocity S-wave (km/s) = 3.23374 3.68632 3.46742
# Velocity P-wave (km/s) = 5.63108 6.58735 6.12789
#
# Compressibility (1/GPa) = 0.02840463
#
# Stress axis : x y z
#
# Youngs Moduli (GPa) = 25.56741 108.29390 83.49410
#
# Poissons Ratio (x) = 0.79746 0.64673
# Poissons Ratio (y) = 0.18827 0.07094
# Poissons Ratio (z) = 0.19804 0.09201
#
# Static dielectric constant tensor:
#      x y z
#    x 3.164890 0.000000 0.000000 
#    y 0.000000 3.978130 0.000000 
#    z 0.000000 0.000000 3.729010 
# 
# 
# High freq. dielectric constant tensor:
#      x y z
#    x 1.725710 0.000000 0.000000 
#    y 0.000000 1.793590 0.000000 
#    z 0.000000 0.000000 1.782880 
# 
# From -- ./inp_files/4273.got.cif
#   From: 2010.03.12/outbox.cif.g09.slc.cpg/sg26_3_cif.got.tgz:4273.got - 2010.04.14 03:33:09.
