data_PCOD8167484
_publ_section_title
;
Structure prediction by ZEFSAII (Michael W. Deem and Ramdas Pophale) SiO2 
 PCOD8167484
Probable space group: P M C 21
;
_chemical_formula_sum "Si O2"
_cell_formula_units_Z 32
_cell_length_a 8.993326
_cell_length_b 20.325989
_cell_length_c 9.420618
_cell_angle_alpha 90.000000
_cell_angle_beta 90.000000
_cell_angle_gamma 90.000000
_cell_volume 1722.072441
_symmetry_space_group_name_H-M "P M C 21"
_symmetry_group_IT_number 26
_symmetry_cell_setting 'orthorhombic'
loop_
_space_group_symop_operation_xyz
x,y,z
-x,-y,1/2+z
-x,y,z
x,-y,1/2+z
loop_
_atom_site_type_symbol
_atom_site_label
_atom_site_fract_x
_atom_site_fract_y
_atom_site_fract_z
Si Si1 0.334488 0.171772 0.502640
Si Si2 0.167526 0.330808 0.232884
Si Si3 0.174037 0.045184 0.439511
Si Si4 0.174872 0.076432 0.121900
Si Si5 0.822442 0.562709 0.109409
Si Si6 0.836459 0.706479 0.060859
Si Si7 0.678393 0.540390 0.807896
Si Si8 0.667995 0.205598 0.172320
O O1 0.500000 0.159124 0.555983
O O2 0.244319 0.104955 0.528779
O O3 0.270920 0.232433 0.595354
O O4 0.327500 0.190853 0.338582
O O5 0.162282 0.309278 0.394939
O O6 0.266585 0.396392 0.217996
O O7 0.241946 0.272638 0.140104
O O8 0.000000 0.344236 0.176807
O O9 0.221739 0.047674 0.275359
O O10 0.000000 0.053010 0.459805
O O11 0.227762 0.975892 0.504252
O O12 0.256949 0.144955 0.089064
O O13 0.000000 0.090104 0.116555
O O14 0.747728 0.524239 0.237812
O O15 0.000000 0.550376 0.096996
O O16 0.788262 0.639752 0.141124
O O17 0.741856 0.540890 0.965856
O O18 0.000000 0.728380 0.110079
O O19 0.500000 0.538247 0.809353
O O20 0.500000 0.214262 0.117971
#
# Coordination Sequence:
#
# PCOD8167484 Si02
#       8
#     4   4   4   4   4   4   4   4
#     4   9  16  25  41  65  91 116 146 186 232 274
#     4   9  16  28  46  68  94 125 159 196 237 285
#     4   9  17  29  45  64  88 116 148 183 221 268
#     4   9  17  29  45  65  88 117 149 183 223 270
#     4  10  20  35  53  74 101 135 170 203 244 299
#     4   8  15  27  45  67  91 120 156 195 233 274
#     4  11  21  33  51  77 105 132 164 207 253 294
#     4   9  16  26  42  66  92 117 148 191 235 274
#
# _framework density 18.582260999999999
#
# number of rings (size 3 to 8) (size 9 to 14) (size 15 to 20)
#    0.000    2.750    0.000    3.375    0.000    7.000 
#    0.000    0.000    0.000    1.500    0.000    3.500 
#    0.000    0.000    0.000    0.000    0.000    0.000 
#
# Total GULP energy -396695.790035 kJ/mol
# GULP energy per Si atom -12396.743439 kJ/mol
# Density = 1.853997 g / cm^3
# Si number density = 18.582261 Si / 1000 Ang^3
#
#
#
# Elastic Constant Matrix: (Units=GPa)
#
#
# Indices 1 2 3 4 5 6 
#
# 1 88.5260 10.8389 5.0008 0.0000 0.0000 0.0000
# 2 10.8389 23.0391 -6.9268 0.0000 0.0000 0.0000
# 3 5.0008 -6.9268 12.4878 0.0000 0.0000 0.0000
# 4 0.0000 0.0000 0.0000 25.3897 0.0000 0.0000
# 5 0.0000 0.0000 0.0000 0.0000 15.4773 0.0000
# 6 0.0000 0.0000 0.0000 0.0000 0.0000 29.7442
#
#
#
# Elastic Compliance Matrix: (Units=1/GPa)
#
#
# Indices 1 2 3 4 5 6 
#
# 1 0.013009 -0.009225 -0.010326 0.000000 0.000000 0.000000
# 2 -0.009225 0.058633 0.036217 0.000000 0.000000 0.000000
# 3 -0.010326 0.036217 0.104302 0.000000 0.000000 0.000000
# 4 0.000000 0.000000 0.000000 0.039386 0.000000 0.000000
# 5 0.000000 0.000000 0.000000 0.000000 0.064611 0.000000
# 6 0.000000 0.000000 0.000000 0.000000 0.000000 0.033620
#
#
# Mechanical properties :
#
#
# Convention : Reuss Voigt Hill
#
# Bulk Modulus (GPa) = 4.77839 15.76432 10.27136
# Shear Modulus (GPa) = 14.28620 21.79822 18.04221
#
# Velocity S-wave (km/s) = 2.77575 3.42872 3.11937
# Velocity P-wave (km/s) = 3.58470 4.91699 4.30272
#
# Compressibility (1/GPa) = 0.20927534
#
# Stress axis : x y z
#
# Youngs Moduli (GPa) = 76.87041 17.05523 9.58754
#
# Poissons Ratio (x) = 0.15733 0.09900
# Poissons Ratio (y) = 0.70911 -0.34723
# Poissons Ratio (z) = 0.79379 -0.61769
#
# Static dielectric constant tensor:
#      x y z
#    x 3.539460 0.000000 0.000000 
#    y 0.000000 3.699830 0.000000 
#    z 0.000000 0.000000 2.889830 
# 
# 
# High freq. dielectric constant tensor:
#      x y z
#    x 1.728330 0.000000 0.000000 
#    y 0.000000 1.735620 0.000000 
#    z 0.000000 0.000000 1.656740 
# 
# From -- ./inp_files/3120.got.cif
#   From: 2010.03.12/outbox.cif.g09.slc.cpg/sg26_2_cif.got.tgz:3120.got - 2010.04.14 03:33:09.
