data_PCOD8167397
_publ_section_title
;
Structure prediction by ZEFSAII (Michael W. Deem and Ramdas Pophale) SiO2 
 PCOD8167397
Probable space group: P M C 21
;
_chemical_formula_sum "Si O2"
_cell_formula_units_Z 32
_cell_length_a 8.931206
_cell_length_b 12.497906
_cell_length_c 15.450657
_cell_angle_alpha 90.000000
_cell_angle_beta 90.000000
_cell_angle_gamma 90.000000
_cell_volume 1724.623549
_symmetry_space_group_name_H-M "P M C 21"
_symmetry_group_IT_number 26
_symmetry_cell_setting 'orthorhombic'
loop_
_space_group_symop_operation_xyz
x,y,z
-x,-y,1/2+z
-x,y,z
x,-y,1/2+z
loop_
_atom_site_type_symbol
_atom_site_label
_atom_site_fract_x
_atom_site_fract_y
_atom_site_fract_z
Si Si1 0.833944 0.387577 0.269600
Si Si2 0.825617 0.939914 0.192717
Si Si3 0.675747 0.007002 0.365280
Si Si4 0.832309 0.304697 0.091503
Si Si5 0.171111 0.275837 0.597356
Si Si6 0.325388 0.506673 0.136390
Si Si7 0.676926 0.910696 0.549600
Si Si8 0.825727 0.220548 0.403774
O O1 0.838063 0.293456 0.196223
O O2 0.721748 0.480901 0.236675
O O3 0.781181 0.333283 0.358803
O O4 0.000000 0.437946 0.280116
O O5 0.759224 0.945767 0.288560
O O6 0.798008 0.817669 0.165394
O O7 0.000000 0.969150 0.192931
O O8 0.747588 0.021200 0.126808
O O9 0.500000 0.996160 0.350363
O O10 0.726089 0.958088 0.457152
O O11 0.722543 0.130398 0.362021
O O12 0.757507 0.421709 0.072101
O O13 0.733892 0.210862 0.051110
O O14 0.000000 0.301460 0.051887
O O15 0.280856 0.373078 0.615628
O O16 0.210650 0.228097 0.504239
O O17 0.000000 0.316492 0.601009
O O18 0.500000 0.492207 0.124275
O O19 0.500000 0.912326 0.561789
O O20 0.000000 0.193915 0.386525
#
# Coordination Sequence:
#
# PCOD8167397 Si02
#       8
#     4   4   4   4   4   4   4   4
#     4   8  17  33  55  83 110 143 190 242 287 340
#     4  11  23  39  61  86 118 162 203 246 297 357
#     4  11  24  38  56  87 125 159 196 247 305 368
#     4   9  18  34  58  83 112 150 193 240 289 347
#     4  10  21  38  60  86 118 156 200 247 297 359
#     4  10  20  35  57  83 114 153 193 239 295 357
#     4  11  22  37  58  87 122 155 194 246 303 359
#     4  10  19  36  61  87 115 150 199 249 295 355
#
# _framework density 18.554773999999998
#
# number of rings (size 3 to 8) (size 9 to 14) (size 15 to 20)
#    0.750    1.250    1.250    3.000    0.000    4.500 
#    0.000    1.250    0.000    1.500    0.000    0.000 
#    0.000    0.000    0.000    0.000    0.000    0.000 
#
# Total GULP energy -396684.961338 kJ/mol
# GULP energy per Si atom -12396.405042 kJ/mol
# Density = 1.851254 g / cm^3
# Si number density = 18.554774 Si / 1000 Ang^3
#
#
#
# Elastic Constant Matrix: (Units=GPa)
#
#
# Indices 1 2 3 4 5 6 
#
# 1 100.1831 46.1233 35.1125 0.0000 0.0000 0.0000
# 2 46.1233 91.5408 25.8380 0.0000 0.0000 0.0000
# 3 35.1125 25.8380 72.2800 0.0000 0.0000 0.0000
# 4 0.0000 0.0000 0.0000 20.3389 0.0000 0.0000
# 5 0.0000 0.0000 0.0000 0.0000 23.3388 0.0000
# 6 0.0000 0.0000 0.0000 0.0000 0.0000 31.9842
#
#
#
# Elastic Compliance Matrix: (Units=1/GPa)
#
#
# Indices 1 2 3 4 5 6 
#
# 1 0.014403 -0.005875 -0.004896 0.000000 0.000000 0.000000
# 2 -0.005875 0.014546 -0.002346 0.000000 0.000000 0.000000
# 3 -0.004896 -0.002346 0.017052 0.000000 0.000000 0.000000
# 4 0.000000 0.000000 0.000000 0.049167 0.000000 0.000000
# 5 0.000000 0.000000 0.000000 0.000000 0.042847 0.000000
# 6 0.000000 0.000000 0.000000 0.000000 0.000000 0.031265
#
#
# Mechanical properties :
#
#
# Convention : Reuss Voigt Hill
#
# Bulk Modulus (GPa) = 50.59010 53.12795 51.85902
# Shear Modulus (GPa) = 24.73974 25.59439 25.16706
#
# Velocity S-wave (km/s) = 3.65545 3.71805 3.68688
# Velocity P-wave (km/s) = 6.71870 6.86492 6.79220
#
# Compressibility (1/GPa) = 0.01976671
#
# Stress axis : x y z
#
# Youngs Moduli (GPa) = 69.43227 68.74615 58.64290
#
# Poissons Ratio (x) = 0.40386 0.28714
# Poissons Ratio (y) = 0.40790 0.13758
# Poissons Ratio (z) = 0.33997 0.16128
#
# Static dielectric constant tensor:
#      x y z
#    x 3.390540 0.000000 0.000000 
#    y 0.000000 3.213820 0.000000 
#    z 0.000000 0.000000 3.362210 
# 
# 
# High freq. dielectric constant tensor:
#      x y z
#    x 1.724880 0.000000 0.000000 
#    y 0.000000 1.712650 0.000000 
#    z 0.000000 0.000000 1.706720 
# 
# From -- ./inp_files/4284.got.cif
#   From: 2010.03.12/outbox.cif.g09.slc.cpg/sg26_3_cif.got.tgz:4284.got - 2010.04.14 03:33:09.
