data_PCOD8167744
_publ_section_title
;
Structure prediction by ZEFSAII (Michael W. Deem and Ramdas Pophale) SiO2 
 PCOD8167744
Probable space group: P M C 21
;
_chemical_formula_sum "Si O2"
_cell_formula_units_Z 24
_cell_length_a 11.628738
_cell_length_b 11.188544
_cell_length_c 8.550581
_cell_angle_alpha 90.000000
_cell_angle_beta 90.000000
_cell_angle_gamma 90.000000
_cell_volume 1112.504523
_symmetry_space_group_name_H-M "P M C 21"
_symmetry_group_IT_number 26
_symmetry_cell_setting 'orthorhombic'
loop_
_space_group_symop_operation_xyz
x,y,z
-x,-y,1/2+z
-x,y,z
x,-y,1/2+z
loop_
_atom_site_type_symbol
_atom_site_label
_atom_site_fract_x
_atom_site_fract_y
_atom_site_fract_z
Si Si1 0.638526 0.622358 0.396090
Si Si2 0.000000 0.426727 0.452334
Si Si3 0.000000 0.667612 0.596678
Si Si4 0.253078 0.610695 0.053504
Si Si5 0.786284 0.173998 0.016650
Si Si6 0.374851 0.164075 0.490940
Si Si7 0.716591 0.018308 0.759144
O O1 0.500000 0.614548 0.382535
O O2 0.689612 0.507500 0.483876
O O3 0.700512 0.626742 0.228626
O O4 0.673311 0.741713 0.493572
O O5 0.000000 0.386404 0.271921
O O6 0.114515 0.386349 0.545729
O O7 0.000000 0.569468 0.460359
O O8 0.889443 0.744573 0.567009
O O9 0.288575 0.727393 0.952606
O O10 0.808581 0.096563 0.859105
O O11 0.779000 0.078347 0.154160
O O12 0.500000 0.221865 0.479430
O O13 0.366429 0.052811 0.375055
O O14 0.358643 0.113151 0.664729
#
# Coordination Sequence:
#
# PCOD8167744 Si02
#       7
#     4   2   2   4   4   4   4
#     4  12  26  45  69 106 146 185 239 303 373 440
#     4  12  26  46  74 107 147 189 249 293 361 442
#     4  12  26  46  74 105 145 189 243 301 357 432
#     4  12  26  45  70 104 143 190 240 301 365 428
#     4  11  25  46  70 102 142 185 243 296 361 426
#     4  11  22  41  67  99 138 183 237 292 359 429
#     4  10  24  43  66  99 139 189 238 289 359 426
#
# _framework density 21.572945000000001
#
# number of rings (size 3 to 8) (size 9 to 14) (size 15 to 20)
#    0.000    0.667    3.333    4.000    2.333    4.000 
#    0.000    3.333    0.000    0.000    0.000    0.000 
#    0.000    0.000    0.000    0.000    0.000    0.000 
#
# Total GULP energy -297471.913231 kJ/mol
# GULP energy per Si atom -12394.663051 kJ/mol
# Density = 2.152384 g / cm^3
# Si number density = 21.572945 Si / 1000 Ang^3
#
#
#
# Elastic Constant Matrix: (Units=GPa)
#
#
# Indices 1 2 3 4 5 6 
#
# 1 177.5858 63.7427 53.0843 0.0000 0.0000 0.0000
# 2 63.7427 149.5594 50.8019 0.0000 0.0000 0.0000
# 3 53.0843 50.8019 110.6030 0.0000 0.0000 0.0000
# 4 0.0000 0.0000 0.0000 27.7788 0.0000 0.0000
# 5 0.0000 0.0000 0.0000 0.0000 28.3534 0.0000
# 6 0.0000 0.0000 0.0000 0.0000 0.0000 23.0538
#
#
#
# Elastic Compliance Matrix: (Units=1/GPa)
#
#
# Indices 1 2 3 4 5 6 
#
# 1 0.007151 -0.002230 -0.002408 0.000000 0.000000 0.000000
# 2 -0.002230 0.008618 -0.002888 0.000000 0.000000 0.000000
# 3 -0.002408 -0.002888 0.011524 0.000000 0.000000 0.000000
# 4 0.000000 0.000000 0.000000 0.035999 0.000000 0.000000
# 5 0.000000 0.000000 0.000000 0.000000 0.035269 0.000000
# 6 0.000000 0.000000 0.000000 0.000000 0.000000 0.043377
#
#
# Mechanical properties :
#
#
# Convention : Reuss Voigt Hill
#
# Bulk Modulus (GPa) = 81.69503 85.88956 83.79230
# Shear Modulus (GPa) = 31.04250 33.84514 32.44382
#
# Velocity S-wave (km/s) = 3.79747 3.96519 3.88224
# Velocity P-wave (km/s) = 7.56169 7.80152 7.68254
#
# Compressibility (1/GPa) = 0.01224065
#
# Stress axis : x y z
#
# Youngs Moduli (GPa) = 139.83428 116.04019 86.77846
#
# Poissons Ratio (x) = 0.25876 0.20897
# Poissons Ratio (y) = 0.31182 0.25061
# Poissons Ratio (z) = 0.33673 0.33512
#
# Static dielectric constant tensor:
#      x y z
#    x 3.844640 0.000000 0.000000 
#    y 0.000000 4.395590 0.000000 
#    z 0.000000 0.000000 4.274610 
# 
# 
# High freq. dielectric constant tensor:
#      x y z
#    x 1.834890 0.000000 0.000000 
#    y 0.000000 1.876390 0.000000 
#    z 0.000000 0.000000 1.858080 
# 
# From -- ./inp_files/1844.got.cif
#   From: 2010.03.12/outbox.cif.g09.slc.cpg/sg26_1_cif.got.tgz:1844.got - 2010.04.14 03:33:09.
