data_PCOD8167262
_publ_section_title
;
Structure prediction by ZEFSAII (Michael W. Deem and Ramdas Pophale) SiO2 
 PCOD8167262
Probable space group: P M C 21
;
_chemical_formula_sum "Si O2"
_cell_formula_units_Z 32
_cell_length_a 9.352837
_cell_length_b 10.124879
_cell_length_c 19.005282
_cell_angle_alpha 90.000000
_cell_angle_beta 90.000000
_cell_angle_gamma 90.000000
_cell_volume 1799.730702
_symmetry_space_group_name_H-M "P M C 21"
_symmetry_group_IT_number 26
_symmetry_cell_setting 'orthorhombic'
loop_
_space_group_symop_operation_xyz
x,y,z
-x,-y,1/2+z
-x,y,z
x,-y,1/2+z
loop_
_atom_site_type_symbol
_atom_site_label
_atom_site_fract_x
_atom_site_fract_y
_atom_site_fract_z
Si Si1 0.661066 0.521037 0.187920
Si Si2 0.665419 0.858633 0.955010
Si Si3 0.835232 0.482556 0.818987
Si Si4 0.167975 0.637181 0.466076
Si Si5 0.169360 0.214403 0.322105
Si Si6 0.665169 0.128614 0.031842
Si Si7 0.334675 0.782921 0.684544
Si Si8 0.335631 0.595295 0.035825
O O1 0.500000 0.529686 0.215281
O O2 0.756459 0.576467 0.251164
O O3 0.699702 0.370068 0.168463
O O4 0.684921 0.611932 0.119626
O O5 0.500000 0.852319 0.932151
O O6 0.761973 0.869830 0.885326
O O7 0.710734 0.730448 0.999250
O O8 0.695984 0.981741 0.005418
O O9 0.798057 0.390086 0.884498
O O10 0.786724 0.632866 0.834804
O O11 0.000000 0.481600 0.800118
O O12 0.237871 0.775556 0.485500
O O13 0.232672 0.520376 0.511754
O O14 0.000000 0.642479 0.480979
O O15 0.236065 0.164972 0.248323
O O16 0.000000 0.191663 0.321098
O O17 0.500000 0.170095 0.021739
O O18 0.705774 0.136066 0.114311
O O19 0.500000 0.804052 0.705345
O O20 0.500000 0.557525 0.018621
#
# Coordination Sequence:
#
# PCOD8167262 Si02
#       8
#     4   4   4   4   4   4   4   4
#     4   9  17  30  51  78 105 137 176 221 269 314
#     4  10  21  36  57  81 109 145 182 221 270 321
#     4   9  19  33  49  76 110 141 175 218 267 318
#     4  11  21  34  54  80 108 141 179 220 269 321
#     4  10  19  33  53  78 110 142 178 222 266 320
#     4  10  21  38  56  80 111 144 182 226 270 318
#     4   9  17  32  53  76 105 140 180 223 267 318
#     4  10  19  34  55  81 108 136 176 223 268 318
#
# _framework density 17.780439000000001
#
# number of rings (size 3 to 8) (size 9 to 14) (size 15 to 20)
#    0.000    2.250    2.500    0.750    0.000    3.000 
#    0.000    1.250    0.000    3.000    0.000    0.000 
#    0.000    0.000    0.000    0.000    0.000    0.000 
#
# Total GULP energy -396863.571775 kJ/mol
# GULP energy per Si atom -12401.986618 kJ/mol
# Density = 1.773997 g / cm^3
# Si number density = 17.780439 Si / 1000 Ang^3
#
#
#
# Elastic Constant Matrix: (Units=GPa)
#
#
# Indices 1 2 3 4 5 6 
#
# 1 63.6008 19.6252 58.8267 0.0000 0.0000 0.0000
# 2 19.6252 46.0061 35.2553 0.0000 0.0000 0.0000
# 3 58.8267 35.2553 132.5604 0.0000 0.0000 0.0000
# 4 0.0000 0.0000 0.0000 24.7958 0.0000 0.0000
# 5 0.0000 0.0000 0.0000 0.0000 26.6015 0.0000
# 6 0.0000 0.0000 0.0000 0.0000 0.0000 17.9149
#
#
#
# Elastic Compliance Matrix: (Units=1/GPa)
#
#
# Indices 1 2 3 4 5 6 
#
# 1 0.026981 -0.002932 -0.011194 0.000000 0.000000 0.000000
# 2 -0.002932 0.027619 -0.006044 0.000000 0.000000 0.000000
# 3 -0.011194 -0.006044 0.014119 0.000000 0.000000 0.000000
# 4 0.000000 0.000000 0.000000 0.040329 0.000000 0.000000
# 5 0.000000 0.000000 0.000000 0.000000 0.037592 0.000000
# 6 0.000000 0.000000 0.000000 0.000000 0.000000 0.055819
#
#
# Mechanical properties :
#
#
# Convention : Reuss Voigt Hill
#
# Bulk Modulus (GPa) = 35.23723 52.17575 43.70649
# Shear Modulus (GPa) = 19.82090 22.42646 21.12368
#
# Velocity S-wave (km/s) = 3.34242 3.55533 3.45052
# Velocity P-wave (km/s) = 5.89548 6.80162 6.36470
#
# Compressibility (1/GPa) = 0.02837907
#
# Stress axis : x y z
#
# Youngs Moduli (GPa) = 37.06273 36.20728 70.82746
#
# Poissons Ratio (x) = 0.10615 0.79283
# Poissons Ratio (y) = 0.10865 0.42811
# Poissons Ratio (z) = 0.41488 0.21885
#
# Static dielectric constant tensor:
#      x y z
#    x 3.311490 0.000000 0.000000 
#    y 0.000000 3.069070 0.000000 
#    z 0.000000 0.000000 3.412150 
# 
# 
# High freq. dielectric constant tensor:
#      x y z
#    x 1.688290 0.000000 0.000000 
#    y 0.000000 1.655890 0.000000 
#    z 0.000000 0.000000 1.699240 
# 
# From -- ./inp_files/5026.got.cif
#   From: 2010.03.12/outbox.cif.g09.slc.cpg/sg26_3_cif.got.tgz:5026.got - 2010.04.14 03:33:09.
