data_PCOD8167619
_publ_section_title
;
Structure prediction by ZEFSAII (Michael W. Deem and Ramdas Pophale) SiO2 
 PCOD8167619
Probable space group: P M C 21
;
_chemical_formula_sum "Si O2"
_cell_formula_units_Z 32
_cell_length_a 8.874710
_cell_length_b 11.197641
_cell_length_c 16.008727
_cell_angle_alpha 90.000000
_cell_angle_beta 90.000000
_cell_angle_gamma 90.000000
_cell_volume 1590.880318
_symmetry_space_group_name_H-M "P M C 21"
_symmetry_group_IT_number 26
_symmetry_cell_setting 'orthorhombic'
loop_
_space_group_symop_operation_xyz
x,y,z
-x,-y,1/2+z
-x,y,z
x,-y,1/2+z
loop_
_atom_site_type_symbol
_atom_site_label
_atom_site_fract_x
_atom_site_fract_y
_atom_site_fract_z
Si Si1 0.670029 0.951621 0.998370
Si Si2 0.832799 0.822832 0.537896
Si Si3 0.823179 0.532412 0.868110
Si Si4 0.321492 0.427601 0.033956
Si Si5 0.822620 0.568719 0.188521
Si Si6 0.835340 0.921382 0.721857
Si Si7 0.331369 0.774802 0.848373
Si Si8 0.824907 0.837002 0.151968
O O1 0.500000 0.986226 0.022440
O O2 0.679969 0.879461 0.913997
O O3 0.732148 0.863991 0.069118
O O4 0.761091 0.073790 0.980474
O O5 0.726032 0.709089 0.542215
O O6 0.846405 0.883481 0.626834
O O7 0.000000 0.787531 0.504644
O O8 0.768698 0.480145 0.778696
O O9 0.786686 0.672167 0.869798
O O10 0.000000 0.512105 0.880847
O O11 0.737106 0.472750 0.944845
O O12 0.500000 0.439704 0.035901
O O13 0.257074 0.501354 0.112192
O O14 0.777747 0.707937 0.187008
O O15 0.000000 0.547669 0.177331
O O16 0.710032 0.837579 0.761704
O O17 0.000000 0.903236 0.764727
O O18 0.790724 0.062262 0.722696
O O19 0.500000 0.721279 0.842378
O O20 0.000000 0.839192 0.127396
#
# Coordination Sequence:
#
# PCOD8167619 Si02
#       8
#     4   4   4   4   4   4   4   4
#     4  10  21  36  55  83 115 146 185 235 291 349
#     4  10  21  39  61  84 111 148 195 239 285 346
#     4  11  24  41  62  88 119 159 207 252 292 350
#     4  12  25  40  61  90 125 161 196 244 304 359
#     4  10  22  41  64  89 119 160 207 250 294 348
#     4   9  19  35  57  84 111 144 188 238 289 345
#     4  11  23  37  55  83 117 150 188 237 294 351
#     4   9  19  37  59  83 111 146 192 239 285 342
#
# _framework density 20.114650000000001
#
# number of rings (size 3 to 8) (size 9 to 14) (size 15 to 20)
#    0.000    1.750    0.000    4.875    0.000   12.000 
#    0.000    1.250    0.000    0.000    0.000    0.000 
#    0.000    0.000    0.000    0.000    0.000    0.000 
#
# Total GULP energy -396775.213240 kJ/mol
# GULP energy per Si atom -12399.225414 kJ/mol
# Density = 2.006887 g / cm^3
# Si number density = 20.114650 Si / 1000 Ang^3
#
#
#
# Elastic Constant Matrix: (Units=GPa)
#
#
# Indices 1 2 3 4 5 6 
#
# 1 89.2224 43.2916 41.2368 0.0000 0.0000 0.0000
# 2 43.2916 135.5961 39.7977 0.0000 0.0000 0.0000
# 3 41.2368 39.7977 79.9516 0.0000 0.0000 0.0000
# 4 0.0000 0.0000 0.0000 20.3397 0.0000 0.0000
# 5 0.0000 0.0000 0.0000 0.0000 32.6562 0.0000
# 6 0.0000 0.0000 0.0000 0.0000 0.0000 32.2934
#
#
#
# Elastic Compliance Matrix: (Units=1/GPa)
#
#
# Indices 1 2 3 4 5 6 
#
# 1 0.015754 -0.003097 -0.006583 0.000000 0.000000 0.000000
# 2 -0.003097 0.009246 -0.003005 0.000000 0.000000 0.000000
# 3 -0.006583 -0.003005 0.017399 0.000000 0.000000 0.000000
# 4 0.000000 0.000000 0.000000 0.049165 0.000000 0.000000
# 5 0.000000 0.000000 0.000000 0.000000 0.030622 0.000000
# 6 0.000000 0.000000 0.000000 0.000000 0.000000 0.030966
#
#
# Mechanical properties :
#
#
# Convention : Reuss Voigt Hill
#
# Bulk Modulus (GPa) = 58.73046 61.49137 60.11092
# Shear Modulus (GPa) = 27.14473 29.08745 28.11609
#
# Velocity S-wave (km/s) = 3.67754 3.80686 3.74276
# Velocity P-wave (km/s) = 6.87704 7.06822 6.97329
#
# Compressibility (1/GPa) = 0.01702694
#
# Stress axis : x y z
#
# Youngs Moduli (GPa) = 63.47767 108.15938 57.47528
#
# Poissons Ratio (x) = 0.33501 0.37839
# Poissons Ratio (y) = 0.19661 0.17269
# Poissons Ratio (z) = 0.41790 0.32498
#
# Static dielectric constant tensor:
#      x y z
#    x 3.906580 0.000000 0.000000 
#    y 0.000000 4.004860 0.000000 
#    z 0.000000 0.000000 3.584290 
# 
# 
# High freq. dielectric constant tensor:
#      x y z
#    x 1.789160 0.000000 0.000000 
#    y 0.000000 1.801320 0.000000 
#    z 0.000000 0.000000 1.777380 
# 
# From -- ./inp_files/4196.got.cif
#   From: 2010.03.12/outbox.cif.g09.slc.cpg/sg26_3_cif.got.tgz:4196.got - 2010.04.14 03:33:09.
