data_PCOD8167774
_publ_section_title
;
Structure prediction by ZEFSAII (Michael W. Deem and Ramdas Pophale) SiO2 
 PCOD8167774
Probable space group: P M C 21
;
_chemical_formula_sum "Si O2"
_cell_formula_units_Z 32
_cell_length_a 9.367402
_cell_length_b 11.481842
_cell_length_c 18.133926
_cell_angle_alpha 90.000000
_cell_angle_beta 90.000000
_cell_angle_gamma 90.000000
_cell_volume 1950.394950
_symmetry_space_group_name_H-M "P M C 21"
_symmetry_group_IT_number 26
_symmetry_cell_setting 'orthorhombic'
loop_
_space_group_symop_operation_xyz
x,y,z
-x,-y,1/2+z
-x,y,z
x,-y,1/2+z
loop_
_atom_site_type_symbol
_atom_site_label
_atom_site_fract_x
_atom_site_fract_y
_atom_site_fract_z
Si Si1 0.168137 0.236701 0.136250
Si Si2 0.340381 0.539865 0.415448
Si Si3 0.830118 0.880449 0.780666
Si Si4 0.158506 0.348767 0.356747
Si Si5 0.339919 0.663345 0.258761
Si Si6 0.166218 0.745159 0.473984
Si Si7 0.841270 0.528662 0.700617
Si Si8 0.831660 0.133884 0.824317
O O1 0.230000 0.147265 0.197825
O O2 0.224700 0.368700 0.149521
O O3 0.000000 0.243057 0.149418
O O4 0.205506 0.196053 0.053018
O O5 0.500000 0.523315 0.446674
O O6 0.263482 0.413661 0.413918
O O7 0.345342 0.594121 0.334698
O O8 0.253466 0.625775 0.468411
O O9 0.779498 0.779617 0.837343
O O10 0.000000 0.881852 0.779525
O O11 0.772589 0.004516 0.808514
O O12 0.147682 0.424284 0.283252
O O13 0.000000 0.339043 0.392031
O O14 0.500000 0.693532 0.231920
O O15 0.262700 0.583231 0.197289
O O16 0.249817 0.781213 0.268442
O O17 0.205681 0.835650 0.409300
O O18 0.000000 0.711600 0.470165
O O19 0.000000 0.490738 0.674186
O O20 0.000000 0.145931 0.809261
#
# Coordination Sequence:
#
# PCOD8167774 Si02
#       8
#     4   4   4   4   4   4   4   4
#     4   8  14  25  42  63  84 105 134 175 218 254
#     4   9  16  25  38  58  83 107 131 162 204 251
#     4   8  14  25  42  63  84 109 143 180 213 245
#     4   8  13  23  40  59  78 101 131 168 207 244
#     4   9  16  25  38  58  83 107 132 166 204 241
#     4   9  16  26  42  63  84 107 137 174 213 253
#     4   8  13  23  40  59  77  99 128 163 206 251
#     4   9  16  26  42  63  85 111 144 176 207 247
#
# _framework density 16.406935000000001
#
# number of rings (size 3 to 8) (size 9 to 14) (size 15 to 20)
#    0.000    3.500    0.000    2.250    0.000    3.000 
#    0.000    1.250    0.000    3.750    0.000    7.000 
#    0.000    0.000    0.000    0.000    0.000    0.000 
#
# Total GULP energy -396515.690161 kJ/mol
# GULP energy per Si atom -12391.115318 kJ/mol
# Density = 1.636959 g / cm^3
# Si number density = 16.406935 Si / 1000 Ang^3
#
#
#
# Elastic Constant Matrix: (Units=GPa)
#
#
# Indices 1 2 3 4 5 6 
#
# 1 62.3557 43.5256 22.4057 0.0000 0.0000 0.0000
# 2 43.5256 132.7320 46.9115 0.0000 0.0000 0.0000
# 3 22.4057 46.9115 63.7293 0.0000 0.0000 0.0000
# 4 0.0000 0.0000 0.0000 15.9307 0.0000 0.0000
# 5 0.0000 0.0000 0.0000 0.0000 7.0806 0.0000
# 6 0.0000 0.0000 0.0000 0.0000 0.0000 7.6005
#
#
#
# Elastic Compliance Matrix: (Units=1/GPa)
#
#
# Indices 1 2 3 4 5 6 
#
# 1 0.021260 -0.005852 -0.003166 0.000000 0.000000 0.000000
# 2 -0.005852 0.011794 -0.006624 0.000000 0.000000 0.000000
# 3 -0.003166 -0.006624 0.021681 0.000000 0.000000 0.000000
# 4 0.000000 0.000000 0.000000 0.062772 0.000000 0.000000
# 5 0.000000 0.000000 0.000000 0.000000 0.141231 0.000000
# 6 0.000000 0.000000 0.000000 0.000000 0.000000 0.131570
#
#
# Mechanical properties :
#
#
# Convention : Reuss Voigt Hill
#
# Bulk Modulus (GPa) = 42.64637 53.83362 48.24000
# Shear Modulus (GPa) = 11.64387 15.85397 13.74892
#
# Velocity S-wave (km/s) = 2.66689 3.11190 2.89795
# Velocity P-wave (km/s) = 5.96091 6.76718 6.37680
#
# Compressibility (1/GPa) = 0.02344865
#
# Stress axis : x y z
#
# Youngs Moduli (GPa) = 47.03676 84.78640 46.12376
#
# Poissons Ratio (x) = 0.49621 0.14605
# Poissons Ratio (y) = 0.27528 0.30554
# Poissons Ratio (z) = 0.14894 0.56165
#
# Static dielectric constant tensor:
#      x y z
#    x 3.078810 0.000000 0.000000 
#    y 0.000000 3.214740 0.000000 
#    z 0.000000 0.000000 2.892070 
# 
# 
# High freq. dielectric constant tensor:
#      x y z
#    x 1.607980 0.000000 0.000000 
#    y 0.000000 1.619070 0.000000 
#    z 0.000000 0.000000 1.594230 
# 
# From -- ./inp_files/4995.got.cif
#   From: 2010.03.12/outbox.cif.g09.slc.cpg/sg26_3_cif.got.tgz:4995.got - 2010.04.14 03:33:09.
