data_PCOD8167604
_publ_section_title
;
Structure prediction by ZEFSAII (Michael W. Deem and Ramdas Pophale) SiO2 
 PCOD8167604
Probable space group: P M C 21
;
_chemical_formula_sum "Si O2"
_cell_formula_units_Z 32
_cell_length_a 8.716641
_cell_length_b 14.705421
_cell_length_c 12.654726
_cell_angle_alpha 90.000000
_cell_angle_beta 90.000000
_cell_angle_gamma 90.000000
_cell_volume 1622.106514
_symmetry_space_group_name_H-M "P M C 21"
_symmetry_group_IT_number 26
_symmetry_cell_setting 'orthorhombic'
loop_
_space_group_symop_operation_xyz
x,y,z
-x,-y,1/2+z
-x,y,z
x,-y,1/2+z
loop_
_atom_site_type_symbol
_atom_site_label
_atom_site_fract_x
_atom_site_fract_y
_atom_site_fract_z
Si Si1 0.316343 0.937714 0.228550
Si Si2 0.668113 0.860556 0.437368
Si Si3 0.681557 0.559572 0.527703
Si Si4 0.317889 0.329735 0.230968
Si Si5 0.319289 0.639124 0.967663
Si Si6 0.180390 0.237863 0.637898
Si Si7 0.316675 0.865490 0.664566
Si Si8 0.669487 0.670645 0.334820
O O1 0.500000 0.928238 0.224520
O O2 0.246160 0.912979 0.343240
O O3 0.251167 0.863717 0.146186
O O4 0.258635 0.040510 0.214463
O O5 0.500000 0.905683 0.451510
O O6 0.757343 0.867517 0.547451
O O7 0.648708 0.756349 0.409481
O O8 0.500000 0.574840 0.523793
O O9 0.748810 0.608777 0.633604
O O10 0.724649 0.453310 0.529582
O O11 0.746957 0.597710 0.415100
O O12 0.500000 0.332902 0.223171
O O13 0.263640 0.366929 0.345158
O O14 0.257235 0.225248 0.223106
O O15 0.500000 0.658022 0.971459
O O16 0.234727 0.721645 0.026211
O O17 0.229954 0.306124 0.732318
O O18 0.000000 0.228731 0.639604
O O19 0.500000 0.861725 0.660197
O O20 0.500000 0.638326 0.294706
#
# Coordination Sequence:
#
# PCOD8167604 Si02
#       8
#     4   4   4   4   4   4   4   4
#     4   9  18  31  52  79 103 137 183 226 274 330
#     4   8  13  24  43  73 106 134 164 211 269 317
#     4   9  17  30  54  87 115 139 172 222 276 323
#     4   9  17  30  50  85 118 138 173 226 280 327
#     4  10  21  34  55  84 114 147 182 223 271 329
#     4  11  23  38  53  73 108 149 187 228 271 319
#     4   9  15  26  48  79 112 137 169 223 281 329
#     4   9  16  31  57  82 106 135 174 225 272 318
#
# _framework density 19.727433999999999
#
# number of rings (size 3 to 8) (size 9 to 14) (size 15 to 20)
#    0.000    2.750    1.250    1.875    1.750    1.000 
#    0.000    4.375    0.000    7.500    0.000    0.000 
#    0.000    0.000    0.000    0.000    0.000    0.000 
#
# Total GULP energy -396438.974903 kJ/mol
# GULP energy per Si atom -12388.717966 kJ/mol
# Density = 1.968253 g / cm^3
# Si number density = 19.727434 Si / 1000 Ang^3
#
#
#
# Elastic Constant Matrix: (Units=GPa)
#
#
# Indices 1 2 3 4 5 6 
#
# 1 37.8508 17.3619 18.3442 0.0000 0.0000 0.0000
# 2 17.3619 128.0741 58.9153 0.0000 0.0000 0.0000
# 3 18.3442 58.9153 105.3929 0.0000 0.0000 0.0000
# 4 0.0000 0.0000 0.0000 28.1683 0.0000 0.0000
# 5 0.0000 0.0000 0.0000 0.0000 4.9346 0.0000
# 6 0.0000 0.0000 0.0000 0.0000 0.0000 3.4155
#
#
#
# Elastic Compliance Matrix: (Units=1/GPa)
#
#
# Indices 1 2 3 4 5 6 
#
# 1 0.029302 -0.002189 -0.003877 0.000000 0.000000 0.000000
# 2 -0.002189 0.010674 -0.005586 0.000000 0.000000 0.000000
# 3 -0.003877 -0.005586 0.013286 0.000000 0.000000 0.000000
# 4 0.000000 0.000000 0.000000 0.035501 0.000000 0.000000
# 5 0.000000 0.000000 0.000000 0.000000 0.202651 0.000000
# 6 0.000000 0.000000 0.000000 0.000000 0.000000 0.292780
#
#
# Mechanical properties :
#
#
# Convention : Reuss Voigt Hill
#
# Bulk Modulus (GPa) = 33.37875 51.17342 42.27608
# Shear Modulus (GPa) = 8.09738 19.08344 13.59041
#
# Velocity S-wave (km/s) = 2.02819 3.11361 2.62756
# Velocity P-wave (km/s) = 4.73724 6.23880 5.53913
#
# Compressibility (1/GPa) = 0.02995918
#
# Stress axis : x y z
#
# Youngs Moduli (GPa) = 34.12692 93.68253 75.26909
#
# Poissons Ratio (x) = 0.20507 0.29179
# Poissons Ratio (y) = 0.07470 0.42045
# Poissons Ratio (z) = 0.13230 0.52331
#
# Static dielectric constant tensor:
#      x y z
#    x 2.882370 0.000000 0.000000 
#    y 0.000000 3.698020 0.000000 
#    z 0.000000 0.000000 3.830420 
# 
# 
# High freq. dielectric constant tensor:
#      x y z
#    x 1.690380 0.000000 0.000000 
#    y 0.000000 1.772770 0.000000 
#    z 0.000000 0.000000 1.779410 
# 
# From -- ./inp_files/2937.got.cif
#   From: 2010.03.12/outbox.cif.g09.slc.cpg/sg26_2_cif.got.tgz:2937.got - 2010.04.14 03:33:09.
