data_PCOD8167996
_publ_section_title
;
Structure prediction by ZEFSAII (Michael W. Deem and Ramdas Pophale) SiO2 
 PCOD8167996
Probable space group: P M A 2
;
_chemical_formula_sum "Si O2"
_cell_formula_units_Z 20
_cell_length_a 8.768232
_cell_length_b 15.038357
_cell_length_c 7.570237
_cell_angle_alpha 90.000000
_cell_angle_beta 90.000000
_cell_angle_gamma 90.000000
_cell_volume 998.209960
_symmetry_space_group_name_H-M "P M A 2"
_symmetry_group_IT_number 28
_symmetry_cell_setting 'orthorhombic'
loop_
_space_group_symop_operation_xyz
x,y,z
-x,-y,z
1/2-x,y,z
1/2+x,-y,z
loop_
_atom_site_type_symbol
_atom_site_label
_atom_site_fract_x
_atom_site_fract_y
_atom_site_fract_z
Si Si1 0.427706 0.279290 0.363150
Si Si2 0.927945 0.915860 0.375233
Si Si3 0.430380 0.403404 0.058971
Si Si4 0.429808 0.911662 0.759436
Si Si5 0.930349 0.731249 0.759515
O O1 0.250000 0.298961 0.375297
O O2 0.454756 0.179761 0.282696
O O3 0.500140 0.350715 0.228388
O O4 0.494948 0.288575 0.561692
O O5 0.750000 0.931983 0.412726
O O6 0.020109 0.912242 0.556688
O O7 0.000000 0.000000 0.266065
O O8 0.500000 0.500000 0.050994
O O9 0.250000 0.410746 0.074155
O O10 0.476914 0.351543 0.881288
O O11 0.250000 0.913902 0.781030
O O12 0.495152 0.820369 0.842487
O O13 0.500000 0.000000 0.853606
O O14 0.750000 0.747455 0.755072
#
# Coordination Sequence:
#
# PCOD8167996 Si02
#       5
#     4   4   4   4   4
#     4   8  16  32  52  73  99 133 167 198 243 301
#     4   9  15  26  46  72 103 136 169 203 244 295
#     4  10  21  37  55  74  99 130 166 212 261 305
#     4  10  17  27  47  75 106 137 170 206 245 294
#     4   9  18  34  54  74 101 136 169 205 251 299
#
# _framework density 20.035865999999999
#
# number of rings (size 3 to 8) (size 9 to 14) (size 15 to 20)
#    0.000    2.800    0.000    4.800    0.000    1.600 
#    0.000    6.000    0.000    2.400    0.000    0.000 
#    0.000    0.000    0.000    0.000    0.000    0.000 
#
# Total GULP energy -247795.305096 kJ/mol
# GULP energy per Si atom -12389.765255 kJ/mol
# Density = 1.999026 g / cm^3
# Si number density = 20.035866 Si / 1000 Ang^3
#
#
#
# Elastic Constant Matrix: (Units=GPa)
#
#
# Indices 1 2 3 4 5 6 
#
# 1 68.1493 53.4266 27.0931 0.0000 0.0000 0.0000
# 2 53.4266 215.4902 76.8685 0.0000 0.0000 0.0000
# 3 27.0931 76.8685 85.5381 0.0000 0.0000 0.0000
# 4 0.0000 0.0000 0.0000 2.9353 0.0000 0.0000
# 5 0.0000 0.0000 0.0000 0.0000 5.6757 0.0000
# 6 0.0000 0.0000 0.0000 0.0000 0.0000 39.0007
#
#
#
# Elastic Compliance Matrix: (Units=1/GPa)
#
#
# Indices 1 2 3 4 5 6 
#
# 1 0.018590 -0.003692 -0.002570 0.000000 0.000000 0.000000
# 2 -0.003692 0.007563 -0.005627 0.000000 0.000000 0.000000
# 3 -0.002570 -0.005627 0.017562 0.000000 0.000000 0.000000
# 4 0.000000 0.000000 0.000000 0.340678 0.000000 0.000000
# 5 0.000000 0.000000 0.000000 0.000000 0.176188 0.000000
# 6 0.000000 0.000000 0.000000 0.000000 0.000000 0.025641
#
#
# Mechanical properties :
#
#
# Convention : Reuss Voigt Hill
#
# Bulk Modulus (GPa) = 50.16122 75.99491 63.07806
# Shear Modulus (GPa) = 8.10838 23.64164 15.87501
#
# Velocity S-wave (km/s) = 2.01388 3.43879 2.81789
# Velocity P-wave (km/s) = 5.52247 7.33340 6.49140
#
# Compressibility (1/GPa) = 0.01993572
#
# Stress axis : x y z
#
# Youngs Moduli (GPa) = 53.79226 132.21668 56.94203
#
# Poissons Ratio (x) = 0.48817 0.14635
# Poissons Ratio (y) = 0.19861 0.32043
# Poissons Ratio (z) = 0.13825 0.74402
#
# Static dielectric constant tensor:
#      x y z
#    x 3.478220 0.000000 0.000000 
#    y 0.000000 4.631260 0.000000 
#    z 0.000000 0.000000 3.550840 
# 
# 
# High freq. dielectric constant tensor:
#      x y z
#    x 1.754780 0.000000 0.000000 
#    y 0.000000 1.797450 0.000000 
#    z 0.000000 0.000000 1.752520 
# 
# From -- ./inp_files/2338.got.cif
#   From: 2010.03.12/outbox.cif.g09.slc.cpg/sg28_2_cif.got.tgz:2338.got - 2010.04.14 03:39:34.
