data_PCOD8167283
_publ_section_title
;
Structure prediction by ZEFSAII (Michael W. Deem and Ramdas Pophale) SiO2 
 PCOD8167283
Probable space group: P M C 21
;
_chemical_formula_sum "Si O2"
_cell_formula_units_Z 32
_cell_length_a 9.192934
_cell_length_b 13.962835
_cell_length_c 12.363711
_cell_angle_alpha 90.000000
_cell_angle_beta 90.000000
_cell_angle_gamma 90.000000
_cell_volume 1586.998781
_symmetry_space_group_name_H-M "P M C 21"
_symmetry_group_IT_number 26
_symmetry_cell_setting 'orthorhombic'
loop_
_space_group_symop_operation_xyz
x,y,z
-x,-y,1/2+z
-x,y,z
x,-y,1/2+z
loop_
_atom_site_type_symbol
_atom_site_label
_atom_site_fract_x
_atom_site_fract_y
_atom_site_fract_z
Si Si1 0.331375 0.553534 0.174840
Si Si2 0.841700 0.368551 0.858060
Si Si3 0.670048 0.245937 0.563826
Si Si4 0.666737 0.642085 0.568417
Si Si5 0.832702 0.935816 0.465330
Si Si6 0.159996 0.831924 0.251795
Si Si7 0.167577 0.144403 0.385291
Si Si8 0.330876 0.842943 0.664988
O O1 0.500000 0.547367 0.203360
O O2 0.250030 0.554811 0.289857
O O3 0.298272 0.644863 0.099148
O O4 0.276360 0.457625 0.116851
O O5 0.861346 0.277005 0.784112
O O6 0.000000 0.412123 0.886617
O O7 0.761010 0.334055 0.964599
O O8 0.500000 0.227005 0.548156
O O9 0.729126 0.168235 0.651102
O O10 0.751524 0.229455 0.449950
O O11 0.500000 0.632951 0.531938
O O12 0.687766 0.728521 0.652545
O O13 0.775181 0.892825 0.351299
O O14 0.733279 0.898780 0.562302
O O15 0.000000 0.902630 0.483707
O O16 0.820493 0.049807 0.458561
O O17 0.000000 0.873131 0.217250
O O18 0.244240 0.125132 0.270941
O O19 0.000000 0.172906 0.365256
O O20 0.500000 0.870729 0.676433
#
# Coordination Sequence:
#
# PCOD8167283 Si02
#       8
#     4   4   4   4   4   4   4   4
#     4   9  20  38  59  83 116 160 203 241 293 362
#     4  10  19  33  56  85 114 146 191 250 297 340
#     4  10  21  38  60  87 119 155 200 251 298 344
#     4  10  21  38  60  85 117 158 197 239 297 361
#     4  10  22  41  63  86 115 157 200 238 293 363
#     4   9  18  35  59  84 112 148 192 243 295 352
#     4  11  25  42  62  86 122 167 202 239 297 368
#     4  11  24  41  63  92 123 153 197 253 302 350
#
# _framework density 20.163847000000001
#
# number of rings (size 3 to 8) (size 9 to 14) (size 15 to 20)
#    0.000    2.000    1.250    1.500    1.750    4.500 
#    0.000    5.000    0.000    0.000    0.000    0.000 
#    0.000    0.000    0.000    0.000    0.000    0.000 
#
# Total GULP energy -396815.630013 kJ/mol
# GULP energy per Si atom -12400.488438 kJ/mol
# Density = 2.011795 g / cm^3
# Si number density = 20.163847 Si / 1000 Ang^3
#
#
#
# Elastic Constant Matrix: (Units=GPa)
#
#
# Indices 1 2 3 4 5 6 
#
# 1 117.4475 33.5788 56.6106 0.0000 0.0000 0.0000
# 2 33.5788 62.5937 22.6160 0.0000 0.0000 0.0000
# 3 56.6106 22.6160 90.7098 0.0000 0.0000 0.0000
# 4 0.0000 0.0000 0.0000 23.4340 0.0000 0.0000
# 5 0.0000 0.0000 0.0000 0.0000 31.7479 0.0000
# 6 0.0000 0.0000 0.0000 0.0000 0.0000 19.1073
#
#
#
# Elastic Compliance Matrix: (Units=1/GPa)
#
#
# Indices 1 2 3 4 5 6 
#
# 1 0.013251 -0.004529 -0.007141 0.000000 0.000000 0.000000
# 2 -0.004529 0.019105 -0.001937 0.000000 0.000000 0.000000
# 3 -0.007141 -0.001937 0.015964 0.000000 0.000000 0.000000
# 4 0.000000 0.000000 0.000000 0.042673 0.000000 0.000000
# 5 0.000000 0.000000 0.000000 0.000000 0.031498 0.000000
# 6 0.000000 0.000000 0.000000 0.000000 0.000000 0.052336
#
#
# Mechanical properties :
#
#
# Convention : Reuss Voigt Hill
#
# Bulk Modulus (GPa) = 47.37752 55.15131 51.26442
# Shear Modulus (GPa) = 23.91477 25.38754 24.65115
#
# Velocity S-wave (km/s) = 3.44760 3.55218 3.50028
# Velocity P-wave (km/s) = 6.27656 6.65093 6.46646
#
# Compressibility (1/GPa) = 0.02110706
#
# Stress axis : x y z
#
# Youngs Moduli (GPa) = 75.46553 52.34129 62.64264
#
# Poissons Ratio (x) = 0.23703 0.44731
# Poissons Ratio (y) = 0.34175 0.12135
# Poissons Ratio (z) = 0.53888 0.10139
#
# Static dielectric constant tensor:
#      x y z
#    x 3.886440 0.000000 0.000000 
#    y 0.000000 3.597090 0.000000 
#    z 0.000000 0.000000 3.564040 
# 
# 
# High freq. dielectric constant tensor:
#      x y z
#    x 1.791530 0.000000 0.000000 
#    y 0.000000 1.778760 0.000000 
#    z 0.000000 0.000000 1.785770 
# 
# From -- ./inp_files/3083.got.cif
#   From: 2010.03.12/outbox.cif.g09.slc.cpg/sg26_2_cif.got.tgz:3083.got - 2010.04.14 03:33:09.
