data_PCOD8167335
_publ_section_title
;
Structure prediction by ZEFSAII (Michael W. Deem and Ramdas Pophale) SiO2 
 PCOD8167335
Probable space group: P M C 21
;
_chemical_formula_sum "Si O2"
_cell_formula_units_Z 32
_cell_length_a 9.692251
_cell_length_b 15.972560
_cell_length_c 10.890072
_cell_angle_alpha 90.000000
_cell_angle_beta 90.000000
_cell_angle_gamma 90.000000
_cell_volume 1685.892707
_symmetry_space_group_name_H-M "P M C 21"
_symmetry_group_IT_number 26
_symmetry_cell_setting 'orthorhombic'
loop_
_space_group_symop_operation_xyz
x,y,z
-x,-y,1/2+z
-x,y,z
x,-y,1/2+z
loop_
_atom_site_type_symbol
_atom_site_label
_atom_site_fract_x
_atom_site_fract_y
_atom_site_fract_z
Si Si1 0.336382 0.053401 0.347390
Si Si2 0.342835 0.630835 0.370509
Si Si3 0.843080 0.345899 0.101746
Si Si4 0.151383 0.206951 0.286742
Si Si5 0.848540 0.346702 0.492358
Si Si6 0.344847 0.250538 0.660312
Si Si7 0.157799 0.516425 0.804908
Si Si8 0.663169 0.064551 0.626147
O O1 0.500000 0.063137 0.338649
O O2 0.271459 0.142143 0.314781
O O3 0.295153 0.028897 0.489599
O O4 0.280161 0.989366 0.242369
O O5 0.500000 0.600822 0.391470
O O6 0.268251 0.645344 0.497345
O O7 0.342090 0.720606 0.301578
O O8 0.261803 0.560854 0.292011
O O9 0.821899 0.253254 0.157876
O O10 0.810367 0.418701 0.197630
O O11 0.000000 0.354959 0.052224
O O12 0.152013 0.278503 0.386869
O O13 0.000000 0.162753 0.285469
O O14 0.735061 0.323506 0.590754
O O15 0.816343 0.437855 0.435751
O O16 0.000000 0.348840 0.554969
O O17 0.500000 0.248093 0.607890
O O18 0.276814 0.158673 0.642736
O O19 0.000000 0.484585 0.797401
O O20 0.500000 0.067166 0.638542
#
# Coordination Sequence:
#
# PCOD8167335 Si02
#       8
#     4   4   4   4   4   4   4   4
#     4  10  19  34  58  84 110 149 193 235 284 346
#     4  11  24  36  52  82 117 146 182 238 291 333
#     4   9  20  39  58  77 108 148 189 229 276 344
#     4   9  18  35  58  83 108 136 180 234 279 325
#     4   9  18  34  58  82 103 136 183 228 270 328
#     4  10  21  37  54  79 115 149 183 231 282 333
#     4   9  20  38  58  79 105 144 190 232 275 334
#     4   9  19  35  56  82 112 148 194 235 281 347
#
# _framework density 18.981041000000001
#
# number of rings (size 3 to 8) (size 9 to 14) (size 15 to 20)
#    0.000    2.500    1.250    1.875    1.750    3.500 
#    0.000    6.250    0.000    0.000    0.000    0.000 
#    0.000    0.000    0.000    0.000    0.000    0.000 
#
# Total GULP energy -396580.088667 kJ/mol
# GULP energy per Si atom -12393.127771 kJ/mol
# Density = 1.893784 g / cm^3
# Si number density = 18.981041 Si / 1000 Ang^3
#
#
#
# Elastic Constant Matrix: (Units=GPa)
#
#
# Indices 1 2 3 4 5 6 
#
# 1 73.2617 28.2613 43.7741 0.0000 0.0000 0.0000
# 2 28.2613 72.0438 41.3876 0.0000 0.0000 0.0000
# 3 43.7741 41.3876 105.9258 0.0000 0.0000 0.0000
# 4 0.0000 0.0000 0.0000 23.9490 0.0000 0.0000
# 5 0.0000 0.0000 0.0000 0.0000 21.7388 0.0000
# 6 0.0000 0.0000 0.0000 0.0000 0.0000 24.1547
#
#
#
# Elastic Compliance Matrix: (Units=1/GPa)
#
#
# Indices 1 2 3 4 5 6 
#
# 1 0.018888 -0.003772 -0.006332 0.000000 0.000000 0.000000
# 2 -0.003772 0.018651 -0.005729 0.000000 0.000000 0.000000
# 3 -0.006332 -0.005729 0.014295 0.000000 0.000000 0.000000
# 4 0.000000 0.000000 0.000000 0.041755 0.000000 0.000000
# 5 0.000000 0.000000 0.000000 0.000000 0.046001 0.000000
# 6 0.000000 0.000000 0.000000 0.000000 0.000000 0.041400
#
#
# Mechanical properties :
#
#
# Convention : Reuss Voigt Hill
#
# Bulk Modulus (GPa) = 49.57869 53.11969 51.34919
# Shear Modulus (GPa) = 22.79169 23.15574 22.97371
#
# Velocity S-wave (km/s) = 3.46896 3.49655 3.48278
# Velocity P-wave (km/s) = 6.49782 6.65940 6.57911
#
# Compressibility (1/GPa) = 0.02016996
#
# Stress axis : x y z
#
# Youngs Moduli (GPa) = 52.94377 53.61625 69.95218
#
# Poissons Ratio (x) = 0.20224 0.44292
# Poissons Ratio (y) = 0.19970 0.40073
# Poissons Ratio (z) = 0.33523 0.30715
#
# Static dielectric constant tensor:
#      x y z
#    x 3.680710 0.000000 0.000000 
#    y 0.000000 3.577920 0.000000 
#    z 0.000000 0.000000 3.633140 
# 
# 
# High freq. dielectric constant tensor:
#      x y z
#    x 1.722020 0.000000 0.000000 
#    y 0.000000 1.730640 0.000000 
#    z 0.000000 0.000000 1.740940 
# 
# From -- ./inp_files/3025.got.cif
#   From: 2010.03.12/outbox.cif.g09.slc.cpg/sg26_2_cif.got.tgz:3025.got - 2010.04.14 03:33:09.
