data_PCOD8167143
_publ_section_title
;
Structure prediction by ZEFSAII (Michael W. Deem and Ramdas Pophale) SiO2 
 PCOD8167143
Probable space group: P M C 21
;
_chemical_formula_sum "Si O2"
_cell_formula_units_Z 32
_cell_length_a 8.627876
_cell_length_b 12.367323
_cell_length_c 14.618123
_cell_angle_alpha 90.000000
_cell_angle_beta 90.000000
_cell_angle_gamma 90.000000
_cell_volume 1559.808239
_symmetry_space_group_name_H-M "P M C 21"
_symmetry_group_IT_number 26
_symmetry_cell_setting 'orthorhombic'
loop_
_space_group_symop_operation_xyz
x,y,z
-x,-y,1/2+z
-x,y,z
x,-y,1/2+z
loop_
_atom_site_type_symbol
_atom_site_label
_atom_site_fract_x
_atom_site_fract_y
_atom_site_fract_z
Si Si1 0.819121 0.133924 0.990530
Si Si2 0.824207 0.198060 0.789576
Si Si3 0.684901 0.597304 0.796534
Si Si4 0.677994 0.777915 0.657135
Si Si5 0.318235 0.918380 0.953155
Si Si6 0.318951 0.608991 0.188378
Si Si7 0.316639 0.324301 0.492537
Si Si8 0.175225 0.042356 0.260301
O O1 0.768080 0.182536 0.893505
O O2 0.000000 0.107101 0.992363
O O3 0.726728 0.022343 0.015318
O O4 0.774290 0.227204 0.063015
O O5 0.709654 0.279871 0.740535
O O6 0.000000 0.242388 0.785915
O O7 0.810500 0.084183 0.737797
O O8 0.500000 0.595955 0.801043
O O9 0.743480 0.693318 0.730879
O O10 0.752534 0.487943 0.750093
O O11 0.750076 0.618550 0.899738
O O12 0.500000 0.754789 0.634850
O O13 0.701520 0.897424 0.697155
O O14 0.500000 0.920124 0.928146
O O15 0.272711 0.803145 0.998018
O O16 0.212691 0.932597 0.864654
O O17 0.500000 0.588500 0.179584
O O18 0.249805 0.616764 0.084341
O O19 0.500000 0.335765 0.491246
O O20 0.000000 0.081940 0.239460
#
# Coordination Sequence:
#
# PCOD8167143 Si02
#       8
#     4   4   4   4   4   4   4   4
#     4  10  22  38  55  82 122 161 193 238 299 359
#     4   9  21  40  56  77 117 156 187 234 294 349
#     4   9  19  37  58  84 119 153 191 245 297 341
#     4  11  21  35  58  87 115 154 201 243 290 348
#     4  10  18  33  56  82 115 154 196 243 290 347
#     4  10  21  36  61  88 111 150 199 243 293 348
#     4   9  18  34  55  84 116 146 186 242 293 336
#     4  10  20  35  55  82 117 156 191 238 300 352
#
# _framework density 20.515342
#
# number of rings (size 3 to 8) (size 9 to 14) (size 15 to 20)
#    0.000    2.250    1.250    2.250    1.750    4.000 
#    0.000    4.375    0.000    0.000    0.000    0.000 
#    0.000    0.000    0.000    0.000    0.000    0.000 
#
# Total GULP energy -396630.473177 kJ/mol
# GULP energy per Si atom -12394.702287 kJ/mol
# Density = 2.046865 g / cm^3
# Si number density = 20.515342 Si / 1000 Ang^3
#
#
#
# Elastic Constant Matrix: (Units=GPa)
#
#
# Indices 1 2 3 4 5 6 
#
# 1 27.0414 22.8021 11.1980 0.0000 0.0000 0.0000
# 2 22.8021 111.0188 75.1699 0.0000 0.0000 0.0000
# 3 11.1980 75.1699 134.3283 0.0000 0.0000 0.0000
# 4 0.0000 0.0000 0.0000 30.2671 0.0000 0.0000
# 5 0.0000 0.0000 0.0000 0.0000 23.1263 0.0000
# 6 0.0000 0.0000 0.0000 0.0000 0.0000 10.6900
#
#
#
# Elastic Compliance Matrix: (Units=1/GPa)
#
#
# Indices 1 2 3 4 5 6 
#
# 1 0.045162 -0.010830 0.002296 0.000000 0.000000 0.000000
# 2 -0.010830 0.017100 -0.008666 0.000000 0.000000 0.000000
# 3 0.002296 -0.008666 0.012103 0.000000 0.000000 0.000000
# 4 0.000000 0.000000 0.000000 0.033039 0.000000 0.000000
# 5 0.000000 0.000000 0.000000 0.000000 0.043241 0.000000
# 6 0.000000 0.000000 0.000000 0.000000 0.000000 0.093545
#
#
# Mechanical properties :
#
#
# Convention : Reuss Voigt Hill
#
# Bulk Modulus (GPa) = 25.02312 54.52538 39.77425
# Shear Modulus (GPa) = 17.12847 23.69791 20.41319
#
# Velocity S-wave (km/s) = 2.89262 3.40241 3.15782
# Velocity P-wave (km/s) = 4.83529 6.48620 5.72061
#
# Compressibility (1/GPa) = 0.03996304
#
# Stress axis : x y z
#
# Youngs Moduli (GPa) = 22.14255 58.48086 82.62697
#
# Poissons Ratio (x) = 0.63336 -0.18969
# Poissons Ratio (y) = 0.23981 0.71605
# Poissons Ratio (z) = -0.05083 0.50680
#
# Static dielectric constant tensor:
#      x y z
#    x 3.340750 0.000000 0.000000 
#    y 0.000000 3.816420 0.000000 
#    z 0.000000 0.000000 4.093110 
# 
# 
# High freq. dielectric constant tensor:
#      x y z
#    x 1.768840 0.000000 0.000000 
#    y 0.000000 1.793680 0.000000 
#    z 0.000000 0.000000 1.811720 
# 
# From -- ./inp_files/4235.got.cif
#   From: 2010.03.12/outbox.cif.g09.slc.cpg/sg26_3_cif.got.tgz:4235.got - 2010.04.14 03:33:09.
