data_PCOD8167773
_publ_section_title
;
Structure prediction by ZEFSAII (Michael W. Deem and Ramdas Pophale) SiO2 
 PCOD8167773
Probable space group: P M C 21
;
_chemical_formula_sum "Si O2"
_cell_formula_units_Z 20
_cell_length_a 10.858486
_cell_length_b 9.775633
_cell_length_c 8.555363
_cell_angle_alpha 90.000000
_cell_angle_beta 90.000000
_cell_angle_gamma 90.000000
_cell_volume 908.139583
_symmetry_space_group_name_H-M "P M C 21"
_symmetry_group_IT_number 26
_symmetry_cell_setting 'orthorhombic'
loop_
_space_group_symop_operation_xyz
x,y,z
-x,-y,1/2+z
-x,y,z
x,-y,1/2+z
loop_
_atom_site_type_symbol
_atom_site_label
_atom_site_fract_x
_atom_site_fract_y
_atom_site_fract_z
Si Si1 0.500000 0.911281 0.248821
Si Si2 0.140047 0.084474 0.310726
Si Si3 0.760984 0.322358 0.120750
Si Si4 0.239735 0.164979 0.634568
Si Si5 0.854806 0.576373 0.288972
Si Si6 0.500000 0.193643 0.094172
O O1 0.616471 0.837587 0.172067
O O2 0.500000 0.887818 0.432785
O O3 0.500000 0.075577 0.226063
O O4 0.167840 0.184008 0.165921
O O5 0.226904 0.119493 0.455864
O O6 0.000000 0.097351 0.366475
O O7 0.166097 0.931742 0.253817
O O8 0.784875 0.435074 0.253706
O O9 0.616351 0.292889 0.109713
O O10 0.814394 0.371854 0.957323
O O11 0.184492 0.315867 0.655934
O O12 0.000000 0.550078 0.283138
#
# Coordination Sequence:
#
# PCOD8167773 Si02
#       6
#     2   4   4   4   4   2
#     4  12  24  49  73 108 148 184 242 302 356 431
#     4  12  24  43  68 107 144 189 249 300 362 434
#     4  12  27  46  74 104 145 196 241 298 368 429
#     4  12  25  43  74 103 143 195 238 306 366 427
#     4  12  25  47  71 104 147 191 242 303 366 434
#     4  12  26  49  77 108 150 188 248 302 362 437
#
# _framework density 22.023046999999998
#
# number of rings (size 3 to 8) (size 9 to 14) (size 15 to 20)
#    0.000    0.000    4.000    7.200    0.000    1.600 
#    0.000    0.000    0.000    0.000    0.000    0.000 
#    0.000    0.000    0.000    0.000    0.000    0.000 
#
# Total GULP energy -248204.848933 kJ/mol
# GULP energy per Si atom -12410.242447 kJ/mol
# Density = 2.197292 g / cm^3
# Si number density = 22.023047 Si / 1000 Ang^3
#
#
#
# Elastic Constant Matrix: (Units=GPa)
#
#
# Indices 1 2 3 4 5 6 
#
# 1 175.4023 62.9963 47.6395 0.0000 0.0000 0.0000
# 2 62.9963 88.3384 17.6596 0.0000 0.0000 0.0000
# 3 47.6395 17.6596 101.0094 0.0000 0.0000 0.0000
# 4 0.0000 0.0000 0.0000 43.9365 0.0000 0.0000
# 5 0.0000 0.0000 0.0000 0.0000 34.7000 0.0000
# 6 0.0000 0.0000 0.0000 0.0000 0.0000 -30.5979
#
#
#
# Elastic Compliance Matrix: (Units=1/GPa)
#
#
# Indices 1 2 3 4 5 6 
#
# 1 0.008483 -0.005440 -0.003050 0.000000 0.000000 0.000000
# 2 -0.005440 0.015218 -0.000095 0.000000 0.000000 0.000000
# 3 -0.003050 -0.000095 0.011355 0.000000 0.000000 0.000000
# 4 0.000000 0.000000 0.000000 0.022760 0.000000 0.000000
# 5 0.000000 0.000000 0.000000 0.000000 0.028818 0.000000
# 6 0.000000 0.000000 0.000000 0.000000 0.000000 -0.032682
#
#
# Mechanical properties :
#
#
# Convention : Reuss Voigt Hill
#
# Bulk Modulus (GPa) = 55.90612 69.03786 62.47199
# Shear Modulus (GPa) = 64.86283 25.37136 45.11710
#
# Velocity S-wave (km/s) = 5.43288 3.39785 4.53109
# Velocity P-wave (km/s) = 8.04955 6.84178 7.47011
#
# Compressibility (1/GPa) = 0.01788713
#
# Stress axis : x y z
#
# Youngs Moduli (GPa) = 117.87818 65.70961 88.06584
#
# Poissons Ratio (x) = 0.35746 0.26860
# Poissons Ratio (y) = 0.64125 0.00837
# Poissons Ratio (z) = 0.35952 0.00624
#
# Static dielectric constant tensor:
#      x y z
#    x 4.131700 0.000000 0.000000 
#    y 0.000000 4.206290 0.000000 
#    z 0.000000 0.000000 4.076140 
# 
# 
# High freq. dielectric constant tensor:
#      x y z
#    x 1.879860 0.000000 0.000000 
#    y 0.000000 1.873150 0.000000 
#    z 0.000000 0.000000 1.879480 
# 
# From -- ./inp_files/1769.got.cif
#   From: 2010.03.12/outbox.cif.g09.slc.cpg/sg26_1_cif.got.tgz:1769.got - 2010.04.14 03:33:09.
