data_PCOD8167112
_publ_section_title
;
Structure prediction by ZEFSAII (Michael W. Deem and Ramdas Pophale) SiO2 
 PCOD8167112
Probable space group: P M C 21
;
_chemical_formula_sum "Si O2"
_cell_formula_units_Z 32
_cell_length_a 9.053973
_cell_length_b 11.454309
_cell_length_c 16.271164
_cell_angle_alpha 90.000000
_cell_angle_beta 90.000000
_cell_angle_gamma 90.000000
_cell_volume 1687.433677
_symmetry_space_group_name_H-M "P M C 21"
_symmetry_group_IT_number 26
_symmetry_cell_setting 'orthorhombic'
loop_
_space_group_symop_operation_xyz
x,y,z
-x,-y,1/2+z
-x,y,z
x,-y,1/2+z
loop_
_atom_site_type_symbol
_atom_site_label
_atom_site_fract_x
_atom_site_fract_y
_atom_site_fract_z
Si Si1 0.326029 0.424860 0.901160
Si Si2 0.836217 0.925956 0.448124
Si Si3 0.672914 0.682705 0.878927
Si Si4 0.669699 0.741559 0.545006
Si Si5 0.329429 0.876447 0.002344
Si Si6 0.836069 0.242838 0.797143
Si Si7 0.328510 0.818178 0.720460
Si Si8 0.824556 0.942032 0.168998
O O1 0.500000 0.430954 0.893361
O O2 0.256714 0.554165 0.891018
O O3 0.268736 0.348043 0.824885
O O4 0.280989 0.371561 0.990799
O O5 0.772905 0.849985 0.523080
O O6 0.844018 0.853377 0.366634
O O7 0.000000 0.969570 0.473174
O O8 0.723275 0.032956 0.431811
O O9 0.500000 0.671604 0.862094
O O10 0.739817 0.751483 0.800041
O O11 0.701986 0.748958 0.965106
O O12 0.500000 0.771879 0.522757
O O13 0.689038 0.727514 0.643298
O O14 0.500000 0.893083 0.025958
O O15 0.226222 0.911146 0.077804
O O16 0.772440 0.173452 0.718962
O O17 0.000000 0.293534 0.780149
O O18 0.500000 0.849158 0.734199
O O19 0.246211 0.940131 0.704874
O O20 0.000000 0.956694 0.174288
#
# Coordination Sequence:
#
# PCOD8167112 Si02
#       8
#     4   4   4   4   4   4   4   4
#     4   9  18  36  57  79 107 141 184 223 264 317
#     4  10  18  31  53  78 106 138 173 214 269 325
#     4   9  20  37  55  80 113 146 183 227 269 321
#     4   9  17  30  53  80 106 138 178 223 264 313
#     4  11  21  34  52  77 112 145 177 220 270 321
#     4   9  20  36  54  78 107 139 175 220 269 321
#     4  10  19  34  56  82 110 141 181 226 275 325
#     4  11  22  36  54  80 113 142 177 223 272 329
#
# _framework density 18.963706999999999
#
# number of rings (size 3 to 8) (size 9 to 14) (size 15 to 20)
#    0.000    2.250    1.250    1.875    0.000    1.500 
#    2.250    2.500    0.000    0.000    0.000    0.000 
#    0.000    0.000    0.000    0.000    0.000    0.000 
#
# Total GULP energy -396561.466848 kJ/mol
# GULP energy per Si atom -12392.545839 kJ/mol
# Density = 1.892055 g / cm^3
# Si number density = 18.963707 Si / 1000 Ang^3
#
#
#
# Elastic Constant Matrix: (Units=GPa)
#
#
# Indices 1 2 3 4 5 6 
#
# 1 51.3527 39.6474 26.5122 0.0000 0.0000 0.0000
# 2 39.6474 140.1990 52.7932 0.0000 0.0000 0.0000
# 3 26.5122 52.7932 76.1515 0.0000 0.0000 0.0000
# 4 0.0000 0.0000 0.0000 22.1691 0.0000 0.0000
# 5 0.0000 0.0000 0.0000 0.0000 18.5847 0.0000
# 6 0.0000 0.0000 0.0000 0.0000 0.0000 12.7315
#
#
#
# Elastic Compliance Matrix: (Units=1/GPa)
#
#
# Indices 1 2 3 4 5 6 
#
# 1 0.026485 -0.005437 -0.005452 0.000000 0.000000 0.000000
# 2 -0.005437 0.010769 -0.005573 0.000000 0.000000 0.000000
# 3 -0.005452 -0.005573 0.018893 0.000000 0.000000 0.000000
# 4 0.000000 0.000000 0.000000 0.045108 0.000000 0.000000
# 5 0.000000 0.000000 0.000000 0.000000 0.053808 0.000000
# 6 0.000000 0.000000 0.000000 0.000000 0.000000 0.078545
#
#
# Mechanical properties :
#
#
# Convention : Reuss Voigt Hill
#
# Bulk Modulus (GPa) = 43.05788 56.17874 49.61831
# Shear Modulus (GPa) = 18.23007 20.61377 19.42192
#
# Velocity S-wave (km/s) = 3.10387 3.30056 3.20373
# Velocity P-wave (km/s) = 5.96658 6.64933 6.31718
#
# Compressibility (1/GPa) = 0.02322455
#
# Stress axis : x y z
#
# Youngs Moduli (GPa) = 37.75657 92.86153 52.92958
#
# Poissons Ratio (x) = 0.50489 0.28855
# Poissons Ratio (y) = 0.20529 0.29496
# Poissons Ratio (z) = 0.20583 0.51749
#
# Static dielectric constant tensor:
#      x y z
#    x 3.482700 0.000000 0.000000 
#    y 0.000000 3.658780 0.000000 
#    z 0.000000 0.000000 3.679140 
# 
# 
# High freq. dielectric constant tensor:
#      x y z
#    x 1.722830 0.000000 0.000000 
#    y 0.000000 1.726760 0.000000 
#    z 0.000000 0.000000 1.739730 
# 
# From -- ./inp_files/5035.got.cif
#   From: 2010.03.12/outbox.cif.g09.slc.cpg/sg26_3_cif.got.tgz:5035.got - 2010.04.14 03:33:09.
