data_PCOD8167314
_publ_section_title
;
Structure prediction by ZEFSAII (Michael W. Deem and Ramdas Pophale) SiO2 
 PCOD8167314
Probable space group: P M C 21
;
_chemical_formula_sum "Si O2"
_cell_formula_units_Z 32
_cell_length_a 9.265356
_cell_length_b 16.132105
_cell_length_c 11.108449
_cell_angle_alpha 90.000000
_cell_angle_beta 90.000000
_cell_angle_gamma 90.000000
_cell_volume 1660.376493
_symmetry_space_group_name_H-M "P M C 21"
_symmetry_group_IT_number 26
_symmetry_cell_setting 'orthorhombic'
loop_
_space_group_symop_operation_xyz
x,y,z
-x,-y,1/2+z
-x,y,z
x,-y,1/2+z
loop_
_atom_site_type_symbol
_atom_site_label
_atom_site_fract_x
_atom_site_fract_y
_atom_site_fract_z
Si Si1 0.840314 0.149411 0.063210
Si Si2 0.329672 0.827968 0.915269
Si Si3 0.333569 0.856747 0.176022
Si Si4 0.669604 0.445171 0.910337
Si Si5 0.328995 0.446720 0.182445
Si Si6 0.839378 0.288810 0.259641
Si Si7 0.332722 0.259695 0.884336
Si Si8 0.668835 0.963917 0.722055
O O1 0.854119 0.211905 0.172600
O O2 0.753360 0.068377 0.104574
O O3 0.000000 0.123850 0.017997
O O4 0.753997 0.193234 0.958736
O O5 0.500000 0.809306 0.913599
O O6 0.251612 0.743435 0.873244
O O7 0.290741 0.909213 0.837726
O O8 0.261614 0.845718 0.045929
O O9 0.500000 0.872055 0.150356
O O10 0.310224 0.771658 0.248321
O O11 0.279782 0.940735 0.243613
O O12 0.500000 0.441048 0.892805
O O13 0.729399 0.497504 0.795158
O O14 0.732122 0.351942 0.898366
O O15 0.706826 0.481284 0.045472
O O16 0.500000 0.432458 0.192874
O O17 0.248589 0.359910 0.191641
O O18 0.000000 0.319954 0.297414
O O19 0.500000 0.257481 0.924090
O O20 0.500000 0.956049 0.693449
#
# Coordination Sequence:
#
# PCOD8167314 Si02
#       8
#     4   4   4   4   4   4   4   4
#     4  10  20  34  53  77 105 139 180 224 265 317
#     4   9  18  33  52  78 109 141 177 223 278 330
#     4   9  19  32  53  83 110 138 180 230 276 326
#     4   9  19  33  55  84 113 141 181 227 278 334
#     4  10  19  35  57  84 111 143 182 229 281 336
#     4  10  20  35  55  78 104 139 183 225 266 319
#     4  10  19  34  56  82 110 144 181 224 275 332
#     4   9  18  32  53  78 104 139 180 224 271 322
#
# _framework density 19.272736999999999
#
# number of rings (size 3 to 8) (size 9 to 14) (size 15 to 20)
#    0.000    2.500    1.250    0.750    1.750    2.000 
#    0.000    6.875    0.000    0.000    0.000    0.000 
#    0.000    0.000    0.000    0.000    0.000    0.000 
#
# Total GULP energy -396497.956224 kJ/mol
# GULP energy per Si atom -12390.561132 kJ/mol
# Density = 1.922887 g / cm^3
# Si number density = 19.272737 Si / 1000 Ang^3
#
#
#
# Elastic Constant Matrix: (Units=GPa)
#
#
# Indices 1 2 3 4 5 6 
#
# 1 51.8764 17.8306 26.2963 0.0000 0.0000 0.0000
# 2 17.8306 63.2984 33.3202 0.0000 0.0000 0.0000
# 3 26.2963 33.3202 117.2157 0.0000 0.0000 0.0000
# 4 0.0000 0.0000 0.0000 27.5887 0.0000 0.0000
# 5 0.0000 0.0000 0.0000 0.0000 5.5008 0.0000
# 6 0.0000 0.0000 0.0000 0.0000 0.0000 4.7596
#
#
#
# Elastic Compliance Matrix: (Units=1/GPa)
#
#
# Indices 1 2 3 4 5 6 
#
# 1 0.022735 -0.004374 -0.003857 0.000000 0.000000 0.000000
# 2 -0.004374 0.019420 -0.004539 0.000000 0.000000 0.000000
# 3 -0.003857 -0.004539 0.010687 0.000000 0.000000 0.000000
# 4 0.000000 0.000000 0.000000 0.036247 0.000000 0.000000
# 5 0.000000 0.000000 0.000000 0.000000 0.181791 0.000000
# 6 0.000000 0.000000 0.000000 0.000000 0.000000 0.210103
#
#
# Mechanical properties :
#
#
# Convention : Reuss Voigt Hill
#
# Bulk Modulus (GPa) = 36.62801 43.03164 39.82982
# Shear Modulus (GPa) = 9.69701 17.89938 13.79819
#
# Velocity S-wave (km/s) = 2.24553 3.05083 2.67861
# Velocity P-wave (km/s) = 5.07637 5.89799 5.50254
#
# Compressibility (1/GPa) = 0.02730151
#
# Stress axis : x y z
#
# Youngs Moduli (GPa) = 43.98481 51.49430 93.57283
#
# Poissons Ratio (x) = 0.22523 0.36092
# Poissons Ratio (y) = 0.19239 0.42473
# Poissons Ratio (z) = 0.16965 0.23373
#
# Static dielectric constant tensor:
#      x y z
#    x 3.424090 0.000000 0.000000 
#    y 0.000000 3.579460 0.000000 
#    z 0.000000 0.000000 3.800050 
# 
# 
# High freq. dielectric constant tensor:
#      x y z
#    x 1.715060 0.000000 0.000000 
#    y 0.000000 1.742910 0.000000 
#    z 0.000000 0.000000 1.752770 
# 
# From -- ./inp_files/3022.got.cif
#   From: 2010.03.12/outbox.cif.g09.slc.cpg/sg26_2_cif.got.tgz:3022.got - 2010.04.14 03:33:09.
