data_PCOD8167138
_publ_section_title
;
Structure prediction by ZEFSAII (Michael W. Deem and Ramdas Pophale) SiO2 
 PCOD8167138
Probable space group: P M C 21
;
_chemical_formula_sum "Si O2"
_cell_formula_units_Z 32
_cell_length_a 9.378943
_cell_length_b 18.785910
_cell_length_c 9.927153
_cell_angle_alpha 90.000000
_cell_angle_beta 90.000000
_cell_angle_gamma 90.000000
_cell_volume 1749.084734
_symmetry_space_group_name_H-M "P M C 21"
_symmetry_group_IT_number 26
_symmetry_cell_setting 'orthorhombic'
loop_
_space_group_symop_operation_xyz
x,y,z
-x,-y,1/2+z
-x,y,z
x,-y,1/2+z
loop_
_atom_site_type_symbol
_atom_site_label
_atom_site_fract_x
_atom_site_fract_y
_atom_site_fract_z
Si Si1 0.834468 0.698034 0.820780
Si Si2 0.168307 0.727967 0.283749
Si Si3 0.833761 0.216451 0.065273
Si Si4 0.665028 0.076721 0.134954
Si Si5 0.169912 0.450992 0.421521
Si Si6 0.168358 0.814899 0.024289
Si Si7 0.665211 0.951216 0.938992
Si Si8 0.830018 0.428777 0.722651
O O1 0.808491 0.717111 0.665329
O O2 0.767002 0.621312 0.854861
O O3 0.000000 0.693882 0.858404
O O4 0.769074 0.760166 0.913788
O O5 0.231057 0.758755 0.422899
O O6 0.209959 0.783939 0.169418
O O7 0.232497 0.649985 0.251288
O O8 0.000000 0.719638 0.297156
O O9 0.755574 0.147717 0.121562
O O10 0.000000 0.196986 0.055415
O O11 0.500000 0.097696 0.124819
O O12 0.698667 0.040905 0.280051
O O13 0.709061 0.023721 0.014723
O O14 0.230032 0.517814 0.336716
O O15 0.222087 0.455801 0.576006
O O16 0.000000 0.451237 0.413133
O O17 0.243743 0.889737 0.007250
O O18 0.000000 0.826497 0.008080
O O19 0.500000 0.933892 0.964582
O O20 0.000000 0.426607 0.724385
#
# Coordination Sequence:
#
# PCOD8167138 Si02
#       8
#     4   4   4   4   4   4   4   4
#     4   9  16  28  45  65  94 130 165 202 245 289
#     4   9  18  30  45  69 102 133 166 209 250 289
#     4  10  20  33  51  75 101 131 168 207 248 294
#     4  10  22  39  55  74 101 130 161 202 249 296
#     4   9  16  24  37  59  92 134 170 199 241 295
#     4  10  18  33  53  72  98 133 165 202 249 293
#     4  10  22  38  55  75 100 129 162 202 248 298
#     4   9  16  25  37  59  94 134 169 199 240 294
#
# _framework density 18.295282
#
# number of rings (size 3 to 8) (size 9 to 14) (size 15 to 20)
#    0.000    2.500    2.500    0.000    3.500    0.500 
#    0.000    0.000    0.000    0.000    0.000    0.000 
#    0.000    6.000    0.000    0.000    0.000    0.000 
#
# Total GULP energy -396743.045937 kJ/mol
# GULP energy per Si atom -12398.220186 kJ/mol
# Density = 1.825364 g / cm^3
# Si number density = 18.295282 Si / 1000 Ang^3
#
#
#
# Elastic Constant Matrix: (Units=GPa)
#
#
# Indices 1 2 3 4 5 6 
#
# 1 19.8090 23.6189 20.5602 0.0000 0.0000 0.0000
# 2 23.6189 94.6780 47.1375 0.0000 0.0000 0.0000
# 3 20.5602 47.1375 137.9216 0.0000 0.0000 0.0000
# 4 0.0000 0.0000 0.0000 37.4785 0.0000 0.0000
# 5 0.0000 0.0000 0.0000 0.0000 13.6523 0.0000
# 6 0.0000 0.0000 0.0000 0.0000 0.0000 -4.6577
#
#
#
# Elastic Compliance Matrix: (Units=1/GPa)
#
#
# Indices 1 2 3 4 5 6 
#
# 1 0.075528 -0.015950 -0.005808 0.000000 0.000000 0.000000
# 2 -0.015950 0.016096 -0.003123 0.000000 0.000000 0.000000
# 3 -0.005808 -0.003123 0.009184 0.000000 0.000000 0.000000
# 4 0.000000 0.000000 0.000000 0.026682 0.000000 0.000000
# 5 0.000000 0.000000 0.000000 0.000000 0.073248 0.000000
# 6 0.000000 0.000000 0.000000 0.000000 0.000000 -0.214697
#
#
# Mechanical properties :
#
#
# Convention : Reuss Voigt Hill
#
# Bulk Modulus (GPa) = 19.59045 48.33797 33.96421
# Shear Modulus (GPa) = 94.66210 20.03407 57.34808
#
# Velocity S-wave (km/s) = 7.20094 3.31273 5.60481
# Velocity P-wave (km/s) = 8.93696 6.41175 7.77753
#
# Compressibility (1/GPa) = 0.05104528
#
# Stress axis : x y z
#
# Youngs Moduli (GPa) = 13.24010 62.12638 108.88733
#
# Poissons Ratio (x) = 0.99092 0.63240
# Poissons Ratio (y) = 0.21118 0.34011
# Poissons Ratio (z) = 0.07690 0.19405
#
# Static dielectric constant tensor:
#      x y z
#    x 2.774570 0.000000 0.000000 
#    y 0.000000 3.460460 0.000000 
#    z 0.000000 0.000000 3.667600 
# 
# 
# High freq. dielectric constant tensor:
#      x y z
#    x 1.638820 0.000000 0.000000 
#    y 0.000000 1.716970 0.000000 
#    z 0.000000 0.000000 1.729400 
# 
# From -- ./inp_files/2019.got.cif
#   From: 2010.03.12/outbox.cif.g09.slc.cpg/sg26_2_cif.got.tgz:2019.got - 2010.04.14 03:33:09.
