data_PCOD8167414
_publ_section_title
;
Structure prediction by ZEFSAII (Michael W. Deem and Ramdas Pophale) SiO2 
 PCOD8167414
Probable space group: P M C 21
;
_chemical_formula_sum "Si O2"
_cell_formula_units_Z 12
_cell_length_a 7.801205
_cell_length_b 8.606855
_cell_length_c 9.799725
_cell_angle_alpha 90.000000
_cell_angle_beta 90.000000
_cell_angle_gamma 90.000000
_cell_volume 657.991170
_symmetry_space_group_name_H-M "P M C 21"
_symmetry_group_IT_number 26
_symmetry_cell_setting 'orthorhombic'
loop_
_space_group_symop_operation_xyz
x,y,z
-x,-y,1/2+z
-x,y,z
x,-y,1/2+z
loop_
_atom_site_type_symbol
_atom_site_label
_atom_site_fract_x
_atom_site_fract_y
_atom_site_fract_z
Si Si1 0.690657 0.039877 0.504420
Si Si2 0.190391 0.177102 0.233882
Si Si3 0.500000 0.403967 0.279188
Si Si4 0.500000 0.678357 0.079046
O O1 0.500000 0.970718 0.476130
O O2 0.784833 0.060545 0.360511
O O3 0.668563 0.210052 0.576689
O O4 0.798500 0.924120 0.596843
O O5 0.330909 0.312285 0.231876
O O6 0.000000 0.250987 0.239677
O O7 0.500000 0.427235 0.442070
O O8 0.500000 0.573303 0.212645
#
# Coordination Sequence:
#
# PCOD8167414 Si02
#       4
#     4   4   2   2
#     4   9  18  36  54  81 102 140 176 216 263 308
#     4  11  20  34  57  81 108 137 174 222 265 312
#     4  10  19  38  50  78 106 140 179 212 264 312
#     4   8  19  32  58  70 104 148 167 218 258 308
#
# _framework density 18.237325999999999
#
# number of rings (size 3 to 8) (size 9 to 14) (size 15 to 20)
#    1.000    1.333    3.333    1.000    0.000    2.667 
#    0.000    8.333    0.000    0.000    0.000    0.000 
#    0.000    0.000    0.000    0.000    0.000    0.000 
#
# Total GULP energy -148709.115669 kJ/mol
# GULP energy per Si atom -12392.426306 kJ/mol
# Density = 1.819582 g / cm^3
# Si number density = 18.237326 Si / 1000 Ang^3
#
#
#
# Elastic Constant Matrix: (Units=GPa)
#
#
# Indices 1 2 3 4 5 6 
#
# 1 127.4959 7.1447 3.8264 0.0000 0.0000 0.0000
# 2 7.1447 20.3453 -3.8523 0.0000 0.0000 0.0000
# 3 3.8264 -3.8523 13.7037 0.0000 0.0000 0.0000
# 4 0.0000 0.0000 0.0000 37.6356 0.0000 0.0000
# 5 0.0000 0.0000 0.0000 0.0000 18.4251 0.0000
# 6 0.0000 0.0000 0.0000 0.0000 0.0000 5.5627
#
#
#
# Elastic Compliance Matrix: (Units=1/GPa)
#
#
# Indices 1 2 3 4 5 6 
#
# 1 0.008135 -0.003472 -0.003248 0.000000 0.000000 0.000000
# 2 -0.003472 0.053396 0.015980 0.000000 0.000000 0.000000
# 3 -0.003248 0.015980 0.078372 0.000000 0.000000 0.000000
# 4 0.000000 0.000000 0.000000 0.026571 0.000000 0.000000
# 5 0.000000 0.000000 0.000000 0.000000 0.054274 0.000000
# 6 0.000000 0.000000 0.000000 0.000000 0.000000 0.179770
#
#
# Mechanical properties :
#
#
# Convention : Reuss Voigt Hill
#
# Bulk Modulus (GPa) = 6.31215 19.53140 12.92177
# Shear Modulus (GPa) = 11.49940 22.61975 17.05958
#
# Velocity S-wave (km/s) = 2.51378 3.52561 3.06178
# Velocity P-wave (km/s) = 3.44878 5.22552 4.42720
#
# Compressibility (1/GPa) = 0.15842459
#
# Stress axis : x y z
#
# Youngs Moduli (GPa) = 122.91941 18.72785 12.75964
#
# Poissons Ratio (x) = 0.06502 0.04144
# Poissons Ratio (y) = 0.42676 -0.20390
# Poissons Ratio (z) = 0.39919 -0.29927
#
# Static dielectric constant tensor:
#      x y z
#    x 3.293930 0.000000 0.000000 
#    y 0.000000 2.960970 0.000000 
#    z 0.000000 0.000000 3.278110 
# 
# 
# High freq. dielectric constant tensor:
#      x y z
#    x 1.697450 0.000000 0.000000 
#    y 0.000000 1.673830 0.000000 
#    z 0.000000 0.000000 1.710980 
# 
# From -- ./inp_files/1158.got.cif
#   From: 2010.03.12/outbox.cif.g09.slc.cpg/sg26_1_cif.got.tgz:1158.got - 2010.04.14 03:33:09.
