data_PCOD8167223
_publ_section_title
;
Structure prediction by ZEFSAII (Michael W. Deem and Ramdas Pophale) SiO2 
 PCOD8167223
Probable space group: P M C 21
;
_chemical_formula_sum "Si O2"
_cell_formula_units_Z 32
_cell_length_a 9.421226
_cell_length_b 18.750365
_cell_length_c 9.733325
_cell_angle_alpha 90.000000
_cell_angle_beta 90.000000
_cell_angle_gamma 90.000000
_cell_volume 1719.405743
_symmetry_space_group_name_H-M "P M C 21"
_symmetry_group_IT_number 26
_symmetry_cell_setting 'orthorhombic'
loop_
_space_group_symop_operation_xyz
x,y,z
-x,-y,1/2+z
-x,y,z
x,-y,1/2+z
loop_
_atom_site_type_symbol
_atom_site_label
_atom_site_fract_x
_atom_site_fract_y
_atom_site_fract_z
Si Si1 0.669046 0.066958 0.044060
Si Si2 0.337313 0.195561 0.231311
Si Si3 0.662856 0.191827 0.540383
Si Si4 0.168780 0.332645 0.599672
Si Si5 0.165407 0.446054 0.385118
Si Si6 0.834871 0.333127 0.162341
Si Si7 0.331518 0.937580 0.229962
Si Si8 0.831488 0.395816 0.881963
O O1 0.500000 0.063063 0.040922
O O2 0.719728 0.140136 0.116891
O O3 0.729296 0.003219 0.139702
O O4 0.728576 0.062403 0.887085
O O5 0.500000 0.214745 0.200191
O O6 0.322817 0.161759 0.384363
O O7 0.249152 0.267918 0.226759
O O8 0.500000 0.212758 0.570550
O O9 0.761150 0.259904 0.553576
O O10 0.716423 0.133658 0.650296
O O11 0.227646 0.397042 0.506156
O O12 0.220365 0.351493 0.751633
O O13 0.000000 0.323841 0.585031
O O14 0.194916 0.406597 0.242082
O O15 0.236529 0.524580 0.383521
O O16 0.000000 0.456016 0.412744
O O17 0.000000 0.312775 0.168677
O O18 0.779979 0.348705 0.009615
O O19 0.500000 0.942912 0.235593
O O20 0.000000 0.403789 0.881076
#
# Coordination Sequence:
#
# PCOD8167223 Si02
#       8
#     4   4   4   4   4   4   4   4
#     4   9  17  30  50  75 101 130 166 205 243 286
#     4  10  20  33  50  73 103 135 165 203 249 295
#     4  10  20  33  50  73 103 135 165 203 249 295
#     4  10  19  32  51  75 100 130 167 207 251 297
#     4   9  16  30  51  73  96 127 168 210 251 293
#     4  10  19  32  51  75 100 130 167 207 251 297
#     4   9  17  30  50  75 101 130 166 205 243 286
#     4   9  18  30  49  75 100 125 164 216 255 289
#
# _framework density 18.611082
#
# number of rings (size 3 to 8) (size 9 to 14) (size 15 to 20)
#    0.000    2.500    1.250    1.500    1.750    6.000 
#    0.000    0.000    0.000    5.250    0.000    0.000 
#    0.000    0.000    0.000    0.000    0.000    0.000 
#
# Total GULP energy -396674.891424 kJ/mol
# GULP energy per Si atom -12396.090357 kJ/mol
# Density = 1.856872 g / cm^3
# Si number density = 18.611082 Si / 1000 Ang^3
#
#
#
# Elastic Constant Matrix: (Units=GPa)
#
#
# Indices 1 2 3 4 5 6 
#
# 1 23.8008 22.2057 18.2982 0.0000 0.0000 0.0000
# 2 22.2057 95.3669 44.9987 0.0000 0.0000 0.0000
# 3 18.2982 44.9987 142.3920 0.0000 0.0000 0.0000
# 4 0.0000 0.0000 0.0000 16.6843 0.0000 0.0000
# 5 0.0000 0.0000 0.0000 0.0000 13.7192 0.0000
# 6 0.0000 0.0000 0.0000 0.0000 0.0000 21.0166
#
#
#
# Elastic Compliance Matrix: (Units=1/GPa)
#
#
# Indices 1 2 3 4 5 6 
#
# 1 0.055171 -0.011166 -0.003561 0.000000 0.000000 0.000000
# 2 -0.011166 0.014583 -0.003174 0.000000 0.000000 0.000000
# 3 -0.003561 -0.003174 0.008483 0.000000 0.000000 0.000000
# 4 0.000000 0.000000 0.000000 0.059936 0.000000 0.000000
# 5 0.000000 0.000000 0.000000 0.000000 0.072891 0.000000
# 6 0.000000 0.000000 0.000000 0.000000 0.000000 0.047581
#
#
# Mechanical properties :
#
#
# Convention : Reuss Voigt Hill
#
# Bulk Modulus (GPa) = 23.56493 48.06278 35.81385
# Shear Modulus (GPa) = 16.20258 22.02116 19.11187
#
# Velocity S-wave (km/s) = 2.95377 3.44354 3.20802
# Velocity P-wave (km/s) = 4.93176 6.45690 5.74516
#
# Compressibility (1/GPa) = 0.04243594
#
# Stress axis : x y z
#
# Youngs Moduli (GPa) = 18.12556 68.57183 117.87663
#
# Poissons Ratio (x) = 0.76567 0.41977
# Poissons Ratio (y) = 0.20239 0.37411
# Poissons Ratio (z) = 0.06455 0.21763
#
# Static dielectric constant tensor:
#      x y z
#    x 2.808710 0.000000 0.000000 
#    y 0.000000 3.453450 0.000000 
#    z 0.000000 0.000000 3.818560 
# 
# 
# High freq. dielectric constant tensor:
#      x y z
#    x 1.652210 0.000000 0.000000 
#    y 0.000000 1.729690 0.000000 
#    z 0.000000 0.000000 1.745830 
# 
# From -- ./inp_files/1999.got.cif
#   From: 2010.03.12/outbox.cif.g09.slc.cpg/sg26_1_cif.got.tgz:1999.got - 2010.04.14 03:33:09.
