data_PCOD8167919
_publ_section_title
;
Structure prediction by ZEFSAII (Michael W. Deem and Ramdas Pophale) SiO2 
 PCOD8167919
Probable space group: P C C 2
;
_chemical_formula_sum "Si O2"
_cell_formula_units_Z 22
_cell_length_a 7.526653
_cell_length_b 15.394064
_cell_length_c 8.547486
_cell_angle_alpha 90.000000
_cell_angle_beta 90.000000
_cell_angle_gamma 90.000000
_cell_volume 990.361115
_symmetry_space_group_name_H-M "P C C 2"
_symmetry_group_IT_number 27
_symmetry_cell_setting 'orthorhombic'
loop_
_space_group_symop_operation_xyz
x,y,z
-x,-y,z
-x,y,1/2+z
x,-y,1/2+z
loop_
_atom_site_type_symbol
_atom_site_label
_atom_site_fract_x
_atom_site_fract_y
_atom_site_fract_z
Si Si1 0.784249 0.774482 0.784630
Si Si2 0.279256 0.579298 0.766673
Si Si3 0.331538 0.403942 0.636229
Si Si4 0.425018 0.125417 0.256484
Si Si5 0.856032 0.250105 0.649016
Si Si6 0.500000 0.000000 0.005795
O O1 0.734531 0.686717 0.698618
O O2 0.633315 0.847280 0.760616
O O3 0.967065 0.802288 0.698990
O O4 0.817589 0.758400 0.966831
O O5 0.221485 0.480693 0.724411
O O6 0.460260 0.592712 0.670927
O O7 0.135298 0.648554 0.700758
O O8 0.303374 0.590208 0.950931
O O9 0.305293 0.210540 0.251451
O O10 0.377193 0.064351 0.403415
O O11 0.379391 0.064179 0.109049
#
# Coordination Sequence:
#
# PCOD8167919 Si02
#       6
#     4   4   4   4   4   2
#     4  12  26  43  70 103 140 182 227 279 338 402
#     4  11  22  39  65  98 138 183 232 278 331 391
#     4  11  22  39  65  98 138 183 232 278 331 391
#     4  11  24  48  73 100 136 172 227 274 344 409
#     4  12  26  43  70 103 140 182 227 279 338 402
#     4  10  24  46  78  98 130 180 212 282 350 410
#
# _framework density 22.214117999999999
#
# number of rings (size 3 to 8) (size 9 to 14) (size 15 to 20)
#    0.000    0.727    3.636    5.455    5.091    0.727 
#    0.000    9.091    0.000    0.000    0.000    0.000 
#    0.000    0.000    0.000    0.000    0.000    0.000 
#
# Total GULP energy -272732.396526 kJ/mol
# GULP energy per Si atom -12396.927115 kJ/mol
# Density = 2.216356 g / cm^3
# Si number density = 22.214118 Si / 1000 Ang^3
#
#
#
# Elastic Constant Matrix: (Units=GPa)
#
#
# Indices 1 2 3 4 5 6 
#
# 1 76.4259 24.1749 24.3194 0.0000 0.0000 0.0000
# 2 24.1749 106.2255 50.1908 0.0000 0.0000 0.0000
# 3 24.3194 50.1908 160.2895 0.0000 0.0000 0.0000
# 4 0.0000 0.0000 0.0000 10.4704 0.0000 0.0000
# 5 0.0000 0.0000 0.0000 0.0000 28.5617 0.0000
# 6 0.0000 0.0000 0.0000 0.0000 0.0000 12.6633
#
#
#
# Elastic Compliance Matrix: (Units=1/GPa)
#
#
# Indices 1 2 3 4 5 6 
#
# 1 0.014346 -0.002625 -0.001355 0.000000 0.000000 0.000000
# 2 -0.002625 0.011529 -0.003212 0.000000 0.000000 0.000000
# 3 -0.001355 -0.003212 0.007450 0.000000 0.000000 0.000000
# 4 0.000000 0.000000 0.000000 0.095508 0.000000 0.000000
# 5 0.000000 0.000000 0.000000 0.000000 0.035012 0.000000
# 6 0.000000 0.000000 0.000000 0.000000 0.000000 0.078968
#
#
# Mechanical properties :
#
#
# Convention : Reuss Voigt Hill
#
# Bulk Modulus (GPa) = 52.79209 60.03456 56.41333
# Shear Modulus (GPa) = 18.97469 26.62279 22.79874
#
# Velocity S-wave (km/s) = 2.92579 3.46564 3.20709
# Velocity P-wave (km/s) = 5.93552 6.56493 6.25814
#
# Compressibility (1/GPa) = 0.01894223
#
# Stress axis : x y z
#
# Youngs Moduli (GPa) = 69.70632 86.73927 134.22946
#
# Poissons Ratio (x) = 0.22767 0.18184
# Poissons Ratio (y) = 0.18296 0.43111
# Poissons Ratio (z) = 0.09443 0.27858
#
# Static dielectric constant tensor:
#      x y z
#    x 3.928860 0.000000 0.000000 
#    y 0.000000 4.310140 0.000000 
#    z 0.000000 0.000000 4.246800 
# 
# 
# High freq. dielectric constant tensor:
#      x y z
#    x 1.845530 0.000000 0.000000 
#    y 0.000000 1.887360 0.000000 
#    z 0.000000 0.000000 1.897460 
# 
# From -- ./inp_files/1153.got.cif
#   From: 2010.03.12/outbox.cif.g09.slc.cpg/sg27_1_cif.got.tgz:1153.got - 2010.04.14 03:36:05.
