data_PCOD8167741
_publ_section_title
;
Structure prediction by ZEFSAII (Michael W. Deem and Ramdas Pophale) SiO2 
 PCOD8167741
Probable space group: P M C 21
;
_chemical_formula_sum "Si O2"
_cell_formula_units_Z 20
_cell_length_a 18.551863
_cell_length_b 5.289833
_cell_length_c 8.870913
_cell_angle_alpha 90.000000
_cell_angle_beta 90.000000
_cell_angle_gamma 90.000000
_cell_volume 870.558199
_symmetry_space_group_name_H-M "P M C 21"
_symmetry_group_IT_number 26
_symmetry_cell_setting 'orthorhombic'
loop_
_space_group_symop_operation_xyz
x,y,z
-x,-y,1/2+z
-x,y,z
x,-y,1/2+z
loop_
_atom_site_type_symbol
_atom_site_label
_atom_site_fract_x
_atom_site_fract_y
_atom_site_fract_z
Si Si1 0.366174 0.804973 0.003820
Si Si2 0.583311 0.296125 0.167277
Si Si3 0.078720 0.822564 0.544024
Si Si4 0.797215 0.197943 0.545158
Si Si5 0.135227 0.495315 0.783954
O O1 0.380164 0.543400 0.092758
O O2 0.283704 0.896367 0.022050
O O3 0.411462 0.044137 0.064344
O O4 0.381915 0.759818 0.828798
O O5 0.500000 0.363252 0.189813
O O6 0.074982 0.605486 0.671018
O O7 0.093511 0.717153 0.377721
O O8 0.000000 0.959396 0.540382
O O9 0.146565 0.985607 0.596730
O O10 0.827526 0.301927 0.389663
O O11 0.798119 0.394017 0.683255
#
# Coordination Sequence:
#
# PCOD8167741 Si02
#       5
#     4   4   4   4   4
#     4  12  28  45  79 108 154 192 245 305 368 442
#     4  12  26  49  76 110 148 195 244 300 371 445
#     4  11  24  42  67  97 136 182 236 294 354 418
#     4  11  25  42  67  97 136 180 233 285 359 424
#     4  10  24  42  65  92 137 173 242 284 357 413
#
# _framework density 22.973765
#
# number of rings (size 3 to 8) (size 9 to 14) (size 15 to 20)
#    0.000    0.800    0.000    6.000   11.200    6.400 
#    0.000    0.000    0.000    0.000    0.000    0.000 
#    0.000    0.000    0.000    0.000    0.000    0.000 
#
# Total GULP energy -247933.685936 kJ/mol
# GULP energy per Si atom -12396.684297 kJ/mol
# Density = 2.292148 g / cm^3
# Si number density = 22.973765 Si / 1000 Ang^3
#
#
#
# Elastic Constant Matrix: (Units=GPa)
#
#
# Indices 1 2 3 4 5 6 
#
# 1 141.2292 19.9749 6.5724 0.0000 0.0000 0.0000
# 2 19.9749 100.6220 29.9672 0.0000 0.0000 0.0000
# 3 6.5724 29.9672 125.3291 0.0000 0.0000 0.0000
# 4 0.0000 0.0000 0.0000 -0.5314 0.0000 0.0000
# 5 0.0000 0.0000 0.0000 0.0000 6.9984 0.0000
# 6 0.0000 0.0000 0.0000 0.0000 0.0000 37.4584
#
#
#
# Elastic Compliance Matrix: (Units=1/GPa)
#
#
# Indices 1 2 3 4 5 6 
#
# 1 0.007285 -0.001435 -0.000039 0.000000 0.000000 0.000000
# 2 -0.001435 0.010983 -0.002551 0.000000 0.000000 0.000000
# 3 -0.000039 -0.002551 0.008591 0.000000 0.000000 0.000000
# 4 0.000000 0.000000 0.000000 -1.881973 0.000000 0.000000
# 5 0.000000 0.000000 0.000000 0.000000 0.142890 0.000000
# 6 0.000000 0.000000 0.000000 0.000000 0.000000 0.026696
#
#
# Mechanical properties :
#
#
# Convention : Reuss Voigt Hill
#
# Bulk Modulus (GPa) = 53.16293 53.35659 53.25976
# Shear Modulus (GPa) = -2.99185 29.49614 13.25215
#
# Velocity S-wave (km/s) = -1.14242 3.58705 2.40435
# Velocity P-wave (km/s) = 4.63150 6.35856 5.56247
#
# Compressibility (1/GPa) = 0.01881010
#
# Stress axis : x y z
#
# Youngs Moduli (GPa) = 137.26057 91.05257 116.40140
#
# Poissons Ratio (x) = 0.13063 0.00454
# Poissons Ratio (y) = 0.19692 0.29692
# Poissons Ratio (z) = 0.00536 0.23226
#
# Static dielectric constant tensor:
#      x y z
#    x 4.144980 0.000000 0.000000 
#    y 0.000000 4.290890 0.000000 
#    z 0.000000 0.000000 4.311150 
# 
# 
# High freq. dielectric constant tensor:
#      x y z
#    x 1.909170 0.000000 0.000000 
#    y 0.000000 1.905010 0.000000 
#    z 0.000000 0.000000 1.934690 
# 
# From -- ./inp_files/2312.got.cif
#   From: 2010.03.12/outbox.cif.g09.slc.cpg/sg26_2_cif.got.tgz:2312.got - 2010.04.14 03:33:09.
