data_PCOD8167429
_publ_section_title
;
Structure prediction by ZEFSAII (Michael W. Deem and Ramdas Pophale) SiO2 
 PCOD8167429
Probable space group: P M C 21
;
_chemical_formula_sum "Si O2"
_cell_formula_units_Z 24
_cell_length_a 10.763338
_cell_length_b 4.828962
_cell_length_c 18.116376
_cell_angle_alpha 90.000000
_cell_angle_beta 90.000000
_cell_angle_gamma 90.000000
_cell_volume 941.612233
_symmetry_space_group_name_H-M "P M C 21"
_symmetry_group_IT_number 26
_symmetry_cell_setting 'orthorhombic'
loop_
_space_group_symop_operation_xyz
x,y,z
-x,-y,1/2+z
-x,y,z
x,-y,1/2+z
loop_
_atom_site_type_symbol
_atom_site_label
_atom_site_fract_x
_atom_site_fract_y
_atom_site_fract_z
Si Si1 0.252074 0.673345 0.078590
Si Si2 0.643389 0.445209 0.790717
Si Si3 0.251701 0.814830 0.906310
Si Si4 0.500000 0.555296 0.543736
Si Si5 0.000000 0.455372 0.045900
Si Si6 0.500000 0.955054 0.942761
Si Si7 0.000000 0.953406 0.941940
Si Si8 0.356293 0.058056 0.192093
O O1 0.375501 0.483181 0.093812
O O2 0.123068 0.512580 0.095696
O O3 0.264960 0.952741 0.126968
O O4 0.251525 0.747530 0.992796
O O5 0.500000 0.499435 0.814522
O O6 0.734523 0.536161 0.857754
O O7 0.667074 0.132542 0.764958
O O8 0.678242 0.634814 0.719192
O O9 0.375628 0.008386 0.893294
O O10 0.123780 0.983926 0.890806
O O11 0.500000 0.362619 0.471035
O O12 0.500000 0.868610 0.516854
O O13 0.000000 0.639325 0.971804
O O14 0.000000 0.143034 0.015080
O O15 0.500000 0.037587 0.164941
#
# Coordination Sequence:
#
# PCOD8167429 Si02
#       8
#     4   4   4   2   2   2   2   4
#     4  10  21  40  62  90 119 159 203 250 298 361
#     4  10  22  39  58  86 122 158 195 249 309 358
#     4  10  21  40  62  90 119 159 203 250 298 361
#     4  10  20  32  54  86 112 140 191 242 283 338
#     4  10  22  38  58  88 124 154 191 248 305 346
#     4  10  20  32  54  86 112 140 191 242 283 338
#     4  10  22  38  58  88 124 154 191 248 305 346
#     4  10  22  39  58  86 122 158 195 249 309 358
#
# _framework density 25.488197
#
# number of rings (size 3 to 8) (size 9 to 14) (size 15 to 20)
#    0.000    2.000    1.667    1.000    0.000   10.667 
#    0.000    1.667    0.000    0.000    0.000    0.000 
#    0.000    0.000    0.000    0.000    0.000    0.000 
#
# Total GULP energy -297525.176272 kJ/mol
# GULP energy per Si atom -12396.882345 kJ/mol
# Density = 2.543018 g / cm^3
# Si number density = 25.488197 Si / 1000 Ang^3
#
#
#
# Elastic Constant Matrix: (Units=GPa)
#
#
# Indices 1 2 3 4 5 6 
#
# 1 205.2541 4.5283 -5.3871 0.0000 0.0000 0.0000
# 2 4.5283 33.9081 -17.1283 0.0000 0.0000 0.0000
# 3 -5.3871 -17.1283 70.8179 0.0000 0.0000 0.0000
# 4 0.0000 0.0000 0.0000 14.2789 0.0000 0.0000
# 5 0.0000 0.0000 0.0000 0.0000 21.9869 0.0000
# 6 0.0000 0.0000 0.0000 0.0000 0.0000 26.4573
#
#
#
# Elastic Compliance Matrix: (Units=1/GPa)
#
#
# Indices 1 2 3 4 5 6 
#
# 1 0.004890 -0.000530 0.000244 0.000000 0.000000 0.000000
# 2 -0.000530 0.033653 0.008099 0.000000 0.000000 0.000000
# 3 0.000244 0.008099 0.016098 0.000000 0.000000 0.000000
# 4 0.000000 0.000000 0.000000 0.070033 0.000000 0.000000
# 5 0.000000 0.000000 0.000000 0.000000 0.045482 0.000000
# 6 0.000000 0.000000 0.000000 0.000000 0.000000 0.037797
#
#
# Mechanical properties :
#
#
# Convention : Reuss Voigt Hill
#
# Bulk Modulus (GPa) = 14.23120 30.44509 22.33814
# Shear Modulus (GPa) = 23.17500 34.40910 28.79205
#
# Velocity S-wave (km/s) = 3.01864 3.67822 3.36463
# Velocity P-wave (km/s) = 4.21250 5.47812 4.88646
#
# Compressibility (1/GPa) = 0.07026815
#
# Stress axis : x y z
#
# Youngs Moduli (GPa) = 204.49480 29.71462 62.11880
#
# Poissons Ratio (x) = 0.01575 -0.01515
# Poissons Ratio (y) = 0.10836 -0.50312
# Poissons Ratio (z) = -0.04986 -0.24067
#
# Static dielectric constant tensor:
#      x y z
#    x 6.513210 0.000000 0.000000 
#    y 0.000000 4.645660 0.000000 
#    z 0.000000 0.000000 4.244400 
# 
# 
# High freq. dielectric constant tensor:
#      x y z
#    x 2.005290 0.000000 0.000000 
#    y 0.000000 2.017970 0.000000 
#    z 0.000000 0.000000 2.010620 
# 
# From -- ./inp_files/417.got.cif
#   From: 2010.03.12/outbox.cif.g09.slc.cpg/sg26_1_cif.got.tgz:417.got - 2010.04.14 03:33:09.
