data_PCOD8167045
_publ_section_title
;
Structure prediction by ZEFSAII (Michael W. Deem and Ramdas Pophale) SiO2 
 PCOD8167045
Probable space group: P M C 21
;
_chemical_formula_sum "Si O2"
_cell_formula_units_Z 32
_cell_length_a 18.110204
_cell_length_b 26.432365
_cell_length_c 5.266718
_cell_angle_alpha 90.000000
_cell_angle_beta 90.000000
_cell_angle_gamma 90.000000
_cell_volume 2521.154324
_symmetry_space_group_name_H-M "P M C 21"
_symmetry_group_IT_number 26
_symmetry_cell_setting 'orthorhombic'
loop_
_space_group_symop_operation_xyz
x,y,z
-x,-y,1/2+z
-x,y,z
x,-y,1/2+z
loop_
_atom_site_type_symbol
_atom_site_label
_atom_site_fract_x
_atom_site_fract_y
_atom_site_fract_z
Si Si1 0.587996 0.142727 0.267590
Si Si2 0.587737 0.313480 0.768131
Si Si3 0.411986 0.028271 0.267652
Si Si4 0.411925 0.800638 0.267602
Si Si5 0.314764 0.532977 0.792925
Si Si6 0.149802 0.442268 0.294964
Si Si7 0.086961 0.554869 0.294945
Si Si8 0.587752 0.628634 0.768373
O O1 0.500000 0.143007 0.267598
O O2 0.618085 0.085500 0.267647
O O3 0.618221 0.171007 0.517625
O O4 0.618233 0.170987 0.017516
O O5 0.500000 0.312034 0.766851
O O6 0.618950 0.256469 0.767618
O O7 0.616779 0.342077 0.517621
O O8 0.616434 0.341754 0.019799
O O9 0.500000 0.027922 0.267649
O O10 0.381681 0.000002 0.517656
O O11 0.500000 0.800668 0.267717
O O12 0.321531 0.492922 0.566709
O O13 0.237538 0.562736 0.773670
O O14 0.380839 0.572336 0.765316
O O15 0.125816 0.500593 0.319253
O O16 0.119471 0.415254 0.551122
O O17 0.110659 0.415730 0.052091
O O18 0.000000 0.548113 0.271696
O O19 0.500000 0.624126 0.768676
#
# Coordination Sequence:
#
# PCOD8167045 Si02
#       8
#     4   4   4   4   4   4   4   4
#     4   9  15  21  30  47  61  75 101 120 144 184
#     4   9  17  31  44  55  67  77  96 131 175 209
#     4   9  15  21  27  36  57  85 104 119 135 160
#     4   9  15  23  37  50  61  73  88 124 164 193
#     4  12  21  33  45  55  74  93 109 134 159 189
#     4  10  16  27  37  56  75  93 111 127 152 177
#     4  10  16  25  41  58  76  94 112 130 146 171
#     4  10  21  33  45  57  67  84 110 135 165 209
#
# _framework density 12.692598
#
# number of rings (size 3 to 8) (size 9 to 14) (size 15 to 20)
#    0.000    2.250    2.500    4.125    0.000    6.500 
#    0.000    0.000    0.000    0.000    0.000    0.000 
#    0.000    0.000    0.000    0.000    0.000    0.000 
#
# Total GULP energy -396676.096801 kJ/mol
# GULP energy per Si atom -12396.128025 kJ/mol
# Density = 1.266371 g / cm^3
# Si number density = 12.692598 Si / 1000 Ang^3
#
#
#
# Elastic Constant Matrix: (Units=GPa)
#
#
# Indices 1 2 3 4 5 6 
#
# 1 21.1391 15.6260 12.8073 0.0000 0.0000 0.0000
# 2 15.6260 56.2131 33.4059 0.0000 0.0000 0.0000
# 3 12.8073 33.4059 123.3195 0.0000 0.0000 0.0000
# 4 0.0000 0.0000 0.0000 16.6518 0.0000 0.0000
# 5 0.0000 0.0000 0.0000 0.0000 10.1645 0.0000
# 6 0.0000 0.0000 0.0000 0.0000 0.0000 0.3086
#
#
#
# Elastic Compliance Matrix: (Units=1/GPa)
#
#
# Indices 1 2 3 4 5 6 
#
# 1 0.059968 -0.015457 -0.002041 0.000000 0.000000 0.000000
# 2 -0.015457 0.025187 -0.005218 0.000000 0.000000 0.000000
# 3 -0.002041 -0.005218 0.009734 0.000000 0.000000 0.000000
# 4 0.000000 0.000000 0.000000 0.060054 0.000000 0.000000
# 5 0.000000 0.000000 0.000000 0.000000 0.098381 0.000000
# 6 0.000000 0.000000 0.000000 0.000000 0.000000 3.240805
#
#
# Mechanical properties :
#
#
# Convention : Reuss Voigt Hill
#
# Bulk Modulus (GPa) = 20.21904 36.03890 28.12897
# Shear Modulus (GPa) = 1.40606 14.68047 8.04326
#
# Velocity S-wave (km/s) = 1.05365 3.40460 2.52006
# Velocity P-wave (km/s) = 4.17668 6.62649 5.53872
#
# Compressibility (1/GPa) = 0.04945832
#
# Stress axis : x y z
#
# Youngs Moduli (GPa) = 16.67562 39.70333 102.72900
#
# Poissons Ratio (x) = 0.61369 0.20965
# Poissons Ratio (y) = 0.25775 0.53599
# Poissons Ratio (z) = 0.03403 0.20715
#
# Static dielectric constant tensor:
#      x y z
#    x 2.126740 0.000000 0.000000 
#    y 0.000000 2.452540 0.000000 
#    z 0.000000 0.000000 3.790760 
# 
# 
# High freq. dielectric constant tensor:
#      x y z
#    x 1.414630 0.000000 0.000000 
#    y 0.000000 1.452800 0.000000 
#    z 0.000000 0.000000 1.516880 
# 
# From -- ./inp_files/831.got.cif
#   From: 2010.03.12/outbox.cif.g09.slc.cpg/sg26_1_cif.got.tgz:831.got - 2010.04.14 03:33:09.
