data_PCOD8167065
_publ_section_title
;
Structure prediction by ZEFSAII (Michael W. Deem and Ramdas Pophale) SiO2 
 PCOD8167065
Probable space group: P M C 21
;
_chemical_formula_sum "Si O2"
_cell_formula_units_Z 32
_cell_length_a 9.048816
_cell_length_b 10.061489
_cell_length_c 19.859565
_cell_angle_alpha 90.000000
_cell_angle_beta 90.000000
_cell_angle_gamma 90.000000
_cell_volume 1808.105410
_symmetry_space_group_name_H-M "P M C 21"
_symmetry_group_IT_number 26
_symmetry_cell_setting 'orthorhombic'
loop_
_space_group_symop_operation_xyz
x,y,z
-x,-y,1/2+z
-x,y,z
x,-y,1/2+z
loop_
_atom_site_type_symbol
_atom_site_label
_atom_site_fract_x
_atom_site_fract_y
_atom_site_fract_z
Si Si1 0.175308 0.543687 0.713660
Si Si2 0.175100 0.336296 0.969914
Si Si3 0.830414 0.910912 0.553347
Si Si4 0.830549 0.839028 0.706878
Si Si5 0.176056 0.560340 0.070535
Si Si6 0.326698 0.901000 0.237035
Si Si7 0.824541 0.676198 0.317504
Si Si8 0.673273 0.830221 0.085286
O O1 0.229499 0.693698 0.728677
O O2 0.236608 0.491668 0.642323
O O3 0.232668 0.447131 0.772652
O O4 0.000000 0.544876 0.709733
O O5 0.229185 0.351034 0.893365
O O6 0.000000 0.336089 0.975269
O O7 0.232188 0.197114 0.000595
O O8 0.234828 0.460426 0.013064
O O9 0.814878 0.846900 0.626748
O O10 0.000000 0.949338 0.538473
O O11 0.731462 0.041768 0.545048
O O12 0.000000 0.860789 0.728972
O O13 0.731639 0.948630 0.744216
O O14 0.246401 0.702617 0.054663
O O15 0.000000 0.574189 0.070408
O O16 0.500000 0.900183 0.249880
O O17 0.247764 0.812381 0.292919
O O18 0.284530 0.843939 0.163825
O O19 0.000000 0.691955 0.312539
O O20 0.500000 0.817515 0.074192
#
# Coordination Sequence:
#
# PCOD8167065 Si02
#       8
#     4   4   4   4   4   4   4   4
#     4   9  16  28  51  78 100 127 168 210 251 301
#     4   9  18  32  53  79 104 129 167 215 256 301
#     4   9  16  30  51  73  96 127 165 207 254 299
#     4   9  16  29  51  75  97 125 166 212 254 298
#     4  10  17  31  53  77 103 134 168 209 259 306
#     4  10  20  33  48  72 104 135 169 209 252 299
#     4  10  19  33  53  77 103 134 170 209 255 306
#     4  10  20  32  48  75 105 131 167 213 251 294
#
# _framework density 17.698083
#
# number of rings (size 3 to 8) (size 9 to 14) (size 15 to 20)
#    0.000    2.500    2.500    0.750    0.000    1.000 
#    0.000    4.375    0.000    4.500    0.000    0.000 
#    0.000    0.000    0.000    0.000    0.000    0.000 
#
# Total GULP energy -396819.450801 kJ/mol
# GULP energy per Si atom -12400.607838 kJ/mol
# Density = 1.765780 g / cm^3
# Si number density = 17.698083 Si / 1000 Ang^3
#
#
#
# Elastic Constant Matrix: (Units=GPa)
#
#
# Indices 1 2 3 4 5 6 
#
# 1 40.1918 37.1390 29.2946 0.0000 0.0000 0.0000
# 2 37.1390 163.7409 76.3193 0.0000 0.0000 0.0000
# 3 29.2946 76.3193 112.1061 0.0000 0.0000 0.0000
# 4 0.0000 0.0000 0.0000 28.8239 0.0000 0.0000
# 5 0.0000 0.0000 0.0000 0.0000 11.0813 0.0000
# 6 0.0000 0.0000 0.0000 0.0000 0.0000 4.8217
#
#
#
# Elastic Compliance Matrix: (Units=1/GPa)
#
#
# Indices 1 2 3 4 5 6 
#
# 1 0.033454 -0.005146 -0.005238 0.000000 0.000000 0.000000
# 2 -0.005146 0.009737 -0.005284 0.000000 0.000000 0.000000
# 3 -0.005238 -0.005284 0.013886 0.000000 0.000000 0.000000
# 4 0.000000 0.000000 0.000000 0.034693 0.000000 0.000000
# 5 0.000000 0.000000 0.000000 0.000000 0.090242 0.000000
# 6 0.000000 0.000000 0.000000 0.000000 0.000000 0.207394
#
#
# Mechanical properties :
#
#
# Convention : Reuss Voigt Hill
#
# Bulk Modulus (GPa) = 38.84997 66.83828 52.84412
# Shear Modulus (GPa) = 11.64617 20.49780 16.07198
#
# Velocity S-wave (km/s) = 2.56803 3.40692 3.01677
# Velocity P-wave (km/s) = 5.54907 7.30232 6.48522
#
# Compressibility (1/GPa) = 0.02574004
#
# Stress axis : x y z
#
# Youngs Moduli (GPa) = 29.89155 102.69639 72.01303
#
# Poissons Ratio (x) = 0.52851 0.37724
# Poissons Ratio (y) = 0.15383 0.38053
# Poissons Ratio (z) = 0.15659 0.54267
#
# Static dielectric constant tensor:
#      x y z
#    x 2.942220 0.000000 0.000000 
#    y 0.000000 3.445580 0.000000 
#    z 0.000000 0.000000 3.198880 
# 
# 
# High freq. dielectric constant tensor:
#      x y z
#    x 1.652990 0.000000 0.000000 
#    y 0.000000 1.700250 0.000000 
#    z 0.000000 0.000000 1.659420 
# 
# From -- ./inp_files/5193.got.cif
#   From: 2010.03.12/outbox.cif.g09.slc.cpg/sg26_3_cif.got.tgz:5193.got - 2010.04.14 03:33:09.
