data_PCOD8167225
_publ_section_title
;
Structure prediction by ZEFSAII (Michael W. Deem and Ramdas Pophale) SiO2 
 PCOD8167225
Probable space group: P M C 21
;
_chemical_formula_sum "Si O2"
_cell_formula_units_Z 32
_cell_length_a 9.509119
_cell_length_b 11.875096
_cell_length_c 14.371742
_cell_angle_alpha 90.000000
_cell_angle_beta 90.000000
_cell_angle_gamma 90.000000
_cell_volume 1622.881553
_symmetry_space_group_name_H-M "P M C 21"
_symmetry_group_IT_number 26
_symmetry_cell_setting 'orthorhombic'
loop_
_space_group_symop_operation_xyz
x,y,z
-x,-y,1/2+z
-x,y,z
x,-y,1/2+z
loop_
_atom_site_type_symbol
_atom_site_label
_atom_site_fract_x
_atom_site_fract_y
_atom_site_fract_z
Si Si1 0.839008 0.537628 0.123730
Si Si2 0.832081 0.848062 0.892764
Si Si3 0.166439 0.596148 0.921769
Si Si4 0.161372 0.374258 0.817579
Si Si5 0.656575 0.669608 0.628629
Si Si6 0.337452 0.094788 0.220681
Si Si7 0.335400 0.011833 0.529187
Si Si8 0.657879 0.221947 0.936087
O O1 0.821912 0.628526 0.205964
O O2 0.763467 0.425631 0.159525
O O3 0.000000 0.503209 0.109508
O O4 0.774767 0.584861 0.027565
O O5 0.786245 0.717095 0.880834
O O6 0.763830 0.922169 0.809430
O O7 0.000000 0.864440 0.894348
O O8 0.765072 0.890178 0.990156
O O9 0.222627 0.492244 0.859365
O O10 0.000000 0.594868 0.924288
O O11 0.242693 0.264810 0.853727
O O12 0.000000 0.362055 0.848300
O O13 0.500000 0.631114 0.656018
O O14 0.696840 0.783176 0.680563
O O15 0.667198 0.687303 0.518278
O O16 0.500000 0.084437 0.252172
O O17 0.304811 0.004075 0.139481
O O18 0.500000 0.040285 0.514338
O O19 0.293836 0.899027 0.473338
O O20 0.500000 0.214405 0.896722
#
# Coordination Sequence:
#
# PCOD8167225 Si02
#       8
#     4   4   4   4   4   4   4   4
#     4  10  19  32  51  75 109 150 179 213 272 335
#     4  11  22  37  58  84 115 150 191 236 278 332
#     4   9  19  35  51  76 115 149 175 220 280 327
#     4  10  19  32  53  79 106 143 183 214 265 332
#     4   9  17  31  53  80 106 137 181 228 268 315
#     4   9  19  37  60  83 110 147 188 233 287 339
#     4   9  20  40  61  80 109 147 184 230 289 341
#     4   9  18  34  55  77 104 135 173 226 275 317
#
# _framework density 19.718012999999999
#
# number of rings (size 3 to 8) (size 9 to 14) (size 15 to 20)
#    0.000    2.500    1.250    2.625    0.000    3.000 
#    2.250    5.000    0.000    0.000    0.000    0.000 
#    0.000    0.000    0.000    0.000    0.000    0.000 
#
# Total GULP energy -396701.524183 kJ/mol
# GULP energy per Si atom -12396.922631 kJ/mol
# Density = 1.967313 g / cm^3
# Si number density = 19.718013 Si / 1000 Ang^3
#
#
#
# Elastic Constant Matrix: (Units=GPa)
#
#
# Indices 1 2 3 4 5 6 
#
# 1 55.8523 13.6823 24.7161 0.0000 0.0000 0.0000
# 2 13.6823 35.3193 5.3438 0.0000 0.0000 0.0000
# 3 24.7161 5.3438 87.9600 0.0000 0.0000 0.0000
# 4 0.0000 0.0000 0.0000 26.0588 0.0000 0.0000
# 5 0.0000 0.0000 0.0000 0.0000 29.4749 0.0000
# 6 0.0000 0.0000 0.0000 0.0000 0.0000 30.0045
#
#
#
# Elastic Compliance Matrix: (Units=1/GPa)
#
#
# Indices 1 2 3 4 5 6 
#
# 1 0.022388 -0.007793 -0.005817 0.000000 0.000000 0.000000
# 2 -0.007793 0.031288 0.000289 0.000000 0.000000 0.000000
# 3 -0.005817 0.000289 0.012986 0.000000 0.000000 0.000000
# 4 0.000000 0.000000 0.000000 0.038375 0.000000 0.000000
# 5 0.000000 0.000000 0.000000 0.000000 0.033927 0.000000
# 6 0.000000 0.000000 0.000000 0.000000 0.000000 0.033328
#
#
# Mechanical properties :
#
#
# Convention : Reuss Voigt Hill
#
# Bulk Modulus (GPa) = 24.98780 29.62400 27.30590
# Shear Modulus (GPa) = 23.55447 26.13360 24.84403
#
# Velocity S-wave (km/s) = 3.46000 3.64451 3.55345
# Velocity P-wave (km/s) = 5.35371 5.72419 5.54205
#
# Compressibility (1/GPa) = 0.04001953
#
# Stress axis : x y z
#
# Youngs Moduli (GPa) = 44.66748 31.96097 77.00664
#
# Poissons Ratio (x) = 0.24906 0.44797
# Poissons Ratio (y) = 0.34807 -0.02224
# Poissons Ratio (z) = 0.25985 -0.00923
#
# Static dielectric constant tensor:
#      x y z
#    x 3.340600 0.000000 0.000000 
#    y 0.000000 3.414090 0.000000 
#    z 0.000000 0.000000 3.686850 
# 
# 
# High freq. dielectric constant tensor:
#      x y z
#    x 1.748010 0.000000 0.000000 
#    y 0.000000 1.750130 0.000000 
#    z 0.000000 0.000000 1.773860 
# 
# From -- ./inp_files/4186.got.cif
#   From: 2010.03.12/outbox.cif.g09.slc.cpg/sg26_3_cif.got.tgz:4186.got - 2010.04.14 03:33:09.
