data_PCOD8167629
_publ_section_title
;
Structure prediction by ZEFSAII (Michael W. Deem and Ramdas Pophale) SiO2 
 PCOD8167629
Probable space group: P M C 21
;
_chemical_formula_sum "Si O2"
_cell_formula_units_Z 24
_cell_length_a 8.486007
_cell_length_b 11.998130
_cell_length_c 11.880529
_cell_angle_alpha 90.000000
_cell_angle_beta 90.000000
_cell_angle_gamma 90.000000
_cell_volume 1209.630497
_symmetry_space_group_name_H-M "P M C 21"
_symmetry_group_IT_number 26
_symmetry_cell_setting 'orthorhombic'
loop_
_space_group_symop_operation_xyz
x,y,z
-x,-y,1/2+z
-x,y,z
x,-y,1/2+z
loop_
_atom_site_type_symbol
_atom_site_label
_atom_site_fract_x
_atom_site_fract_y
_atom_site_fract_z
Si Si1 0.814599 0.416639 0.783390
Si Si2 0.815354 0.657691 0.728723
Si Si3 0.187981 0.268927 0.986654
Si Si4 0.318248 0.831052 0.897751
Si Si5 0.816825 0.789221 0.136366
Si Si6 0.684785 0.918700 0.340972
O O1 0.738019 0.537772 0.760020
O O2 0.753109 0.365806 0.901344
O O3 0.771257 0.333480 0.681595
O O4 0.000000 0.429599 0.793381
O O5 0.746395 0.701245 0.610189
O O6 0.783787 0.744424 0.827218
O O7 0.000000 0.641666 0.713300
O O8 0.265646 0.152323 0.950310
O O9 0.000000 0.255199 0.982531
O O10 0.500000 0.810349 0.870296
O O11 0.266115 0.954724 0.864079
O O12 0.289359 0.813318 0.029141
O O13 0.781086 0.879966 0.231960
O O14 0.000000 0.796396 0.103693
O O15 0.500000 0.905450 0.318301
#
# Coordination Sequence:
#
# PCOD8167629 Si02
#       6
#     4   4   4   4   4   4
#     4   8  17  35  60  87 115 146 185 236 294 338
#     4  10  21  36  60  89 116 150 193 240 283 335
#     4   9  19  36  59  88 116 148 195 241 281 338
#     4  11  25  40  56  84 121 157 191 232 289 348
#     4  10  21  39  65  89 112 147 194 244 286 338
#     4  10  22  40  60  81 116 158 190 231 291 349
#
# _framework density 19.840769999999999
#
# number of rings (size 3 to 8) (size 9 to 14) (size 15 to 20)
#    0.000    2.333    0.000    2.500    4.667    3.333 
#    0.000    4.167    0.000    0.000    0.000    0.000 
#    0.000    0.000    0.000    0.000    0.000    0.000 
#
# Total GULP energy -297636.164515 kJ/mol
# GULP energy per Si atom -12401.506855 kJ/mol
# Density = 1.979561 g / cm^3
# Si number density = 19.840770 Si / 1000 Ang^3
#
#
#
# Elastic Constant Matrix: (Units=GPa)
#
#
# Indices 1 2 3 4 5 6 
#
# 1 23.9540 20.3149 5.9184 0.0000 0.0000 0.0000
# 2 20.3149 156.5934 51.3782 0.0000 0.0000 0.0000
# 3 5.9184 51.3782 98.1375 0.0000 0.0000 0.0000
# 4 0.0000 0.0000 0.0000 24.5814 0.0000 0.0000
# 5 0.0000 0.0000 0.0000 0.0000 23.2230 0.0000
# 6 0.0000 0.0000 0.0000 0.0000 0.0000 4.9215
#
#
#
# Elastic Compliance Matrix: (Units=1/GPa)
#
#
# Indices 1 2 3 4 5 6 
#
# 1 0.046923 -0.006229 0.000431 0.000000 0.000000 0.000000
# 2 -0.006229 0.008537 -0.004094 0.000000 0.000000 0.000000
# 3 0.000431 -0.004094 0.012307 0.000000 0.000000 0.000000
# 4 0.000000 0.000000 0.000000 0.040681 0.000000 0.000000
# 5 0.000000 0.000000 0.000000 0.000000 0.043061 0.000000
# 6 0.000000 0.000000 0.000000 0.000000 0.000000 0.203191
#
#
# Mechanical properties :
#
#
# Convention : Reuss Voigt Hill
#
# Bulk Modulus (GPa) = 20.84025 48.21198 34.52611
# Shear Modulus (GPa) = 12.80482 23.95005 18.37744
#
# Velocity S-wave (km/s) = 2.54319 3.47812 3.04673
# Velocity P-wave (km/s) = 4.37610 6.36255 5.46042
#
# Compressibility (1/GPa) = 0.04798407
#
# Stress axis : x y z
#
# Youngs Moduli (GPa) = 21.31163 117.13412 81.25416
#
# Poissons Ratio (x) = 0.72960 -0.03503
# Poissons Ratio (y) = 0.13275 0.33264
# Poissons Ratio (z) = -0.00919 0.47953
#
# Static dielectric constant tensor:
#      x y z
#    x 3.312760 0.000000 0.000000 
#    y 0.000000 3.870640 0.000000 
#    z 0.000000 0.000000 3.681720 
# 
# 
# High freq. dielectric constant tensor:
#      x y z
#    x 1.750430 0.000000 0.000000 
#    y 0.000000 1.783670 0.000000 
#    z 0.000000 0.000000 1.780390 
# 
# From -- ./inp_files/2791.got.cif
#   From: 2010.03.12/outbox.cif.g09.slc.cpg/sg26_2_cif.got.tgz:2791.got - 2010.04.14 03:33:09.
