data_PCOD8167652
_publ_section_title
;
Structure prediction by ZEFSAII (Michael W. Deem and Ramdas Pophale) SiO2 
 PCOD8167652
Probable space group: P M C 21
;
_chemical_formula_sum "Si O2"
_cell_formula_units_Z 32
_cell_length_a 15.534412
_cell_length_b 17.314470
_cell_length_c 5.253130
_cell_angle_alpha 90.000000
_cell_angle_beta 90.000000
_cell_angle_gamma 90.000000
_cell_volume 1412.934957
_symmetry_space_group_name_H-M "P M C 21"
_symmetry_group_IT_number 26
_symmetry_cell_setting 'orthorhombic'
loop_
_space_group_symop_operation_xyz
x,y,z
-x,-y,1/2+z
-x,y,z
x,-y,1/2+z
loop_
_atom_site_type_symbol
_atom_site_label
_atom_site_fract_x
_atom_site_fract_y
_atom_site_fract_z
Si Si1 0.348181 0.464818 0.325320
Si Si2 0.899451 0.704790 0.001491
Si Si3 0.601266 0.200443 0.747562
Si Si4 0.847064 0.464986 0.416759
Si Si5 0.600826 0.294087 0.245593
Si Si6 0.349408 0.031166 0.661679
Si Si7 0.842353 0.033098 0.081960
Si Si8 0.100970 0.798828 0.498529
O O1 0.393485 0.486278 0.595535
O O2 0.250558 0.492537 0.370547
O O3 0.350744 0.375107 0.254938
O O4 0.868542 0.752300 0.248786
O O5 0.000000 0.686615 0.019114
O O6 0.849522 0.624575 0.988874
O O7 0.875733 0.750872 0.748260
O O8 0.500000 0.181825 0.758274
O O9 0.626102 0.248759 0.499438
O O10 0.653855 0.121097 0.730808
O O11 0.631771 0.246303 0.998691
O O12 0.892373 0.514122 0.646061
O O13 0.500000 0.310793 0.230418
O O14 0.397580 0.985159 0.892436
O O15 0.255095 0.996216 0.610099
O O16 0.889017 0.986328 0.850238
O O17 0.844752 0.122986 0.014740
O O18 0.000000 0.818664 0.484472
#
# Coordination Sequence:
#
# PCOD8167652 Si02
#       8
#     4   4   4   4   4   4   4   4
#     4  10  21  38  58  84 120 154 194 236 284 341
#     4  10  21  38  59  88 117 150 196 240 288 348
#     4  10  21  38  59  83 117 152 191 241 294 347
#     4  10  21  38  58  84 120 154 194 236 284 341
#     4  10  21  38  59  88 117 150 196 240 288 348
#     4  10  21  38  56  81 115 147 187 244 281 347
#     4  10  21  38  56  81 115 147 187 244 281 347
#     4  10  21  38  59  83 117 152 191 241 294 347
#
# _framework density 22.647893
#
# number of rings (size 3 to 8) (size 9 to 14) (size 15 to 20)
#    0.000    2.000    0.000    3.000    0.000    2.000 
#   13.500    0.000    0.000    0.000    0.000    0.000 
#    0.000    0.000    0.000    0.000    0.000    0.000 
#
# Total GULP energy -396684.898283 kJ/mol
# GULP energy per Si atom -12396.403071 kJ/mol
# Density = 2.259635 g / cm^3
# Si number density = 22.647893 Si / 1000 Ang^3
#
#
#
# Elastic Constant Matrix: (Units=GPa)
#
#
# Indices 1 2 3 4 5 6 
#
# 1 21.9777 23.9457 18.7996 0.0000 0.0000 0.0000
# 2 23.9457 180.1035 96.4012 0.0000 0.0000 0.0000
# 3 18.7996 96.4012 262.3834 0.0000 0.0000 0.0000
# 4 0.0000 0.0000 0.0000 49.7241 0.0000 0.0000
# 5 0.0000 0.0000 0.0000 0.0000 8.1376 0.0000
# 6 0.0000 0.0000 0.0000 0.0000 0.0000 1.1163
#
#
#
# Elastic Compliance Matrix: (Units=1/GPa)
#
#
# Indices 1 2 3 4 5 6 
#
# 1 0.053693 -0.006323 -0.001524 0.000000 0.000000 0.000000
# 2 -0.006323 0.007656 -0.002360 0.000000 0.000000 0.000000
# 3 -0.001524 -0.002360 0.004787 0.000000 0.000000 0.000000
# 4 0.000000 0.000000 0.000000 0.020111 0.000000 0.000000
# 5 0.000000 0.000000 0.000000 0.000000 0.122887 0.000000
# 6 0.000000 0.000000 0.000000 0.000000 0.000000 0.895803
#
#
# Mechanical properties :
#
#
# Convention : Reuss Voigt Hill
#
# Bulk Modulus (GPa) = 21.87074 82.52860 52.19967
# Shear Modulus (GPa) = 4.38369 33.48348 18.93359
#
# Velocity S-wave (km/s) = 1.39276 3.84922 2.89450
# Velocity P-wave (km/s) = 3.50203 7.50162 5.85399
#
# Compressibility (1/GPa) = 0.04572318
#
# Stress axis : x y z
#
# Youngs Moduli (GPa) = 18.62425 130.61328 208.87992
#
# Poissons Ratio (x) = 0.82588 0.31832
# Poissons Ratio (y) = 0.11776 0.49293
# Poissons Ratio (z) = 0.02838 0.30823
#
# Static dielectric constant tensor:
#      x y z
#    x 3.384340 0.000000 0.000000 
#    y 0.000000 3.891100 0.000000 
#    z 0.000000 0.000000 11.878840 
# 
# 
# High freq. dielectric constant tensor:
#      x y z
#    x 1.852430 0.000000 0.000000 
#    y 0.000000 1.895110 0.000000 
#    z 0.000000 0.000000 1.933400 
# 
# From -- ./inp_files/798.got.cif
#   From: 2010.03.12/outbox.cif.g09.slc.cpg/sg26_1_cif.got.tgz:798.got - 2010.04.14 03:33:09.
