data_PCOD8167148
_publ_section_title
;
Structure prediction by ZEFSAII (Michael W. Deem and Ramdas Pophale) SiO2 
 PCOD8167148
Probable space group: P M C 21
;
_chemical_formula_sum "Si O2"
_cell_formula_units_Z 32
_cell_length_a 8.650635
_cell_length_b 11.288590
_cell_length_c 16.412848
_cell_angle_alpha 90.000000
_cell_angle_beta 90.000000
_cell_angle_gamma 90.000000
_cell_volume 1602.771589
_symmetry_space_group_name_H-M "P M C 21"
_symmetry_group_IT_number 26
_symmetry_cell_setting 'orthorhombic'
loop_
_space_group_symop_operation_xyz
x,y,z
-x,-y,1/2+z
-x,y,z
x,-y,1/2+z
loop_
_atom_site_type_symbol
_atom_site_label
_atom_site_fract_x
_atom_site_fract_y
_atom_site_fract_z
Si Si1 0.318917 0.926889 0.726950
Si Si2 0.682241 0.571026 0.488900
Si Si3 0.672518 0.407359 0.245926
Si Si4 0.180039 0.178736 0.694601
Si Si5 0.180503 0.233502 0.360457
Si Si6 0.178493 0.266122 0.115699
Si Si7 0.179907 0.681566 0.034692
Si Si8 0.327321 0.347359 0.813386
O O1 0.500000 0.920673 0.741374
O O2 0.238697 0.883021 0.811504
O O3 0.270403 0.846369 0.650275
O O4 0.271947 0.057817 0.702288
O O5 0.500000 0.571005 0.500399
O O6 0.753092 0.687272 0.531442
O O7 0.741107 0.445872 0.523123
O O8 0.733540 0.593315 0.396181
O O9 0.500000 0.359350 0.224234
O O10 0.725069 0.348593 0.330802
O O11 0.798177 0.373868 0.178484
O O12 0.668462 0.547836 0.247957
O O13 0.241492 0.251300 0.615564
O O14 0.211559 0.249529 0.778357
O O15 0.000000 0.150852 0.686367
O O16 0.210524 0.229797 0.457839
O O17 0.000000 0.249140 0.340978
O O18 0.000000 0.232569 0.105850
O O19 0.000000 0.654252 0.044140
O O20 0.500000 0.293415 0.824451
#
# Coordination Sequence:
#
# PCOD8167148 Si02
#       8
#     4   4   4   4   4   4   4   4
#     4  11  23  42  64  86 116 157 205 251 300 361
#     4  11  22  38  60  90 126 159 198 246 300 360
#     4  10  18  33  57  87 119 154 193 238 294 353
#     4  11  24  42  62  87 120 161 205 253 303 359
#     4  10  19  35  61  90 120 155 196 247 298 355
#     4  11  22  37  59  88 118 154 197 245 297 354
#     4  10  22  39  62  93 125 157 200 248 303 366
#     4  10  22  38  57  85 122 159 196 242 297 358
#
# _framework density 19.965413999999999
#
# number of rings (size 3 to 8) (size 9 to 14) (size 15 to 20)
#    0.000    1.500    1.250    6.000    0.000    5.500 
#    2.250    0.000    0.000    0.000    0.000    0.000 
#    0.000    0.000    0.000    0.000    0.000    0.000 
#
# Total GULP energy -396687.491392 kJ/mol
# GULP energy per Si atom -12396.484106 kJ/mol
# Density = 1.991997 g / cm^3
# Si number density = 19.965414 Si / 1000 Ang^3
#
#
#
# Elastic Constant Matrix: (Units=GPa)
#
#
# Indices 1 2 3 4 5 6 
#
# 1 83.6717 40.9505 28.0139 0.0000 0.0000 0.0000
# 2 40.9505 106.1671 48.5824 0.0000 0.0000 0.0000
# 3 28.0139 48.5824 83.1722 0.0000 0.0000 0.0000
# 4 0.0000 0.0000 0.0000 27.9951 0.0000 0.0000
# 5 0.0000 0.0000 0.0000 0.0000 28.0292 0.0000
# 6 0.0000 0.0000 0.0000 0.0000 0.0000 33.0068
#
#
#
# Elastic Compliance Matrix: (Units=1/GPa)
#
#
# Indices 1 2 3 4 5 6 
#
# 1 0.015046 -0.004755 -0.002290 0.000000 0.000000 0.000000
# 2 -0.004755 0.014358 -0.006785 0.000000 0.000000 0.000000
# 3 -0.002290 -0.006785 0.016758 0.000000 0.000000 0.000000
# 4 0.000000 0.000000 0.000000 0.035720 0.000000 0.000000
# 5 0.000000 0.000000 0.000000 0.000000 0.035677 0.000000
# 6 0.000000 0.000000 0.000000 0.000000 0.000000 0.030297
#
#
# Mechanical properties :
#
#
# Convention : Reuss Voigt Hill
#
# Bulk Modulus (GPa) = 54.05219 56.45608 55.25414
# Shear Modulus (GPa) = 27.52028 28.17050 27.84539
#
# Velocity S-wave (km/s) = 3.71671 3.76036 3.73859
# Velocity P-wave (km/s) = 6.74909 6.86965 6.80963
#
# Compressibility (1/GPa) = 0.01850064
#
# Stress axis : x y z
#
# Youngs Moduli (GPa) = 66.46482 69.64599 59.67339
#
# Poissons Ratio (x) = 0.33120 0.13664
# Poissons Ratio (y) = 0.31607 0.40490
# Poissons Ratio (z) = 0.15219 0.47256
#
# Static dielectric constant tensor:
#      x y z
#    x 3.700080 0.000000 0.000000 
#    y 0.000000 3.554090 0.000000 
#    z 0.000000 0.000000 3.835140 
# 
# 
# High freq. dielectric constant tensor:
#      x y z
#    x 1.785740 0.000000 0.000000 
#    y 0.000000 1.767580 0.000000 
#    z 0.000000 0.000000 1.780830 
# 
# From -- ./inp_files/4253.got.cif
#   From: 2010.03.12/outbox.cif.g09.slc.cpg/sg26_3_cif.got.tgz:4253.got - 2010.04.14 03:33:09.
