data_PCOD8167540
_publ_section_title
;
Structure prediction by ZEFSAII (Michael W. Deem and Ramdas Pophale) SiO2 
 PCOD8167540
Probable space group: P M C 21
;
_chemical_formula_sum "Si O2"
_cell_formula_units_Z 32
_cell_length_a 8.916677
_cell_length_b 11.913028
_cell_length_c 15.280428
_cell_angle_alpha 90.000000
_cell_angle_beta 90.000000
_cell_angle_gamma 90.000000
_cell_volume 1623.157700
_symmetry_space_group_name_H-M "P M C 21"
_symmetry_group_IT_number 26
_symmetry_cell_setting 'orthorhombic'
loop_
_space_group_symop_operation_xyz
x,y,z
-x,-y,1/2+z
-x,y,z
x,-y,1/2+z
loop_
_atom_site_type_symbol
_atom_site_label
_atom_site_fract_x
_atom_site_fract_y
_atom_site_fract_z
Si Si1 0.322135 0.641942 0.937520
Si Si2 0.827530 0.001388 0.853843
Si Si3 0.324214 0.008209 0.535868
Si Si4 0.173162 0.766403 0.776306
Si Si5 0.828515 0.244485 0.790362
Si Si6 0.826540 0.225460 0.591878
Si Si7 0.677059 0.386829 0.935073
Si Si8 0.323172 0.760873 0.596059
O O1 0.500000 0.649918 0.932964
O O2 0.254919 0.703698 0.854512
O O3 0.264788 0.513974 0.938162
O O4 0.267871 0.698525 0.026564
O O5 0.778581 0.116143 0.806939
O O6 0.000000 0.005246 0.886223
O O7 0.804231 0.900272 0.785397
O O8 0.718947 0.979087 0.934808
O O9 0.500000 0.030766 0.545976
O O10 0.277250 0.886437 0.570062
O O11 0.233152 0.098352 0.592201
O O12 0.242975 0.725355 0.685323
O O13 0.000000 0.732291 0.778452
O O14 0.804869 0.274559 0.688891
O O15 0.730455 0.329693 0.845989
O O16 0.000000 0.260427 0.818460
O O17 0.000000 0.225514 0.563267
O O18 0.500000 0.381326 0.935036
O O19 0.738385 0.320626 0.019837
O O20 0.500000 0.748435 0.609126
#
# Coordination Sequence:
#
# PCOD8167540 Si02
#       8
#     4   4   4   4   4   4   4   4
#     4  11  24  42  63  86 116 158 205 252 302 354
#     4  10  20  36  59  88 123 158 191 239 300 357
#     4  11  21  35  61  92 122 158 197 242 296 356
#     4  11  23  39  62  91 122 159 197 242 301 359
#     4  10  22  39  62  91 122 157 197 243 297 358
#     4  11  23  40  61  89 125 159 197 246 298 359
#     4  10  23  43  63  85 118 158 202 253 302 350
#     4  10  22  40  61  90 124 157 196 245 296 355
#
# _framework density 19.714658
#
# number of rings (size 3 to 8) (size 9 to 14) (size 15 to 20)
#    0.000    1.500    2.500    2.250    0.000    6.000 
#    0.000    3.750    0.000    0.000    0.000    0.000 
#    0.000    0.000    0.000    0.000    0.000    0.000 
#
# Total GULP energy -396962.201070 kJ/mol
# GULP energy per Si atom -12405.068783 kJ/mol
# Density = 1.966979 g / cm^3
# Si number density = 19.714658 Si / 1000 Ang^3
#
#
#
# Elastic Constant Matrix: (Units=GPa)
#
#
# Indices 1 2 3 4 5 6 
#
# 1 49.7424 36.5753 29.9938 0.0000 0.0000 0.0000
# 2 36.5753 133.9443 45.6877 0.0000 0.0000 0.0000
# 3 29.9938 45.6877 111.4364 0.0000 0.0000 0.0000
# 4 0.0000 0.0000 0.0000 6.1419 0.0000 0.0000
# 5 0.0000 0.0000 0.0000 0.0000 36.1667 0.0000
# 6 0.0000 0.0000 0.0000 0.0000 0.0000 23.2514
#
#
#
# Elastic Compliance Matrix: (Units=1/GPa)
#
#
# Indices 1 2 3 4 5 6 
#
# 1 0.027357 -0.005765 -0.005000 0.000000 0.000000 0.000000
# 2 -0.005765 0.009894 -0.002505 0.000000 0.000000 0.000000
# 3 -0.005000 -0.002505 0.011346 0.000000 0.000000 0.000000
# 4 0.000000 0.000000 0.000000 0.162817 0.000000 0.000000
# 5 0.000000 0.000000 0.000000 0.000000 0.027650 0.000000
# 6 0.000000 0.000000 0.000000 0.000000 0.000000 0.043008
#
#
# Mechanical properties :
#
#
# Convention : Reuss Voigt Hill
#
# Bulk Modulus (GPa) = 45.33331 57.73741 51.53536
# Shear Modulus (GPa) = 15.82454 25.30309 20.56381
#
# Velocity S-wave (km/s) = 2.83623 3.58644 3.23317
# Velocity P-wave (km/s) = 5.81122 6.81910 6.33523
#
# Compressibility (1/GPa) = 0.02205884
#
# Stress axis : x y z
#
# Youngs Moduli (GPa) = 36.55335 101.06746 88.13314
#
# Poissons Ratio (x) = 0.58264 0.44065
# Poissons Ratio (y) = 0.21072 0.22077
# Poissons Ratio (z) = 0.18276 0.25317
#
# Static dielectric constant tensor:
#      x y z
#    x 3.581350 0.000000 0.000000 
#    y 0.000000 3.773210 0.000000 
#    z 0.000000 0.000000 3.574580 
# 
# 
# High freq. dielectric constant tensor:
#      x y z
#    x 1.768770 0.000000 0.000000 
#    y 0.000000 1.770180 0.000000 
#    z 0.000000 0.000000 1.776650 
# 
# From -- ./inp_files/4212.got.cif
#   From: 2010.03.12/outbox.cif.g09.slc.cpg/sg26_3_cif.got.tgz:4212.got - 2010.04.14 03:33:09.
