data_PCOD8167745
_publ_section_title
;
Structure prediction by ZEFSAII (Michael W. Deem and Ramdas Pophale) SiO2 
 PCOD8167745
Probable space group: P M C 21
;
_chemical_formula_sum "Si O2"
_cell_formula_units_Z 32
_cell_length_a 9.126759
_cell_length_b 14.535084
_cell_length_c 12.213677
_cell_angle_alpha 90.000000
_cell_angle_beta 90.000000
_cell_angle_gamma 90.000000
_cell_volume 1620.244513
_symmetry_space_group_name_H-M "P M C 21"
_symmetry_group_IT_number 26
_symmetry_cell_setting 'orthorhombic'
loop_
_space_group_symop_operation_xyz
x,y,z
-x,-y,1/2+z
-x,y,z
x,-y,1/2+z
loop_
_atom_site_type_symbol
_atom_site_label
_atom_site_fract_x
_atom_site_fract_y
_atom_site_fract_z
Si Si1 0.827224 0.129747 0.907820
Si Si2 0.672972 0.831317 0.632933
Si Si3 0.165912 0.548217 0.130392
Si Si4 0.326929 0.046623 0.343812
Si Si5 0.329182 0.372360 0.193901
Si Si6 0.159400 0.356371 0.401877
Si Si7 0.171847 0.734197 0.223179
Si Si8 0.833508 0.165214 0.511514
O O1 0.795069 0.225940 0.843775
O O2 0.000000 0.112143 0.917399
O O3 0.753965 0.051064 0.832976
O O4 0.757082 0.130430 0.027639
O O5 0.500000 0.836629 0.611230
O O6 0.716283 0.891774 0.738803
O O7 0.726205 0.726597 0.650975
O O8 0.257644 0.455264 0.128190
O O9 0.232575 0.629416 0.209677
O O10 0.000000 0.525460 0.165513
O O11 0.176789 0.582460 0.007828
O O12 0.500000 0.032448 0.351466
O O13 0.271647 0.089041 0.458748
O O14 0.500000 0.380367 0.179851
O O15 0.287873 0.384485 0.320416
O O16 0.171054 0.249795 0.428808
O O17 0.000000 0.375728 0.347902
O O18 0.000000 0.727067 0.196705
O O19 0.232761 0.803533 0.129278
O O20 0.000000 0.126650 0.522205
#
# Coordination Sequence:
#
# PCOD8167745 Si02
#       8
#     4   4   4   4   4   4   4   4
#     4  11  24  40  62  90 120 157 202 251 298 355
#     4  10  24  44  60  83 124 164 198 241 298 360
#     4   9  19  37  60  86 117 156 201 247 301 359
#     4  11  23  40  60  85 119 157 195 242 300 362
#     4  11  22  37  58  86 121 158 199 247 296 356
#     4   9  18  34  57  83 112 149 196 249 300 350
#     4   8  18  38  60  86 119 150 190 247 303 349
#     4   9  17  34  61  87 110 143 193 248 294 347
#
# _framework density 19.750107
#
# number of rings (size 3 to 8) (size 9 to 14) (size 15 to 20)
#    0.000    2.250    1.250    2.625    1.750    3.500 
#    0.000    7.500    0.000    0.000    0.000    0.000 
#    0.000    0.000    0.000    0.000    0.000    0.000 
#
# Total GULP energy -396699.928257 kJ/mol
# GULP energy per Si atom -12396.872758 kJ/mol
# Density = 1.970515 g / cm^3
# Si number density = 19.750107 Si / 1000 Ang^3
#
#
#
# Elastic Constant Matrix: (Units=GPa)
#
#
# Indices 1 2 3 4 5 6 
#
# 1 67.6149 46.9199 34.3576 0.0000 0.0000 0.0000
# 2 46.9199 120.9313 36.3979 0.0000 0.0000 0.0000
# 3 34.3576 36.3979 73.9260 0.0000 0.0000 0.0000
# 4 0.0000 0.0000 0.0000 24.2713 0.0000 0.0000
# 5 0.0000 0.0000 0.0000 0.0000 27.8050 0.0000
# 6 0.0000 0.0000 0.0000 0.0000 0.0000 31.5434
#
#
#
# Elastic Compliance Matrix: (Units=1/GPa)
#
#
# Indices 1 2 3 4 5 6 
#
# 1 0.023306 -0.006788 -0.007489 0.000000 0.000000 0.000000
# 2 -0.006788 0.011685 -0.002598 0.000000 0.000000 0.000000
# 3 -0.007489 -0.002598 0.018287 0.000000 0.000000 0.000000
# 4 0.000000 0.000000 0.000000 0.041201 0.000000 0.000000
# 5 0.000000 0.000000 0.000000 0.000000 0.035965 0.000000
# 6 0.000000 0.000000 0.000000 0.000000 0.000000 0.031702
#
#
# Mechanical properties :
#
#
# Convention : Reuss Voigt Hill
#
# Bulk Modulus (GPa) = 51.21341 55.31367 53.26354
# Shear Modulus (GPa) = 24.70283 26.37707 25.53995
#
# Velocity S-wave (km/s) = 3.54046 3.65847 3.59995
# Velocity P-wave (km/s) = 6.53453 6.77595 6.65633
#
# Compressibility (1/GPa) = 0.01952614
#
# Stress axis : x y z
#
# Youngs Moduli (GPa) = 42.90785 85.58021 54.68361
#
# Poissons Ratio (x) = 0.58094 0.40954
# Poissons Ratio (y) = 0.29127 0.14208
# Poissons Ratio (z) = 0.32135 0.22236
#
# Static dielectric constant tensor:
#      x y z
#    x 3.437340 0.000000 0.000000 
#    y 0.000000 3.767630 0.000000 
#    z 0.000000 0.000000 3.448280 
# 
# 
# High freq. dielectric constant tensor:
#      x y z
#    x 1.750810 0.000000 0.000000 
#    y 0.000000 1.777760 0.000000 
#    z 0.000000 0.000000 1.766760 
# 
# From -- ./inp_files/3001.got.cif
#   From: 2010.03.12/outbox.cif.g09.slc.cpg/sg26_2_cif.got.tgz:3001.got - 2010.04.14 03:33:09.
