data_PCOD8167463
_publ_section_title
;
Structure prediction by ZEFSAII (Michael W. Deem and Ramdas Pophale) SiO2 
 PCOD8167463
Probable space group: P M C 21
;
_chemical_formula_sum "Si O2"
_cell_formula_units_Z 32
_cell_length_a 12.873044
_cell_length_b 12.981783
_cell_length_c 10.126822
_cell_angle_alpha 90.000000
_cell_angle_beta 90.000000
_cell_angle_gamma 90.000000
_cell_volume 1692.344504
_symmetry_space_group_name_H-M "P M C 21"
_symmetry_group_IT_number 26
_symmetry_cell_setting 'orthorhombic'
loop_
_space_group_symop_operation_xyz
x,y,z
-x,-y,1/2+z
-x,y,z
x,-y,1/2+z
loop_
_atom_site_type_symbol
_atom_site_label
_atom_site_fract_x
_atom_site_fract_y
_atom_site_fract_z
Si Si1 0.880698 0.667154 0.669770
Si Si2 0.280138 0.487418 0.658700
Si Si3 0.620428 0.095683 0.633439
Si Si4 0.719862 0.987418 0.393988
Si Si5 0.880698 0.832846 0.882918
Si Si6 0.620428 0.404317 0.919249
Si Si7 0.788705 0.264034 0.631281
Si Si8 0.211295 0.764034 0.421408
O O1 0.814316 0.564505 0.686231
O O2 0.841326 0.750000 0.776344
O O3 0.868935 0.716482 0.525056
O O4 0.000000 0.637244 0.693864
O O5 0.360404 0.531765 0.552438
O O6 0.340469 0.470109 0.794861
O O7 0.231508 0.383135 0.599776
O O8 0.500000 0.120463 0.648558
O O9 0.659531 0.029891 0.757828
O O10 0.678702 0.204710 0.625783
O O11 0.639596 0.031765 0.500251
O O12 0.768492 0.883135 0.452912
O O13 0.814316 0.064505 0.366457
O O14 0.000000 0.862756 0.858825
O O15 0.868934 0.783518 0.027633
O O16 0.500000 0.379537 0.904131
O O17 0.678702 0.295290 0.926905
O O18 0.838922 0.250000 0.776344
#
# Coordination Sequence:
#
# PCOD8167463 Si02
#       8
#     4   4   4   4   4   4   4   4
#     4  10  21  37  56  78 106 140 176 217 266 314
#     4  10  20  36  55  79 109 139 176 219 262 312
#     4  10  20  34  55  80 107 141 177 216 264 315
#     4  10  20  36  55  79 109 139 176 219 262 312
#     4  10  21  37  56  78 106 140 176 217 266 314
#     4  10  20  34  55  80 107 141 177 216 264 315
#     4   9  20  36  53  77 107 137 176 221 260 310
#     4   9  20  36  53  77 107 137 176 221 260 310
#
# _framework density 18.908678999999999
#
# number of rings (size 3 to 8) (size 9 to 14) (size 15 to 20)
#    0.000    2.250    0.000    2.250    0.000    7.000 
#    0.000   15.000    0.000    8.250    0.000    0.000 
#    0.000    0.000    0.000    0.000    0.000    0.000 
#
# Total GULP energy -396917.584901 kJ/mol
# GULP energy per Si atom -12403.674528 kJ/mol
# Density = 1.886564 g / cm^3
# Si number density = 18.908679 Si / 1000 Ang^3
#
#
#
# Elastic Constant Matrix: (Units=GPa)
#
#
# Indices 1 2 3 4 5 6 
#
# 1 77.6464 38.1710 32.3389 0.0000 0.0000 0.0000
# 2 38.1710 127.2529 43.4523 0.0000 0.0000 0.0000
# 3 32.3389 43.4523 100.7882 0.0000 0.0000 0.0000
# 4 0.0000 0.0000 0.0000 28.3953 0.0000 0.0000
# 5 0.0000 0.0000 0.0000 0.0000 22.4688 0.0000
# 6 0.0000 0.0000 0.0000 0.0000 0.0000 17.2116
#
#
#
# Elastic Compliance Matrix: (Units=1/GPa)
#
#
# Indices 1 2 3 4 5 6 
#
# 1 0.016165 -0.003609 -0.003631 0.000000 0.000000 0.000000
# 2 -0.003609 0.010021 -0.003162 0.000000 0.000000 0.000000
# 3 -0.003631 -0.003162 0.012450 0.000000 0.000000 0.000000
# 4 0.000000 0.000000 0.000000 0.035217 0.000000 0.000000
# 5 0.000000 0.000000 0.000000 0.000000 0.044506 0.000000
# 6 0.000000 0.000000 0.000000 0.000000 0.000000 0.058100
#
#
# Mechanical properties :
#
#
# Convention : Reuss Voigt Hill
#
# Bulk Modulus (GPa) = 56.07937 59.29022 57.68479
# Shear Modulus (GPa) = 24.60532 26.39682 25.50107
#
# Velocity S-wave (km/s) = 3.61123 3.74038 3.67637
# Velocity P-wave (km/s) = 6.86370 7.07659 6.97096
#
# Compressibility (1/GPa) = 0.01783187
#
# Stress axis : x y z
#
# Youngs Moduli (GPa) = 61.86058 99.79297 80.32089
#
# Poissons Ratio (x) = 0.36017 0.29163
# Poissons Ratio (y) = 0.22327 0.25399
# Poissons Ratio (z) = 0.22460 0.31556
#
# Static dielectric constant tensor:
#      x y z
#    x 3.184500 0.000000 0.000000 
#    y 0.000000 3.508130 0.000000 
#    z 0.000000 0.000000 3.702010 
# 
# 
# High freq. dielectric constant tensor:
#      x y z
#    x 1.720580 0.000000 0.000000 
#    y 0.000000 1.743910 0.000000 
#    z 0.000000 0.000000 1.752090 
# 
# From -- ./inp_files/3358.got.cif
#   From: 2010.03.12/outbox.cif.g09.slc.cpg/sg26_2_cif.got.tgz:3358.got - 2010.04.14 03:33:09.
