data_PCOD8167980
_publ_section_title
;
Structure prediction by ZEFSAII (Michael W. Deem and Ramdas Pophale) SiO2 
 PCOD8167980
Probable space group: P M A 2
;
_chemical_formula_sum "Si O2"
_cell_formula_units_Z 28
_cell_length_a 8.893540
_cell_length_b 15.275192
_cell_length_c 12.675412
_cell_angle_alpha 90.000000
_cell_angle_beta 90.000000
_cell_angle_gamma 90.000000
_cell_volume 1721.961452
_symmetry_space_group_name_H-M "P M A 2"
_symmetry_group_IT_number 28
_symmetry_cell_setting 'orthorhombic'
loop_
_space_group_symop_operation_xyz
x,y,z
-x,-y,z
1/2-x,y,z
1/2+x,-y,z
loop_
_atom_site_type_symbol
_atom_site_label
_atom_site_fract_x
_atom_site_fract_y
_atom_site_fract_z
Si Si1 0.572289 0.913927 0.655840
Si Si2 0.421739 0.725265 0.415859
Si Si3 0.425310 0.739483 0.658068
Si Si4 0.575245 0.593349 0.262282
Si Si5 0.924399 0.081465 0.428648
Si Si6 0.926411 0.594331 0.029964
Si Si7 0.926726 0.405519 0.825533
O O1 0.750000 0.919068 0.665619
O O2 0.513644 0.823021 0.706393
O O3 0.518570 0.913013 0.535545
O O4 0.500000 0.000000 0.712367
O O5 0.250000 0.694322 0.403706
O O6 0.472928 0.719695 0.537624
O O7 0.525920 0.662357 0.349005
O O8 0.440752 0.824737 0.371181
O O9 0.250000 0.762899 0.662658
O O10 0.466843 0.654757 0.726133
O O11 0.500000 0.500000 0.281492
O O12 0.750000 0.575945 0.274216
O O13 0.539053 0.634296 0.145884
O O14 0.750000 0.061979 0.453254
O O15 0.000000 0.000000 0.363110
O O16 0.750000 0.588482 0.008198
O O17 0.000000 0.500000 0.029532
O O18 0.005703 0.642660 0.930834
O O19 0.750000 0.417220 0.839929
O O20 0.000000 0.500000 0.804981
#
# Coordination Sequence:
#
# PCOD8167980 Si02
#       7
#     4   4   4   4   4   4   4
#     4  10  17  26  43  64  87 117 150 185 222 261
#     4   9  18  31  45  64  93 123 150 182 219 264
#     4   9  19  33  45  64  94 123 151 183 221 265
#     4  10  20  32  47  66  89 118 151 188 225 263
#     4   9  16  27  43  63  88 117 148 184 222 260
#     4   9  17  30  47  66  86 109 145 190 229 263
#     4  10  19  31  48  67  90 119 150 186 224 264
#
# _framework density 16.260525999999999
#
# number of rings (size 3 to 8) (size 9 to 14) (size 15 to 20)
#    0.000    2.571    0.000    5.571    0.000    6.286 
#    0.000    1.429    0.000    0.000    0.000    1.000 
#    0.000    4.571    0.000    0.000    0.000    0.000 
#
# Total GULP energy -346921.059160 kJ/mol
# GULP energy per Si atom -12390.037827 kJ/mol
# Density = 1.622352 g / cm^3
# Si number density = 16.260526 Si / 1000 Ang^3
#
#
#
# Elastic Constant Matrix: (Units=GPa)
#
#
# Indices 1 2 3 4 5 6 
#
# 1 103.0439 57.8336 42.9538 0.0000 0.0000 0.0000
# 2 57.8336 107.9913 54.4529 0.0000 0.0000 0.0000
# 3 42.9538 54.4529 80.1615 0.0000 0.0000 0.0000
# 4 0.0000 0.0000 0.0000 0.2905 0.0000 0.0000
# 5 0.0000 0.0000 0.0000 0.0000 21.0535 0.0000
# 6 0.0000 0.0000 0.0000 0.0000 0.0000 29.9860
#
#
#
# Elastic Compliance Matrix: (Units=1/GPa)
#
#
# Indices 1 2 3 4 5 6 
#
# 1 0.014607 -0.005895 -0.003822 0.000000 0.000000 0.000000
# 2 -0.005895 0.016463 -0.008025 0.000000 0.000000 0.000000
# 3 -0.003822 -0.008025 0.019974 0.000000 0.000000 0.000000
# 4 0.000000 0.000000 0.000000 3.442072 0.000000 0.000000
# 5 0.000000 0.000000 0.000000 0.000000 0.047498 0.000000
# 6 0.000000 0.000000 0.000000 0.000000 0.000000 0.033349
#
#
# Mechanical properties :
#
#
# Convention : Reuss Voigt Hill
#
# Bulk Modulus (GPa) = 64.26752 66.85305 65.56029
# Shear Modulus (GPa) = 1.38327 19.32978 10.35652
#
# Velocity S-wave (km/s) = 0.92333 3.45157 2.52645
# Velocity P-wave (km/s) = 6.38327 7.55562 6.99405
#
# Compressibility (1/GPa) = 0.01555996
#
# Stress axis : x y z
#
# Youngs Moduli (GPa) = 68.46250 60.74130 50.06517
#
# Poissons Ratio (x) = 0.35807 0.19137
# Poissons Ratio (y) = 0.40359 0.40175
# Poissons Ratio (z) = 0.26169 0.48742
#
# Static dielectric constant tensor:
#      x y z
#    x 3.211840 0.000000 0.000000 
#    y 0.000000 3.440760 0.000000 
#    z 0.000000 0.000000 3.293280 
# 
# 
# High freq. dielectric constant tensor:
#      x y z
#    x 1.641080 0.000000 0.000000 
#    y 0.000000 1.618980 0.000000 
#    z 0.000000 0.000000 1.587910 
# 
# From -- ./inp_files/6368.got.cif
#   From: 2010.03.12/outbox.cif.g09.slc.cpg/sg28_4_cif.got.tgz:6368.got - 2010.04.14 03:39:34.
