data_PCOD8167756
_publ_section_title
;
Structure prediction by ZEFSAII (Michael W. Deem and Ramdas Pophale) SiO2 
 PCOD8167756
Probable space group: P M C 21
;
_chemical_formula_sum "Si O2"
_cell_formula_units_Z 32
_cell_length_a 9.026033
_cell_length_b 6.908589
_cell_length_c 28.439474
_cell_angle_alpha 90.000000
_cell_angle_beta 90.000000
_cell_angle_gamma 90.000000
_cell_volume 1773.404611
_symmetry_space_group_name_H-M "P M C 21"
_symmetry_group_IT_number 26
_symmetry_cell_setting 'orthorhombic'
loop_
_space_group_symop_operation_xyz
x,y,z
-x,-y,1/2+z
-x,y,z
x,-y,1/2+z
loop_
_atom_site_type_symbol
_atom_site_label
_atom_site_fract_x
_atom_site_fract_y
_atom_site_fract_z
Si Si1 0.325497 0.711465 0.869650
Si Si2 0.828521 0.980702 0.547652
Si Si3 0.171471 0.019245 0.441360
Si Si4 0.172250 0.019788 0.190738
Si Si5 0.325497 0.711416 0.619366
Si Si6 0.831235 0.312261 0.619798
Si Si7 0.172258 0.980259 0.798274
Si Si8 0.831237 0.312310 0.869206
O O1 0.500000 0.731744 0.869601
O O2 0.263027 0.812310 0.916310
O O3 0.282076 0.487684 0.870150
O O4 0.262910 0.808631 0.822463
O O5 0.770975 0.999947 0.494505
O O6 0.804347 0.185106 0.573261
O O7 0.000000 0.918609 0.549381
O O8 0.736989 0.812245 0.572706
O O9 0.000000 0.081394 0.439642
O O10 0.195594 0.814849 0.415745
O O11 0.204597 0.815832 0.165705
O O12 0.223044 0.001919 0.244506
O O13 0.000000 0.073508 0.185885
O O14 0.262923 0.191405 0.166553
O O15 0.500000 0.731706 0.619409
O O16 0.282082 0.487634 0.618871
O O17 0.000000 0.389056 0.621442
O O18 0.204647 0.184220 0.823301
O O19 0.000000 0.926599 0.803137
O O20 0.000000 0.389104 0.867543
#
# Coordination Sequence:
#
# PCOD8167756 Si02
#       8
#     4   4   4   4   4   4   4   4
#     4  11  22  34  51  78 112 143 169 206 260 317
#     4   9  19  37  59  79 100 133 179 224 260 299
#     4   9  19  37  59  79 100 133 179 224 260 299
#     4   9  19  37  59  79 100 133 179 224 260 299
#     4  11  22  34  51  78 112 143 169 206 260 317
#     4   9  18  34  55  78 104 135 174 216 256 303
#     4   9  19  37  59  79 100 133 179 224 260 299
#     4   9  18  34  55  78 104 135 174 216 256 303
#
# _framework density 18.044385999999999
#
# number of rings (size 3 to 8) (size 9 to 14) (size 15 to 20)
#    0.000    2.500    0.000    3.750    0.000    7.000 
#    0.000    7.500    0.000    0.000    0.000    0.000 
#    0.000    0.000    0.000    0.000    0.000    0.000 
#
# Total GULP energy -396900.843802 kJ/mol
# GULP energy per Si atom -12403.151369 kJ/mol
# Density = 1.800332 g / cm^3
# Si number density = 18.044386 Si / 1000 Ang^3
#
#
#
# Elastic Constant Matrix: (Units=GPa)
#
#
# Indices 1 2 3 4 5 6 
#
# 1 92.9563 58.2451 55.5294 0.0000 0.0000 0.0000
# 2 58.2451 111.1865 63.6799 0.0000 0.0000 0.0000
# 3 55.5294 63.6799 179.6340 0.0000 0.0000 0.0000
# 4 0.0000 0.0000 0.0000 11.4540 0.0000 0.0000
# 5 0.0000 0.0000 0.0000 0.0000 16.4278 0.0000
# 6 0.0000 0.0000 0.0000 0.0000 0.0000 9.8244
#
#
#
# Elastic Compliance Matrix: (Units=1/GPa)
#
#
# Indices 1 2 3 4 5 6 
#
# 1 0.016946 -0.007374 -0.002624 0.000000 0.000000 0.000000
# 2 -0.007374 0.014494 -0.002859 0.000000 0.000000 0.000000
# 3 -0.002624 -0.002859 0.007391 0.000000 0.000000 0.000000
# 4 0.000000 0.000000 0.000000 0.087305 0.000000 0.000000
# 5 0.000000 0.000000 0.000000 0.000000 0.060872 0.000000
# 6 0.000000 0.000000 0.000000 0.000000 0.000000 0.101787
#
#
# Mechanical properties :
#
#
# Convention : Reuss Voigt Hill
#
# Bulk Modulus (GPa) = 76.23442 82.07619 79.15530
# Shear Modulus (GPa) = 15.67973 21.29607 18.48790
#
# Velocity S-wave (km/s) = 2.95100 3.43914 3.20438
# Velocity P-wave (km/s) = 7.34515 7.83292 7.59295
#
# Compressibility (1/GPa) = 0.01311744
#
# Stress axis : x y z
#
# Youngs Moduli (GPa) = 59.01111 68.99385 135.29089
#
# Poissons Ratio (x) = 0.50877 0.35505
# Poissons Ratio (y) = 0.43516 0.38674
# Poissons Ratio (z) = 0.15486 0.19722
#
# Static dielectric constant tensor:
#      x y z
#    x 3.178510 0.000000 0.000000 
#    y 0.000000 3.182980 0.000000 
#    z 0.000000 0.000000 3.637180 
# 
# 
# High freq. dielectric constant tensor:
#      x y z
#    x 1.687410 0.000000 0.000000 
#    y 0.000000 1.696520 0.000000 
#    z 0.000000 0.000000 1.706100 
# 
# From -- ./inp_files/5667.got.cif
#   From: 2010.03.12/outbox.cif.g09.slc.cpg/sg26_3_cif.got.tgz:5667.got - 2010.04.14 03:33:09.
