data_PCOD8167654
_publ_section_title
;
Structure prediction by ZEFSAII (Michael W. Deem and Ramdas Pophale) SiO2 
 PCOD8167654
Probable space group: P M C 21
;
_chemical_formula_sum "Si O2"
_cell_formula_units_Z 32
_cell_length_a 19.853131
_cell_length_b 16.655518
_cell_length_c 5.124570
_cell_angle_alpha 90.000000
_cell_angle_beta 90.000000
_cell_angle_gamma 90.000000
_cell_volume 1694.511741
_symmetry_space_group_name_H-M "P M C 21"
_symmetry_group_IT_number 26
_symmetry_cell_setting 'orthorhombic'
loop_
_space_group_symop_operation_xyz
x,y,z
-x,-y,1/2+z
-x,y,z
x,-y,1/2+z
loop_
_atom_site_type_symbol
_atom_site_label
_atom_site_fract_x
_atom_site_fract_y
_atom_site_fract_z
Si Si1 0.275748 0.227416 0.359510
Si Si2 0.882271 0.227880 0.405562
Si Si3 0.724235 0.046757 0.422522
Si Si4 0.884745 0.046642 0.416956
Si Si5 0.421869 0.551868 0.375282
Si Si6 0.923370 0.321423 0.910471
Si Si7 0.691591 0.676187 0.369042
Si Si8 0.810913 0.552507 0.380772
O O1 0.195672 0.229254 0.331027
O O2 0.302351 0.137849 0.416218
O O3 0.299963 0.286376 0.585016
O O4 0.307173 0.254427 0.085343
O O5 0.911488 0.137681 0.407235
O O6 0.891472 0.263631 0.693125
O O7 0.922208 0.278627 0.191077
O O8 0.804513 0.046813 0.421668
O O9 0.695859 0.002955 0.678050
O O10 0.913341 0.002291 0.671449
O O11 0.500000 0.575855 0.379073
O O12 0.401857 0.497553 0.619955
O O13 0.380640 0.633946 0.381436
O O14 0.882209 0.403993 0.920893
O O15 0.000000 0.342732 0.839006
O O16 0.750348 0.613366 0.431960
O O17 0.805619 0.480549 0.587487
#
# Coordination Sequence:
#
# PCOD8167654 Si02
#       8
#     4   4   4   4   4   4   4   4
#     4  11  20  33  57  83 115 147 181 231 280 324
#     4  11  20  39  57  79 110 140 182 226 280 336
#     4   9  17  29  46  76 113 145 177 217 272 327
#     4   9  17  29  52  80 103 136 173 216 269 327
#     4  10  21  38  58  83 118 160 194 223 268 327
#     4  12  25  41  59  77 102 142 186 230 281 339
#     4  12  21  36  57  88 116 144 184 227 276 326
#     4  12  24  39  59  80 104 134 176 226 281 326
#
# _framework density 18.884498000000001
#
# number of rings (size 3 to 8) (size 9 to 14) (size 15 to 20)
#    0.000    1.250    2.500    4.875    0.000    4.500 
#    0.000    0.000    0.000    7.500    0.000    0.000 
#    0.000   10.000    0.000    0.000    0.000    0.000 
#
# Total GULP energy -396986.335273 kJ/mol
# GULP energy per Si atom -12405.822977 kJ/mol
# Density = 1.884152 g / cm^3
# Si number density = 18.884498 Si / 1000 Ang^3
#
#
#
# Elastic Constant Matrix: (Units=GPa)
#
#
# Indices 1 2 3 4 5 6 
#
# 1 51.3168 27.3404 5.3073 0.0000 0.0000 0.0000
# 2 27.3404 97.6475 22.9557 0.0000 0.0000 0.0000
# 3 5.3073 22.9557 107.2987 0.0000 0.0000 0.0000
# 4 0.0000 0.0000 0.0000 41.7828 0.0000 0.0000
# 5 0.0000 0.0000 0.0000 0.0000 26.1755 0.0000
# 6 0.0000 0.0000 0.0000 0.0000 0.0000 8.0840
#
#
#
# Elastic Compliance Matrix: (Units=1/GPa)
#
#
# Indices 1 2 3 4 5 6 
#
# 1 0.022910 -0.006474 0.000252 0.000000 0.000000 0.000000
# 2 -0.006474 0.012613 -0.002378 0.000000 0.000000 0.000000
# 3 0.000252 -0.002378 0.009816 0.000000 0.000000 0.000000
# 4 0.000000 0.000000 0.000000 0.023933 0.000000 0.000000
# 5 0.000000 0.000000 0.000000 0.000000 0.038204 0.000000
# 6 0.000000 0.000000 0.000000 0.000000 0.000000 0.123701
#
#
# Mechanical properties :
#
#
# Convention : Reuss Voigt Hill
#
# Bulk Modulus (GPa) = 35.53865 40.82996 38.18431
# Shear Modulus (GPa) = 19.39816 28.58577 23.99197
#
# Velocity S-wave (km/s) = 3.20847 3.89487 3.56822
# Velocity P-wave (km/s) = 5.70838 6.47260 6.10246
#
# Compressibility (1/GPa) = 0.02813838
#
# Stress axis : x y z
#
# Youngs Moduli (GPa) = 43.64943 79.28603 101.87342
#
# Poissons Ratio (x) = 0.51328 -0.02565
# Poissons Ratio (y) = 0.28257 0.24227
# Poissons Ratio (z) = -0.01099 0.18855
#
# Static dielectric constant tensor:
#      x y z
#    x 3.138020 0.000000 0.000000 
#    y 0.000000 3.588460 0.000000 
#    z 0.000000 0.000000 3.627340 
# 
# 
# High freq. dielectric constant tensor:
#      x y z
#    x 1.689090 0.000000 0.000000 
#    y 0.000000 1.741600 0.000000 
#    z 0.000000 0.000000 1.756370 
# 
# From -- ./inp_files/795.got.cif
#   From: 2010.03.12/outbox.cif.g09.slc.cpg/sg26_1_cif.got.tgz:795.got - 2010.04.14 03:33:09.
