data_PCOD8167281
_publ_section_title
;
Structure prediction by ZEFSAII (Michael W. Deem and Ramdas Pophale) SiO2 
 PCOD8167281
Probable space group: P M C 21
;
_chemical_formula_sum "Si O2"
_cell_formula_units_Z 32
_cell_length_a 9.462475
_cell_length_b 12.114352
_cell_length_c 14.661014
_cell_angle_alpha 90.000000
_cell_angle_beta 90.000000
_cell_angle_gamma 90.000000
_cell_volume 1680.617735
_symmetry_space_group_name_H-M "P M C 21"
_symmetry_group_IT_number 26
_symmetry_cell_setting 'orthorhombic'
loop_
_space_group_symop_operation_xyz
x,y,z
-x,-y,1/2+z
-x,y,z
x,-y,1/2+z
loop_
_atom_site_type_symbol
_atom_site_label
_atom_site_fract_x
_atom_site_fract_y
_atom_site_fract_z
Si Si1 0.660823 0.200499 0.015910
Si Si2 0.334704 0.672528 0.839499
Si Si3 0.838572 0.792132 0.147621
Si Si4 0.839988 0.955349 0.615166
Si Si5 0.338037 0.088219 0.289041
Si Si6 0.667803 0.398409 0.142746
Si Si7 0.331500 0.616107 0.038327
Si Si8 0.658283 0.841202 0.316884
O O1 0.500000 0.170811 0.042631
O O2 0.760720 0.094411 0.027998
O O3 0.719954 0.300391 0.076940
O O4 0.670011 0.230274 0.908936
O O5 0.500000 0.655908 0.831091
O O6 0.298072 0.803740 0.849124
O O7 0.270192 0.618952 0.745794
O O8 0.283299 0.609715 0.931452
O O9 0.745840 0.720430 0.080286
O O10 0.771845 0.790651 0.248336
O O11 0.000000 0.749710 0.153902
O O12 0.831623 0.914025 0.107134
O O13 0.760496 0.906233 0.701768
O O14 0.000000 0.913537 0.618861
O O15 0.500000 0.099328 0.256241
O O16 0.313279 0.971302 0.339885
O O17 0.500000 0.400262 0.144404
O O18 0.722455 0.510886 0.095911
O O19 0.500000 0.632091 0.045285
O O20 0.500000 0.828965 0.275233
#
# Coordination Sequence:
#
# PCOD8167281 Si02
#       8
#     4   4   4   4   4   4   4   4
#     4  10  19  33  56  84 113 145 181 227 279 329
#     4   9  17  31  54  83 112 141 178 231 283 322
#     4  10  22  39  54  75 114 152 181 226 284 332
#     4  10  20  33  51  78 110 146 183 221 273 333
#     4   9  16  31  52  76 109 144 180 225 275 323
#     4   9  18  34  55  82 113 145 181 229 283 327
#     4  10  21  35  58  84 106 143 193 235 274 331
#     4   9  19  32  54  86 113 144 185 226 273 337
#
# _framework density 19.040617000000001
#
# number of rings (size 3 to 8) (size 9 to 14) (size 15 to 20)
#    0.000    2.500    1.250    0.750    1.750    3.000 
#    0.000    5.000    0.000    1.500    0.000    0.000 
#    0.000    0.000    0.000    0.000    0.000    0.000 
#
# Total GULP energy -396585.369875 kJ/mol
# GULP energy per Si atom -12393.292809 kJ/mol
# Density = 1.899728 g / cm^3
# Si number density = 19.040617 Si / 1000 Ang^3
#
#
#
# Elastic Constant Matrix: (Units=GPa)
#
#
# Indices 1 2 3 4 5 6 
#
# 1 71.6688 33.5059 36.6625 0.0000 0.0000 0.0000
# 2 33.5059 73.2357 62.4606 0.0000 0.0000 0.0000
# 3 36.6625 62.4606 130.8179 0.0000 0.0000 0.0000
# 4 0.0000 0.0000 0.0000 27.3220 0.0000 0.0000
# 5 0.0000 0.0000 0.0000 0.0000 8.2200 0.0000
# 6 0.0000 0.0000 0.0000 0.0000 0.0000 16.0562
#
#
#
# Elastic Compliance Matrix: (Units=1/GPa)
#
#
# Indices 1 2 3 4 5 6 
#
# 1 0.018019 -0.006641 -0.001879 0.000000 0.000000 0.000000
# 2 -0.006641 0.025482 -0.010306 0.000000 0.000000 0.000000
# 3 -0.001879 -0.010306 0.013091 0.000000 0.000000 0.000000
# 4 0.000000 0.000000 0.000000 0.036601 0.000000 0.000000
# 5 0.000000 0.000000 0.000000 0.000000 0.121655 0.000000
# 6 0.000000 0.000000 0.000000 0.000000 0.000000 0.062281
#
#
# Mechanical properties :
#
#
# Convention : Reuss Voigt Hill
#
# Bulk Modulus (GPa) = 52.79553 60.10893 56.45223
# Shear Modulus (GPa) = 15.57172 19.85918 17.71545
#
# Velocity S-wave (km/s) = 2.86285 3.23304 3.05356
# Velocity P-wave (km/s) = 6.22221 6.75086 6.49192
#
# Compressibility (1/GPa) = 0.01894100
#
# Stress axis : x y z
#
# Youngs Moduli (GPa) = 55.49632 39.24282 76.38651
#
# Poissons Ratio (x) = 0.26063 0.14353
# Poissons Ratio (y) = 0.36857 0.78721
# Poissons Ratio (z) = 0.10428 0.40442
#
# Static dielectric constant tensor:
#      x y z
#    x 3.328570 0.000000 0.000000 
#    y 0.000000 3.529010 0.000000 
#    z 0.000000 0.000000 3.680310 
# 
# 
# High freq. dielectric constant tensor:
#      x y z
#    x 1.705690 0.000000 0.000000 
#    y 0.000000 1.732800 0.000000 
#    z 0.000000 0.000000 1.741670 
# 
# From -- ./inp_files/4126.got.cif
#   From: 2010.03.12/outbox.cif.g09.slc.cpg/sg26_3_cif.got.tgz:4126.got - 2010.04.14 03:33:09.
