data_PCOD8167956
_publ_section_title
;
Structure prediction by ZEFSAII (Michael W. Deem and Ramdas Pophale) SiO2 
 PCOD8167956
Probable space group: P C C 2
;
_chemical_formula_sum "Si O2"
_cell_formula_units_Z 24
_cell_length_a 12.291253
_cell_length_b 10.709865
_cell_length_c 7.931538
_cell_angle_alpha 90.000000
_cell_angle_beta 90.000000
_cell_angle_gamma 90.000000
_cell_volume 1044.089105
_symmetry_space_group_name_H-M "P C C 2"
_symmetry_group_IT_number 27
_symmetry_cell_setting 'orthorhombic'
loop_
_space_group_symop_operation_xyz
x,y,z
-x,-y,z
-x,y,1/2+z
x,-y,1/2+z
loop_
_atom_site_type_symbol
_atom_site_label
_atom_site_fract_x
_atom_site_fract_y
_atom_site_fract_z
Si Si1 0.625104 0.527402 0.194690
Si Si2 0.110744 0.147832 0.967408
Si Si3 0.691411 0.696440 0.886990
Si Si4 0.126633 0.133667 0.360265
Si Si5 0.479133 0.146252 0.720142
Si Si6 0.347026 0.743629 0.913977
O O1 0.500000 0.500000 0.155336
O O2 0.681423 0.391059 0.217763
O O3 0.641658 0.594024 0.381964
O O4 0.680221 0.612530 0.053478
O O5 0.188545 0.246186 0.876121
O O6 0.986291 0.185799 0.933197
O O7 0.138491 0.012029 0.896732
O O8 0.133064 0.153556 0.163267
O O9 0.600381 0.806139 0.873428
O O10 0.224102 0.211355 0.444409
O O11 0.599548 0.205986 0.737762
O O12 0.424479 0.194032 0.550616
O O13 0.500000 0.000000 0.723661
#
# Coordination Sequence:
#
# PCOD8167956 Si02
#       6
#     4   4   4   4   4   4
#     4  12  25  47  72 104 142 203 248 296 362 442
#     4  11  25  47  75 109 146 194 244 305 378 445
#     4  12  26  47  74 104 146 196 253 304 365 441
#     4  11  25  46  77 107 148 190 245 303 380 450
#     4  12  27  44  68 111 152 187 235 308 379 440
#     4  12  26  44  73 104 145 192 246 297 367 445
#
# _framework density 22.986543000000001
#
# number of rings (size 3 to 8) (size 9 to 14) (size 15 to 20)
#    0.000    0.333    3.333    6.000    7.000    0.000 
#    0.000    1.667    0.000    0.000    0.000    0.000 
#    0.000    0.000    0.000    0.000    0.000    0.000 
#
# Total GULP energy -297565.058497 kJ/mol
# GULP energy per Si atom -12398.544104 kJ/mol
# Density = 2.293423 g / cm^3
# Si number density = 22.986543 Si / 1000 Ang^3
#
#
#
# Elastic Constant Matrix: (Units=GPa)
#
#
# Indices 1 2 3 4 5 6 
#
# 1 177.4691 70.6371 18.7738 0.0000 0.0000 0.0000
# 2 70.6371 131.9590 12.8933 0.0000 0.0000 0.0000
# 3 18.7738 12.8933 55.7421 0.0000 0.0000 0.0000
# 4 0.0000 0.0000 0.0000 31.2764 0.0000 0.0000
# 5 0.0000 0.0000 0.0000 0.0000 31.8890 0.0000
# 6 0.0000 0.0000 0.0000 0.0000 0.0000 50.8781
#
#
#
# Elastic Compliance Matrix: (Units=1/GPa)
#
#
# Indices 1 2 3 4 5 6 
#
# 1 0.007296 -0.003750 -0.001590 0.000000 0.000000 0.000000
# 2 -0.003750 0.009681 -0.000976 0.000000 0.000000 0.000000
# 3 -0.001590 -0.000976 0.018701 0.000000 0.000000 0.000000
# 4 0.000000 0.000000 0.000000 0.031973 0.000000 0.000000
# 5 0.000000 0.000000 0.000000 0.000000 0.031359 0.000000
# 6 0.000000 0.000000 0.000000 0.000000 0.000000 0.019655
#
#
# Mechanical properties :
#
#
# Convention : Reuss Voigt Hill
#
# Bulk Modulus (GPa) = 43.39236 63.30870 53.35053
# Shear Modulus (GPa) = 35.97703 40.33310 38.15507
#
# Velocity S-wave (km/s) = 3.96047 4.19339 4.07859
# Velocity P-wave (km/s) = 6.31126 7.14475 6.74090
#
# Compressibility (1/GPa) = 0.02304553
#
# Stress axis : x y z
#
# Youngs Moduli (GPa) = 137.07040 103.29704 53.47308
#
# Poissons Ratio (x) = 0.38736 0.08501
# Poissons Ratio (y) = 0.51400 0.05220
# Poissons Ratio (z) = 0.21791 0.10084
#
# Static dielectric constant tensor:
#      x y z
#    x 4.653340 0.000000 0.000000 
#    y 0.000000 4.399940 0.000000 
#    z 0.000000 0.000000 4.499390 
# 
# 
# High freq. dielectric constant tensor:
#      x y z
#    x 1.896710 0.000000 0.000000 
#    y 0.000000 1.915150 0.000000 
#    z 0.000000 0.000000 1.937220 
# 
# From -- ./inp_files/1393.got.cif
#   From: 2010.03.12/outbox.cif.g09.slc.cpg/sg27_1_cif.got.tgz:1393.got - 2010.04.14 03:36:05.
