data_PCOD8167129
_publ_section_title
;
Structure prediction by ZEFSAII (Michael W. Deem and Ramdas Pophale) SiO2 
 PCOD8167129
Probable space group: P M C 21
;
_chemical_formula_sum "Si O2"
_cell_formula_units_Z 32
_cell_length_a 8.888462
_cell_length_b 11.373310
_cell_length_c 16.520775
_cell_angle_alpha 90.000000
_cell_angle_beta 90.000000
_cell_angle_gamma 90.000000
_cell_volume 1670.105527
_symmetry_space_group_name_H-M "P M C 21"
_symmetry_group_IT_number 26
_symmetry_cell_setting 'orthorhombic'
loop_
_space_group_symop_operation_xyz
x,y,z
-x,-y,1/2+z
-x,y,z
x,-y,1/2+z
loop_
_atom_site_type_symbol
_atom_site_label
_atom_site_fract_x
_atom_site_fract_y
_atom_site_fract_z
Si Si1 0.177397 0.563561 0.144930
Si Si2 0.167566 0.404486 0.906667
Si Si3 0.677230 0.928855 0.379491
Si Si4 0.325383 0.718048 0.270141
Si Si5 0.167586 0.649087 0.972617
Si Si6 0.321929 0.187786 0.353222
Si Si7 0.675329 0.681902 0.692923
Si Si8 0.675171 0.758829 0.519229
O O1 0.224899 0.679579 0.194690
O O2 0.249926 0.444961 0.179907
O O3 0.000000 0.545429 0.148041
O O4 0.234202 0.595088 0.055167
O O5 0.293299 0.374535 0.841056
O O6 0.159815 0.544159 0.908492
O O7 0.000000 0.355380 0.885676
O O8 0.222741 0.351359 0.992163
O O9 0.500000 0.941356 0.381508
O O10 0.725021 0.845307 0.304464
O O11 0.727827 0.873435 0.466776
O O12 0.748284 0.056681 0.362170
O O13 0.500000 0.714911 0.246220
O O14 0.275729 0.747172 0.935669
O O15 0.000000 0.701503 0.986626
O O16 0.500000 0.182494 0.347561
O O17 0.258089 0.251806 0.272259
O O18 0.500000 0.656675 0.704983
O O19 0.702099 0.769420 0.615871
O O20 0.500000 0.732728 0.500548
#
# Coordination Sequence:
#
# PCOD8167129 Si02
#       8
#     4   4   4   4   4   4   4   4
#     4  11  22  37  55  80 114 145 180 225 277 337
#     4  10  18  32  54  80 108 143 178 216 275 330
#     4   8  17  36  56  78 109 142 182 226 271 323
#     4  10  20  35  56  83 109 139 179 226 272 321
#     4  10  22  37  52  75 111 147 178 221 274 329
#     4  10  21  37  56  81 111 146 186 229 276 328
#     4  10  20  34  56  85 112 141 184 234 281 329
#     4   9  17  32  55  80 108 143 183 231 274 319
#
# _framework density 19.160466
#
# number of rings (size 3 to 8) (size 9 to 14) (size 15 to 20)
#    0.000    2.250    1.250    2.625    0.000    4.500 
#    2.250    3.125    0.000    0.000    0.000    0.000 
#    0.000    0.000    0.000    0.000    0.000    0.000 
#
# Total GULP energy -396578.648450 kJ/mol
# GULP energy per Si atom -12393.082764 kJ/mol
# Density = 1.911686 g / cm^3
# Si number density = 19.160466 Si / 1000 Ang^3
#
#
#
# Elastic Constant Matrix: (Units=GPa)
#
#
# Indices 1 2 3 4 5 6 
#
# 1 31.4534 29.9110 20.8199 0.0000 0.0000 0.0000
# 2 29.9110 134.7830 67.9064 0.0000 0.0000 0.0000
# 3 20.8199 67.9064 101.3796 0.0000 0.0000 0.0000
# 4 0.0000 0.0000 0.0000 27.5299 0.0000 0.0000
# 5 0.0000 0.0000 0.0000 0.0000 25.9817 0.0000
# 6 0.0000 0.0000 0.0000 0.0000 0.0000 9.9366
#
#
#
# Elastic Compliance Matrix: (Units=1/GPa)
#
#
# Indices 1 2 3 4 5 6 
#
# 1 0.041113 -0.007350 -0.003520 0.000000 0.000000 0.000000
# 2 -0.007350 0.012513 -0.006872 0.000000 0.000000 0.000000
# 3 -0.003520 -0.006872 0.015190 0.000000 0.000000 0.000000
# 4 0.000000 0.000000 0.000000 0.036324 0.000000 0.000000
# 5 0.000000 0.000000 0.000000 0.000000 0.038489 0.000000
# 6 0.000000 0.000000 0.000000 0.000000 0.000000 0.100638
#
#
# Mechanical properties :
#
#
# Convention : Reuss Voigt Hill
#
# Bulk Modulus (GPa) = 30.00181 56.09896 43.05039
# Shear Modulus (GPa) = 17.19043 22.62158 19.90600
#
# Velocity S-wave (km/s) = 2.99855 3.43977 3.22671
# Velocity P-wave (km/s) = 5.26123 6.71700 6.03319
#
# Compressibility (1/GPa) = 0.03333132
#
# Stress axis : x y z
#
# Youngs Moduli (GPa) = 24.32335 79.91905 65.83459
#
# Poissons Ratio (x) = 0.58744 0.23172
# Poissons Ratio (y) = 0.17879 0.45240
# Poissons Ratio (z) = 0.08561 0.54918
#
# Static dielectric constant tensor:
#      x y z
#    x 3.357540 0.000000 0.000000 
#    y 0.000000 3.683800 0.000000 
#    z 0.000000 0.000000 3.724850 
# 
# 
# High freq. dielectric constant tensor:
#      x y z
#    x 1.728270 0.000000 0.000000 
#    y 0.000000 1.731160 0.000000 
#    z 0.000000 0.000000 1.748970 
# 
# From -- ./inp_files/4251.got.cif
#   From: 2010.03.12/outbox.cif.g09.slc.cpg/sg26_3_cif.got.tgz:4251.got - 2010.04.14 03:33:09.
