data_PCOD8167136
_publ_section_title
;
Structure prediction by ZEFSAII (Michael W. Deem and Ramdas Pophale) SiO2 
 PCOD8167136
Probable space group: P M C 21
;
_chemical_formula_sum "Si O2"
_cell_formula_units_Z 32
_cell_length_a 8.613009
_cell_length_b 14.683776
_cell_length_c 12.674339
_cell_angle_alpha 90.000000
_cell_angle_beta 90.000000
_cell_angle_gamma 90.000000
_cell_volume 1602.942599
_symmetry_space_group_name_H-M "P M C 21"
_symmetry_group_IT_number 26
_symmetry_cell_setting 'orthorhombic'
loop_
_space_group_symop_operation_xyz
x,y,z
-x,-y,1/2+z
-x,y,z
x,-y,1/2+z
loop_
_atom_site_type_symbol
_atom_site_label
_atom_site_fract_x
_atom_site_fract_y
_atom_site_fract_z
Si Si1 0.684034 0.136111 0.637410
Si Si2 0.179406 0.353748 0.161008
Si Si3 0.183630 0.750696 0.961399
Si Si4 0.184651 0.560622 0.865566
Si Si5 0.320695 0.942972 0.569059
Si Si6 0.321257 0.184821 0.258208
Si Si7 0.185568 0.634590 0.431932
Si Si8 0.316877 0.822888 0.373678
O O1 0.500000 0.145515 0.626550
O O2 0.764699 0.221876 0.579408
O O3 0.729568 0.132508 0.761460
O O4 0.747593 0.045028 0.578317
O O5 0.246617 0.424417 0.246437
O O6 0.203297 0.253889 0.204878
O O7 0.000000 0.373795 0.144277
O O8 0.260240 0.361273 0.048498
O O9 0.238988 0.645964 0.939004
O O10 0.267515 0.821963 0.880251
O O11 0.000000 0.759389 0.948079
O O12 0.253103 0.462230 0.893592
O O13 0.000000 0.558304 0.870404
O O14 0.500000 0.949758 0.540061
O O15 0.298522 0.905188 0.688173
O O16 0.246418 0.882436 0.472836
O O17 0.500000 0.217336 0.253267
O O18 0.248538 0.720990 0.368703
O O19 0.000000 0.637477 0.427411
O O20 0.500000 0.814839 0.387233
#
# Coordination Sequence:
#
# PCOD8167136 Si02
#       8
#     4   4   4   4   4   4   4   4
#     4  10  22  38  59  83 112 151 191 230 277 339
#     4   9  17  31  50  76 109 141 184 237 282 323
#     4  10  21  38  57  81 115 147 183 236 286 328
#     4   8  17  33  53  77 107 149 193 228 273 334
#     4   9  19  35  58  83 107 144 188 227 272 333
#     4  10  18  32  58  82 104 141 189 231 274 331
#     4  10  19  33  56  81 108 148 191 232 280 338
#     4  10  21  38  57  83 116 143 181 237 284 328
#
# _framework density 19.963287000000001
#
# number of rings (size 3 to 8) (size 9 to 14) (size 15 to 20)
#    0.000    2.500    1.250    1.500    1.750    1.500 
#    0.000    7.500    0.000    0.000    0.000    0.000 
#    0.000    0.000    0.000    0.000    0.000    0.000 
#
# Total GULP energy -396422.494602 kJ/mol
# GULP energy per Si atom -12388.202956 kJ/mol
# Density = 1.991785 g / cm^3
# Si number density = 19.963287 Si / 1000 Ang^3
#
#
#
# Elastic Constant Matrix: (Units=GPa)
#
#
# Indices 1 2 3 4 5 6 
#
# 1 16.4707 15.1550 26.3703 0.0000 0.0000 0.0000
# 2 15.1550 124.5309 56.7545 0.0000 0.0000 0.0000
# 3 26.3703 56.7545 112.0212 0.0000 0.0000 0.0000
# 4 0.0000 0.0000 0.0000 20.4178 0.0000 0.0000
# 5 0.0000 0.0000 0.0000 0.0000 25.1756 0.0000
# 6 0.0000 0.0000 0.0000 0.0000 0.0000 34.7460
#
#
#
# Elastic Compliance Matrix: (Units=1/GPa)
#
#
# Indices 1 2 3 4 5 6 
#
# 1 0.097758 -0.001832 -0.022085 0.000000 0.000000 0.000000
# 2 -0.001832 0.010475 -0.004876 0.000000 0.000000 0.000000
# 3 -0.022085 -0.004876 0.016596 0.000000 0.000000 0.000000
# 4 0.000000 0.000000 0.000000 0.048977 0.000000 0.000000
# 5 0.000000 0.000000 0.000000 0.000000 0.039721 0.000000
# 6 0.000000 0.000000 0.000000 0.000000 0.000000 0.028780
#
#
# Mechanical properties :
#
#
# Convention : Reuss Voigt Hill
#
# Bulk Modulus (GPa) = 14.87114 49.95361 32.41237
# Shear Modulus (GPa) = 15.51317 26.38408 20.94863
#
# Velocity S-wave (km/s) = 2.79065 3.63937 3.24289
# Velocity P-wave (km/s) = 4.22481 6.53736 5.50391
#
# Compressibility (1/GPa) = 0.06724436
#
# Stress axis : x y z
#
# Youngs Moduli (GPa) = 10.22937 95.46292 60.25526
#
# Poissons Ratio (x) = 0.17487 1.33071
# Poissons Ratio (y) = 0.01874 0.29380
# Poissons Ratio (z) = 0.22591 0.46548
#
# Static dielectric constant tensor:
#      x y z
#    x 3.278440 0.000000 0.000000 
#    y 0.000000 3.762010 0.000000 
#    z 0.000000 0.000000 4.125540 
# 
# 
# High freq. dielectric constant tensor:
#      x y z
#    x 1.740040 0.000000 0.000000 
#    y 0.000000 1.775140 0.000000 
#    z 0.000000 0.000000 1.789600 
# 
# From -- ./inp_files/2998.got.cif
#   From: 2010.03.12/outbox.cif.g09.slc.cpg/sg26_2_cif.got.tgz:2998.got - 2010.04.14 03:33:09.
