data_PCOD8167690
_publ_section_title
;
Structure prediction by ZEFSAII (Michael W. Deem and Ramdas Pophale) SiO2 
 PCOD8167690
Probable space group: P M C 21
;
_chemical_formula_sum "Si O2"
_cell_formula_units_Z 32
_cell_length_a 8.996161
_cell_length_b 11.864550
_cell_length_c 15.093555
_cell_angle_alpha 90.000000
_cell_angle_beta 90.000000
_cell_angle_gamma 90.000000
_cell_volume 1611.016660
_symmetry_space_group_name_H-M "P M C 21"
_symmetry_group_IT_number 26
_symmetry_cell_setting 'orthorhombic'
loop_
_space_group_symop_operation_xyz
x,y,z
-x,-y,1/2+z
-x,y,z
x,-y,1/2+z
loop_
_atom_site_type_symbol
_atom_site_label
_atom_site_fract_x
_atom_site_fract_y
_atom_site_fract_z
Si Si1 0.174862 0.897729 0.989570
Si Si2 0.828220 0.026461 0.810812
Si Si3 0.163899 0.268741 0.870847
Si Si4 0.325244 0.509994 0.325325
Si Si5 0.673167 0.521371 0.625217
Si Si6 0.325384 0.045280 0.138152
Si Si7 0.167451 0.741955 0.572302
Si Si8 0.326510 0.342097 0.477398
O O1 0.000000 0.893753 0.005780
O O2 0.216767 0.969004 0.903114
O O3 0.234008 0.771649 0.979146
O O4 0.246752 0.956116 0.074510
O O5 0.800263 0.160422 0.811462
O O6 0.000000 0.999399 0.787505
O O7 0.715965 0.979421 0.738812
O O8 0.282338 0.365463 0.855455
O O9 0.000000 0.317049 0.848583
O O10 0.167541 0.222516 0.970401
O O11 0.500000 0.505567 0.327426
O O12 0.267098 0.490089 0.225702
O O13 0.265013 0.416770 0.394627
O O14 0.500000 0.554911 0.622744
O O15 0.769546 0.616807 0.579085
O O16 0.700072 0.406994 0.570161
O O17 0.500000 0.036330 0.123599
O O18 0.273179 0.172796 0.123589
O O19 0.000000 0.747606 0.610988
O O20 0.500000 0.314090 0.464835
#
# Coordination Sequence:
#
# PCOD8167690 Si02
#       8
#     4   4   4   4   4   4   4   4
#     4  11  24  44  66  90 127 168 209 258 313 371
#     4  10  23  44  65  91 126 165 208 260 312 368
#     4  10  21  40  65  90 120 156 204 257 309 365
#     4  10  22  39  61  89 124 161 203 251 304 366
#     4  10  22  40  61  90 124 162 204 250 306 366
#     4  12  26  42  65  95 126 164 209 257 313 376
#     4  11  22  41  66  92 122 158 206 259 310 367
#     4  10  22  40  59  87 129 166 203 254 307 363
#
# _framework density 19.863233999999999
#
# number of rings (size 3 to 8) (size 9 to 14) (size 15 to 20)
#    0.000    1.500    2.500    1.875    3.500    3.500 
#    0.000    0.000    0.000    0.000    0.000    0.000 
#    0.000    0.000    0.000    0.000    0.000    0.000 
#
# Total GULP energy -396901.991435 kJ/mol
# GULP energy per Si atom -12403.187232 kJ/mol
# Density = 1.981802 g / cm^3
# Si number density = 19.863234 Si / 1000 Ang^3
#
#
#
# Elastic Constant Matrix: (Units=GPa)
#
#
# Indices 1 2 3 4 5 6 
#
# 1 76.0997 40.4126 32.7950 0.0000 0.0000 0.0000
# 2 40.4126 99.8063 21.7675 0.0000 0.0000 0.0000
# 3 32.7950 21.7675 85.7781 0.0000 0.0000 0.0000
# 4 0.0000 0.0000 0.0000 29.6506 0.0000 0.0000
# 5 0.0000 0.0000 0.0000 0.0000 25.2424 0.0000
# 6 0.0000 0.0000 0.0000 0.0000 0.0000 33.9708
#
#
#
# Elastic Compliance Matrix: (Units=1/GPa)
#
#
# Indices 1 2 3 4 5 6 
#
# 1 0.018997 -0.006466 -0.005622 0.000000 0.000000 0.000000
# 2 -0.006466 0.012807 -0.000778 0.000000 0.000000 0.000000
# 3 -0.005622 -0.000778 0.014005 0.000000 0.000000 0.000000
# 4 0.000000 0.000000 0.000000 0.033726 0.000000 0.000000
# 5 0.000000 0.000000 0.000000 0.000000 0.039616 0.000000
# 6 0.000000 0.000000 0.000000 0.000000 0.000000 0.029437
#
#
# Mechanical properties :
#
#
# Convention : Reuss Voigt Hill
#
# Bulk Modulus (GPa) = 49.80806 50.18156 49.99481
# Shear Modulus (GPa) = 27.62229 28.88670 28.25449
#
# Velocity S-wave (km/s) = 3.73315 3.81764 3.77563
# Velocity P-wave (km/s) = 6.61149 6.68961 6.65067
#
# Compressibility (1/GPa) = 0.02007707
#
# Stress axis : x y z
#
# Youngs Moduli (GPa) = 52.63906 78.08096 71.40343
#
# Poissons Ratio (x) = 0.50487 0.40145
# Poissons Ratio (y) = 0.34036 0.05555
# Poissons Ratio (z) = 0.29595 0.06074
#
# Static dielectric constant tensor:
#      x y z
#    x 3.538490 0.000000 0.000000 
#    y 0.000000 3.538780 0.000000 
#    z 0.000000 0.000000 3.867740 
# 
# 
# High freq. dielectric constant tensor:
#      x y z
#    x 1.770250 0.000000 0.000000 
#    y 0.000000 1.782790 0.000000 
#    z 0.000000 0.000000 1.783180 
# 
# From -- ./inp_files/4081.got.cif
#   From: 2010.03.12/outbox.cif.g09.slc.cpg/sg26_3_cif.got.tgz:4081.got - 2010.04.14 03:33:09.
