data_PCOD8167192
_publ_section_title
;
Structure prediction by ZEFSAII (Michael W. Deem and Ramdas Pophale) SiO2 
 PCOD8167192
Probable space group: P M C 21
;
_chemical_formula_sum "Si O2"
_cell_formula_units_Z 32
_cell_length_a 12.931941
_cell_length_b 17.499697
_cell_length_c 5.311265
_cell_angle_alpha 90.000000
_cell_angle_beta 90.000000
_cell_angle_gamma 90.000000
_cell_volume 1201.966087
_symmetry_space_group_name_H-M "P M C 21"
_symmetry_group_IT_number 26
_symmetry_cell_setting 'orthorhombic'
loop_
_space_group_symop_operation_xyz
x,y,z
-x,-y,1/2+z
-x,y,z
x,-y,1/2+z
loop_
_atom_site_type_symbol
_atom_site_label
_atom_site_fract_x
_atom_site_fract_y
_atom_site_fract_z
Si Si1 0.360553 0.526588 0.704180
Si Si2 0.117158 0.714340 0.331903
Si Si3 0.623439 0.215300 0.633181
Si Si4 0.861749 0.536859 0.261822
Si Si5 0.623645 0.299201 0.132704
Si Si6 0.376432 0.041472 0.631596
Si Si7 0.877219 0.039036 0.330562
Si Si8 0.122877 0.786511 0.832272
O O1 0.422628 0.489908 0.466351
O O2 0.259642 0.476833 0.766180
O O3 0.334083 0.615328 0.669084
O O4 0.115616 0.625508 0.277812
O O5 0.169639 0.735554 0.601339
O O6 0.000000 0.745620 0.349125
O O7 0.172973 0.758402 0.098278
O O8 0.500000 0.218497 0.640104
O O9 0.663642 0.246752 0.363596
O O10 0.661594 0.128390 0.662923
O O11 0.666191 0.266458 0.866403
O O12 0.912395 0.496091 0.506273
O O13 0.500000 0.302630 0.132354
O O14 0.500000 0.036972 0.630353
O O15 0.333212 0.008790 0.365583
O O16 0.846781 0.126355 0.284045
O O17 0.000000 0.027927 0.339025
O O18 0.830771 0.010890 0.599037
O O19 0.000000 0.774130 0.851446
#
# Coordination Sequence:
#
# PCOD8167192 Si02
#       8
#     4   4   4   4   4   4   4   4
#     4  10  21  36  52  70  93 124 156 201 251 293
#     4  10  19  31  48  69  95 128 164 201 243 288
#     4   9  17  28  42  65  96 129 166 203 237 278
#     4  10  21  36  52  70  93 124 156 201 251 293
#     4  10  19  31  48  69  95 128 164 201 243 288
#     4   9  15  23  37  58  88 129 168 195 227 273
#     4   9  15  23  37  58  88 129 168 195 227 273
#     4   9  17  28  42  65  96 129 166 203 237 278
#
# _framework density 26.623049000000002
#
# number of rings (size 3 to 8) (size 9 to 14) (size 15 to 20)
#    0.000    2.500    0.000    3.000    0.000    7.000 
#    0.000    0.000    0.000    0.000    0.000    0.000 
#    0.000    0.000    0.000  315.000    0.000  140.000 
#
# Total GULP energy -396838.278045 kJ/mol
# GULP energy per Si atom -12401.196189 kJ/mol
# Density = 2.656245 g / cm^3
# Si number density = 26.623049 Si / 1000 Ang^3
#
#
#
# Elastic Constant Matrix: (Units=GPa)
#
#
# Indices 1 2 3 4 5 6 
#
# 1 37.1720 -22.5206 13.0614 0.0000 0.0000 0.0000
# 2 -22.5206 204.4352 125.6322 0.0000 0.0000 0.0000
# 3 13.0614 125.6322 295.8736 0.0000 0.0000 0.0000
# 4 0.0000 0.0000 0.0000 63.4676 0.0000 0.0000
# 5 0.0000 0.0000 0.0000 0.0000 -9.3440 0.0000
# 6 0.0000 0.0000 0.0000 0.0000 0.0000 49.0751
#
#
#
# Elastic Compliance Matrix: (Units=1/GPa)
#
#
# Indices 1 2 3 4 5 6 
#
# 1 0.031866 0.005919 -0.003920 0.000000 0.000000 0.000000
# 2 0.005919 0.007718 -0.003539 0.000000 0.000000 0.000000
# 3 -0.003920 -0.003539 0.005055 0.000000 0.000000 0.000000
# 4 0.000000 0.000000 0.000000 0.015756 0.000000 0.000000
# 5 0.000000 0.000000 0.000000 0.000000 -0.107021 0.000000
# 6 0.000000 0.000000 0.000000 0.000000 0.000000 0.020377
#
#
# Mechanical properties :
#
#
# Convention : Reuss Voigt Hill
#
# Bulk Modulus (GPa) = 24.06126 85.53631 54.79879
# Shear Modulus (GPa) = -536.68656 48.72692 -243.97982
#
# Velocity S-wave (km/s) = -14.21354 4.28279 -9.58339
# Velocity P-wave (km/s) = 16.13410 7.52694 10.09094
#
# Compressibility (1/GPa) = 0.04156058
#
# Stress axis : x y z
#
# Youngs Moduli (GPa) = 31.38173 129.56437 197.80819
#
# Poissons Ratio (x) = -0.76694 0.77544
# Poissons Ratio (y) = -0.18576 0.69996
# Poissons Ratio (z) = 0.12302 0.45847
#
# Static dielectric constant tensor:
#      x y z
#    x 4.714020 0.000000 0.000000 
#    y 0.000000 4.474660 0.000000 
#    z 0.000000 0.000000 5.919940 
# 
# 
# High freq. dielectric constant tensor:
#      x y z
#    x 2.104360 0.000000 0.000000 
#    y 0.000000 2.054020 0.000000 
#    z 0.000000 0.000000 2.096450 
# 
# From -- ./inp_files/799.got.cif
#   From: 2010.03.12/outbox.cif.g09.slc.cpg/sg26_1_cif.got.tgz:799.got - 2010.04.14 03:33:09.
