data_PCOD8167023
_publ_section_title
;
Structure prediction by ZEFSAII (Michael W. Deem and Ramdas Pophale) SiO2 
 PCOD8167023
Probable space group: P M M 2
;
_chemical_formula_sum "Si O2"
_cell_formula_units_Z 28
_cell_length_a 9.302928
_cell_length_b 9.711213
_cell_length_c 18.087719
_cell_angle_alpha 90.000000
_cell_angle_beta 90.000000
_cell_angle_gamma 90.000000
_cell_volume 1634.093649
_symmetry_space_group_name_H-M "P M M 2"
_symmetry_group_IT_number 25
_symmetry_cell_setting 'orthorhombic'
loop_
_space_group_symop_operation_xyz
x,y,z
-x,-y,z
-x,y,z
x,-y,z
loop_
_atom_site_type_symbol
_atom_site_label
_atom_site_fract_x
_atom_site_fract_y
_atom_site_fract_z
Si Si1 0.168352 0.158402 0.302560
Si Si2 0.332847 0.158380 0.448099
Si Si3 0.332913 0.659522 0.586206
Si Si4 0.160364 0.663885 0.008293
Si Si5 0.162286 0.336261 0.729749
Si Si6 0.828806 0.346575 0.170632
Si Si7 0.337883 0.335603 0.870025
O O1 0.246510 0.209205 0.376527
O O2 0.230420 0.245079 0.233674
O O3 0.000000 0.183556 0.313705
O O4 0.204086 0.000000 0.286028
O O5 0.500000 0.179525 0.431259
O O6 0.282425 0.251735 0.516276
O O7 0.297016 0.000000 0.467026
O O8 0.500000 0.683250 0.604557
O O9 0.301278 0.500000 0.568831
O O10 0.242150 0.713570 0.655804
O O11 0.152914 0.500000 0.004951
O O12 0.220000 0.707304 0.089409
O O13 0.000000 0.723535 0.994602
O O14 0.265989 0.721759 0.945208
O O15 0.161142 0.500000 0.732763
O O16 0.247780 0.278025 0.800542
O O17 0.000000 0.278013 0.730576
O O18 0.768161 0.500000 0.185964
O O19 0.000000 0.350143 0.171208
O O20 0.500000 0.278782 0.865069
O O21 0.337687 0.500000 0.869648
#
# Coordination Sequence:
#
# PCOD8167023 Si02
#       7
#     4   4   4   4   4   4   4
#     4   9  17  29  45  64  84 107 139 177 211 245
#     4   9  18  32  47  62  83 112 142 170 206 254
#     4   9  17  29  44  62  85 111 139 173 211 248
#     4   8  13  22  36  53  75 105 139 171 203 243
#     4   9  16  25  38  58  84 112 141 172 207 248
#     4   8  14  25  41  61  85 112 140 171 210 253
#     4   9  15  22  34  54  82 113 140 168 206 248
#
# _framework density 17.134881
#
# number of rings (size 3 to 8) (size 9 to 14) (size 15 to 20)
#    0.000    3.286    0.000    1.714    0.000    4.571 
#    0.000    0.714    0.000    0.857    0.000    1.000 
#    0.000    3.429    0.000    0.000    0.000    0.000 
#
# Total GULP energy -347107.570028 kJ/mol
# GULP energy per Si atom -12396.698930 kJ/mol
# Density = 1.709588 g / cm^3
# Si number density = 17.134881 Si / 1000 Ang^3
#
#
#
# Elastic Constant Matrix: (Units=GPa)
#
#
# Indices 1 2 3 4 5 6 
#
# 1 86.1867 24.7450 79.1943 0.0000 0.0000 0.0000
# 2 24.7450 36.3556 54.5193 0.0000 0.0000 0.0000
# 3 79.1943 54.5193 195.0160 0.0000 0.0000 0.0000
# 4 0.0000 0.0000 0.0000 3.4056 0.0000 0.0000
# 5 0.0000 0.0000 0.0000 0.0000 25.1914 0.0000
# 6 0.0000 0.0000 0.0000 0.0000 0.0000 10.6594
#
#
#
# Elastic Compliance Matrix: (Units=1/GPa)
#
#
# Indices 1 2 3 4 5 6 
#
# 1 0.018620 -0.002297 -0.006919 0.000000 0.000000 0.000000
# 2 -0.002297 0.047645 -0.012387 0.000000 0.000000 0.000000
# 3 -0.006919 -0.012387 0.011401 0.000000 0.000000 0.000000
# 4 0.000000 0.000000 0.000000 0.293637 0.000000 0.000000
# 5 0.000000 0.000000 0.000000 0.000000 0.039696 0.000000
# 6 0.000000 0.000000 0.000000 0.000000 0.000000 0.093814
#
#
# Mechanical properties :
#
#
# Convention : Reuss Voigt Hill
#
# Bulk Modulus (GPa) = 29.02009 70.49728 49.75868
# Shear Modulus (GPa) = 8.93645 18.45793 13.69719
#
# Velocity S-wave (km/s) = 2.28619 3.28565 2.83039
# Velocity P-wave (km/s) = 4.89305 7.45828 6.30745
#
# Compressibility (1/GPa) = 0.03445889
#
# Stress axis : x y z
#
# Youngs Moduli (GPa) = 53.70509 20.98845 87.71523
#
# Poissons Ratio (x) = 0.04822 0.60692
# Poissons Ratio (y) = 0.12339 1.08652
# Poissons Ratio (z) = 0.37160 0.25998
#
# Static dielectric constant tensor:
#      x y z
#    x 3.167190 0.000000 0.000000 
#    y 0.000000 2.805110 0.000000 
#    z 0.000000 0.000000 3.507540 
# 
# 
# High freq. dielectric constant tensor:
#      x y z
#    x 1.648610 0.000000 0.000000 
#    y 0.000000 1.604760 0.000000 
#    z 0.000000 0.000000 1.676860 
# 
# From -- ./inp_files/6216.got.cif
#   From: 2010.03.12/outbox.cif.g09.slc.cpg/sg25_4_cif.got.tgz:6216.got - 2010.04.14 03:30:10.
