data_PCOD8167902
_publ_section_title
;
Structure prediction by ZEFSAII (Michael W. Deem and Ramdas Pophale) SiO2 
 PCOD8167902
Probable space group: P C C 2
;
_chemical_formula_sum "Si O2"
_cell_formula_units_Z 32
_cell_length_a 9.013893
_cell_length_b 12.843595
_cell_length_c 13.430847
_cell_angle_alpha 90.000000
_cell_angle_beta 90.000000
_cell_angle_gamma 90.000000
_cell_volume 1554.899782
_symmetry_space_group_name_H-M "P C C 2"
_symmetry_group_IT_number 27
_symmetry_cell_setting 'orthorhombic'
loop_
_space_group_symop_operation_xyz
x,y,z
-x,-y,z
-x,y,1/2+z
x,-y,1/2+z
loop_
_atom_site_type_symbol
_atom_site_label
_atom_site_fract_x
_atom_site_fract_y
_atom_site_fract_z
Si Si1 0.109992 0.091007 0.132200
Si Si2 0.694803 0.608028 0.740513
Si Si3 0.609992 0.408993 0.016152
Si Si4 0.194803 0.108028 0.907839
Si Si5 0.977221 0.746361 0.765257
Si Si6 0.146933 0.436547 0.361129
Si Si7 0.522779 0.753639 0.883095
Si Si8 0.353067 0.936547 0.787223
O O1 0.270246 0.077026 0.182735
O O2 0.043709 0.201659 0.166358
O O3 0.125223 0.087917 0.014484
O O4 0.000000 0.000000 0.166923
O O5 0.625223 0.587916 0.633868
O O6 0.836215 0.681899 0.729990
O O7 0.744850 0.497576 0.785658
O O8 0.568419 0.662850 0.806407
O O9 0.500000 0.500000 0.981430
O O10 0.770246 0.422974 0.965617
O O11 0.543709 0.298341 0.981994
O O12 0.068420 0.162850 0.841945
O O13 0.336215 0.181899 0.918362
O O14 0.244850 0.997576 0.862695
O O15 0.103747 0.674402 0.814244
O O16 0.000000 0.500000 0.386474
O O17 0.396253 0.825598 0.834108
O O18 0.500000 0.000000 0.761878
#
# Coordination Sequence:
#
# PCOD8167902 Si02
#       8
#     4   4   4   4   4   4   4   4
#     4  12  25  39  70  97 129 171 216 266 329 389
#     4  10  24  43  64  98 131 166 218 272 321 394
#     4  12  25  39  70  97 129 171 216 266 329 389
#     4  10  24  43  64  98 131 166 218 272 321 394
#     4  10  23  45  65  93 133 169 217 270 324 384
#     4  10  23  45  66  92 132 173 215 272 320 388
#     4  10  23  45  65  93 133 169 217 270 324 384
#     4  10  23  45  66  92 132 173 215 272 320 388
#
# _framework density 20.580105
#
# number of rings (size 3 to 8) (size 9 to 14) (size 15 to 20)
#    0.000    1.500    2.500    0.750    7.000    5.000 
#    0.000    0.000    0.000    0.000    0.000    0.000 
#    0.000    0.000    0.000    0.000    0.000    0.000 
#
# Total GULP energy -396942.507944 kJ/mol
# GULP energy per Si atom -12404.453373 kJ/mol
# Density = 2.053326 g / cm^3
# Si number density = 20.580105 Si / 1000 Ang^3
#
#
#
# Elastic Constant Matrix: (Units=GPa)
#
#
# Indices 1 2 3 4 5 6 
#
# 1 78.9747 55.5188 40.7070 0.0000 0.0000 0.0000
# 2 55.5188 103.8925 33.0640 0.0000 0.0000 0.0000
# 3 40.7070 33.0640 95.0239 0.0000 0.0000 0.0000
# 4 0.0000 0.0000 0.0000 28.5009 0.0000 0.0000
# 5 0.0000 0.0000 0.0000 0.0000 33.2030 0.0000
# 6 0.0000 0.0000 0.0000 0.0000 0.0000 42.1572
#
#
#
# Elastic Compliance Matrix: (Units=1/GPa)
#
#
# Indices 1 2 3 4 5 6 
#
# 1 0.023242 -0.010404 -0.006337 0.000000 0.000000 0.000000
# 2 -0.010404 0.015481 -0.000930 0.000000 0.000000 0.000000
# 3 -0.006337 -0.000930 0.013562 0.000000 0.000000 0.000000
# 4 0.000000 0.000000 0.000000 0.035087 0.000000 0.000000
# 5 0.000000 0.000000 0.000000 0.000000 0.030118 0.000000
# 6 0.000000 0.000000 0.000000 0.000000 0.000000 0.023721
#
#
# Mechanical properties :
#
#
# Convention : Reuss Voigt Hill
#
# Bulk Modulus (GPa) = 59.01629 59.60786 59.31208
# Shear Modulus (GPa) = 27.44262 30.67897 29.06080
#
# Velocity S-wave (km/s) = 3.65561 3.86516 3.76184
# Velocity P-wave (km/s) = 6.82324 6.99614 6.91023
#
# Compressibility (1/GPa) = 0.01694447
#
# Stress axis : x y z
#
# Youngs Moduli (GPa) = 43.02522 64.59597 73.73686
#
# Poissons Ratio (x) = 0.67203 0.46724
# Poissons Ratio (y) = 0.44762 0.06856
# Poissons Ratio (z) = 0.27264 0.06006
#
# Static dielectric constant tensor:
#      x y z
#    x 3.838260 0.000000 0.000000 
#    y 0.000000 3.937480 0.000000 
#    z 0.000000 0.000000 3.421270 
# 
# 
# High freq. dielectric constant tensor:
#      x y z
#    x 1.821390 0.000000 0.000000 
#    y 0.000000 1.818500 0.000000 
#    z 0.000000 0.000000 1.794410 
# 
# From -- ./inp_files/2441.got.cif
#   From: 2010.03.12/outbox.cif.g09.slc.cpg/sg27_2_cif.got.tgz:2441.got - 2010.04.14 03:36:05.
