data_PCOD8167498
_publ_section_title
;
Structure prediction by ZEFSAII (Michael W. Deem and Ramdas Pophale) SiO2 
 PCOD8167498
Probable space group: P M C 21
;
_chemical_formula_sum "Si O2"
_cell_formula_units_Z 18
_cell_length_a 11.521955
_cell_length_b 16.073190
_cell_length_c 5.239706
_cell_angle_alpha 90.000000
_cell_angle_beta 90.000000
_cell_angle_gamma 90.000000
_cell_volume 970.365109
_symmetry_space_group_name_H-M "P M C 21"
_symmetry_group_IT_number 26
_symmetry_cell_setting 'orthorhombic'
loop_
_space_group_symop_operation_xyz
x,y,z
-x,-y,1/2+z
-x,y,z
x,-y,1/2+z
loop_
_atom_site_type_symbol
_atom_site_label
_atom_site_fract_x
_atom_site_fract_y
_atom_site_fract_z
Si Si1 0.630007 0.890840 0.926060
Si Si2 0.752138 0.123937 0.931402
Si Si3 0.630727 0.731552 0.648431
Si Si4 0.361811 0.453878 0.227991
Si Si5 0.000000 0.055026 0.965135
O O1 0.500000 0.927361 0.946916
O O2 0.692939 0.926156 0.669332
O O3 0.626302 0.789579 0.901827
O O4 0.703688 0.916765 0.172611
O O5 0.714901 0.221640 0.944849
O O6 0.890009 0.115472 0.939979
O O7 0.500000 0.723784 0.532433
O O8 0.682190 0.641282 0.715409
O O9 0.500000 0.456106 0.232905
O O10 0.312541 0.503925 0.984432
O O11 0.000000 0.013158 0.242649
#
# Coordination Sequence:
#
# PCOD8167498 Si02
#       5
#     4   4   4   4   2
#     4   9  17  31  56  82 106 133 175 221 262 310
#     4  10  20  35  57  80 104 140 183 217 267 323
#     4   8  17  30  52  78 108 142 179 219 259 309
#     4   9  17  25  38  68 111 147 172 205 257 310
#     4  12  26  44  62  80 108 138 172 228 282 324
#
# _framework density 18.549719
#
# number of rings (size 3 to 8) (size 9 to 14) (size 15 to 20)
#    1.333    1.333    0.000    2.667    3.111    0.000 
#    0.000    0.000    0.000   22.667    0.000    1.556 
#    0.000    0.000    0.000    0.000    0.000    0.000 
#
# Total GULP energy -223011.350774 kJ/mol
# GULP energy per Si atom -12389.519487 kJ/mol
# Density = 1.850750 g / cm^3
# Si number density = 18.549719 Si / 1000 Ang^3
#
#
#
# Elastic Constant Matrix: (Units=GPa)
#
#
# Indices 1 2 3 4 5 6 
#
# 1 121.1126 21.0799 36.6793 0.0000 0.0000 0.0000
# 2 21.0799 73.3330 0.8204 0.0000 0.0000 0.0000
# 3 36.6793 0.8204 129.6658 0.0000 0.0000 0.0000
# 4 0.0000 0.0000 0.0000 -545.2330 0.0000 0.0000
# 5 0.0000 0.0000 0.0000 0.0000 22.9353 0.0000
# 6 0.0000 0.0000 0.0000 0.0000 0.0000 10.1182
#
#
#
# Elastic Compliance Matrix: (Units=1/GPa)
#
#
# Indices 1 2 3 4 5 6 
#
# 1 0.009541 -0.002713 -0.002682 0.000000 0.000000 0.000000
# 2 -0.002713 0.014409 0.000676 0.000000 0.000000 0.000000
# 3 -0.002682 0.000676 0.008466 0.000000 0.000000 0.000000
# 4 0.000000 0.000000 0.000000 -0.001834 0.000000 0.000000
# 5 0.000000 0.000000 0.000000 0.000000 0.043601 0.000000
# 6 0.000000 0.000000 0.000000 0.000000 0.000000 0.098832
#
#
# Mechanical properties :
#
#
# Convention : Reuss Voigt Hill
#
# Bulk Modulus (GPa) = 43.51666 49.03008 46.27337
# Shear Modulus (GPa) = 26.30042 -84.73378 -29.21668
#
# Velocity S-wave (km/s) = 3.76950 -6.76598 -3.97299
# Velocity P-wave (km/s) = 6.51582 5.87783 1.98835
#
# Compressibility (1/GPa) = 0.02297970
#
# Stress axis : x y z
#
# Youngs Moduli (GPa) = 104.80967 69.40289 118.11304
#
# Poissons Ratio (x) = 0.18826 0.31675
# Poissons Ratio (y) = 0.28431 -0.07987
# Poissons Ratio (z) = 0.28108 -0.04693
#
# Static dielectric constant tensor:
#      x y z
#    x 3.023610 0.000000 0.000000 
#    y 0.000000 3.535960 0.000000 
#    z 0.000000 0.000000 3.418250 
# 
# 
# High freq. dielectric constant tensor:
#      x y z
#    x 1.669450 0.000000 0.000000 
#    y 0.000000 1.712830 0.000000 
#    z 0.000000 0.000000 1.724110 
# 
# From -- ./inp_files/126.got.cif
#   From: 2010.03.12/outbox.cif.g09.slc.cpg/sg26_1_cif.got.tgz:126.got - 2010.04.14 03:33:09.
