data_PCOD8167626
_publ_section_title
;
Structure prediction by ZEFSAII (Michael W. Deem and Ramdas Pophale) SiO2 
 PCOD8167626
Probable space group: P M C 21
;
_chemical_formula_sum "Si O2"
_cell_formula_units_Z 32
_cell_length_a 8.888358
_cell_length_b 11.966272
_cell_length_c 14.369471
_cell_angle_alpha 90.000000
_cell_angle_beta 90.000000
_cell_angle_gamma 90.000000
_cell_volume 1528.344256
_symmetry_space_group_name_H-M "P M C 21"
_symmetry_group_IT_number 26
_symmetry_cell_setting 'orthorhombic'
loop_
_space_group_symop_operation_xyz
x,y,z
-x,-y,1/2+z
-x,y,z
x,-y,1/2+z
loop_
_atom_site_type_symbol
_atom_site_label
_atom_site_fract_x
_atom_site_fract_y
_atom_site_fract_z
Si Si1 0.678116 0.005497 0.877090
Si Si2 0.824155 0.793640 0.789872
Si Si3 0.174966 0.417652 0.768440
Si Si4 0.666971 0.309191 0.453216
Si Si5 0.825334 0.835547 0.246826
Si Si6 0.328493 0.096677 0.568724
Si Si7 0.329886 0.560533 0.460417
Si Si8 0.676948 0.376127 0.162654
O O1 0.500000 0.001017 0.870645
O O2 0.744589 0.910950 0.809455
O O3 0.739719 0.124166 0.840749
O O4 0.727546 0.984141 0.984676
O O5 0.792082 0.708309 0.874294
O O6 0.756979 0.736086 0.698200
O O7 0.000000 0.813517 0.777740
O O8 0.211428 0.294476 0.727899
O O9 0.266101 0.511483 0.713202
O O10 0.000000 0.446678 0.758899
O O11 0.217139 0.413505 0.877194
O O12 0.500000 0.289847 0.409020
O O13 0.689911 0.224619 0.537474
O O14 0.683334 0.432348 0.493199
O O15 0.773084 0.913657 0.160526
O O16 0.000000 0.855335 0.263463
O O17 0.500000 0.068393 0.595841
O O18 0.500000 0.588697 0.428159
O O19 0.285380 0.627451 0.553046
O O20 0.500000 0.370382 0.181589
#
# Coordination Sequence:
#
# PCOD8167626 Si02
#       8
#     4   4   4   4   4   4   4   4
#     4  10  22  42  66  89 116 155 204 255 300 356
#     4  11  21  35  58  87 117 152 191 243 308 355
#     4  11  24  40  59  89 127 164 200 248 305 363
#     4   9  17  33  57  85 116 152 198 248 290 345
#     4  11  24  41  61  90 126 162 200 248 307 367
#     4   9  19  37  63  92 117 153 203 252 301 355
#     4  10  21  36  58  86 118 161 204 246 296 355
#     4  11  22  38  60  88 121 161 206 248 295 360
#
# _framework density 20.937691000000001
#
# number of rings (size 3 to 8) (size 9 to 14) (size 15 to 20)
#    0.000    1.750    1.250    4.125    0.000    6.500 
#    2.250    0.000    0.000    0.000    0.000    0.000 
#    0.000    0.000    0.000    0.000    0.000    0.000 
#
# Total GULP energy -396778.265938 kJ/mol
# GULP energy per Si atom -12399.320811 kJ/mol
# Density = 2.089004 g / cm^3
# Si number density = 20.937691 Si / 1000 Ang^3
#
#
#
# Elastic Constant Matrix: (Units=GPa)
#
#
# Indices 1 2 3 4 5 6 
#
# 1 90.0521 18.5432 26.3484 0.0000 0.0000 0.0000
# 2 18.5432 31.0744 4.5288 0.0000 0.0000 0.0000
# 3 26.3484 4.5288 78.2862 0.0000 0.0000 0.0000
# 4 0.0000 0.0000 0.0000 27.7442 0.0000 0.0000
# 5 0.0000 0.0000 0.0000 0.0000 18.8473 0.0000
# 6 0.0000 0.0000 0.0000 0.0000 0.0000 31.5507
#
#
#
# Elastic Compliance Matrix: (Units=1/GPa)
#
#
# Indices 1 2 3 4 5 6 
#
# 1 0.013931 -0.007694 -0.004243 0.000000 0.000000 0.000000
# 2 -0.007694 0.036704 0.000466 0.000000 0.000000 0.000000
# 3 -0.004243 0.000466 0.014175 0.000000 0.000000 0.000000
# 4 0.000000 0.000000 0.000000 0.036044 0.000000 0.000000
# 5 0.000000 0.000000 0.000000 0.000000 0.053058 0.000000
# 6 0.000000 0.000000 0.000000 0.000000 0.000000 0.031695
#
#
# Mechanical properties :
#
#
# Convention : Reuss Voigt Hill
#
# Bulk Modulus (GPa) = 23.88529 33.13929 28.51229
# Shear Modulus (GPa) = 22.47138 25.62794 24.04966
#
# Velocity S-wave (km/s) = 3.27960 3.50238 3.39282
# Velocity P-wave (km/s) = 5.07677 5.67605 5.38475
#
# Compressibility (1/GPa) = 0.04186677
#
# Stress axis : x y z
#
# Youngs Moduli (GPa) = 71.78387 27.24468 70.54739
#
# Poissons Ratio (x) = 0.20963 0.29937
# Poissons Ratio (y) = 0.55234 -0.03290
# Poissons Ratio (z) = 0.30461 -0.01271
#
# Static dielectric constant tensor:
#      x y z
#    x 3.742940 0.000000 0.000000 
#    y 0.000000 3.796240 0.000000 
#    z 0.000000 0.000000 3.715550 
# 
# 
# High freq. dielectric constant tensor:
#      x y z
#    x 1.817070 0.000000 0.000000 
#    y 0.000000 1.814320 0.000000 
#    z 0.000000 0.000000 1.817230 
# 
# From -- ./inp_files/4230.got.cif
#   From: 2010.03.12/outbox.cif.g09.slc.cpg/sg26_3_cif.got.tgz:4230.got - 2010.04.14 03:33:09.
