data_PCOD8167549
_publ_section_title
;
Structure prediction by ZEFSAII (Michael W. Deem and Ramdas Pophale) SiO2 
 PCOD8167549
Probable space group: P M C 21
;
_chemical_formula_sum "Si O2"
_cell_formula_units_Z 32
_cell_length_a 8.536991
_cell_length_b 11.305293
_cell_length_c 16.253852
_cell_angle_alpha 90.000000
_cell_angle_beta 90.000000
_cell_angle_gamma 90.000000
_cell_volume 1568.711018
_symmetry_space_group_name_H-M "P M C 21"
_symmetry_group_IT_number 26
_symmetry_cell_setting 'orthorhombic'
loop_
_space_group_symop_operation_xyz
x,y,z
-x,-y,1/2+z
-x,y,z
x,-y,1/2+z
loop_
_atom_site_type_symbol
_atom_site_label
_atom_site_fract_x
_atom_site_fract_y
_atom_site_fract_z
Si Si1 0.820178 0.563987 0.408260
Si Si2 0.683412 0.234845 0.293773
Si Si3 0.323318 0.279544 0.038768
Si Si4 0.184388 0.298747 0.457679
Si Si5 0.681317 0.937098 0.646771
Si Si6 0.679675 0.369782 0.739463
Si Si7 0.818072 0.188522 0.630274
Si Si8 0.177669 0.590719 0.680391
O O1 0.800764 0.669289 0.474319
O O2 0.768449 0.437597 0.447210
O O3 0.710095 0.605964 0.334744
O O4 0.000000 0.558812 0.379053
O O5 0.500000 0.261799 0.285851
O O6 0.730801 0.215707 0.388995
O O7 0.729653 0.126020 0.233358
O O8 0.785675 0.350912 0.269208
O O9 0.500000 0.291456 0.004586
O O10 0.286943 0.145768 0.067106
O O11 0.307535 0.356143 0.120888
O O12 0.242476 0.250560 0.546067
O O13 0.000000 0.280898 0.448903
O O14 0.500000 0.974086 0.651018
O O15 0.789066 0.049041 0.630155
O O16 0.500000 0.397643 0.721044
O O17 0.723251 0.238389 0.709261
O O18 0.794309 0.451436 0.684979
O O19 0.000000 0.213219 0.642752
O O20 0.000000 0.615789 0.651551
#
# Coordination Sequence:
#
# PCOD8167549 Si02
#       8
#     4   4   4   4   4   4   4   4
#     4  11  22  38  61  92 127 159 197 252 312 369
#     4  10  20  36  62  91 119 157 204 251 303 367
#     4  10  21  38  61  89 120 159 204 249 300 361
#     4  10  22  39  61  91 125 157 199 255 312 371
#     4   9  21  42  62  86 120 160 208 254 301 359
#     4  12  24  39  60  87 123 161 201 250 307 370
#     4  11  24  42  63  90 122 163 210 255 310 369
#     4  11  20  34  58  88 122 156 195 246 305 362
#
# _framework density 20.398913
#
# number of rings (size 3 to 8) (size 9 to 14) (size 15 to 20)
#    0.000    1.500    1.250    5.250    0.000    5.500 
#    2.250    0.000    0.000    0.000    0.000    0.000 
#    0.000    0.000    0.000    0.000    0.000    0.000 
#
# Total GULP energy -396763.329086 kJ/mol
# GULP energy per Si atom -12398.854034 kJ/mol
# Density = 2.035248 g / cm^3
# Si number density = 20.398913 Si / 1000 Ang^3
#
#
#
# Elastic Constant Matrix: (Units=GPa)
#
#
# Indices 1 2 3 4 5 6 
#
# 1 80.1789 36.0647 33.9678 0.0000 0.0000 0.0000
# 2 36.0647 108.5767 51.2901 0.0000 0.0000 0.0000
# 3 33.9678 51.2901 82.8675 0.0000 0.0000 0.0000
# 4 0.0000 0.0000 0.0000 28.4959 0.0000 0.0000
# 5 0.0000 0.0000 0.0000 0.0000 34.7982 0.0000
# 6 0.0000 0.0000 0.0000 0.0000 0.0000 30.5170
#
#
#
# Elastic Compliance Matrix: (Units=1/GPa)
#
#
# Indices 1 2 3 4 5 6 
#
# 1 0.015795 -0.003092 -0.004561 0.000000 0.000000 0.000000
# 2 -0.003092 0.013621 -0.007163 0.000000 0.000000 0.000000
# 3 -0.004561 -0.007163 0.018370 0.000000 0.000000 0.000000
# 4 0.000000 0.000000 0.000000 0.035093 0.000000 0.000000
# 5 0.000000 0.000000 0.000000 0.000000 0.028737 0.000000
# 6 0.000000 0.000000 0.000000 0.000000 0.000000 0.032769
#
#
# Mechanical properties :
#
#
# Convention : Reuss Voigt Hill
#
# Bulk Modulus (GPa) = 55.08202 57.14093 56.11148
# Shear Modulus (GPa) = 27.76728 28.78225 28.27476
#
# Velocity S-wave (km/s) = 3.69347 3.76036 3.72706
# Velocity P-wave (km/s) = 6.72681 6.85028 6.78883
#
# Compressibility (1/GPa) = 0.01815474
#
# Stress axis : x y z
#
# Youngs Moduli (GPa) = 63.31094 73.41678 54.43538
#
# Poissons Ratio (x) = 0.22701 0.24826
# Poissons Ratio (y) = 0.19576 0.38992
# Poissons Ratio (z) = 0.28874 0.52589
#
# Static dielectric constant tensor:
#      x y z
#    x 3.495870 0.000000 0.000000 
#    y 0.000000 3.621790 0.000000 
#    z 0.000000 0.000000 3.778310 
# 
# 
# High freq. dielectric constant tensor:
#      x y z
#    x 1.798410 0.000000 0.000000 
#    y 0.000000 1.783710 0.000000 
#    z 0.000000 0.000000 1.797550 
# 
# From -- ./inp_files/5058.got.cif
#   From: 2010.03.12/outbox.cif.g09.slc.cpg/sg26_3_cif.got.tgz:5058.got - 2010.04.14 03:33:09.
