data_PCOD8167375
_publ_section_title
;
Structure prediction by ZEFSAII (Michael W. Deem and Ramdas Pophale) SiO2 
 PCOD8167375
Probable space group: P M C 21
;
_chemical_formula_sum "Si O2"
_cell_formula_units_Z 32
_cell_length_a 8.789845
_cell_length_b 11.304847
_cell_length_c 16.331478
_cell_angle_alpha 90.000000
_cell_angle_beta 90.000000
_cell_angle_gamma 90.000000
_cell_volume 1622.823903
_symmetry_space_group_name_H-M "P M C 21"
_symmetry_group_IT_number 26
_symmetry_cell_setting 'orthorhombic'
loop_
_space_group_symop_operation_xyz
x,y,z
-x,-y,1/2+z
-x,y,z
x,-y,1/2+z
loop_
_atom_site_type_symbol
_atom_site_label
_atom_site_fract_x
_atom_site_fract_y
_atom_site_fract_z
Si Si1 0.327789 0.650953 0.024140
Si Si2 0.680046 0.266653 0.807942
Si Si3 0.329144 0.587488 0.452519
Si Si4 0.319729 0.216739 0.068695
Si Si5 0.180522 0.305705 0.228099
Si Si6 0.823347 0.918091 0.420480
Si Si7 0.822066 0.570082 0.184079
Si Si8 0.824906 0.192656 0.399482
O O1 0.500000 0.670324 0.057222
O O2 0.217805 0.591856 0.090048
O O3 0.322865 0.552707 0.952961
O O4 0.265431 0.767503 0.980912
O O5 0.500000 0.252026 0.800190
O O6 0.745928 0.367931 0.869108
O O7 0.750454 0.145136 0.841134
O O8 0.744015 0.313403 0.722649
O O9 0.500000 0.636783 0.448067
O O10 0.263812 0.656288 0.531834
O O11 0.500000 0.200186 0.077739
O O12 0.248008 0.216214 0.159501
O O13 0.257339 0.115059 0.006937
O O14 0.239653 0.441728 0.215478
O O15 0.235252 0.255124 0.316190
O O16 0.000000 0.300796 0.220471
O O17 0.000000 0.885324 0.428729
O O18 0.798823 0.053679 0.397180
O O19 0.000000 0.576398 0.198742
O O20 0.000000 0.226804 0.412175
#
# Coordination Sequence:
#
# PCOD8167375 Si02
#       8
#     4   4   4   4   4   4   4   4
#     4  11  21  36  58  84 118 155 192 237 294 356
#     4  10  20  36  59  86 115 150 193 242 291 346
#     4   8  16  31  53  82 113 144 180 229 290 344
#     4  10  19  35  60  88 118 151 193 245 293 349
#     4  10  21  38  61  90 120 154 198 245 297 361
#     4  10  21  40  62  83 114 157 201 245 295 353
#     4  11  22  36  57  89 123 154 192 240 296 360
#     4  10  23  42  60  84 119 159 201 247 298 353
#
# _framework density 19.718712
#
# number of rings (size 3 to 8) (size 9 to 14) (size 15 to 20)
#    0.000    2.000    1.250    3.375    0.000    2.000 
#    2.250    1.250    0.000    0.000    0.000    0.000 
#    0.000    0.000    0.000    0.000    0.000    0.000 
#
# Total GULP energy -396512.915571 kJ/mol
# GULP energy per Si atom -12391.028612 kJ/mol
# Density = 1.967383 g / cm^3
# Si number density = 19.718712 Si / 1000 Ang^3
#
#
#
# Elastic Constant Matrix: (Units=GPa)
#
#
# Indices 1 2 3 4 5 6 
#
# 1 78.3538 43.7542 33.0653 0.0000 0.0000 0.0000
# 2 43.7542 95.3395 47.0789 0.0000 0.0000 0.0000
# 3 33.0653 47.0789 81.7634 0.0000 0.0000 0.0000
# 4 0.0000 0.0000 0.0000 29.8924 0.0000 0.0000
# 5 0.0000 0.0000 0.0000 0.0000 31.3824 0.0000
# 6 0.0000 0.0000 0.0000 0.0000 0.0000 25.0186
#
#
#
# Elastic Compliance Matrix: (Units=1/GPa)
#
#
# Indices 1 2 3 4 5 6 
#
# 1 0.017848 -0.006465 -0.003495 0.000000 0.000000 0.000000
# 2 -0.006465 0.016998 -0.007173 0.000000 0.000000 0.000000
# 3 -0.003495 -0.007173 0.017774 0.000000 0.000000 0.000000
# 4 0.000000 0.000000 0.000000 0.033453 0.000000 0.000000
# 5 0.000000 0.000000 0.000000 0.000000 0.031865 0.000000
# 6 0.000000 0.000000 0.000000 0.000000 0.000000 0.039970
#
#
# Mechanical properties :
#
#
# Convention : Reuss Voigt Hill
#
# Bulk Modulus (GPa) = 54.48525 55.91706 55.20115
# Shear Modulus (GPa) = 25.21542 26.02925 25.62233
#
# Velocity S-wave (km/s) = 3.57985 3.63716 3.60862
# Velocity P-wave (km/s) = 6.69166 6.78657 6.73928
#
# Compressibility (1/GPa) = 0.01835359
#
# Stress axis : x y z
#
# Youngs Moduli (GPa) = 56.02956 58.83155 56.26232
#
# Poissons Ratio (x) = 0.38034 0.19665
# Poissons Ratio (y) = 0.36223 0.40355
# Poissons Ratio (z) = 0.19583 0.42198
#
# Static dielectric constant tensor:
#      x y z
#    x 3.496690 0.000000 0.000000 
#    y 0.000000 3.454940 0.000000 
#    z 0.000000 0.000000 3.589450 
# 
# 
# High freq. dielectric constant tensor:
#      x y z
#    x 1.763110 0.000000 0.000000 
#    y 0.000000 1.757950 0.000000 
#    z 0.000000 0.000000 1.770490 
# 
# From -- ./inp_files/4286.got.cif
#   From: 2010.03.12/outbox.cif.g09.slc.cpg/sg26_3_cif.got.tgz:4286.got - 2010.04.14 03:33:09.
