data_PCOD8167638
_publ_section_title
;
Structure prediction by ZEFSAII (Michael W. Deem and Ramdas Pophale) SiO2 
 PCOD8167638
Probable space group: P M C 21
;
_chemical_formula_sum "Si O2"
_cell_formula_units_Z 16
_cell_length_a 8.804709
_cell_length_b 9.258413
_cell_length_c 9.841299
_cell_angle_alpha 90.000000
_cell_angle_beta 90.000000
_cell_angle_gamma 90.000000
_cell_volume 802.239393
_symmetry_space_group_name_H-M "P M C 21"
_symmetry_group_IT_number 26
_symmetry_cell_setting 'orthorhombic'
loop_
_space_group_symop_operation_xyz
x,y,z
-x,-y,1/2+z
-x,y,z
x,-y,1/2+z
loop_
_atom_site_type_symbol
_atom_site_label
_atom_site_fract_x
_atom_site_fract_y
_atom_site_fract_z
Si Si1 0.676442 0.625517 0.522320
Si Si2 0.676275 0.048359 0.953429
Si Si3 0.823559 0.125510 0.682243
Si Si4 0.823723 0.451632 0.751131
O O1 0.500000 0.593694 0.499012
O O2 0.711419 0.795295 0.516624
O O3 0.729446 0.570203 0.668564
O O4 0.770515 0.541662 0.406887
O O5 0.500000 0.008421 0.960093
O O6 0.729449 0.041662 0.797661
O O7 0.770593 0.929811 0.035989
O O8 0.788581 0.295289 0.687923
O O9 0.000000 0.093699 0.705591
O O10 0.000000 0.491556 0.744504
#
# Coordination Sequence:
#
# PCOD8167638 Si02
#       4
#     4   4   4   4
#     4  10  21  37  57  81 109 142 180 222 268 318
#     4  10  21  37  57  81 109 142 180 222 268 318
#     4  10  21  37  57  81 109 142 180 222 268 318
#     4  10  21  37  57  81 109 142 180 222 268 318
#
# _framework density 19.944172999999999
#
# number of rings (size 3 to 8) (size 9 to 14) (size 15 to 20)
#    0.000    2.000    0.000    3.000    0.000    8.000 
#    0.000    0.000    0.000    0.000    0.000    0.000 
#    0.000    0.000    0.000    0.000    0.000    0.000 
#
# Total GULP energy -198516.509413 kJ/mol
# GULP energy per Si atom -12407.281838 kJ/mol
# Density = 1.989878 g / cm^3
# Si number density = 19.944173 Si / 1000 Ang^3
#
#
#
# Elastic Constant Matrix: (Units=GPa)
#
#
# Indices 1 2 3 4 5 6 
#
# 1 61.9403 21.5346 7.6582 0.0000 0.0000 0.0000
# 2 21.5346 15.5652 1.0934 0.0000 0.0000 0.0000
# 3 7.6582 1.0934 36.0936 0.0000 0.0000 0.0000
# 4 0.0000 0.0000 0.0000 39.1500 0.0000 0.0000
# 5 0.0000 0.0000 0.0000 0.0000 43.0866 0.0000
# 6 0.0000 0.0000 0.0000 0.0000 0.0000 30.7559
#
#
#
# Elastic Compliance Matrix: (Units=1/GPa)
#
#
# Indices 1 2 3 4 5 6 
#
# 1 0.032156 -0.044102 -0.005487 0.000000 0.000000 0.000000
# 2 -0.044102 0.124870 0.005575 0.000000 0.000000 0.000000
# 3 -0.005487 0.005575 0.028701 0.000000 0.000000 0.000000
# 4 0.000000 0.000000 0.000000 0.025543 0.000000 0.000000
# 5 0.000000 0.000000 0.000000 0.000000 0.023209 0.000000
# 6 0.000000 0.000000 0.000000 0.000000 0.000000 0.032514
#
#
# Mechanical properties :
#
#
# Convention : Reuss Voigt Hill
#
# Bulk Modulus (GPa) = 10.23561 19.35238 14.79400
# Shear Modulus (GPa) = 12.90032 28.15271 20.52652
#
# Velocity S-wave (km/s) = 2.54603 3.76117 3.21159
# Velocity P-wave (km/s) = 3.71299 5.34661 4.60285
#
# Compressibility (1/GPa) = 0.09769810
#
# Stress axis : x y z
#
# Youngs Moduli (GPa) = 31.09852 8.00834 34.84202
#
# Poissons Ratio (x) = 0.35319 0.19117
# Poissons Ratio (y) = 1.37152 -0.19424
# Poissons Ratio (z) = 0.17063 -0.04464
#
# Static dielectric constant tensor:
#      x y z
#    x 3.678820 0.000000 0.000000 
#    y 0.000000 3.463000 0.000000 
#    z 0.000000 0.000000 3.527340 
# 
# 
# High freq. dielectric constant tensor:
#      x y z
#    x 1.792660 0.000000 0.000000 
#    y 0.000000 1.766090 0.000000 
#    z 0.000000 0.000000 1.780720 
# 
# From -- ./inp_files/1165.got.cif
#   From: 2010.03.12/outbox.cif.g09.slc.cpg/sg26_1_cif.got.tgz:1165.got - 2010.04.14 03:33:09.
