data_PCOD8167372
_publ_section_title
;
Structure prediction by ZEFSAII (Michael W. Deem and Ramdas Pophale) SiO2 
 PCOD8167372
Probable space group: P M C 21
;
_chemical_formula_sum "Si O2"
_cell_formula_units_Z 32
_cell_length_a 8.918655
_cell_length_b 14.446531
_cell_length_c 12.216395
_cell_angle_alpha 90.000000
_cell_angle_beta 90.000000
_cell_angle_gamma 90.000000
_cell_volume 1574.004628
_symmetry_space_group_name_H-M "P M C 21"
_symmetry_group_IT_number 26
_symmetry_cell_setting 'orthorhombic'
loop_
_space_group_symop_operation_xyz
x,y,z
-x,-y,1/2+z
-x,y,z
x,-y,1/2+z
loop_
_atom_site_type_symbol
_atom_site_label
_atom_site_fract_x
_atom_site_fract_y
_atom_site_fract_z
Si Si1 0.168247 0.551465 0.162260
Si Si2 0.832177 0.344675 0.886437
Si Si3 0.673686 0.275934 0.574013
Si Si4 0.675324 0.621270 0.595544
Si Si5 0.823068 0.947894 0.456129
Si Si6 0.674761 0.822858 0.292984
Si Si7 0.325675 0.129989 0.396415
Si Si8 0.323952 0.830021 0.649246
O O1 0.166975 0.590271 0.283214
O O2 0.234852 0.628540 0.079456
O O3 0.270683 0.460299 0.175379
O O4 0.000000 0.527435 0.122894
O O5 0.716424 0.260262 0.874597
O O6 0.000000 0.306412 0.909523
O O7 0.768603 0.403340 0.986713
O O8 0.500000 0.300793 0.592089
O O9 0.724232 0.204150 0.669999
O O10 0.703163 0.227957 0.457231
O O11 0.500000 0.613383 0.574125
O O12 0.720288 0.722132 0.640369
O O13 0.764577 0.911280 0.338047
O O14 0.759806 0.890843 0.558917
O O15 0.000000 0.942475 0.460504
O O16 0.769741 0.053800 0.461726
O O17 0.500000 0.845485 0.301233
O O18 0.500000 0.103121 0.405092
O O19 0.274547 0.138042 0.270437
O O20 0.500000 0.844250 0.631211
#
# Coordination Sequence:
#
# PCOD8167372 Si02
#       8
#     4   4   4   4   4   4   4   4
#     4  10  22  38  59  89 126 165 205 252 311 374
#     4  10  20  36  57  85 118 157 201 252 312 363
#     4   9  20  39  63  90 120 159 207 257 307 363
#     4  11  22  37  61  90 121 162 209 256 306 367
#     4  12  25  39  60  91 124 160 203 253 310 375
#     4  10  19  35  60  87 115 153 202 253 304 361
#     4  10  23  43  65  90 124 165 208 257 312 371
#     4  10  23  43  65  90 122 161 209 260 310 366
#
# _framework density 20.330307999999999
#
# number of rings (size 3 to 8) (size 9 to 14) (size 15 to 20)
#    0.000    1.750    1.250    2.625    1.750    4.500 
#    0.000    1.250    0.000    0.000    0.000    0.000 
#    0.000    0.000    0.000    0.000    0.000    0.000 
#
# Total GULP energy -396823.799442 kJ/mol
# GULP energy per Si atom -12400.743733 kJ/mol
# Density = 2.028404 g / cm^3
# Si number density = 20.330308 Si / 1000 Ang^3
#
#
#
# Elastic Constant Matrix: (Units=GPa)
#
#
# Indices 1 2 3 4 5 6 
#
# 1 100.8762 57.4793 48.6129 0.0000 0.0000 0.0000
# 2 57.4793 115.6928 39.6941 0.0000 0.0000 0.0000
# 3 48.6129 39.6941 79.4237 0.0000 0.0000 0.0000
# 4 0.0000 0.0000 0.0000 18.3196 0.0000 0.0000
# 5 0.0000 0.0000 0.0000 0.0000 24.0760 0.0000
# 6 0.0000 0.0000 0.0000 0.0000 0.0000 22.2045
#
#
#
# Elastic Compliance Matrix: (Units=1/GPa)
#
#
# Indices 1 2 3 4 5 6 
#
# 1 0.016769 -0.005805 -0.007363 0.000000 0.000000 0.000000
# 2 -0.005805 0.012442 -0.002665 0.000000 0.000000 0.000000
# 3 -0.007363 -0.002665 0.018429 0.000000 0.000000 0.000000
# 4 0.000000 0.000000 0.000000 0.054586 0.000000 0.000000
# 5 0.000000 0.000000 0.000000 0.000000 0.041535 0.000000
# 6 0.000000 0.000000 0.000000 0.000000 0.000000 0.045036
#
#
# Mechanical properties :
#
#
# Convention : Reuss Voigt Hill
#
# Bulk Modulus (GPa) = 62.59956 65.28503 63.94230
# Shear Modulus (GPa) = 22.14467 22.93378 22.53923
#
# Velocity S-wave (km/s) = 3.30395 3.36230 3.33325
# Velocity P-wave (km/s) = 6.73891 6.87425 6.80692
#
# Compressibility (1/GPa) = 0.01597455
#
# Stress axis : x y z
#
# Youngs Moduli (GPa) = 59.63385 80.37189 54.26222
#
# Poissons Ratio (x) = 0.46658 0.39951
# Poissons Ratio (y) = 0.34619 0.14461
# Poissons Ratio (z) = 0.43905 0.21420
#
# Static dielectric constant tensor:
#      x y z
#    x 3.758170 0.000000 0.000000 
#    y 0.000000 3.675750 0.000000 
#    z 0.000000 0.000000 3.692240 
# 
# 
# High freq. dielectric constant tensor:
#      x y z
#    x 1.793990 0.000000 0.000000 
#    y 0.000000 1.793830 0.000000 
#    z 0.000000 0.000000 1.792600 
# 
# From -- ./inp_files/3082.got.cif
#   From: 2010.03.12/outbox.cif.g09.slc.cpg/sg26_2_cif.got.tgz:3082.got - 2010.04.14 03:33:09.
