data_PCOD8167142
_publ_section_title
;
Structure prediction by ZEFSAII (Michael W. Deem and Ramdas Pophale) SiO2 
 PCOD8167142
Probable space group: P M C 21
;
_chemical_formula_sum "Si O2"
_cell_formula_units_Z 32
_cell_length_a 9.107103
_cell_length_b 10.599622
_cell_length_c 16.780122
_cell_angle_alpha 90.000000
_cell_angle_beta 90.000000
_cell_angle_gamma 90.000000
_cell_volume 1619.816208
_symmetry_space_group_name_H-M "P M C 21"
_symmetry_group_IT_number 26
_symmetry_cell_setting 'orthorhombic'
loop_
_space_group_symop_operation_xyz
x,y,z
-x,-y,1/2+z
-x,y,z
x,-y,1/2+z
loop_
_atom_site_type_symbol
_atom_site_label
_atom_site_fract_x
_atom_site_fract_y
_atom_site_fract_z
Si Si1 0.660523 0.330364 0.976630
Si Si2 0.673941 0.119879 0.593610
Si Si3 0.828935 0.121057 0.439676
Si Si4 0.169436 0.785798 0.240123
Si Si5 0.674841 0.169891 0.125775
Si Si6 0.661570 0.093549 0.869670
Si Si7 0.168602 0.458998 0.846704
Si Si8 0.171263 0.722285 0.781349
O O1 0.500000 0.387236 0.997980
O O2 0.639195 0.228487 0.907952
O O3 0.758750 0.438113 0.934274
O O4 0.731284 0.264791 0.055393
O O5 0.500000 0.130565 0.584284
O O6 0.755048 0.181889 0.517439
O O7 0.730362 0.213388 0.662246
O O8 0.724176 0.974593 0.609428
O O9 0.797289 0.199254 0.360738
O O10 0.000000 0.097982 0.454202
O O11 0.742078 0.990032 0.434902
O O12 0.231572 0.900312 0.293628
O O13 0.190562 0.654518 0.285225
O O14 0.000000 0.813302 0.219919
O O15 0.500000 0.175506 0.129149
O O16 0.739916 0.217601 0.208871
O O17 0.500000 0.039777 0.845411
O O18 0.230566 0.582017 0.801264
O O19 0.000000 0.481985 0.867781
O O20 0.000000 0.721968 0.758385
#
# Coordination Sequence:
#
# PCOD8167142 Si02
#       8
#     4   4   4   4   4   4   4   4
#     4   9  18  35  58  84 113 145 187 235 279 334
#     4  11  22  38  58  85 119 151 185 230 294 356
#     4  11  22  36  56  82 116 151 189 237 285 340
#     4  10  20  35  57  85 112 144 189 235 279 335
#     4  10  21  38  59  86 117 148 187 235 287 345
#     4  10  18  33  56  82 115 149 182 226 285 342
#     4   9  20  40  60  80 111 150 194 235 281 336
#     4  10  23  41  58  82 115 154 195 237 286 340
#
# _framework density 19.755327000000001
#
# number of rings (size 3 to 8) (size 9 to 14) (size 15 to 20)
#    0.000    2.000    1.250    2.250    0.000    6.000 
#    2.250    0.000    0.000    0.000    0.000    0.000 
#    0.000    0.000    0.000    0.000    0.000    0.000 
#
# Total GULP energy -396629.449950 kJ/mol
# GULP energy per Si atom -12394.670311 kJ/mol
# Density = 1.971036 g / cm^3
# Si number density = 19.755327 Si / 1000 Ang^3
#
#
#
# Elastic Constant Matrix: (Units=GPa)
#
#
# Indices 1 2 3 4 5 6 
#
# 1 91.0385 36.7559 39.6435 0.0000 0.0000 0.0000
# 2 36.7559 41.0121 27.4092 0.0000 0.0000 0.0000
# 3 39.6435 27.4092 97.1725 0.0000 0.0000 0.0000
# 4 0.0000 0.0000 0.0000 23.3077 0.0000 0.0000
# 5 0.0000 0.0000 0.0000 0.0000 37.5385 0.0000
# 6 0.0000 0.0000 0.0000 0.0000 0.0000 20.6565
#
#
#
# Elastic Compliance Matrix: (Units=1/GPa)
#
#
# Indices 1 2 3 4 5 6 
#
# 1 0.018111 -0.013917 -0.003463 0.000000 0.000000 0.000000
# 2 -0.013917 0.040742 -0.005814 0.000000 0.000000 0.000000
# 3 -0.003463 -0.005814 0.013344 0.000000 0.000000 0.000000
# 4 0.000000 0.000000 0.000000 0.042904 0.000000 0.000000
# 5 0.000000 0.000000 0.000000 0.000000 0.026639 0.000000
# 6 0.000000 0.000000 0.000000 0.000000 0.000000 0.048411
#
#
# Mechanical properties :
#
#
# Convention : Reuss Voigt Hill
#
# Bulk Modulus (GPa) = 38.74820 48.53782 43.64301
# Shear Modulus (GPa) = 20.39625 24.66152 22.52888
#
# Velocity S-wave (km/s) = 3.21665 3.53703 3.38064
# Velocity P-wave (km/s) = 5.78381 6.42679 6.11376
#
# Compressibility (1/GPa) = 0.02580765
#
# Stress axis : x y z
#
# Youngs Moduli (GPa) = 55.21371 24.54494 74.94077
#
# Poissons Ratio (x) = 0.34160 0.25954
# Poissons Ratio (y) = 0.76842 0.43571
# Poissons Ratio (z) = 0.19122 0.14271
#
# Static dielectric constant tensor:
#      x y z
#    x 3.954080 0.000000 0.000000 
#    y 0.000000 3.456440 0.000000 
#    z 0.000000 0.000000 3.833430 
# 
# 
# High freq. dielectric constant tensor:
#      x y z
#    x 1.771660 0.000000 0.000000 
#    y 0.000000 1.747830 0.000000 
#    z 0.000000 0.000000 1.779430 
# 
# From -- ./inp_files/5049.got.cif
#   From: 2010.03.12/outbox.cif.g09.slc.cpg/sg26_3_cif.got.tgz:5049.got - 2010.04.14 03:33:09.
