data_PCOD8167317
_publ_section_title
;
Structure prediction by ZEFSAII (Michael W. Deem and Ramdas Pophale) SiO2 
 PCOD8167317
Probable space group: P M C 21
;
_chemical_formula_sum "Si O2"
_cell_formula_units_Z 32
_cell_length_a 10.088930
_cell_length_b 8.885534
_cell_length_c 17.225353
_cell_angle_alpha 90.000000
_cell_angle_beta 90.000000
_cell_angle_gamma 90.000000
_cell_volume 1544.175908
_symmetry_space_group_name_H-M "P M C 21"
_symmetry_group_IT_number 26
_symmetry_cell_setting 'orthorhombic'
loop_
_space_group_symop_operation_xyz
x,y,z
-x,-y,1/2+z
-x,y,z
x,-y,1/2+z
loop_
_atom_site_type_symbol
_atom_site_label
_atom_site_fract_x
_atom_site_fract_y
_atom_site_fract_z
Si Si1 0.855493 0.259117 0.525260
Si Si2 0.855487 0.741015 0.748154
Si Si3 0.248854 0.499920 0.136687
Si Si4 0.649283 0.764008 0.540990
Si Si5 0.208886 0.999948 0.136691
Si Si6 0.342250 0.633301 0.386682
Si Si7 0.350723 0.763896 0.232362
Si Si8 0.661509 0.714503 0.886704
O O1 0.836859 0.418871 0.569635
O O2 0.735512 0.222863 0.464368
O O3 0.000000 0.267392 0.483419
O O4 0.871142 0.127159 0.589947
O O5 0.836832 0.581304 0.703742
O O6 0.871133 0.873035 0.683503
O O7 0.735518 0.777222 0.809060
O O8 0.000000 0.732693 0.789984
O O9 0.342991 0.371296 0.102217
O O10 0.342956 0.628584 0.171145
O O11 0.500000 0.798489 0.520343
O O12 0.705157 0.919384 0.571363
O O13 0.721931 0.714391 0.461423
O O14 0.295056 0.919340 0.201946
O O15 0.500000 0.643536 0.386716
O O16 0.278042 0.714358 0.311935
O O17 0.303563 0.459946 0.386674
O O18 0.500000 0.798177 0.253090
O O19 0.500000 0.748263 0.886707
#
# Coordination Sequence:
#
# PCOD8167317 Si02
#       8
#     4   4   4   4   4   4   4   4
#     4  11  23  42  64  90 128 169 209 256 310 370
#     4  11  23  42  64  90 128 169 209 256 310 370
#     4  10  20  34  60  90 119 162 211 256 303 366
#     4  10  19  34  56  87 126 162 203 257 313 364
#     4  10  24  38  58  90 125 170 213 248 303 376
#     4   9  18  34  57  84 120 158 195 251 314 365
#     4  10  19  34  56  87 126 162 203 257 313 364
#     4  11  23  40  65  96 124 158 207 263 320 375
#
# _framework density 20.723027999999999
#
# number of rings (size 3 to 8) (size 9 to 14) (size 15 to 20)
#    0.000    1.750    2.500    1.875    0.000    6.000 
#    0.000    1.250    0.000    0.000    0.000    0.000 
#    0.000    0.000    0.000    0.000    0.000    0.000 
#
# Total GULP energy -396425.265912 kJ/mol
# GULP energy per Si atom -12388.289560 kJ/mol
# Density = 2.067586 g / cm^3
# Si number density = 20.723028 Si / 1000 Ang^3
#
#
#
# Elastic Constant Matrix: (Units=GPa)
#
#
# Indices 1 2 3 4 5 6 
#
# 1 102.9400 13.6733 35.3793 0.0000 0.0000 0.0000
# 2 13.6733 86.1533 20.5214 0.0000 0.0000 0.0000
# 3 35.3793 20.5214 106.0342 0.0000 0.0000 0.0000
# 4 0.0000 0.0000 0.0000 38.3333 0.0000 0.0000
# 5 0.0000 0.0000 0.0000 0.0000 20.6246 0.0000
# 6 0.0000 0.0000 0.0000 0.0000 0.0000 2.7935
#
#
#
# Elastic Compliance Matrix: (Units=1/GPa)
#
#
# Indices 1 2 3 4 5 6 
#
# 1 0.011041 -0.000917 -0.003507 0.000000 0.000000 0.000000
# 2 -0.000917 0.012244 -0.002064 0.000000 0.000000 0.000000
# 3 -0.003507 -0.002064 0.011000 0.000000 0.000000 0.000000
# 4 0.000000 0.000000 0.000000 0.026087 0.000000 0.000000
# 5 0.000000 0.000000 0.000000 0.000000 0.048486 0.000000
# 6 0.000000 0.000000 0.000000 0.000000 0.000000 0.357969
#
#
# Mechanical properties :
#
#
# Convention : Reuss Voigt Hill
#
# Bulk Modulus (GPa) = 46.92356 48.25283 47.58820
# Shear Modulus (GPa) = 10.26892 27.38719 18.82805
#
# Velocity S-wave (km/s) = 2.22847 3.63930 3.01750
# Velocity P-wave (km/s) = 5.41422 6.40270 5.92909
#
# Compressibility (1/GPa) = 0.02131126
#
# Stress axis : x y z
#
# Youngs Moduli (GPa) = 90.56833 81.67039 90.90637
#
# Poissons Ratio (x) = 0.07490 0.31877
# Poissons Ratio (y) = 0.08306 0.18761
# Poissons Ratio (z) = 0.31758 0.16854
#
# Static dielectric constant tensor:
#      x y z
#    x 3.446220 0.000000 0.000000 
#    y 0.000000 3.848220 0.000000 
#    z 0.000000 0.000000 4.731540 
# 
# 
# High freq. dielectric constant tensor:
#      x y z
#    x 1.784680 0.000000 0.000000 
#    y 0.000000 1.811900 0.000000 
#    z 0.000000 0.000000 1.819330 
# 
# From -- ./inp_files/5195.got.cif
#   From: 2010.03.12/outbox.cif.g09.slc.cpg/sg26_3_cif.got.tgz:5195.got - 2010.04.14 03:33:09.
