data_PCOD8167050
_publ_section_title
;
Structure prediction by ZEFSAII (Michael W. Deem and Ramdas Pophale) SiO2 
 PCOD8167050
Probable space group: P M C 21
;
_chemical_formula_sum "Si O2"
_cell_formula_units_Z 28
_cell_length_a 24.431794
_cell_length_b 13.010259
_cell_length_c 5.175120
_cell_angle_alpha 90.000000
_cell_angle_beta 90.000000
_cell_angle_gamma 90.000000
_cell_volume 1644.984177
_symmetry_space_group_name_H-M "P M C 21"
_symmetry_group_IT_number 26
_symmetry_cell_setting 'orthorhombic'
loop_
_space_group_symop_operation_xyz
x,y,z
-x,-y,1/2+z
-x,y,z
x,-y,1/2+z
loop_
_atom_site_type_symbol
_atom_site_label
_atom_site_fract_x
_atom_site_fract_y
_atom_site_fract_z
Si Si1 0.112744 0.564580 0.376180
Si Si2 0.600497 0.283607 0.341459
Si Si3 0.417237 0.948804 0.857261
Si Si4 0.328143 0.725354 0.334827
Si Si5 0.231265 0.431781 0.793237
Si Si6 0.000000 0.566871 0.246262
Si Si7 0.297672 0.960942 0.325007
Si Si8 0.500000 0.433257 0.338440
O O1 0.111102 0.532471 0.676782
O O2 0.170678 0.620638 0.319836
O O3 0.056916 0.629450 0.307530
O O4 0.572022 0.172426 0.352483
O O5 0.630949 0.309116 0.608901
O O6 0.553986 0.366660 0.294044
O O7 0.643319 0.289757 0.108849
O O8 0.445319 0.001905 0.609864
O O9 0.352625 0.971228 0.869309
O O10 0.274098 0.658083 0.330478
O O11 0.310525 0.842189 0.290772
O O12 0.239153 0.481307 0.511415
O O13 0.000000 0.470606 0.449839
O O14 0.264134 0.989342 0.585426
O O15 0.500000 0.476329 0.628570
#
# Coordination Sequence:
#
# PCOD8167050 Si02
#       8
#     4   4   4   4   4   2   4   2
#     4   8  14  25  39  56  87 120 155 200 231 262
#     4  12  23  39  61  76  93 125 161 185 235 292
#     4  10  16  32  56  80 102 113 137 185 236 283
#     4  12  21  33  59  78  95 127 159 184 236 294
#     4  10  21  33  43  68 102 128 162 202 228 259
#     4   8  12  20  38  58  74 116 164 188 232 276
#     4  10  16  30  51  77 103 118 140 183 233 282
#     4  12  30  50  58  72 100 128 158 202 228 254
#
# _framework density 17.021439999999998
#
# number of rings (size 3 to 8) (size 9 to 14) (size 15 to 20)
#    0.000    1.714    5.714    1.714    0.000    3.429 
#    0.000    0.714    0.000    0.000    0.000    0.000 
#    0.000    0.000    0.000    1.286    0.000    0.429 
#
# Total GULP energy -346893.096306 kJ/mol
# GULP energy per Si atom -12389.039154 kJ/mol
# Density = 1.698270 g / cm^3
# Si number density = 17.021440 Si / 1000 Ang^3
#
#
#
# Elastic Constant Matrix: (Units=GPa)
#
#
# Indices 1 2 3 4 5 6 
#
# 1 85.5856 39.0132 11.0815 0.0000 0.0000 0.0000
# 2 39.0132 59.7850 8.1733 0.0000 0.0000 0.0000
# 3 11.0815 8.1733 106.9540 0.0000 0.0000 0.0000
# 4 0.0000 0.0000 0.0000 20.7820 0.0000 0.0000
# 5 0.0000 0.0000 0.0000 0.0000 15.3260 0.0000
# 6 0.0000 0.0000 0.0000 0.0000 0.0000 -4.5647
#
#
#
# Elastic Compliance Matrix: (Units=1/GPa)
#
#
# Indices 1 2 3 4 5 6 
#
# 1 0.016718 -0.010785 -0.000908 0.000000 0.000000 0.000000
# 2 -0.010785 0.023861 -0.000706 0.000000 0.000000 0.000000
# 3 -0.000908 -0.000706 0.009498 0.000000 0.000000 0.000000
# 4 0.000000 0.000000 0.000000 0.048118 0.000000 0.000000
# 5 0.000000 0.000000 0.000000 0.000000 0.065248 0.000000
# 6 0.000000 0.000000 0.000000 0.000000 0.000000 -0.219072
#
#
# Mechanical properties :
#
#
# Convention : Reuss Voigt Hill
#
# Bulk Modulus (GPa) = 39.55930 40.98450 40.27190
# Shear Modulus (GPa) = -223.18876 19.24579 -101.97149
#
# Velocity S-wave (km/s) = -11.46328 3.36621 -7.74840
# Velocity P-wave (km/s) = 12.32549 6.26410 7.50596
#
# Compressibility (1/GPa) = 0.02527851
#
# Stress axis : x y z
#
# Youngs Moduli (GPa) = 59.81504 41.90895 105.28718
#
# Poissons Ratio (x) = 0.45201 0.09560
# Poissons Ratio (y) = 0.64513 0.07433
# Poissons Ratio (z) = 0.05431 0.02959
#
# Static dielectric constant tensor:
#      x y z
#    x 3.284350 0.000000 0.000000 
#    y 0.000000 2.895010 0.000000 
#    z 0.000000 0.000000 4.856110 
# 
# 
# High freq. dielectric constant tensor:
#      x y z
#    x 1.634230 0.000000 0.000000 
#    y 0.000000 1.609040 0.000000 
#    z 0.000000 0.000000 1.697080 
# 
# From -- ./inp_files/973.got.cif
#   From: 2010.03.12/outbox.cif.g09.slc.cpg/sg26_1_cif.got.tgz:973.got - 2010.04.14 03:33:09.
