data_PCOD8167390
_publ_section_title
;
Structure prediction by ZEFSAII (Michael W. Deem and Ramdas Pophale) SiO2 
 PCOD8167390
Probable space group: P M C 21
;
_chemical_formula_sum "Si O2"
_cell_formula_units_Z 16
_cell_length_a 5.340184
_cell_length_b 8.257958
_cell_length_c 16.329430
_cell_angle_alpha 90.000000
_cell_angle_beta 90.000000
_cell_angle_gamma 90.000000
_cell_volume 720.111782
_symmetry_space_group_name_H-M "P M C 21"
_symmetry_group_IT_number 26
_symmetry_cell_setting 'orthorhombic'
loop_
_space_group_symop_operation_xyz
x,y,z
-x,-y,1/2+z
-x,y,z
x,-y,1/2+z
loop_
_atom_site_type_symbol
_atom_site_label
_atom_site_fract_x
_atom_site_fract_y
_atom_site_fract_z
Si Si1 0.500000 0.468731 0.789060
Si Si2 0.500000 0.087947 0.741557
Si Si3 0.000000 0.458920 0.024463
Si Si4 0.000000 0.161308 0.714286
Si Si5 0.000000 0.522589 0.701908
Si Si6 0.500000 0.030119 0.414042
Si Si7 0.500000 0.397718 0.465785
Si Si8 0.000000 0.152935 0.912310
O O1 0.500000 0.275979 0.773081
O O2 0.252133 0.557803 0.753354
O O3 0.500000 0.490559 0.885676
O O4 0.750951 0.062296 0.687522
O O5 0.500000 0.961436 0.815279
O O6 0.000000 0.379662 0.115977
O O7 0.749132 0.566322 0.017567
O O8 0.000000 0.327072 0.953487
O O9 0.000000 0.177860 0.814141
O O10 0.000000 0.335292 0.673023
O O11 0.500000 0.209661 0.446449
O O12 0.247854 0.940172 0.443399
#
# Coordination Sequence:
#
# PCOD8167390 Si02
#       8
#     2   2   2   2   2   2   2   2
#     4  10  19  36  59  84 111 148 196 244 284 340
#     4   8  14  27  49  74  97 136 181 214 261 328
#     4  12  23  37  60  91 118 153 199 242 288 348
#     4   8  14  27  49  73  96 131 181 226 261 312
#     4  10  20  34  56  84 116 148 188 242 293 336
#     4  10  20  34  56  84 116 148 188 242 293 336
#     4  12  23  37  60  92 120 144 193 256 296 330
#     4  10  19  36  59  80 108 156 202 230 276 358
#
# _framework density 22.218771
#
# number of rings (size 3 to 8) (size 9 to 14) (size 15 to 20)
#    0.000    2.000    0.000    7.500    0.000    0.000 
#    0.000    0.000    0.000   27.000    0.000    0.000 
#    0.000    0.000    0.000    0.000    0.000    0.000 
#
# Total GULP energy -198286.355728 kJ/mol
# GULP energy per Si atom -12392.897233 kJ/mol
# Density = 2.216820 g / cm^3
# Si number density = 22.218771 Si / 1000 Ang^3
#
#
#
# Elastic Constant Matrix: (Units=GPa)
#
#
# Indices 1 2 3 4 5 6 
#
# 1 236.5047 15.0499 11.6862 0.0000 0.0000 0.0000
# 2 15.0499 56.3715 -10.4874 0.0000 0.0000 0.0000
# 3 11.6862 -10.4874 54.6886 0.0000 0.0000 0.0000
# 4 0.0000 0.0000 0.0000 13.2124 0.0000 0.0000
# 5 0.0000 0.0000 0.0000 0.0000 19.9456 0.0000
# 6 0.0000 0.0000 0.0000 0.0000 0.0000 18.5644
#
#
#
# Elastic Compliance Matrix: (Units=1/GPa)
#
#
# Indices 1 2 3 4 5 6 
#
# 1 0.004376 -0.001392 -0.001202 0.000000 0.000000 0.000000
# 2 -0.001392 0.018838 0.003910 0.000000 0.000000 0.000000
# 3 -0.001202 0.003910 0.019292 0.000000 0.000000 0.000000
# 4 0.000000 0.000000 0.000000 0.075687 0.000000 0.000000
# 5 0.000000 0.000000 0.000000 0.000000 0.050136 0.000000
# 6 0.000000 0.000000 0.000000 0.000000 0.000000 0.053867
#
#
# Mechanical properties :
#
#
# Convention : Reuss Voigt Hill
#
# Bulk Modulus (GPa) = 22.15395 42.22913 32.19154
# Shear Modulus (GPa) = 21.31192 32.43223 26.87208
#
# Velocity S-wave (km/s) = 3.10043 3.82472 3.48146
# Velocity P-wave (km/s) = 4.77592 6.20902 5.53901
#
# Compressibility (1/GPa) = 0.04513868
#
# Stress axis : x y z
#
# Youngs Moduli (GPa) = 228.50773 53.08278 51.83492
#
# Poissons Ratio (x) = 0.07389 0.06231
# Poissons Ratio (y) = 0.31808 -0.20268
# Poissons Ratio (z) = 0.27468 -0.20756
#
# Static dielectric constant tensor:
#      x y z
#    x 5.561510 0.000000 0.000000 
#    y 0.000000 3.461090 0.000000 
#    z 0.000000 0.000000 3.663060 
# 
# 
# High freq. dielectric constant tensor:
#      x y z
#    x 1.920610 0.000000 0.000000 
#    y 0.000000 1.832910 0.000000 
#    z 0.000000 0.000000 1.840260 
# 
# From -- ./inp_files/3746.got.cif
#   From: 2010.03.12/outbox.cif.g09.slc.cpg/sg26_2_cif.got.tgz:3746.got - 2010.04.14 03:33:09.
