data_PCOD8167740
_publ_section_title
;
Structure prediction by ZEFSAII (Michael W. Deem and Ramdas Pophale) SiO2 
 PCOD8167740
Probable space group: P M C 21
;
_chemical_formula_sum "Si O2"
_cell_formula_units_Z 32
_cell_length_a 8.967414
_cell_length_b 11.303336
_cell_length_c 16.418416
_cell_angle_alpha 90.000000
_cell_angle_beta 90.000000
_cell_angle_gamma 90.000000
_cell_volume 1664.198450
_symmetry_space_group_name_H-M "P M C 21"
_symmetry_group_IT_number 26
_symmetry_cell_setting 'orthorhombic'
loop_
_space_group_symop_operation_xyz
x,y,z
-x,-y,1/2+z
-x,y,z
x,-y,1/2+z
loop_
_atom_site_type_symbol
_atom_site_label
_atom_site_fract_x
_atom_site_fract_y
_atom_site_fract_z
Si Si1 0.171790 0.206638 0.038730
Si Si2 0.331698 0.622271 0.093518
Si Si3 0.164238 0.738394 0.804226
Si Si4 0.671196 0.182663 0.722471
Si Si5 0.324000 0.692444 0.390166
Si Si6 0.822686 0.441543 0.430905
Si Si7 0.822087 0.937518 0.692961
Si Si8 0.160987 0.424398 0.150904
O O1 0.232847 0.108580 0.103776
O O2 0.191265 0.336637 0.075955
O O3 0.000000 0.179686 0.016887
O O4 0.267452 0.209236 0.955546
O O5 0.500000 0.610870 0.061386
O O6 0.306158 0.745578 0.138880
O O7 0.294833 0.518706 0.158190
O O8 0.215297 0.597866 0.021904
O O9 0.245008 0.668387 0.877605
O O10 0.245253 0.854598 0.766249
O O11 0.151603 0.644150 0.733598
O O12 0.000000 0.776378 0.834884
O O13 0.500000 0.142952 0.732313
O O14 0.720527 0.259027 0.800776
O O15 0.774259 0.069310 0.711955
O O16 0.500000 0.677175 0.399227
O O17 0.248937 0.565232 0.403867
O O18 0.000000 0.453624 0.419319
O O19 0.000000 0.923919 0.693937
O O20 0.000000 0.486898 0.136171
#
# Coordination Sequence:
#
# PCOD8167740 Si02
#       8
#     4   4   4   4   4   4   4   4
#     4   9  18  34  58  87 114 142 184 237 285 333
#     4  11  22  36  53  77 115 152 186 229 279 334
#     4   8  17  34  57  84 110 139 177 230 281 328
#     4  10  24  42  56  79 117 158 195 235 280 337
#     4  11  22  37  58  85 118 151 190 234 284 344
#     4  11  21  35  57  86 118 146 183 232 287 343
#     4   9  19  39  63  84 109 145 193 239 280 334
#     4   9  16  31  56  82 109 139 176 222 280 337
#
# _framework density 19.228476000000001
#
# number of rings (size 3 to 8) (size 9 to 14) (size 15 to 20)
#    0.000    2.250    1.250    3.375    0.000    2.500 
#    2.250    3.750    0.000    0.000    0.000    0.000 
#    0.000    0.000    0.000    0.000    0.000    0.000 
#
# Total GULP energy -396512.998667 kJ/mol
# GULP energy per Si atom -12391.031208 kJ/mol
# Density = 1.918471 g / cm^3
# Si number density = 19.228476 Si / 1000 Ang^3
#
#
#
# Elastic Constant Matrix: (Units=GPa)
#
#
# Indices 1 2 3 4 5 6 
#
# 1 57.3135 40.1886 38.3828 0.0000 0.0000 0.0000
# 2 40.1886 105.4683 50.8655 0.0000 0.0000 0.0000
# 3 38.3828 50.8655 78.3016 0.0000 0.0000 0.0000
# 4 0.0000 0.0000 0.0000 19.6095 0.0000 0.0000
# 5 0.0000 0.0000 0.0000 0.0000 14.6252 0.0000
# 6 0.0000 0.0000 0.0000 0.0000 0.0000 29.2303
#
#
#
# Elastic Compliance Matrix: (Units=1/GPa)
#
#
# Indices 1 2 3 4 5 6 
#
# 1 0.028340 -0.005969 -0.010014 0.000000 0.000000 0.000000
# 2 -0.005969 0.015065 -0.006860 0.000000 0.000000 0.000000
# 3 -0.010014 -0.006860 0.022136 0.000000 0.000000 0.000000
# 4 0.000000 0.000000 0.000000 0.050996 0.000000 0.000000
# 5 0.000000 0.000000 0.000000 0.000000 0.068375 0.000000
# 6 0.000000 0.000000 0.000000 0.000000 0.000000 0.034211
#
#
# Mechanical properties :
#
#
# Convention : Reuss Voigt Hill
#
# Bulk Modulus (GPa) = 50.36812 55.55079 52.95946
# Shear Modulus (GPa) = 18.42107 20.13611 19.27859
#
# Velocity S-wave (km/s) = 3.09853 3.23956 3.16983
# Velocity P-wave (km/s) = 6.24921 6.55329 6.40305
#
# Compressibility (1/GPa) = 0.01985383
#
# Stress axis : x y z
#
# Youngs Moduli (GPa) = 35.28555 66.38102 45.17431
#
# Poissons Ratio (x) = 0.39624 0.45240
# Poissons Ratio (y) = 0.21063 0.30990
# Poissons Ratio (z) = 0.35337 0.45538
#
# Static dielectric constant tensor:
#      x y z
#    x 3.455810 0.000000 0.000000 
#    y 0.000000 3.505110 0.000000 
#    z 0.000000 0.000000 3.905990 
# 
# 
# High freq. dielectric constant tensor:
#      x y z
#    x 1.728700 0.000000 0.000000 
#    y 0.000000 1.736960 0.000000 
#    z 0.000000 0.000000 1.756340 
# 
# From -- ./inp_files/5076.got.cif
#   From: 2010.03.12/outbox.cif.g09.slc.cpg/sg26_3_cif.got.tgz:5076.got - 2010.04.14 03:33:09.
