data_PCOD8167385
_publ_section_title
;
Structure prediction by ZEFSAII (Michael W. Deem and Ramdas Pophale) SiO2 
 PCOD8167385
Probable space group: P M C 21
;
_chemical_formula_sum "Si O2"
_cell_formula_units_Z 20
_cell_length_a 26.041519
_cell_length_b 7.537203
_cell_length_c 5.017750
_cell_angle_alpha 90.000000
_cell_angle_beta 90.000000
_cell_angle_gamma 90.000000
_cell_volume 984.885049
_symmetry_space_group_name_H-M "P M C 21"
_symmetry_group_IT_number 26
_symmetry_cell_setting 'orthorhombic'
loop_
_space_group_symop_operation_xyz
x,y,z
-x,-y,1/2+z
-x,y,z
x,-y,1/2+z
loop_
_atom_site_type_symbol
_atom_site_label
_atom_site_fract_x
_atom_site_fract_y
_atom_site_fract_z
Si Si1 0.000000 0.883704 0.293210
Si Si2 0.593781 0.124158 0.843489
Si Si3 0.500000 0.616157 0.290702
Si Si4 0.312424 0.377464 0.806253
Si Si5 0.092065 0.379028 0.797771
Si Si6 0.798228 0.388125 0.905876
O O1 0.050308 0.769598 0.351957
O O2 0.000000 0.051170 0.489668
O O3 0.550754 0.273315 0.846678
O O4 0.648998 0.216466 0.846651
O O5 0.586780 0.997336 0.596540
O O6 0.500000 0.447245 0.485750
O O7 0.320692 0.464462 0.517791
O O8 0.255302 0.289195 0.835921
O O9 0.085450 0.458327 0.503326
O O10 0.148597 0.286403 0.834482
O O11 0.798514 0.564974 0.718956
#
# Coordination Sequence:
#
# PCOD8167385 Si02
#       6
#     2   4   2   4   4   4
#     4  12  24  36  50  78 112 140 170 222 280 324
#     4  12  24  39  57  85 118 146 176 223 275 321
#     4  12  24  42  64  84 106 146 192 228 266 318
#     4  10  19  36  58  82 109 144 183 220 260 318
#     4  10  19  36  58  78 100 140 186 222 260 318
#     4   8  16  30  54  80 102 131 180 228 258 298
#
# _framework density 20.306939
#
# number of rings (size 3 to 8) (size 9 to 14) (size 15 to 20)
#    0.000    1.600    0.000    6.000    0.000    0.000 
#    0.000    2.000    0.000    0.000    0.000    0.000 
#    0.000    0.000    0.000    0.000    0.000    0.000 
#
# Total GULP energy -247954.712406 kJ/mol
# GULP energy per Si atom -12397.735620 kJ/mol
# Density = 2.026072 g / cm^3
# Si number density = 20.306939 Si / 1000 Ang^3
#
#
#
# Elastic Constant Matrix: (Units=GPa)
#
#
# Indices 1 2 3 4 5 6 
#
# 1 175.3503 54.7914 18.5136 0.0000 0.0000 0.0000
# 2 54.7914 63.9344 18.1271 0.0000 0.0000 0.0000
# 3 18.5136 18.1271 101.7700 0.0000 0.0000 0.0000
# 4 0.0000 0.0000 0.0000 37.8750 0.0000 0.0000
# 5 0.0000 0.0000 0.0000 0.0000 27.9774 0.0000
# 6 0.0000 0.0000 0.0000 0.0000 0.0000 -13.6292
#
#
#
# Elastic Compliance Matrix: (Units=1/GPa)
#
#
# Indices 1 2 3 4 5 6 
#
# 1 0.007794 -0.006611 -0.000240 0.000000 0.000000 0.000000
# 2 -0.006611 0.022081 -0.002730 0.000000 0.000000 0.000000
# 3 -0.000240 -0.002730 0.010356 0.000000 0.000000 0.000000
# 4 0.000000 0.000000 0.000000 0.026403 0.000000 0.000000
# 5 0.000000 0.000000 0.000000 0.000000 0.035743 0.000000
# 6 0.000000 0.000000 0.000000 0.000000 0.000000 -0.073372
#
#
# Mechanical properties :
#
#
# Convention : Reuss Voigt Hill
#
# Bulk Modulus (GPa) = 47.46688 58.21323 52.84005
# Shear Modulus (GPa) = 90.59373 27.08616 58.83995
#
# Velocity S-wave (km/s) = 6.68648 3.65614 5.38871
# Velocity P-wave (km/s) = 9.11249 6.82290 8.04952
#
# Compressibility (1/GPa) = 0.02106732
#
# Stress axis : x y z
#
# Youngs Moduli (GPa) = 128.30267 45.28776 96.56141
#
# Poissons Ratio (x) = 0.29941 0.02320
# Poissons Ratio (y) = 0.84825 0.26364
# Poissons Ratio (z) = 0.03083 0.12365
#
# Static dielectric constant tensor:
#      x y z
#    x 4.212700 0.000000 0.000000 
#    y 0.000000 3.193360 0.000000 
#    z 0.000000 0.000000 3.873490 
# 
# 
# High freq. dielectric constant tensor:
#      x y z
#    x 1.825500 0.000000 0.000000 
#    y 0.000000 1.740440 0.000000 
#    z 0.000000 0.000000 1.818620 
# 
# From -- ./inp_files/1011.got.cif
#   From: 2010.03.12/outbox.cif.g09.slc.cpg/sg26_1_cif.got.tgz:1011.got - 2010.04.14 03:33:09.
