data_PCOD8167859
_publ_section_title
;
Structure prediction by ZEFSAII (Michael W. Deem and Ramdas Pophale) SiO2 
 PCOD8167859
Probable space group: P C C 2
;
_chemical_formula_sum "Si O2"
_cell_formula_units_Z 32
_cell_length_a 13.884555
_cell_length_b 6.008370
_cell_length_c 18.438459
_cell_angle_alpha 90.000000
_cell_angle_beta 90.000000
_cell_angle_gamma 90.000000
_cell_volume 1538.201591
_symmetry_space_group_name_H-M "P C C 2"
_symmetry_group_IT_number 27
_symmetry_cell_setting 'orthorhombic'
loop_
_space_group_symop_operation_xyz
x,y,z
-x,-y,z
-x,y,1/2+z
x,-y,1/2+z
loop_
_atom_site_type_symbol
_atom_site_label
_atom_site_fract_x
_atom_site_fract_y
_atom_site_fract_z
Si Si1 0.395156 0.999758 0.335330
Si Si2 0.768734 0.692728 0.896728
Si Si3 0.234923 0.740070 0.621949
Si Si4 0.886904 0.021187 0.501377
Si Si5 0.601725 0.056404 0.072480
Si Si6 0.247073 0.360315 0.517621
Si Si7 0.419012 0.325426 0.710547
Si Si8 0.266118 0.619557 0.773328
O O1 0.319590 0.851432 0.378530
O O2 0.423603 0.892602 0.259139
O O3 0.500000 0.000000 0.376925
O O4 0.341921 0.235151 0.320220
O O5 0.857907 0.835707 0.929220
O O6 0.798907 0.528459 0.829519
O O7 0.724665 0.545254 0.960229
O O8 0.153988 0.871393 0.575838
O O9 0.236478 0.482551 0.595327
O O10 0.208650 0.755847 0.709396
O O11 0.340654 0.850775 0.609295
O O12 0.850632 0.766961 0.495395
O O13 0.000000 0.000000 0.505868
O O14 0.670548 0.171370 0.013702
O O15 0.570539 0.244824 0.129172
O O16 0.500000 0.000000 0.034352
O O17 0.500000 0.500000 0.733070
O O18 0.317932 0.444660 0.721353
#
# Coordination Sequence:
#
# PCOD8167859 Si02
#       8
#     4   4   4   4   4   4   4   4
#     4  11  21  36  58  89 132 178 223 257 299 375
#     4  10  24  39  62  90 124 171 212 259 323 389
#     4  10  21  38  64  95 120 161 210 270 320 370
#     4  10  23  46  72  91 116 162 214 268 337 413
#     4  11  21  33  57  90 130 165 216 261 304 367
#     4  10  22  43  60  87 122 161 210 259 323 385
#     4  11  19  30  55  89 120 171 223 254 304 366
#     4  11  20  36  60  90 127 167 210 266 316 371
#
# _framework density 20.803515000000001
#
# number of rings (size 3 to 8) (size 9 to 14) (size 15 to 20)
#    0.000    1.500    3.750    1.875    0.000    2.000 
#    0.000   15.000    0.000   11.250    0.000    0.000 
#    0.000    0.000    0.000    0.000    0.000    0.000 
#
# Total GULP energy -396447.145318 kJ/mol
# GULP energy per Si atom -12388.973291 kJ/mol
# Density = 2.075617 g / cm^3
# Si number density = 20.803515 Si / 1000 Ang^3
#
#
#
# Elastic Constant Matrix: (Units=GPa)
#
#
# Indices 1 2 3 4 5 6 
#
# 1 133.8021 43.1147 42.8043 0.0000 0.0000 0.0000
# 2 43.1147 101.0870 31.3142 0.0000 0.0000 0.0000
# 3 42.8043 31.3142 96.5908 0.0000 0.0000 0.0000
# 4 0.0000 0.0000 0.0000 24.5428 0.0000 0.0000
# 5 0.0000 0.0000 0.0000 0.0000 17.3957 0.0000
# 6 0.0000 0.0000 0.0000 0.0000 0.0000 19.9438
#
#
#
# Elastic Compliance Matrix: (Units=1/GPa)
#
#
# Indices 1 2 3 4 5 6 
#
# 1 0.009485 -0.003050 -0.003215 0.000000 0.000000 0.000000
# 2 -0.003050 0.011977 -0.002532 0.000000 0.000000 0.000000
# 3 -0.003215 -0.002532 0.012598 0.000000 0.000000 0.000000
# 4 0.000000 0.000000 0.000000 0.040745 0.000000 0.000000
# 5 0.000000 0.000000 0.000000 0.000000 0.057486 0.000000
# 6 0.000000 0.000000 0.000000 0.000000 0.000000 0.050141
#
#
# Mechanical properties :
#
#
# Convention : Reuss Voigt Hill
#
# Bulk Modulus (GPa) = 60.72025 62.88292 61.80158
# Shear Modulus (GPa) = 24.32940 26.65958 25.49449
#
# Velocity S-wave (km/s) = 3.42348 3.58368 3.50450
# Velocity P-wave (km/s) = 6.69909 6.88595 6.79317
#
# Compressibility (1/GPa) = 0.01646897
#
# Stress axis : x y z
#
# Youngs Moduli (GPa) = 105.43268 83.49091 79.37650
#
# Poissons Ratio (x) = 0.25461 0.25516
# Poissons Ratio (y) = 0.32152 0.20095
# Poissons Ratio (z) = 0.33891 0.21136
#
# Static dielectric constant tensor:
#      x y z
#    x 3.553980 0.000000 0.000000 
#    y 0.000000 4.128330 0.000000 
#    z 0.000000 0.000000 3.908170 
# 
# 
# High freq. dielectric constant tensor:
#      x y z
#    x 1.767300 0.000000 0.000000 
#    y 0.000000 1.836000 0.000000 
#    z 0.000000 0.000000 1.814140 
# 
# From -- ./inp_files/4091.got.cif
#   From: 2010.03.12/outbox.cif.g09.slc.cpg/sg27_3_cif.got.tgz:4091.got - 2010.04.14 03:36:05.
