data_PCOD8167410
_publ_section_title
;
Structure prediction by ZEFSAII (Michael W. Deem and Ramdas Pophale) SiO2 
 PCOD8167410
Probable space group: P M C 21
;
_chemical_formula_sum "Si O2"
_cell_formula_units_Z 32
_cell_length_a 8.967318
_cell_length_b 15.206160
_cell_length_c 12.086269
_cell_angle_alpha 90.000000
_cell_angle_beta 90.000000
_cell_angle_gamma 90.000000
_cell_volume 1648.065176
_symmetry_space_group_name_H-M "P M C 21"
_symmetry_group_IT_number 26
_symmetry_cell_setting 'orthorhombic'
loop_
_space_group_symop_operation_xyz
x,y,z
-x,-y,1/2+z
-x,y,z
x,-y,1/2+z
loop_
_atom_site_type_symbol
_atom_site_label
_atom_site_fract_x
_atom_site_fract_y
_atom_site_fract_z
Si Si1 0.166050 0.141986 0.396260
Si Si2 0.176889 0.759582 0.301940
Si Si3 0.677594 0.257427 0.039328
Si Si4 0.674849 0.907952 0.685734
Si Si5 0.832540 0.656366 0.897521
Si Si6 0.177625 0.587821 0.671286
Si Si7 0.826198 0.086541 0.636985
Si Si8 0.823444 0.612226 0.133196
O O1 0.276649 0.092619 0.313769
O O2 0.168337 0.242960 0.363642
O O3 0.216993 0.134027 0.522685
O O4 0.000000 0.102499 0.379996
O O5 0.263126 0.761333 0.416924
O O6 0.220008 0.848854 0.236755
O O7 0.235287 0.675681 0.230824
O O8 0.000000 0.754020 0.323096
O O9 0.500000 0.264789 0.037442
O O10 0.732014 0.177406 0.118141
O O11 0.745342 0.349200 0.081837
O O12 0.500000 0.913124 0.679514
O O13 0.739268 0.995690 0.633041
O O14 0.757186 0.606968 0.793990
O O15 0.000000 0.619438 0.909521
O O16 0.751045 0.639770 0.014792
O O17 0.224082 0.487837 0.650548
O O18 0.000000 0.602498 0.663958
O O19 0.000000 0.065456 0.643995
O O20 0.000000 0.626030 0.128977
#
# Coordination Sequence:
#
# PCOD8167410 Si02
#       8
#     4   4   4   4   4   4   4   4
#     4  10  19  37  63  87 114 146 189 243 292 341
#     4  10  21  39  62  88 117 151 191 238 291 347
#     4  11  25  42  56  79 120 162 196 237 284 339
#     4  11  25  41  58  82 116 156 196 239 287 344
#     4   9  16  31  56  87 118 143 180 237 290 333
#     4  10  20  34  61  91 115 150 192 236 286 340
#     4  10  22  39  62  91 117 147 189 242 295 345
#     4   9  18  33  58  93 121 143 185 240 289 339
#
# _framework density 19.416709000000001
#
# number of rings (size 3 to 8) (size 9 to 14) (size 15 to 20)
#    0.000    2.000    2.500    0.750    3.500    2.500 
#    0.000    0.625    0.000    1.500    0.000    0.000 
#    0.000    0.000    0.000    0.000    0.000    0.000 
#
# Total GULP energy -396734.198090 kJ/mol
# GULP energy per Si atom -12397.943690 kJ/mol
# Density = 1.937252 g / cm^3
# Si number density = 19.416709 Si / 1000 Ang^3
#
#
#
# Elastic Constant Matrix: (Units=GPa)
#
#
# Indices 1 2 3 4 5 6 
#
# 1 42.4159 36.6358 35.3483 0.0000 0.0000 0.0000
# 2 36.6358 109.1664 39.4161 0.0000 0.0000 0.0000
# 3 35.3483 39.4161 128.7344 0.0000 0.0000 0.0000
# 4 0.0000 0.0000 0.0000 32.5275 0.0000 0.0000
# 5 0.0000 0.0000 0.0000 0.0000 10.2215 0.0000
# 6 0.0000 0.0000 0.0000 0.0000 0.0000 14.5211
#
#
#
# Elastic Compliance Matrix: (Units=1/GPa)
#
#
# Indices 1 2 3 4 5 6 
#
# 1 0.038688 -0.010285 -0.007474 0.000000 0.000000 0.000000
# 2 -0.010285 0.013033 -0.001166 0.000000 0.000000 0.000000
# 3 -0.007474 -0.001166 0.010177 0.000000 0.000000 0.000000
# 4 0.000000 0.000000 0.000000 0.030743 0.000000 0.000000
# 5 0.000000 0.000000 0.000000 0.000000 0.097833 0.000000
# 6 0.000000 0.000000 0.000000 0.000000 0.000000 0.068866
#
#
# Mechanical properties :
#
#
# Convention : Reuss Voigt Hill
#
# Bulk Modulus (GPa) = 41.58407 55.90190 48.74299
# Shear Modulus (GPa) = 16.38234 22.71512 19.54873
#
# Velocity S-wave (km/s) = 2.90784 3.42405 3.17645
# Velocity P-wave (km/s) = 5.72164 6.66973 6.21380
#
# Compressibility (1/GPa) = 0.02404767
#
# Stress axis : x y z
#
# Youngs Moduli (GPa) = 25.84774 76.72784 98.25785
#
# Poissons Ratio (x) = 0.78914 0.73438
# Poissons Ratio (y) = 0.26584 0.11461
# Poissons Ratio (z) = 0.19319 0.08950
#
# Static dielectric constant tensor:
#      x y z
#    x 3.168410 0.000000 0.000000 
#    y 0.000000 3.623780 0.000000 
#    z 0.000000 0.000000 3.733590 
# 
# 
# High freq. dielectric constant tensor:
#      x y z
#    x 1.712780 0.000000 0.000000 
#    y 0.000000 1.764130 0.000000 
#    z 0.000000 0.000000 1.774630 
# 
# From -- ./inp_files/2987.got.cif
#   From: 2010.03.12/outbox.cif.g09.slc.cpg/sg26_2_cif.got.tgz:2987.got - 2010.04.14 03:33:09.
