data_PCOD8167880
_publ_section_title
;
Structure prediction by ZEFSAII (Michael W. Deem and Ramdas Pophale) SiO2 
 PCOD8167880
Probable space group: P C C 2
;
_chemical_formula_sum "Si O2"
_cell_formula_units_Z 30
_cell_length_a 11.119062
_cell_length_b 13.133005
_cell_length_c 9.672720
_cell_angle_alpha 90.000000
_cell_angle_beta 90.000000
_cell_angle_gamma 90.000000
_cell_volume 1412.475351
_symmetry_space_group_name_H-M "P C C 2"
_symmetry_group_IT_number 27
_symmetry_cell_setting 'orthorhombic'
loop_
_space_group_symop_operation_xyz
x,y,z
-x,-y,z
-x,y,1/2+z
x,-y,1/2+z
loop_
_atom_site_type_symbol
_atom_site_label
_atom_site_fract_x
_atom_site_fract_y
_atom_site_fract_z
Si Si1 0.539324 0.713853 0.370110
Si Si2 0.273004 0.979670 0.285040
Si Si3 0.879970 0.811132 0.913343
Si Si4 0.572231 0.835874 0.622623
Si Si5 0.364267 0.463736 0.197579
Si Si6 0.500000 0.000000 0.449309
Si Si7 0.061493 0.892052 0.696756
Si Si8 0.291528 0.381656 0.919944
O O1 0.611806 0.753508 0.506272
O O2 0.486654 0.796995 0.263584
O O3 0.627335 0.637813 0.290411
O O4 0.424005 0.662813 0.438520
O O5 0.206946 0.907429 0.394618
O O6 0.311732 0.907070 0.155807
O O7 0.388713 0.029614 0.354153
O O8 0.195155 0.078434 0.245851
O O9 0.810758 0.703642 0.896870
O O10 0.990188 0.823468 0.806998
O O11 0.934108 0.818336 0.065774
O O12 0.469838 0.903490 0.546697
O O13 0.500000 0.500000 0.158326
O O14 0.290613 0.547229 0.284899
O O15 0.279809 0.444368 0.063606
O O16 0.000000 0.000000 0.661137
#
# Coordination Sequence:
#
# PCOD8167880 Si02
#       8
#     4   4   4   4   4   2   4   4
#     4  11  22  37  60  93 142 194 219 259 328 421
#     4  11  23  39  62  95 140 182 230 268 328 398
#     4  11  23  44  70  94 126 167 239 286 342 399
#     4  12  22  36  55  89 143 193 223 262 312 397
#     4  10  22  38  65  98 140 183 217 272 344 423
#     4  12  24  36  54  98 148 190 212 272 320 398
#     4  10  23  45  71  94 125 180 229 289 332 397
#     4  11  22  40  64  98 133 170 229 284 340 411
#
# _framework density 21.239307
#
# number of rings (size 3 to 8) (size 9 to 14) (size 15 to 20)
#    0.000    1.067    4.000    3.600    1.867    3.200 
#    0.000    1.333    0.000    2.400    0.000    0.000 
#    0.000    0.000    0.000    0.000    0.000    0.000 
#
# Total GULP energy -371862.309415 kJ/mol
# GULP energy per Si atom -12395.410314 kJ/mol
# Density = 2.119097 g / cm^3
# Si number density = 21.239307 Si / 1000 Ang^3
#
#
#
# Elastic Constant Matrix: (Units=GPa)
#
#
# Indices 1 2 3 4 5 6 
#
# 1 84.2606 32.6485 51.7502 0.0000 0.0000 0.0000
# 2 32.6485 91.8583 55.7831 0.0000 0.0000 0.0000
# 3 51.7502 55.7831 151.3967 0.0000 0.0000 0.0000
# 4 0.0000 0.0000 0.0000 43.3576 0.0000 0.0000
# 5 0.0000 0.0000 0.0000 0.0000 26.8959 0.0000
# 6 0.0000 0.0000 0.0000 0.0000 0.0000 36.5357
#
#
#
# Elastic Compliance Matrix: (Units=1/GPa)
#
#
# Indices 1 2 3 4 5 6 
#
# 1 0.015629 -0.002977 -0.004245 0.000000 0.000000 0.000000
# 2 -0.002977 0.014591 -0.004359 0.000000 0.000000 0.000000
# 3 -0.004245 -0.004359 0.009662 0.000000 0.000000 0.000000
# 4 0.000000 0.000000 0.000000 0.023064 0.000000 0.000000
# 5 0.000000 0.000000 0.000000 0.000000 0.037180 0.000000
# 6 0.000000 0.000000 0.000000 0.000000 0.000000 0.027370
#
#
# Mechanical properties :
#
#
# Convention : Reuss Voigt Hill
#
# Bulk Modulus (GPa) = 59.80638 67.54215 63.67427
# Shear Modulus (GPa) = 32.00358 33.84674 32.92516
#
# Velocity S-wave (km/s) = 3.88597 3.99631 3.94153
# Velocity P-wave (km/s) = 6.95370 7.29134 7.12452
#
# Compressibility (1/GPa) = 0.01672062
#
# Stress axis : x y z
#
# Youngs Moduli (GPa) = 63.98481 68.53410 103.49456
#
# Poissons Ratio (x) = 0.20400 0.43938
# Poissons Ratio (y) = 0.19046 0.45111
# Poissons Ratio (z) = 0.27164 0.29872
#
# Static dielectric constant tensor:
#      x y z
#    x 3.610450 0.000000 0.000000 
#    y 0.000000 3.933360 0.000000 
#    z 0.000000 0.000000 4.035760 
# 
# 
# High freq. dielectric constant tensor:
#      x y z
#    x 1.789300 0.000000 0.000000 
#    y 0.000000 1.829240 0.000000 
#    z 0.000000 0.000000 1.858290 
# 
# From -- ./inp_files/1462.got.cif
#   From: 2010.03.12/outbox.cif.g09.slc.cpg/sg27_1_cif.got.tgz:1462.got - 2010.04.14 03:36:05.
