data_PCOD8167739
_publ_section_title
;
Structure prediction by ZEFSAII (Michael W. Deem and Ramdas Pophale) SiO2 
 PCOD8167739
Probable space group: P M C 21
;
_chemical_formula_sum "Si O2"
_cell_formula_units_Z 20
_cell_length_a 14.919816
_cell_length_b 5.225500
_cell_length_c 9.505784
_cell_angle_alpha 90.000000
_cell_angle_beta 90.000000
_cell_angle_gamma 90.000000
_cell_volume 741.104177
_symmetry_space_group_name_H-M "P M C 21"
_symmetry_group_IT_number 26
_symmetry_cell_setting 'orthorhombic'
loop_
_space_group_symop_operation_xyz
x,y,z
-x,-y,1/2+z
-x,y,z
x,-y,1/2+z
loop_
_atom_site_type_symbol
_atom_site_label
_atom_site_fract_x
_atom_site_fract_y
_atom_site_fract_z
Si Si1 0.601763 0.463360 0.814050
Si Si2 0.598725 0.029566 0.490115
Si Si3 0.845124 0.896132 0.406648
Si Si4 0.000000 0.208889 0.485362
Si Si5 0.000000 0.418222 0.764453
Si Si6 0.734237 0.192085 0.170158
O O1 0.500000 0.444193 0.748330
O O2 0.630154 0.191959 0.881136
O O3 0.680144 0.544735 0.704433
O O4 0.602321 0.688593 0.928660
O O5 0.500000 0.958633 0.543671
O O6 0.661322 0.025996 0.628274
O O7 0.788525 0.086050 0.305200
O O8 0.909524 0.055639 0.509956
O O9 0.788881 0.744930 0.525932
O O10 0.907544 0.712520 0.313757
O O11 0.000000 0.296670 0.322775
O O12 0.000000 0.442577 0.596188
#
# Coordination Sequence:
#
# PCOD8167739 Si02
#       6
#     4   4   4   2   2   4
#     4  10  23  45  72 105 150 204 253 302 368 443
#     4  10  23  45  72 105 150 204 253 302 368 443
#     4  11  26  48  73 104 148 188 247 314 386 465
#     4  11  26  48  75 103 141 191 244 306 386 473
#     4  11  26  48  75 103 141 191 244 306 386 473
#     4  12  23  47  72 110 148 196 246 323 377 444
#
# _framework density 26.986761000000001
#
# number of rings (size 3 to 8) (size 9 to 14) (size 15 to 20)
#    0.000    1.200    4.000    0.600    2.800    3.200 
#    7.200    6.000    0.000    0.000    0.000    0.000 
#    0.000    0.000    0.000    0.000    0.000    0.000 
#
# Total GULP energy -247801.456226 kJ/mol
# GULP energy per Si atom -12390.072811 kJ/mol
# Density = 2.692534 g / cm^3
# Si number density = 26.986761 Si / 1000 Ang^3
#
#
#
# Elastic Constant Matrix: (Units=GPa)
#
#
# Indices 1 2 3 4 5 6 
#
# 1 150.2285 -1.5751 50.1706 0.0000 0.0000 0.0000
# 2 -1.5751 55.7511 17.8500 0.0000 0.0000 0.0000
# 3 50.1706 17.8500 123.3074 0.0000 0.0000 0.0000
# 4 0.0000 0.0000 0.0000 41.0415 0.0000 0.0000
# 5 0.0000 0.0000 0.0000 0.0000 -86.6507 0.0000
# 6 0.0000 0.0000 0.0000 0.0000 0.0000 14.6121
#
#
#
# Elastic Compliance Matrix: (Units=1/GPa)
#
#
# Indices 1 2 3 4 5 6 
#
# 1 0.007791 0.001295 -0.003358 0.000000 0.000000 0.000000
# 2 0.001295 0.019024 -0.003281 0.000000 0.000000 0.000000
# 3 -0.003358 -0.003281 0.009951 0.000000 0.000000 0.000000
# 4 0.000000 0.000000 0.000000 0.024366 0.000000 0.000000
# 5 0.000000 0.000000 0.000000 0.000000 -0.011541 0.000000
# 6 0.000000 0.000000 0.000000 0.000000 0.000000 0.068436
#
#
# Mechanical properties :
#
#
# Convention : Reuss Voigt Hill
#
# Bulk Modulus (GPa) = 38.34425 51.35310 44.84868
# Shear Modulus (GPa) = 36.38816 11.32335 23.85576
#
# Velocity S-wave (km/s) = 3.67600 2.05061 2.97641
# Velocity P-wave (km/s) = 5.67950 4.96759 5.33543
#
# Compressibility (1/GPa) = 0.02607953
#
# Stress axis : x y z
#
# Youngs Moduli (GPa) = 128.34623 52.56550 100.49361
#
# Poissons Ratio (x) = -0.06808 0.33742
# Poissons Ratio (y) = -0.16623 0.32970
# Poissons Ratio (z) = 0.43094 0.17246
#
# Static dielectric constant tensor:
#      x y z
#    x 5.640700 0.000000 0.000000 
#    y 0.000000 4.569240 0.000000 
#    z 0.000000 0.000000 4.796670 
# 
# 
# High freq. dielectric constant tensor:
#      x y z
#    x 2.114330 0.000000 0.000000 
#    y 0.000000 2.068950 0.000000 
#    z 0.000000 0.000000 2.089340 
# 
# From -- ./inp_files/3433.got.cif
#   From: 2010.03.12/outbox.cif.g09.slc.cpg/sg26_2_cif.got.tgz:3433.got - 2010.04.14 03:33:09.
