data_PCOD8167503
_publ_section_title
;
Structure prediction by ZEFSAII (Michael W. Deem and Ramdas Pophale) SiO2 
 PCOD8167503
Probable space group: P M C 21
;
_chemical_formula_sum "Si O2"
_cell_formula_units_Z 32
_cell_length_a 9.208163
_cell_length_b 14.306292
_cell_length_c 12.230576
_cell_angle_alpha 90.000000
_cell_angle_beta 90.000000
_cell_angle_gamma 90.000000
_cell_volume 1611.190877
_symmetry_space_group_name_H-M "P M C 21"
_symmetry_group_IT_number 26
_symmetry_cell_setting 'orthorhombic'
loop_
_space_group_symop_operation_xyz
x,y,z
-x,-y,1/2+z
-x,y,z
x,-y,1/2+z
loop_
_atom_site_type_symbol
_atom_site_label
_atom_site_fract_x
_atom_site_fract_y
_atom_site_fract_z
Si Si1 0.671226 0.949898 0.815250
Si Si2 0.170298 0.127637 0.878244
Si Si3 0.668644 0.832601 0.599274
Si Si4 0.664041 0.429037 0.592440
Si Si5 0.337464 0.369484 0.179772
Si Si6 0.839005 0.366601 0.389516
Si Si7 0.831350 0.271939 0.697460
Si Si8 0.837930 0.832006 0.982033
O O1 0.500000 0.964633 0.824751
O O2 0.712168 0.887604 0.709799
O O3 0.726308 0.904707 0.929024
O O4 0.751444 0.049014 0.804770
O O5 0.197371 0.225887 0.815520
O O6 0.000000 0.105319 0.885579
O O7 0.235883 0.129833 0.999430
O O8 0.500000 0.849129 0.571270
O O9 0.704544 0.722992 0.612330
O O10 0.500000 0.392091 0.591269
O O11 0.669493 0.540111 0.604297
O O12 0.735409 0.413335 0.476527
O O13 0.745225 0.369835 0.687634
O O14 0.500000 0.355623 0.229015
O O15 0.221348 0.390461 0.271811
O O16 0.842437 0.255728 0.401416
O O17 0.000000 0.409375 0.401149
O O18 0.781666 0.200115 0.601577
O O19 0.000000 0.295360 0.678009
O O20 0.000000 0.876493 0.990339
#
# Coordination Sequence:
#
# PCOD8167503 Si02
#       8
#     4   4   4   4   4   4   4   4
#     4  11  23  39  62  90 118 154 200 251 302 358
#     4  11  25  42  62  88 124 165 202 249 306 367
#     4  10  23  43  63  89 124 158 200 252 302 363
#     4  10  21  36  60  90 121 162 205 249 305 362
#     4  10  21  39  61  87 121 159 202 252 304 359
#     4  10  20  35  57  85 117 154 198 250 302 356
#     4   9  21  41  60  86 122 159 203 252 302 355
#     4   9  18  35  59  85 113 149 194 247 301 354
#
# _framework density 19.861084999999999
#
# number of rings (size 3 to 8) (size 9 to 14) (size 15 to 20)
#    0.000    2.000    1.250    2.250    1.750    6.500 
#    0.000    3.750    0.000    0.000    0.000    0.000 
#    0.000    0.000    0.000    0.000    0.000    0.000 
#
# Total GULP energy -396801.012798 kJ/mol
# GULP energy per Si atom -12400.031650 kJ/mol
# Density = 1.981588 g / cm^3
# Si number density = 19.861085 Si / 1000 Ang^3
#
#
#
# Elastic Constant Matrix: (Units=GPa)
#
#
# Indices 1 2 3 4 5 6 
#
# 1 109.7212 53.8883 44.7764 0.0000 0.0000 0.0000
# 2 53.8883 100.3541 32.4045 0.0000 0.0000 0.0000
# 3 44.7764 32.4045 77.5510 0.0000 0.0000 0.0000
# 4 0.0000 0.0000 0.0000 22.6781 0.0000 0.0000
# 5 0.0000 0.0000 0.0000 0.0000 32.4342 0.0000
# 6 0.0000 0.0000 0.0000 0.0000 0.0000 30.2891
#
#
#
# Elastic Compliance Matrix: (Units=1/GPa)
#
#
# Indices 1 2 3 4 5 6 
#
# 1 0.014365 -0.005821 -0.005862 0.000000 0.000000 0.000000
# 2 -0.005821 0.013878 -0.002438 0.000000 0.000000 0.000000
# 3 -0.005862 -0.002438 0.017298 0.000000 0.000000 0.000000
# 4 0.000000 0.000000 0.000000 0.044095 0.000000 0.000000
# 5 0.000000 0.000000 0.000000 0.000000 0.030832 0.000000
# 6 0.000000 0.000000 0.000000 0.000000 0.000000 0.033015
#
#
# Mechanical properties :
#
#
# Convention : Reuss Voigt Hill
#
# Bulk Modulus (GPa) = 57.80564 61.08495 59.44530
# Shear Modulus (GPa) = 26.66802 27.51744 27.09273
#
# Velocity S-wave (km/s) = 3.66830 3.72626 3.69739
# Velocity P-wave (km/s) = 6.86368 7.02398 6.94429
#
# Compressibility (1/GPa) = 0.01729935
#
# Stress axis : x y z
#
# Youngs Moduli (GPa) = 69.61316 72.05825 57.81054
#
# Poissons Ratio (x) = 0.41945 0.33888
# Poissons Ratio (y) = 0.40522 0.14093
# Poissons Ratio (z) = 0.40806 0.17566
#
# Static dielectric constant tensor:
#      x y z
#    x 3.724500 0.000000 0.000000 
#    y 0.000000 3.632050 0.000000 
#    z 0.000000 0.000000 3.421250 
# 
# 
# High freq. dielectric constant tensor:
#      x y z
#    x 1.780980 0.000000 0.000000 
#    y 0.000000 1.772070 0.000000 
#    z 0.000000 0.000000 1.766410 
# 
# From -- ./inp_files/2965.got.cif
#   From: 2010.03.12/outbox.cif.g09.slc.cpg/sg26_2_cif.got.tgz:2965.got - 2010.04.14 03:33:09.
