data_PCOD8167240
_publ_section_title
;
Structure prediction by ZEFSAII (Michael W. Deem and Ramdas Pophale) SiO2 
 PCOD8167240
Probable space group: P M C 21
;
_chemical_formula_sum "Si O2"
_cell_formula_units_Z 32
_cell_length_a 8.946714
_cell_length_b 12.213076
_cell_length_c 14.435907
_cell_angle_alpha 90.000000
_cell_angle_beta 90.000000
_cell_angle_gamma 90.000000
_cell_volume 1577.366778
_symmetry_space_group_name_H-M "P M C 21"
_symmetry_group_IT_number 26
_symmetry_cell_setting 'orthorhombic'
loop_
_space_group_symop_operation_xyz
x,y,z
-x,-y,1/2+z
-x,y,z
x,-y,1/2+z
loop_
_atom_site_type_symbol
_atom_site_label
_atom_site_fract_x
_atom_site_fract_y
_atom_site_fract_z
Si Si1 0.665949 0.670904 0.984680
Si Si2 0.323147 0.593164 0.288498
Si Si3 0.827522 0.606711 0.680802
Si Si4 0.826872 0.985251 0.881469
Si Si5 0.831658 0.869928 0.061359
Si Si6 0.829075 0.818656 0.262207
Si Si7 0.667845 0.780404 0.793074
Si Si8 0.170253 0.543614 0.477444
O O1 0.500000 0.635199 0.017243
O O2 0.666191 0.692876 0.875671
O O3 0.786057 0.578669 0.006959
O O4 0.711426 0.777770 0.040252
O O5 0.500000 0.584734 0.282211
O O6 0.256554 0.496654 0.225769
O O7 0.271050 0.711007 0.250469
O O8 0.275445 0.586250 0.395700
O O9 0.763910 0.723525 0.713068
O O10 0.808233 0.614135 0.570083
O O11 0.000000 0.595767 0.709693
O O12 0.737860 0.894316 0.824682
O O13 0.000000 0.970295 0.855807
O O14 0.774640 0.106043 0.848402
O O15 0.798991 0.973078 0.992710
O O16 0.815125 0.896087 0.170290
O O17 0.000000 0.827353 0.040055
O O18 0.000000 0.780195 0.276937
O O19 0.500000 0.803203 0.757694
O O20 0.000000 0.546352 0.442347
#
# Coordination Sequence:
#
# PCOD8167240 Si02
#       8
#     4   4   4   4   4   4   4   4
#     4  10  19  32  54  84 115 149 188 238 292 345
#     4  12  25  40  60  88 124 161 196 244 303 361
#     4  11  23  39  61  88 118 156 201 244 292 354
#     4   9  19  37  60  84 113 151 198 251 295 343
#     4   9  18  34  58  85 111 150 199 246 295 345
#     4  10  21  39  60  84 117 156 202 249 294 352
#     4  10  20  35  57  84 115 148 187 239 296 348
#     4  11  23  38  58  85 117 157 199 241 291 354
#
# _framework density 20.286977
#
# number of rings (size 3 to 8) (size 9 to 14) (size 15 to 20)
#    0.000    1.750    1.250    3.375    0.000    7.000 
#    2.250    0.000    0.000    0.000    0.000    0.000 
#    0.000    0.000    0.000    0.000    0.000    0.000 
#
# Total GULP energy -396736.601840 kJ/mol
# GULP energy per Si atom -12398.018808 kJ/mol
# Density = 2.024080 g / cm^3
# Si number density = 20.286977 Si / 1000 Ang^3
#
#
#
# Elastic Constant Matrix: (Units=GPa)
#
#
# Indices 1 2 3 4 5 6 
#
# 1 110.5856 23.4107 28.9325 0.0000 0.0000 0.0000
# 2 23.4107 50.5585 14.4023 0.0000 0.0000 0.0000
# 3 28.9325 14.4023 82.3696 0.0000 0.0000 0.0000
# 4 0.0000 0.0000 0.0000 22.6141 0.0000 0.0000
# 5 0.0000 0.0000 0.0000 0.0000 17.6669 0.0000
# 6 0.0000 0.0000 0.0000 0.0000 0.0000 20.8360
#
#
#
# Elastic Compliance Matrix: (Units=1/GPa)
#
#
# Indices 1 2 3 4 5 6 
#
# 1 0.010705 -0.004090 -0.003045 0.000000 0.000000 0.000000
# 2 -0.004090 0.022378 -0.002476 0.000000 0.000000 0.000000
# 3 -0.003045 -0.002476 0.013643 0.000000 0.000000 0.000000
# 4 0.000000 0.000000 0.000000 0.044220 0.000000 0.000000
# 5 0.000000 0.000000 0.000000 0.000000 0.056603 0.000000
# 6 0.000000 0.000000 0.000000 0.000000 0.000000 0.047994
#
#
# Mechanical properties :
#
#
# Convention : Reuss Voigt Hill
#
# Bulk Modulus (GPa) = 36.35800 41.88941 39.12371
# Shear Modulus (GPa) = 22.32806 24.00795 23.16801
#
# Velocity S-wave (km/s) = 3.32114 3.44381 3.38304
# Velocity P-wave (km/s) = 5.71554 6.04205 5.88106
#
# Compressibility (1/GPa) = 0.02750426
#
# Stress axis : x y z
#
# Youngs Moduli (GPa) = 93.41237 44.68651 73.29753
#
# Poissons Ratio (x) = 0.18275 0.22320
# Poissons Ratio (y) = 0.38201 0.18151
# Poissons Ratio (z) = 0.28446 0.11066
#
# Static dielectric constant tensor:
#      x y z
#    x 3.745080 0.000000 0.000000 
#    y 0.000000 3.437700 0.000000 
#    z 0.000000 0.000000 3.845280 
# 
# 
# High freq. dielectric constant tensor:
#      x y z
#    x 1.796050 0.000000 0.000000 
#    y 0.000000 1.770410 0.000000 
#    z 0.000000 0.000000 1.796830 
# 
# From -- ./inp_files/4136.got.cif
#   From: 2010.03.12/outbox.cif.g09.slc.cpg/sg26_3_cif.got.tgz:4136.got - 2010.04.14 03:33:09.
