data_PCOD8167505
_publ_section_title
;
Structure prediction by ZEFSAII (Michael W. Deem and Ramdas Pophale) SiO2 
 PCOD8167505
Probable space group: P M C 21
;
_chemical_formula_sum "Si O2"
_cell_formula_units_Z 24
_cell_length_a 9.199879
_cell_length_b 12.299797
_cell_length_c 10.630466
_cell_angle_alpha 90.000000
_cell_angle_beta 90.000000
_cell_angle_gamma 90.000000
_cell_volume 1202.907858
_symmetry_space_group_name_H-M "P M C 21"
_symmetry_group_IT_number 26
_symmetry_cell_setting 'orthorhombic'
loop_
_space_group_symop_operation_xyz
x,y,z
-x,-y,1/2+z
-x,y,z
x,-y,1/2+z
loop_
_atom_site_type_symbol
_atom_site_label
_atom_site_fract_x
_atom_site_fract_y
_atom_site_fract_z
Si Si1 0.834836 0.239436 0.322440
Si Si2 0.333958 0.820138 0.044877
Si Si3 0.671522 0.417178 0.197605
Si Si4 0.334051 0.197122 0.832382
Si Si5 0.834733 0.013340 0.413296
Si Si6 0.670545 0.572432 0.417132
O O1 0.750240 0.265690 0.454197
O O2 0.751850 0.300725 0.209818
O O3 0.000000 0.281286 0.331258
O O4 0.829209 0.107566 0.303904
O O5 0.500000 0.829364 0.999484
O O6 0.323915 0.776530 0.185168
O O7 0.257440 0.939385 0.031772
O O8 0.500000 0.397712 0.210227
O O9 0.736057 0.494139 0.308707
O O10 0.708219 0.466520 0.059271
O O11 0.500000 0.169631 0.870975
O O12 0.231874 0.097365 0.864642
O O13 0.272871 0.304029 0.901838
O O14 0.000000 0.992268 0.456457
O O15 0.500000 0.574314 0.392432
#
# Coordination Sequence:
#
# PCOD8167505 Si02
#       6
#     4   4   4   4   4   4
#     4   9  20  37  56  82 115 151 192 236 289 350
#     4   9  18  33  57  84 111 150 195 241 290 341
#     4  10  20  37  62  86 115 152 195 243 295 348
#     4  10  20  35  57  87 119 150 196 246 289 347
#     4   9  20  35  53  81 118 157 192 234 289 351
#     4   9  21  37  59  90 116 148 194 248 294 343
#
# _framework density 19.951651999999999
#
# number of rings (size 3 to 8) (size 9 to 14) (size 15 to 20)
#    1.000    1.667    0.000    1.000    2.333    2.667 
#    0.000    7.500    0.000    0.000    0.000    0.000 
#    0.000    0.000    0.000    0.000    0.000    0.000 
#
# Total GULP energy -297348.788351 kJ/mol
# GULP energy per Si atom -12389.532848 kJ/mol
# Density = 1.990624 g / cm^3
# Si number density = 19.951652 Si / 1000 Ang^3
#
#
#
# Elastic Constant Matrix: (Units=GPa)
#
#
# Indices 1 2 3 4 5 6 
#
# 1 99.0962 33.0058 38.7024 0.0000 0.0000 0.0000
# 2 33.0058 88.5216 44.6986 0.0000 0.0000 0.0000
# 3 38.7024 44.6986 104.4727 0.0000 0.0000 0.0000
# 4 0.0000 0.0000 0.0000 33.6510 0.0000 0.0000
# 5 0.0000 0.0000 0.0000 0.0000 6.4785 0.0000
# 6 0.0000 0.0000 0.0000 0.0000 0.0000 22.1388
#
#
#
# Elastic Compliance Matrix: (Units=1/GPa)
#
#
# Indices 1 2 3 4 5 6 
#
# 1 0.012367 -0.002931 -0.003327 0.000000 0.000000 0.000000
# 2 -0.002931 0.015104 -0.005377 0.000000 0.000000 0.000000
# 3 -0.003327 -0.005377 0.013105 0.000000 0.000000 0.000000
# 4 0.000000 0.000000 0.000000 0.029717 0.000000 0.000000
# 5 0.000000 0.000000 0.000000 0.000000 0.154358 0.000000
# 6 0.000000 0.000000 0.000000 0.000000 0.000000 0.045169
#
#
# Mechanical properties :
#
#
# Convention : Reuss Voigt Hill
#
# Bulk Modulus (GPa) = 57.78232 58.32269 58.05250
# Shear Modulus (GPa) = 16.73030 24.16590 20.44810
#
# Velocity S-wave (km/s) = 2.89890 3.48404 3.20485
# Velocity P-wave (km/s) = 6.34262 6.74390 6.54634
#
# Compressibility (1/GPa) = 0.01730633
#
# Stress axis : x y z
#
# Youngs Moduli (GPa) = 80.86084 66.20585 76.30729
#
# Poissons Ratio (x) = 0.19405 0.25390
# Poissons Ratio (y) = 0.23700 0.41028
# Poissons Ratio (z) = 0.26905 0.35596
#
# Static dielectric constant tensor:
#      x y z
#    x 3.455860 0.000000 0.000000 
#    y 0.000000 3.511640 0.000000 
#    z 0.000000 0.000000 3.476880 
# 
# 
# High freq. dielectric constant tensor:
#      x y z
#    x 1.761470 0.000000 0.000000 
#    y 0.000000 1.768880 0.000000 
#    z 0.000000 0.000000 1.764360 
# 
# From -- ./inp_files/2823.got.cif
#   From: 2010.03.12/outbox.cif.g09.slc.cpg/sg26_2_cif.got.tgz:2823.got - 2010.04.14 03:33:09.
