data_PCOD8167077
_publ_section_title
;
Structure prediction by ZEFSAII (Michael W. Deem and Ramdas Pophale) SiO2 
 PCOD8167077
Probable space group: P M C 21
;
_chemical_formula_sum "Si O2"
_cell_formula_units_Z 32
_cell_length_a 12.183563
_cell_length_b 30.561294
_cell_length_c 5.159267
_cell_angle_alpha 90.000000
_cell_angle_beta 90.000000
_cell_angle_gamma 90.000000
_cell_volume 1921.029597
_symmetry_space_group_name_H-M "P M C 21"
_symmetry_group_IT_number 26
_symmetry_cell_setting 'orthorhombic'
loop_
_space_group_symop_operation_xyz
x,y,z
-x,-y,1/2+z
-x,y,z
x,-y,1/2+z
loop_
_atom_site_type_symbol
_atom_site_label
_atom_site_fract_x
_atom_site_fract_y
_atom_site_fract_z
Si Si1 0.748973 0.882866 0.987910
Si Si2 0.250953 0.232293 0.991466
Si Si3 0.369974 0.623726 0.006079
Si Si4 0.627838 0.856350 0.488616
Si Si5 0.128430 0.794398 0.990814
Si Si6 0.369040 0.525527 0.024603
Si Si7 0.369719 0.323775 0.003633
Si Si8 0.127488 0.027404 0.494148
O O1 0.691907 0.883329 0.708181
O O2 0.841937 0.845628 0.003330
O O3 0.804478 0.929003 0.038206
O O4 0.658117 0.875111 0.207857
O O5 0.342608 0.194697 0.009061
O O6 0.190699 0.231876 0.715870
O O7 0.161356 0.226124 0.216044
O O8 0.312958 0.277378 0.029993
O O9 0.500000 0.620804 0.019044
O O10 0.326706 0.652167 0.246402
O O11 0.321151 0.574733 0.019179
O O12 0.331287 0.646393 0.742439
O O13 0.500000 0.862286 0.535919
O O14 0.000000 0.789009 0.032489
O O15 0.500000 0.526629 0.022618
O O16 0.324343 0.499025 0.777933
O O17 0.500000 0.316699 0.000794
O O18 0.000000 0.039887 0.507939
O O19 0.158711 0.993386 0.719014
#
# Coordination Sequence:
#
# PCOD8167077 Si02
#       8
#     4   4   4   4   4   4   4   4
#     4  10  20  34  54  75  98 126 154 191 232 273
#     4  10  20  32  49  71  92 123 157 189 232 270
#     4   9  17  26  38  57  81 116 155 193 233 264
#     4  10  20  34  52  73  97 126 162 197 228 264
#     4  10  20  34  51  72  96 119 151 189 228 277
#     4   9  15  23  35  51  74 106 150 196 228 262
#     4  10  18  29  43  61  90 120 155 195 224 263
#     4  10  20  34  54  78 101 124 152 190 238 287
#
# _framework density 16.657734999999999
#
# number of rings (size 3 to 8) (size 9 to 14) (size 15 to 20)
#    0.000    2.250    0.000    3.750    0.000    3.000 
#    0.000    7.500    0.000    7.500    0.000    0.000 
#    0.000    0.000    0.000    0.000    0.000  157.500 
#
# Total GULP energy -396876.039381 kJ/mol
# GULP energy per Si atom -12402.376231 kJ/mol
# Density = 1.661982 g / cm^3
# Si number density = 16.657735 Si / 1000 Ang^3
#
#
#
# Elastic Constant Matrix: (Units=GPa)
#
#
# Indices 1 2 3 4 5 6 
#
# 1 48.2924 31.3540 9.9076 0.0000 0.0000 0.0000
# 2 31.3540 104.1546 16.2514 0.0000 0.0000 0.0000
# 3 9.9076 16.2514 83.0306 0.0000 0.0000 0.0000
# 4 0.0000 0.0000 0.0000 21.4784 0.0000 0.0000
# 5 0.0000 0.0000 0.0000 0.0000 10.5123 0.0000
# 6 0.0000 0.0000 0.0000 0.0000 0.0000 13.9977
#
#
#
# Elastic Compliance Matrix: (Units=1/GPa)
#
#
# Indices 1 2 3 4 5 6 
#
# 1 0.025946 -0.007558 -0.001617 0.000000 0.000000 0.000000
# 2 -0.007558 0.012105 -0.001467 0.000000 0.000000 0.000000
# 3 -0.001617 -0.001467 0.012524 0.000000 0.000000 0.000000
# 4 0.000000 0.000000 0.000000 0.046558 0.000000 0.000000
# 5 0.000000 0.000000 0.000000 0.000000 0.095127 0.000000
# 6 0.000000 0.000000 0.000000 0.000000 0.000000 0.071440
#
#
# Mechanical properties :
#
#
# Convention : Reuss Voigt Hill
#
# Bulk Modulus (GPa) = 34.14078 38.94483 36.54281
# Shear Modulus (GPa) = 16.96358 21.06200 19.01279
#
# Velocity S-wave (km/s) = 3.19464 3.55969 3.38210
# Velocity P-wave (km/s) = 5.84359 6.35023 6.10217
#
# Compressibility (1/GPa) = 0.02929048
#
# Stress axis : x y z
#
# Youngs Moduli (GPa) = 38.54126 82.60753 79.84751
#
# Poissons Ratio (x) = 0.62438 0.12908
# Poissons Ratio (y) = 0.29131 0.11717
# Poissons Ratio (z) = 0.06231 0.12122
#
# Static dielectric constant tensor:
#      x y z
#    x 2.685920 0.000000 0.000000 
#    y 0.000000 3.137110 0.000000 
#    z 0.000000 0.000000 3.417520 
# 
# 
# High freq. dielectric constant tensor:
#      x y z
#    x 1.593450 0.000000 0.000000 
#    y 0.000000 1.645250 0.000000 
#    z 0.000000 0.000000 1.666750 
# 
# From -- ./inp_files/498.got.cif
#   From: 2010.03.12/outbox.cif.g09.slc.cpg/sg26_1_cif.got.tgz:498.got - 2010.04.14 03:33:09.
