data_PCOD8167944
_publ_section_title
;
Structure prediction by ZEFSAII (Michael W. Deem and Ramdas Pophale) SiO2 
 PCOD8167944
Probable space group: P C C 2
;
_chemical_formula_sum "Si O2"
_cell_formula_units_Z 32
_cell_length_a 13.268177
_cell_length_b 11.387698
_cell_length_c 9.505523
_cell_angle_alpha 90.000000
_cell_angle_beta 90.000000
_cell_angle_gamma 90.000000
_cell_volume 1436.227423
_symmetry_space_group_name_H-M "P C C 2"
_symmetry_group_IT_number 27
_symmetry_cell_setting 'orthorhombic'
loop_
_space_group_symop_operation_xyz
x,y,z
-x,-y,z
-x,y,1/2+z
x,-y,1/2+z
loop_
_atom_site_type_symbol
_atom_site_label
_atom_site_fract_x
_atom_site_fract_y
_atom_site_fract_z
Si Si1 0.848669 0.760318 0.522480
Si Si2 0.463534 0.274015 0.562679
Si Si3 0.553893 0.874694 0.824737
Si Si4 0.947566 0.123568 0.528120
Si Si5 0.336695 0.631996 0.661274
Si Si6 0.222451 0.109788 0.791863
Si Si7 0.286145 0.565593 0.966566
Si Si8 0.214907 0.148203 0.238626
O O1 0.808634 0.794450 0.676380
O O2 0.824152 0.623490 0.490929
O O3 0.787853 0.835239 0.406156
O O4 0.967277 0.779788 0.497153
O O5 0.447923 0.160684 0.661135
O O6 0.494603 0.224736 0.410600
O O7 0.545339 0.362474 0.628358
O O8 0.363305 0.350051 0.549300
O O9 0.671612 0.867456 0.871900
O O10 0.500000 0.000000 0.845710
O O11 0.868789 0.105629 0.402258
O O12 0.893032 0.172369 0.667207
O O13 0.000000 0.000000 0.563544
O O14 0.283588 0.564519 0.531351
O O15 0.296906 0.765447 0.670128
O O16 0.314886 0.557985 0.802471
O O17 0.240997 0.987257 0.709430
#
# Coordination Sequence:
#
# PCOD8167944 Si02
#       8
#     4   4   4   4   4   4   4   4
#     4  11  24  41  66  99 138 172 229 289 344 406
#     4  12  24  45  67 102 136 188 235 283 342 429
#     4  12  27  41  68 104 153 188 226 281 360 434
#     4  12  23  39  68 104 138 178 228 276 345 425
#     4  11  26  45  70  95 133 178 240 291 344 412
#     4  12  23  40  68 103 144 182 222 282 354 428
#     4  11  26  46  69  97 132 180 240 294 346 407
#     4  11  23  41  64  99 135 178 222 284 342 415
#
# _framework density 22.280593
#
# number of rings (size 3 to 8) (size 9 to 14) (size 15 to 20)
#    0.000    0.500    5.000    3.000    3.500    4.000 
#    0.000    0.625    0.000    3.000    0.000    0.000 
#    0.000    0.000    0.000    0.000    0.000    0.000 
#
# Total GULP energy -396849.625592 kJ/mol
# GULP energy per Si atom -12401.550800 kJ/mol
# Density = 2.222988 g / cm^3
# Si number density = 22.280593 Si / 1000 Ang^3
#
#
#
# Elastic Constant Matrix: (Units=GPa)
#
#
# Indices 1 2 3 4 5 6 
#
# 1 106.3006 15.0591 10.4560 0.0000 0.0000 0.0000
# 2 15.0591 47.0293 11.4137 0.0000 0.0000 0.0000
# 3 10.4560 11.4137 80.6429 0.0000 0.0000 0.0000
# 4 0.0000 0.0000 0.0000 34.7356 0.0000 0.0000
# 5 0.0000 0.0000 0.0000 0.0000 34.3647 0.0000
# 6 0.0000 0.0000 0.0000 0.0000 0.0000 25.3285
#
#
#
# Elastic Compliance Matrix: (Units=1/GPa)
#
#
# Indices 1 2 3 4 5 6 
#
# 1 0.009912 -0.002964 -0.000866 0.000000 0.000000 0.000000
# 2 -0.002964 0.022906 -0.002858 0.000000 0.000000 0.000000
# 3 -0.000866 -0.002858 0.012917 0.000000 0.000000 0.000000
# 4 0.000000 0.000000 0.000000 0.028789 0.000000 0.000000
# 5 0.000000 0.000000 0.000000 0.000000 0.029100 0.000000
# 6 0.000000 0.000000 0.000000 0.000000 0.000000 0.039481
#
#
# Mechanical properties :
#
#
# Convention : Reuss Voigt Hill
#
# Bulk Modulus (GPa) = 30.90165 34.20338 32.55251
# Shear Modulus (GPa) = 29.89240 32.02202 30.95721
#
# Velocity S-wave (km/s) = 3.66681 3.79518 3.73154
# Velocity P-wave (km/s) = 5.64152 5.88124 5.76263
#
# Compressibility (1/GPa) = 0.03236074
#
# Stress axis : x y z
#
# Youngs Moduli (GPa) = 100.88453 43.65680 77.41702
#
# Poissons Ratio (x) = 0.12939 0.06702
# Poissons Ratio (y) = 0.29901 0.22123
# Poissons Ratio (z) = 0.08734 0.12476
#
# Static dielectric constant tensor:
#      x y z
#    x 4.230330 0.000000 0.000000 
#    y 0.000000 3.831590 0.000000 
#    z 0.000000 0.000000 4.060010 
# 
# 
# High freq. dielectric constant tensor:
#      x y z
#    x 1.880690 0.000000 0.000000 
#    y 0.000000 1.856730 0.000000 
#    z 0.000000 0.000000 1.890010 
# 
# From -- ./inp_files/1492.got.cif
#   From: 2010.03.12/outbox.cif.g09.slc.cpg/sg27_1_cif.got.tgz:1492.got - 2010.04.14 03:36:05.
