data_PCOD8167235
_publ_section_title
;
Structure prediction by ZEFSAII (Michael W. Deem and Ramdas Pophale) SiO2 
 PCOD8167235
Probable space group: P M C 21
;
_chemical_formula_sum "Si O2"
_cell_formula_units_Z 32
_cell_length_a 17.107959
_cell_length_b 20.527086
_cell_length_c 4.945706
_cell_angle_alpha 90.000000
_cell_angle_beta 90.000000
_cell_angle_gamma 90.000000
_cell_volume 1736.815949
_symmetry_space_group_name_H-M "P M C 21"
_symmetry_group_IT_number 26
_symmetry_cell_setting 'orthorhombic'
loop_
_space_group_symop_operation_xyz
x,y,z
-x,-y,1/2+z
-x,y,z
x,-y,1/2+z
loop_
_atom_site_type_symbol
_atom_site_label
_atom_site_fract_x
_atom_site_fract_y
_atom_site_fract_z
Si Si1 0.589871 0.298836 0.978520
Si Si2 0.213836 0.543623 0.096750
Si Si3 0.325587 0.343726 0.486793
Si Si4 0.684513 0.829914 0.486599
Si Si5 0.913282 0.646317 0.232521
Si Si6 0.913366 0.267392 0.226128
Si Si7 0.768857 0.785072 0.985964
Si Si8 0.411389 0.043254 0.868799
O O1 0.500000 0.301286 0.062405
O O2 0.601934 0.327233 0.680357
O O3 0.617276 0.224173 0.964820
O O4 0.640326 0.343421 0.183865
O O5 0.214240 0.480872 0.288580
O O6 0.139840 0.583123 0.208212
O O7 0.290962 0.588470 0.094365
O O8 0.256028 0.290706 0.498328
O O9 0.714657 0.828576 0.792396
O O10 0.648975 0.899662 0.425373
O O11 0.757693 0.815683 0.283716
O O12 0.880696 0.701594 0.443570
O O13 0.000000 0.625625 0.335235
O O14 0.919306 0.673706 0.933328
O O15 0.856194 0.212929 0.358442
O O16 0.000000 0.236184 0.180744
O O17 0.500000 0.069496 0.903005
O O18 0.396459 0.017196 0.568361
#
# Coordination Sequence:
#
# PCOD8167235 Si02
#       8
#     4   4   4   4   4   4   4   4
#     4  10  20  35  57  78 100 129 163 220 271 312
#     4  12  24  36  55  74 100 135 174 216 254 320
#     4  10  21  35  53  75 101 128 168 211 270 324
#     4  10  20  32  52  83 109 137 180 220 250 305
#     4  10  21  35  53  75 103 137 172 210 253 318
#     4  10  19  33  54  77 107 140 169 207 268 330
#     4  10  19  32  54  77 106 137 171 222 268 306
#     4  10  20  34  52  75 114 159 185 208 248 305
#
# _framework density 18.424520000000001
#
# number of rings (size 3 to 8) (size 9 to 14) (size 15 to 20)
#    0.000    1.750    1.250    3.750    3.500    0.500 
#    0.000    3.750    0.000    7.500    0.000    0.000 
#    0.000   10.000    0.000    0.000    0.000    0.000 
#
# Total GULP energy -396672.193756 kJ/mol
# GULP energy per Si atom -12396.006055 kJ/mol
# Density = 1.838258 g / cm^3
# Si number density = 18.424520 Si / 1000 Ang^3
#
#
#
# Elastic Constant Matrix: (Units=GPa)
#
#
# Indices 1 2 3 4 5 6 
#
# 1 72.1271 32.6547 0.2047 0.0000 0.0000 0.0000
# 2 32.6547 56.3997 4.5976 0.0000 0.0000 0.0000
# 3 0.2047 4.5976 68.4269 0.0000 0.0000 0.0000
# 4 0.0000 0.0000 0.0000 18.8869 0.0000 0.0000
# 5 0.0000 0.0000 0.0000 0.0000 23.1605 0.0000
# 6 0.0000 0.0000 0.0000 0.0000 0.0000 24.1641
#
#
#
# Elastic Compliance Matrix: (Units=1/GPa)
#
#
# Indices 1 2 3 4 5 6 
#
# 1 0.018821 -0.010953 0.000680 0.000000 0.000000 0.000000
# 2 -0.010953 0.024202 -0.001593 0.000000 0.000000 0.000000
# 3 0.000680 -0.001593 0.014719 0.000000 0.000000 0.000000
# 4 0.000000 0.000000 0.000000 0.052947 0.000000 0.000000
# 5 0.000000 0.000000 0.000000 0.000000 0.043177 0.000000
# 6 0.000000 0.000000 0.000000 0.000000 0.000000 0.041384
#
#
# Mechanical properties :
#
#
# Convention : Reuss Voigt Hill
#
# Bulk Modulus (GPa) = 29.40355 30.20751 29.80553
# Shear Modulus (GPa) = 21.70906 23.87544 22.79225
#
# Velocity S-wave (km/s) = 3.43632 3.60370 3.52100
# Velocity P-wave (km/s) = 5.63364 5.80916 5.72208
#
# Compressibility (1/GPa) = 0.03400949
#
# Stress axis : x y z
#
# Youngs Moduli (GPa) = 53.13177 41.31908 67.93870
#
# Poissons Ratio (x) = 0.45255 -0.04617
# Poissons Ratio (y) = 0.58193 0.10825
# Poissons Ratio (z) = -0.03611 0.06584
#
# Static dielectric constant tensor:
#      x y z
#    x 3.408550 0.000000 0.000000 
#    y 0.000000 2.957910 0.000000 
#    z 0.000000 0.000000 3.601410 
# 
# 
# High freq. dielectric constant tensor:
#      x y z
#    x 1.707650 0.000000 0.000000 
#    y 0.000000 1.670070 0.000000 
#    z 0.000000 0.000000 1.740850 
# 
# From -- ./inp_files/648.got.cif
#   From: 2010.03.12/outbox.cif.g09.slc.cpg/sg26_1_cif.got.tgz:648.got - 2010.04.14 03:33:09.
