data_PCOD8167841
_publ_section_title
;
Structure prediction by ZEFSAII (Michael W. Deem and Ramdas Pophale) SiO2 
 PCOD8167841
Probable space group: P C C 2
;
_chemical_formula_sum "Si O2"
_cell_formula_units_Z 30
_cell_length_a 14.594180
_cell_length_b 11.221978
_cell_length_c 8.844680
_cell_angle_alpha 90.000000
_cell_angle_beta 90.000000
_cell_angle_gamma 90.000000
_cell_volume 1448.542481
_symmetry_space_group_name_H-M "P C C 2"
_symmetry_group_IT_number 27
_symmetry_cell_setting 'orthorhombic'
loop_
_space_group_symop_operation_xyz
x,y,z
-x,-y,z
-x,y,1/2+z
x,-y,1/2+z
loop_
_atom_site_type_symbol
_atom_site_label
_atom_site_fract_x
_atom_site_fract_y
_atom_site_fract_z
Si Si1 0.500000 0.000000 0.981540
Si Si2 0.152628 0.144007 0.050230
Si Si3 0.775708 0.498814 0.906035
Si Si4 0.393559 0.129861 0.235343
Si Si5 0.701493 0.656520 0.135509
Si Si6 0.113636 0.298089 0.514502
Si Si7 0.806798 0.074002 0.853011
Si Si8 0.939594 0.319247 0.347162
O O1 0.536477 0.106984 0.873780
O O2 0.420349 0.053876 0.086932
O O3 0.223721 0.243298 0.103872
O O4 0.124237 0.077168 0.206637
O O5 0.070583 0.206797 0.961217
O O6 0.196148 0.052662 0.932405
O O7 0.735242 0.435438 0.760806
O O8 0.864351 0.579768 0.872369
O O9 0.694116 0.578087 0.982056
O O10 0.806736 0.397326 0.025686
O O11 0.390138 0.271599 0.188359
O O12 0.295203 0.089475 0.292003
O O13 0.161154 0.174588 0.469585
O O14 0.063497 0.278963 0.673817
O O15 0.043871 0.354601 0.388312
#
# Coordination Sequence:
#
# PCOD8167841 Si02
#       8
#     2   4   4   4   4   4   4   4
#     4  10  22  38  70 104 132 162 198 256 344 396
#     4  10  21  38  57  90 123 169 214 267 329 379
#     4  11  21  39  61  88 118 173 216 270 310 366
#     4  10  20  40  64 101 131 161 205 261 317 411
#     4  10  21  39  64  92 129 164 220 261 313 379
#     4  12  23  38  57  89 120 174 219 280 325 375
#     4  11  21  38  65  87 132 163 216 265 331 387
#     4  11  25  36  58  85 127 165 230 275 327 366
#
# _framework density 20.710471999999999
#
# number of rings (size 3 to 8) (size 9 to 14) (size 15 to 20)
#    0.000    1.333    4.000    3.600    1.867    1.600 
#    0.000    6.667    0.000    2.400    0.000    0.000 
#    0.000    0.000    0.000    0.000    0.000    0.000 
#
# Total GULP energy -371671.306333 kJ/mol
# GULP energy per Si atom -12389.043544 kJ/mol
# Density = 2.066333 g / cm^3
# Si number density = 20.710472 Si / 1000 Ang^3
#
#
#
# Elastic Constant Matrix: (Units=GPa)
#
#
# Indices 1 2 3 4 5 6 
#
# 1 50.1298 38.7496 32.8053 0.0000 0.0000 0.0000
# 2 38.7496 107.0559 60.1318 0.0000 0.0000 0.0000
# 3 32.8053 60.1318 134.1534 0.0000 0.0000 0.0000
# 4 0.0000 0.0000 0.0000 44.2328 0.0000 0.0000
# 5 0.0000 0.0000 0.0000 0.0000 28.7204 0.0000
# 6 0.0000 0.0000 0.0000 0.0000 0.0000 28.8592
#
#
#
# Elastic Compliance Matrix: (Units=1/GPa)
#
#
# Indices 1 2 3 4 5 6 
#
# 1 0.028662 -0.008604 -0.003152 0.000000 0.000000 0.000000
# 2 -0.008604 0.015067 -0.004649 0.000000 0.000000 0.000000
# 3 -0.003152 -0.004649 0.010309 0.000000 0.000000 0.000000
# 4 0.000000 0.000000 0.000000 0.022608 0.000000 0.000000
# 5 0.000000 0.000000 0.000000 0.000000 0.034818 0.000000
# 6 0.000000 0.000000 0.000000 0.000000 0.000000 0.034651
#
#
# Mechanical properties :
#
#
# Convention : Reuss Voigt Hill
#
# Bulk Modulus (GPa) = 47.11113 61.63472 54.37293
# Shear Modulus (GPa) = 26.88163 31.00599 28.94381
#
# Velocity S-wave (km/s) = 3.60665 3.87346 3.74243
# Velocity P-wave (km/s) = 6.33567 7.05901 6.70710
#
# Compressibility (1/GPa) = 0.02122641
#
# Stress axis : x y z
#
# Youngs Moduli (GPa) = 34.88984 66.37207 97.00223
#
# Poissons Ratio (x) = 0.57104 0.30579
# Poissons Ratio (y) = 0.30018 0.45100
# Poissons Ratio (z) = 0.10999 0.30859
#
# Static dielectric constant tensor:
#      x y z
#    x 3.562260 0.000000 0.000000 
#    y 0.000000 4.453840 0.000000 
#    z 0.000000 0.000000 4.252580 
# 
# 
# High freq. dielectric constant tensor:
#      x y z
#    x 1.766080 0.000000 0.000000 
#    y 0.000000 1.818030 0.000000 
#    z 0.000000 0.000000 1.832600 
# 
# From -- ./inp_files/1464.got.cif
#   From: 2010.03.12/outbox.cif.g09.slc.cpg/sg27_1_cif.got.tgz:1464.got - 2010.04.14 03:36:05.
