data_PCOD8167853
_publ_section_title
;
Structure prediction by ZEFSAII (Michael W. Deem and Ramdas Pophale) SiO2 
 PCOD8167853
Probable space group: P C C 2
;
_chemical_formula_sum "Si O2"
_cell_formula_units_Z 22
_cell_length_a 6.218594
_cell_length_b 10.555866
_cell_length_c 14.080548
_cell_angle_alpha 90.000000
_cell_angle_beta 90.000000
_cell_angle_gamma 90.000000
_cell_volume 924.284413
_symmetry_space_group_name_H-M "P C C 2"
_symmetry_group_IT_number 27
_symmetry_cell_setting 'orthorhombic'
loop_
_space_group_symop_operation_xyz
x,y,z
-x,-y,z
-x,y,1/2+z
x,-y,1/2+z
loop_
_atom_site_type_symbol
_atom_site_label
_atom_site_fract_x
_atom_site_fract_y
_atom_site_fract_z
Si Si1 0.101171 0.778853 0.188010
Si Si2 0.729799 0.339535 0.572842
Si Si3 0.173307 0.760095 0.858725
Si Si4 0.480285 0.631112 0.256314
Si Si5 0.000000 0.500000 0.438522
Si Si6 0.385716 0.868568 0.031804
O O1 0.236424 0.661700 0.229960
O O2 0.269512 0.874453 0.135880
O O3 0.943872 0.734354 0.104745
O O4 0.972881 0.834238 0.279681
O O5 0.621094 0.401694 0.663418
O O6 0.797856 0.451709 0.501531
O O7 0.562951 0.242150 0.524034
O O8 0.412164 0.745592 0.814478
O O9 0.075669 0.620173 0.876615
O O10 0.199975 0.844217 0.952906
O O11 0.500000 0.500000 0.316207
O O12 0.500000 0.000000 0.011534
#
# Coordination Sequence:
#
# PCOD8167853 Si02
#       6
#     4   4   4   4   2   4
#     4  10  22  48  66 100 142 188 241 289 368 426
#     4  10  23  41  69 101 138 187 236 287 366 428
#     4  11  25  40  70 108 139 187 244 299 360 434
#     4  10  21  37  65  99 148 184 229 294 359 431
#     4  12  22  40  72 106 144 186 236 300 376 436
#     4  11  26  48  73 102 144 192 248 300 355 430
#
# _framework density 23.802197
#
# number of rings (size 3 to 8) (size 9 to 14) (size 15 to 20)
#    0.000    1.455    1.818    2.182    7.636    3.636 
#    0.000   10.000    4.000    0.000    0.000    0.000 
#    0.000    0.000    0.000    0.000    0.000    0.000 
#
# Total GULP energy -272653.274724 kJ/mol
# GULP energy per Si atom -12393.330669 kJ/mol
# Density = 2.374802 g / cm^3
# Si number density = 23.802197 Si / 1000 Ang^3
#
#
#
# Elastic Constant Matrix: (Units=GPa)
#
#
# Indices 1 2 3 4 5 6 
#
# 1 109.5703 23.7741 53.0473 0.0000 0.0000 0.0000
# 2 23.7741 84.4556 39.6322 0.0000 0.0000 0.0000
# 3 53.0473 39.6322 123.3227 0.0000 0.0000 0.0000
# 4 0.0000 0.0000 0.0000 16.8574 0.0000 0.0000
# 5 0.0000 0.0000 0.0000 0.0000 33.0284 0.0000
# 6 0.0000 0.0000 0.0000 0.0000 0.0000 30.5874
#
#
#
# Elastic Compliance Matrix: (Units=1/GPa)
#
#
# Indices 1 2 3 4 5 6 
#
# 1 0.011612 -0.001089 -0.004645 0.000000 0.000000 0.000000
# 2 -0.001089 0.014045 -0.004045 0.000000 0.000000 0.000000
# 3 -0.004645 -0.004045 0.011407 0.000000 0.000000 0.000000
# 4 0.000000 0.000000 0.000000 0.059321 0.000000 0.000000
# 5 0.000000 0.000000 0.000000 0.000000 0.030277 0.000000
# 6 0.000000 0.000000 0.000000 0.000000 0.000000 0.032693
#
#
# Mechanical properties :
#
#
# Convention : Reuss Voigt Hill
#
# Bulk Modulus (GPa) = 57.12457 61.13954 59.13205
# Shear Modulus (GPa) = 27.06386 29.48766 28.27576
#
# Velocity S-wave (km/s) = 3.37565 3.52357 3.45040
# Velocity P-wave (km/s) = 6.26459 6.50356 6.38520
#
# Compressibility (1/GPa) = 0.01750560
#
# Stress axis : x y z
#
# Youngs Moduli (GPa) = 86.12115 71.19750 87.66705
#
# Poissons Ratio (x) = 0.07753 0.40719
# Poissons Ratio (y) = 0.09379 0.35464
# Poissons Ratio (z) = 0.40001 0.28802
#
# Static dielectric constant tensor:
#      x y z
#    x 4.613890 0.000000 0.000000 
#    y 0.000000 3.650290 0.000000 
#    z 0.000000 0.000000 4.372150 
# 
# 
# High freq. dielectric constant tensor:
#      x y z
#    x 1.963210 0.000000 0.000000 
#    y 0.000000 1.894940 0.000000 
#    z 0.000000 0.000000 1.952430 
# 
# From -- ./inp_files/2995.got.cif
#   From: 2010.03.12/outbox.cif.g09.slc.cpg/sg27_2_cif.got.tgz:2995.got - 2010.04.14 03:36:05.
