data_PCOD8167413
_publ_section_title
;
Structure prediction by ZEFSAII (Michael W. Deem and Ramdas Pophale) SiO2 
 PCOD8167413
Probable space group: P M C 21
;
_chemical_formula_sum "Si O2"
_cell_formula_units_Z 32
_cell_length_a 8.836328
_cell_length_b 14.535275
_cell_length_c 12.190465
_cell_angle_alpha 90.000000
_cell_angle_beta 90.000000
_cell_angle_gamma 90.000000
_cell_volume 1565.724520
_symmetry_space_group_name_H-M "P M C 21"
_symmetry_group_IT_number 26
_symmetry_cell_setting 'orthorhombic'
loop_
_space_group_symop_operation_xyz
x,y,z
-x,-y,1/2+z
-x,y,z
x,-y,1/2+z
loop_
_atom_site_type_symbol
_atom_site_label
_atom_site_fract_x
_atom_site_fract_y
_atom_site_fract_z
Si Si1 0.678008 0.637031 0.873360
Si Si2 0.665955 0.135438 0.836806
Si Si3 0.670749 0.128433 0.086058
Si Si4 0.180671 0.239426 0.542125
Si Si5 0.672748 0.669579 0.250169
Si Si6 0.172827 0.053039 0.647065
Si Si7 0.321802 0.668147 0.621283
Si Si8 0.179758 0.549757 0.428419
O O1 0.500000 0.632757 0.896164
O O2 0.712885 0.634034 0.744041
O O3 0.761249 0.554223 0.935900
O O4 0.746363 0.730426 0.926532
O O5 0.500000 0.106301 0.789868
O O6 0.677682 0.245505 0.834393
O O7 0.801448 0.090442 0.769380
O O8 0.683994 0.102075 0.959582
O O9 0.500000 0.132427 0.128567
O O10 0.744097 0.227916 0.110802
O O11 0.748846 0.045057 0.147084
O O12 0.243841 0.306118 0.637205
O O13 0.232511 0.133244 0.564436
O O14 0.000000 0.247112 0.539993
O O15 0.500000 0.639612 0.224335
O O16 0.757665 0.588210 0.313154
O O17 0.000000 0.034866 0.623459
O O18 0.500000 0.666000 0.593602
O O19 0.237432 0.603109 0.535514
O O20 0.000000 0.552535 0.427019
#
# Coordination Sequence:
#
# PCOD8167413 Si02
#       8
#     4   4   4   4   4   4   4   4
#     4  11  25  43  66  91 124 169 213 260 314 376
#     4   9  18  35  59  84 113 154 204 258 303 355
#     4  10  20  38  63  90 120 157 208 262 308 364
#     4  10  22  41  61  88 128 165 208 260 314 371
#     4  10  19  37  64  89 117 155 206 257 306 364
#     4  10  22  37  57  89 127 165 205 252 312 380
#     4  10  23  45  67  92 124 161 214 264 310 372
#     4  12  25  40  63  93 127 162 202 255 317 380
#
# _framework density 20.437821
#
# number of rings (size 3 to 8) (size 9 to 14) (size 15 to 20)
#    0.000    1.750    1.250    2.625    1.750    5.000 
#    0.000    3.750    0.000    0.000    0.000    0.000 
#    0.000    0.000    0.000    0.000    0.000    0.000 
#
# Total GULP energy -396786.368070 kJ/mol
# GULP energy per Si atom -12399.574002 kJ/mol
# Density = 2.039130 g / cm^3
# Si number density = 20.437821 Si / 1000 Ang^3
#
#
#
# Elastic Constant Matrix: (Units=GPa)
#
#
# Indices 1 2 3 4 5 6 
#
# 1 97.9570 43.6957 39.5977 0.0000 0.0000 0.0000
# 2 43.6957 121.5035 35.5531 0.0000 0.0000 0.0000
# 3 39.5977 35.5531 67.0365 0.0000 0.0000 0.0000
# 4 0.0000 0.0000 0.0000 25.7071 0.0000 0.0000
# 5 0.0000 0.0000 0.0000 0.0000 26.9499 0.0000
# 6 0.0000 0.0000 0.0000 0.0000 0.0000 26.4492
#
#
#
# Elastic Compliance Matrix: (Units=1/GPa)
#
#
# Indices 1 2 3 4 5 6 
#
# 1 0.014378 -0.003179 -0.006807 0.000000 0.000000 0.000000
# 2 -0.003179 0.010445 -0.003662 0.000000 0.000000 0.000000
# 3 -0.006807 -0.003662 0.020880 0.000000 0.000000 0.000000
# 4 0.000000 0.000000 0.000000 0.038900 0.000000 0.000000
# 5 0.000000 0.000000 0.000000 0.000000 0.037106 0.000000
# 6 0.000000 0.000000 0.000000 0.000000 0.000000 0.037808
#
#
# Mechanical properties :
#
#
# Convention : Reuss Voigt Hill
#
# Bulk Modulus (GPa) = 54.32501 58.24334 56.28417
# Shear Modulus (GPa) = 25.91361 26.99794 26.45577
#
# Velocity S-wave (km/s) = 3.56466 3.63847 3.60175
# Velocity P-wave (km/s) = 6.60157 6.79787 6.70044
#
# Compressibility (1/GPa) = 0.01840773
#
# Stress axis : x y z
#
# Youngs Moduli (GPa) = 69.54935 95.74039 47.89241
#
# Poissons Ratio (x) = 0.30436 0.32601
# Poissons Ratio (y) = 0.22110 0.17537
# Poissons Ratio (z) = 0.47343 0.35058
#
# Static dielectric constant tensor:
#      x y z
#    x 3.661860 0.000000 0.000000 
#    y 0.000000 3.763140 0.000000 
#    z 0.000000 0.000000 3.567110 
# 
# 
# High freq. dielectric constant tensor:
#      x y z
#    x 1.795180 0.000000 0.000000 
#    y 0.000000 1.803270 0.000000 
#    z 0.000000 0.000000 1.795660 
# 
# From -- ./inp_files/2975.got.cif
#   From: 2010.03.12/outbox.cif.g09.slc.cpg/sg26_2_cif.got.tgz:2975.got - 2010.04.14 03:33:09.
