data_PCOD8167516
_publ_section_title
;
Structure prediction by ZEFSAII (Michael W. Deem and Ramdas Pophale) SiO2 
 PCOD8167516
Probable space group: P M C 21
;
_chemical_formula_sum "Si O2"
_cell_formula_units_Z 32
_cell_length_a 8.445900
_cell_length_b 11.985473
_cell_length_c 15.458345
_cell_angle_alpha 90.000000
_cell_angle_beta 90.000000
_cell_angle_gamma 90.000000
_cell_volume 1564.818993
_symmetry_space_group_name_H-M "P M C 21"
_symmetry_group_IT_number 26
_symmetry_cell_setting 'orthorhombic'
loop_
_space_group_symop_operation_xyz
x,y,z
-x,-y,1/2+z
-x,y,z
x,-y,1/2+z
loop_
_atom_site_type_symbol
_atom_site_label
_atom_site_fract_x
_atom_site_fract_y
_atom_site_fract_z
Si Si1 0.687810 0.642939 0.938900
Si Si2 0.817427 0.010762 0.836604
Si Si3 0.314579 0.998988 0.521712
Si Si4 0.313772 0.787700 0.775807
Si Si5 0.684542 0.239889 0.775799
Si Si6 0.816463 0.215499 0.594469
Si Si7 0.688426 0.390385 0.933090
Si Si8 0.313615 0.761020 0.585301
O O1 0.500000 0.648943 0.950478
O O2 0.742664 0.706618 0.852314
O O3 0.750459 0.516705 0.930957
O O4 0.768320 0.696338 0.021985
O O5 0.710892 0.114527 0.808578
O O6 0.000000 0.043218 0.824971
O O7 0.777138 0.904754 0.777623
O O8 0.780010 0.975652 0.934398
O O9 0.500000 0.993772 0.500523
O O10 0.280842 0.100371 0.586852
O O11 0.250000 0.884496 0.562793
O O12 0.500000 0.812362 0.782269
O O13 0.269561 0.729903 0.684087
O O14 0.500000 0.258609 0.758533
O O15 0.778049 0.267157 0.688008
O O16 0.749191 0.325305 0.848329
O O17 0.000000 0.187682 0.586519
O O18 0.500000 0.388177 0.935124
O O19 0.758718 0.329609 0.018889
O O20 0.500000 0.762532 0.572845
#
# Coordination Sequence:
#
# PCOD8167516 Si02
#       8
#     4   4   4   4   4   4   4   4
#     4  10  21  38  62  89 118 157 206 253 298 349
#     4  12  23  36  58  89 125 159 194 245 307 365
#     4  11  20  36  62  88 117 158 204 247 300 362
#     4  10  20  35  59  88 118 156 200 244 297 358
#     4  11  22  40  65  91 121 158 203 252 300 360
#     4  12  25  40  59  89 127 161 198 248 306 366
#     4   9  19  37  62  91 117 150 204 260 297 340
#     4   9  18  34  59  89 117 147 193 251 297 344
#
# _framework density 20.449649999999998
#
# number of rings (size 3 to 8) (size 9 to 14) (size 15 to 20)
#    0.000    1.500    2.500    3.750    0.000    2.000 
#    0.000    5.625    0.000    1.500    0.000    0.000 
#    0.000    0.000    0.000    0.000    0.000    0.000 
#
# Total GULP energy -396908.506956 kJ/mol
# GULP energy per Si atom -12403.390842 kJ/mol
# Density = 2.040311 g / cm^3
# Si number density = 20.449650 Si / 1000 Ang^3
#
#
#
# Elastic Constant Matrix: (Units=GPa)
#
#
# Indices 1 2 3 4 5 6 
#
# 1 43.3732 17.3948 20.2239 0.0000 0.0000 0.0000
# 2 17.3948 147.5874 64.9694 0.0000 0.0000 0.0000
# 3 20.2239 64.9694 150.5965 0.0000 0.0000 0.0000
# 4 0.0000 0.0000 0.0000 16.6961 0.0000 0.0000
# 5 0.0000 0.0000 0.0000 0.0000 10.4122 0.0000
# 6 0.0000 0.0000 0.0000 0.0000 0.0000 4.7530
#
#
#
# Elastic Compliance Matrix: (Units=1/GPa)
#
#
# Indices 1 2 3 4 5 6 
#
# 1 0.024982 -0.001812 -0.002573 0.000000 0.000000 0.000000
# 2 -0.001812 0.008495 -0.003422 0.000000 0.000000 0.000000
# 3 -0.002573 -0.003422 0.008462 0.000000 0.000000 0.000000
# 4 0.000000 0.000000 0.000000 0.059894 0.000000 0.000000
# 5 0.000000 0.000000 0.000000 0.000000 0.096042 0.000000
# 6 0.000000 0.000000 0.000000 0.000000 0.000000 0.210394
#
#
# Mechanical properties :
#
#
# Convention : Reuss Voigt Hill
#
# Bulk Modulus (GPa) = 37.98500 60.74815 49.36658
# Shear Modulus (GPa) = 11.55647 22.30351 16.92999
#
# Velocity S-wave (km/s) = 2.37980 3.30609 2.88042
# Velocity P-wave (km/s) = 5.11532 6.65915 5.93763
#
# Compressibility (1/GPa) = 0.02632618
#
# Stress axis : x y z
#
# Youngs Moduli (GPa) = 40.02860 117.70995 118.17481
#
# Poissons Ratio (x) = 0.21324 0.30411
# Poissons Ratio (y) = 0.07252 0.40437
# Poissons Ratio (z) = 0.10301 0.40278
#
# Static dielectric constant tensor:
#      x y z
#    x 3.350350 0.000000 0.000000 
#    y 0.000000 3.778310 0.000000 
#    z 0.000000 0.000000 3.926200 
# 
# 
# High freq. dielectric constant tensor:
#      x y z
#    x 1.768430 0.000000 0.000000 
#    y 0.000000 1.795070 0.000000 
#    z 0.000000 0.000000 1.816120 
# 
# From -- ./inp_files/4211.got.cif
#   From: 2010.03.12/outbox.cif.g09.slc.cpg/sg26_3_cif.got.tgz:4211.got - 2010.04.14 03:33:09.
