data_PCOD8167064
_publ_section_title
;
Structure prediction by ZEFSAII (Michael W. Deem and Ramdas Pophale) SiO2 
 PCOD8167064
Probable space group: P M C 21
;
_chemical_formula_sum "Si O2"
_cell_formula_units_Z 32
_cell_length_a 8.990556
_cell_length_b 10.372106
_cell_length_c 19.209357
_cell_angle_alpha 90.000000
_cell_angle_beta 90.000000
_cell_angle_gamma 90.000000
_cell_volume 1791.291746
_symmetry_space_group_name_H-M "P M C 21"
_symmetry_group_IT_number 26
_symmetry_cell_setting 'orthorhombic'
loop_
_space_group_symop_operation_xyz
x,y,z
-x,-y,1/2+z
-x,y,z
x,-y,1/2+z
loop_
_atom_site_type_symbol
_atom_site_label
_atom_site_fract_x
_atom_site_fract_y
_atom_site_fract_z
Si Si1 0.174021 0.980445 0.503000
Si Si2 0.671117 0.282261 0.362304
Si Si3 0.329372 0.982053 0.363424
Si Si4 0.677140 0.631227 0.140235
Si Si5 0.322910 0.874369 0.631770
Si Si6 0.676070 0.115757 0.717575
Si Si7 0.824612 0.277317 0.504650
Si Si8 0.676654 0.372381 0.214468
O O1 0.257838 0.883696 0.554467
O O2 0.000000 0.961143 0.511126
O O3 0.223126 0.940295 0.425914
O O4 0.221818 0.128561 0.517186
O O5 0.500000 0.315821 0.378689
O O6 0.689090 0.131875 0.344114
O O7 0.767293 0.323414 0.429172
O O8 0.730816 0.360234 0.294668
O O9 0.500000 0.952641 0.383593
O O10 0.275721 0.897168 0.297844
O O11 0.500000 0.632480 0.132129
O O12 0.736699 0.751362 0.185658
O O13 0.748293 0.635508 0.063638
O O14 0.734218 0.504522 0.180381
O O15 0.500000 0.874653 0.627847
O O16 0.261562 0.745172 0.668008
O O17 0.258618 0.996208 0.674230
O O18 0.500000 0.110341 0.712538
O O19 0.000000 0.296654 0.507486
O O20 0.500000 0.366012 0.214809
#
# Coordination Sequence:
#
# PCOD8167064 Si02
#       8
#     4   4   4   4   4   4   4   4
#     4  10  20  32  47  74 106 134 169 212 252 295
#     4   9  16  30  52  74  97 129 168 210 255 301
#     4   9  16  29  50  74  98 130 169 209 255 304
#     4  10  19  33  53  78 104 133 168 208 253 299
#     4  10  17  31  53  76 100 129 164 205 253 300
#     4   9  16  28  51  77  98 123 164 207 247 297
#     4  10  20  33  49  73 104 136 171 209 247 297
#     4   9  18  32  53  80 105 128 165 214 254 295
#
# _framework density 17.864204000000001
#
# number of rings (size 3 to 8) (size 9 to 14) (size 15 to 20)
#    0.000    2.500    2.500    0.750    0.000    1.000 
#    0.000    4.375    0.000    4.500    0.000    0.000 
#    0.000    0.000    0.000    0.000    0.000    0.000 
#
# Total GULP energy -396795.256883 kJ/mol
# GULP energy per Si atom -12399.851778 kJ/mol
# Density = 1.782354 g / cm^3
# Si number density = 17.864204 Si / 1000 Ang^3
#
#
#
# Elastic Constant Matrix: (Units=GPa)
#
#
# Indices 1 2 3 4 5 6 
#
# 1 36.5055 24.3896 33.7195 0.0000 0.0000 0.0000
# 2 24.3896 110.3843 74.2743 0.0000 0.0000 0.0000
# 3 33.7195 74.2743 152.5917 0.0000 0.0000 0.0000
# 4 0.0000 0.0000 0.0000 30.7661 0.0000 0.0000
# 5 0.0000 0.0000 0.0000 0.0000 5.6584 0.0000
# 6 0.0000 0.0000 0.0000 0.0000 0.0000 11.6521
#
#
#
# Elastic Compliance Matrix: (Units=1/GPa)
#
#
# Indices 1 2 3 4 5 6 
#
# 1 0.035465 -0.003811 -0.005982 0.000000 0.000000 0.000000
# 2 -0.003811 0.013881 -0.005914 0.000000 0.000000 0.000000
# 3 -0.005982 -0.005914 0.010754 0.000000 0.000000 0.000000
# 4 0.000000 0.000000 0.000000 0.032503 0.000000 0.000000
# 5 0.000000 0.000000 0.000000 0.000000 0.176730 0.000000
# 6 0.000000 0.000000 0.000000 0.000000 0.000000 0.085822
#
#
# Mechanical properties :
#
#
# Convention : Reuss Voigt Hill
#
# Bulk Modulus (GPa) = 34.86123 62.69423 48.77773
# Shear Modulus (GPa) = 12.62209 20.75519 16.68864
#
# Velocity S-wave (km/s) = 2.66100 3.41226 3.05978
# Velocity P-wave (km/s) = 5.38499 7.12010 6.31245
#
# Compressibility (1/GPa) = 0.02868516
#
# Stress axis : x y z
#
# Youngs Moduli (GPa) = 28.19712 72.04128 92.98701
#
# Poissons Ratio (x) = 0.27454 0.55624
# Poissons Ratio (y) = 0.10746 0.54997
# Poissons Ratio (z) = 0.16867 0.42608
#
# Static dielectric constant tensor:
#      x y z
#    x 2.935160 0.000000 0.000000 
#    y 0.000000 3.262990 0.000000 
#    z 0.000000 0.000000 3.420120 
# 
# 
# High freq. dielectric constant tensor:
#      x y z
#    x 1.658790 0.000000 0.000000 
#    y 0.000000 1.665090 0.000000 
#    z 0.000000 0.000000 1.706970 
# 
# From -- ./inp_files/4989.got.cif
#   From: 2010.03.12/outbox.cif.g09.slc.cpg/sg26_3_cif.got.tgz:4989.got - 2010.04.14 03:33:09.
