data_PCOD8167118
_publ_section_title
;
Structure prediction by ZEFSAII (Michael W. Deem and Ramdas Pophale) SiO2 
 PCOD8167118
Probable space group: P M C 21
;
_chemical_formula_sum "Si O2"
_cell_formula_units_Z 32
_cell_length_a 9.391913
_cell_length_b 14.413014
_cell_length_c 12.521961
_cell_angle_alpha 90.000000
_cell_angle_beta 90.000000
_cell_angle_gamma 90.000000
_cell_volume 1695.044937
_symmetry_space_group_name_H-M "P M C 21"
_symmetry_group_IT_number 26
_symmetry_cell_setting 'orthorhombic'
loop_
_space_group_symop_operation_xyz
x,y,z
-x,-y,1/2+z
-x,y,z
x,-y,1/2+z
loop_
_atom_site_type_symbol
_atom_site_label
_atom_site_fract_x
_atom_site_fract_y
_atom_site_fract_z
Si Si1 0.836957 0.860876 0.857720
Si Si2 0.655962 0.158310 0.982641
Si Si3 0.669680 0.438260 0.087338
Si Si4 0.833615 0.179675 0.596101
Si Si5 0.165367 0.934174 0.304368
Si Si6 0.668636 0.746471 0.697178
Si Si7 0.655570 0.354813 0.880024
Si Si8 0.670355 0.642416 0.148804
O O1 0.742130 0.779749 0.806048
O O2 0.000000 0.831289 0.842168
O O3 0.804754 0.956313 0.794869
O O4 0.804111 0.873133 0.984298
O O5 0.500000 0.109729 0.991422
O O6 0.762394 0.095420 0.915328
O O7 0.635426 0.251378 0.917761
O O8 0.714852 0.184371 0.100473
O O9 0.500000 0.430487 0.079483
O O10 0.719002 0.359915 0.172861
O O11 0.720884 0.541604 0.110240
O O12 0.736186 0.414082 0.970934
O O13 0.777873 0.117011 0.696452
O O14 0.747165 0.275731 0.584988
O O15 0.000000 0.201366 0.610960
O O16 0.000000 0.912721 0.318815
O O17 0.500000 0.750103 0.712953
O O18 0.500000 0.399887 0.857860
O O19 0.736367 0.353658 0.767954
O O20 0.500000 0.656442 0.140989
#
# Coordination Sequence:
#
# PCOD8167118 Si02
#       8
#     4   4   4   4   4   4   4   4
#     4  10  23  39  56  78 110 150 184 225 277 328
#     4   9  17  32  54  78 107 136 170 227 279 313
#     4   8  16  30  51  80 111 142 180 223 267 317
#     4  10  22  39  54  78 113 141 176 230 280 319
#     4  10  21  36  57  79 102 140 187 225 266 328
#     4   9  19  36  56  82 113 143 179 227 275 321
#     4   8  14  27  46  73 106 134 168 217 265 308
#     4  10  18  31  56  82 104 142 186 220 265 328
#
# _framework density 18.878556
#
# number of rings (size 3 to 8) (size 9 to 14) (size 15 to 20)
#    0.000    2.750    1.250    1.500    1.750    2.500 
#    0.000    3.125    0.000    1.500    0.000    0.000 
#    0.000    0.000    0.000    0.000    0.000    0.000 
#
# Total GULP energy -396484.505087 kJ/mol
# GULP energy per Si atom -12390.140784 kJ/mol
# Density = 1.883559 g / cm^3
# Si number density = 18.878556 Si / 1000 Ang^3
#
#
#
# Elastic Constant Matrix: (Units=GPa)
#
#
# Indices 1 2 3 4 5 6 
#
# 1 36.2881 33.6382 26.2551 0.0000 0.0000 0.0000
# 2 33.6382 95.8357 42.3429 0.0000 0.0000 0.0000
# 3 26.2551 42.3429 82.3145 0.0000 0.0000 0.0000
# 4 0.0000 0.0000 0.0000 19.9111 0.0000 0.0000
# 5 0.0000 0.0000 0.0000 0.0000 27.1372 0.0000
# 6 0.0000 0.0000 0.0000 0.0000 0.0000 5.2949
#
#
#
# Elastic Compliance Matrix: (Units=1/GPa)
#
#
# Indices 1 2 3 4 5 6 
#
# 1 0.044562 -0.012115 -0.007982 0.000000 0.000000 0.000000
# 2 -0.012115 0.016797 -0.004776 0.000000 0.000000 0.000000
# 3 -0.007982 -0.004776 0.017151 0.000000 0.000000 0.000000
# 4 0.000000 0.000000 0.000000 0.050223 0.000000 0.000000
# 5 0.000000 0.000000 0.000000 0.000000 0.036850 0.000000
# 6 0.000000 0.000000 0.000000 0.000000 0.000000 0.188862
#
#
# Mechanical properties :
#
#
# Convention : Reuss Voigt Hill
#
# Bulk Modulus (GPa) = 34.76442 46.54564 40.65503
# Shear Modulus (GPa) = 12.08371 17.94876 15.01624
#
# Velocity S-wave (km/s) = 2.53272 3.08677 2.82337
# Velocity P-wave (km/s) = 5.19689 6.11662 5.67541
#
# Compressibility (1/GPa) = 0.02876504
#
# Stress axis : x y z
#
# Youngs Moduli (GPa) = 22.44051 59.53406 58.30434
#
# Poissons Ratio (x) = 0.72124 0.46537
# Poissons Ratio (y) = 0.27186 0.27848
# Poissons Ratio (z) = 0.17911 0.28436
#
# Static dielectric constant tensor:
#      x y z
#    x 2.918630 0.000000 0.000000 
#    y 0.000000 3.404530 0.000000 
#    z 0.000000 0.000000 3.768270 
# 
# 
# High freq. dielectric constant tensor:
#      x y z
#    x 1.692710 0.000000 0.000000 
#    y 0.000000 1.727650 0.000000 
#    z 0.000000 0.000000 1.742720 
# 
# From -- ./inp_files/3038.got.cif
#   From: 2010.03.12/outbox.cif.g09.slc.cpg/sg26_2_cif.got.tgz:3038.got - 2010.04.14 03:33:09.
