data_PCOD8167969
_publ_section_title
;
Structure prediction by ZEFSAII (Michael W. Deem and Ramdas Pophale) SiO2 
 PCOD8167969
Probable space group: P M A 2
;
_chemical_formula_sum "Si O2"
_cell_formula_units_Z 24
_cell_length_a 8.582073
_cell_length_b 9.258288
_cell_length_c 15.880216
_cell_angle_alpha 90.000000
_cell_angle_beta 90.000000
_cell_angle_gamma 90.000000
_cell_volume 1261.767381
_symmetry_space_group_name_H-M "P M A 2"
_symmetry_group_IT_number 28
_symmetry_cell_setting 'orthorhombic'
loop_
_space_group_symop_operation_xyz
x,y,z
-x,-y,z
1/2-x,y,z
1/2+x,-y,z
loop_
_atom_site_type_symbol
_atom_site_label
_atom_site_fract_x
_atom_site_fract_y
_atom_site_fract_z
Si Si1 0.065089 0.840259 0.632800
Si Si2 0.065322 0.161198 0.461413
Si Si3 0.433869 0.658841 0.792382
Si Si4 0.565499 0.161741 0.292383
Si Si5 0.434911 0.840259 0.951965
Si Si6 0.934678 0.838802 0.123352
O O1 0.250000 0.848214 0.626122
O O2 0.006458 0.742658 0.709897
O O3 0.996408 0.766048 0.547586
O O4 0.000000 0.000000 0.647256
O O5 0.250000 0.162084 0.458469
O O6 0.998182 0.240306 0.377315
O O7 0.000000 0.000000 0.462974
O O8 0.500000 0.500000 0.792383
O O9 0.250000 0.651034 0.792381
O O10 0.493540 0.742658 0.874868
O O11 0.750000 0.160999 0.292384
O O12 0.501820 0.240305 0.207450
O O13 0.500000 0.000000 0.292383
O O14 0.250000 0.848214 0.958645
O O15 0.503594 0.766047 0.037178
O O16 0.500000 0.000000 0.937508
O O17 0.750000 0.837916 0.126298
O O18 0.000000 0.000000 0.121790
#
# Coordination Sequence:
#
# PCOD8167969 Si02
#       6
#     4   4   4   4   4   4
#     4  10  19  33  51  75 101 131 167 207 249 296
#     4  10  17  26  41  65  95 129 163 200 242 291
#     4  10  23  38  54  74 100 130 167 208 252 300
#     4  10  16  24  38  60  93 130 161 198 241 288
#     4  10  19  33  51  75 101 131 167 207 249 296
#     4  10  17  26  41  65  95 129 163 200 242 291
#
# _framework density 19.020938000000001
#
# number of rings (size 3 to 8) (size 9 to 14) (size 15 to 20)
#    0.000    2.000    0.000   10.000    0.000    2.667 
#    0.000    0.000    0.000    0.000    0.000    1.167 
#    0.000    0.000    0.000    0.000    0.000    0.000 
#
# Total GULP energy -297466.400115 kJ/mol
# GULP energy per Si atom -12394.433338 kJ/mol
# Density = 1.897765 g / cm^3
# Si number density = 19.020938 Si / 1000 Ang^3
#
#
#
# Elastic Constant Matrix: (Units=GPa)
#
#
# Indices 1 2 3 4 5 6 
#
# 1 145.3143 22.7466 77.4578 0.0000 0.0000 0.0000
# 2 22.7466 53.4255 57.1937 0.0000 0.0000 0.0000
# 3 77.4578 57.1937 246.6633 0.0000 0.0000 0.0000
# 4 0.0000 0.0000 0.0000 2.0076 0.0000 0.0000
# 5 0.0000 0.0000 0.0000 0.0000 36.2669 0.0000
# 6 0.0000 0.0000 0.0000 0.0000 0.0000 17.6211
#
#
#
# Elastic Compliance Matrix: (Units=1/GPa)
#
#
# Indices 1 2 3 4 5 6 
#
# 1 0.008304 -0.000990 -0.002378 0.000000 0.000000 0.000000
# 2 -0.000990 0.025016 -0.005490 0.000000 0.000000 0.000000
# 3 -0.002378 -0.005490 0.006074 0.000000 0.000000 0.000000
# 4 0.000000 0.000000 0.000000 0.498103 0.000000 0.000000
# 5 0.000000 0.000000 0.000000 0.000000 0.027573 0.000000
# 6 0.000000 0.000000 0.000000 0.000000 0.000000 0.056750
#
#
# Mechanical properties :
#
#
# Convention : Reuss Voigt Hill
#
# Bulk Modulus (GPa) = 46.12796 84.46659 65.29727
# Shear Modulus (GPa) = 7.73082 30.37946 19.05514
#
# Velocity S-wave (km/s) = 2.01822 4.00078 3.16855
# Velocity P-wave (km/s) = 5.45296 8.11451 6.91303
#
# Compressibility (1/GPa) = 0.02167882
#
# Stress axis : x y z
#
# Youngs Moduli (GPa) = 120.42038 39.97469 164.64120
#
# Poissons Ratio (x) = 0.03956 0.39156
# Poissons Ratio (y) = 0.11917 0.90382
# Poissons Ratio (z) = 0.28639 0.21945
#
# Static dielectric constant tensor:
#      x y z
#    x 3.514460 0.000000 0.000000 
#    y 0.000000 2.785170 0.000000 
#    z 0.000000 0.000000 5.400140 
# 
# 
# High freq. dielectric constant tensor:
#      x y z
#    x 1.755620 0.000000 0.000000 
#    y 0.000000 1.654620 0.000000 
#    z 0.000000 0.000000 1.781810 
# 
# From -- ./inp_files/6667.got.cif
#   From: 2010.03.12/outbox.cif.g09.slc.cpg/sg28_4_cif.got.tgz:6667.got - 2010.04.14 03:39:34.
