data_PCOD8167977
_publ_section_title
;
Structure prediction by ZEFSAII (Michael W. Deem and Ramdas Pophale) SiO2 
 PCOD8167977
Probable space group: P M A 2
;
_chemical_formula_sum "Si O2"
_cell_formula_units_Z 24
_cell_length_a 8.783437
_cell_length_b 10.034074
_cell_length_c 15.430378
_cell_angle_alpha 90.000000
_cell_angle_beta 90.000000
_cell_angle_gamma 90.000000
_cell_volume 1359.935639
_symmetry_space_group_name_H-M "P M A 2"
_symmetry_group_IT_number 28
_symmetry_cell_setting 'orthorhombic'
loop_
_space_group_symop_operation_xyz
x,y,z
-x,-y,z
1/2-x,y,z
1/2+x,-y,z
loop_
_atom_site_type_symbol
_atom_site_label
_atom_site_fract_x
_atom_site_fract_y
_atom_site_fract_z
Si Si1 0.427478 0.644179 0.813610
Si Si2 0.071171 0.862389 0.332773
Si Si3 0.430217 0.861714 0.136524
Si Si4 0.430955 0.352428 0.645658
Si Si5 0.069134 0.645340 0.470901
Si Si6 0.572750 0.356410 0.004350
O O1 0.500000 0.500000 0.821046
O O2 0.250000 0.633441 0.791181
O O3 0.511479 0.722373 0.733948
O O4 0.455769 0.708468 0.908494
O O5 0.250000 0.880432 0.337442
O O6 0.017003 0.831310 0.234847
O O7 0.017743 0.740116 0.392401
O O8 0.000000 0.000000 0.367017
O O9 0.250000 0.871790 0.128928
O O10 0.500000 0.000000 0.103750
O O11 0.495395 0.745029 0.075153
O O12 0.500000 0.500000 0.649941
O O13 0.250000 0.353289 0.640998
O O14 0.500022 0.287776 0.558451
O O15 0.250000 0.633170 0.479665
O O16 0.000000 0.500000 0.453153
O O17 0.500000 0.500000 0.017311
O O18 0.750000 0.377709 0.019819
#
# Coordination Sequence:
#
# PCOD8167977 Si02
#       6
#     4   4   4   4   4   4
#     4   9  15  25  41  63  91 123 153 187 229 275
#     4   9  19  34  52  70  93 124 159 194 233 279
#     4   9  18  34  51  70  94 124 159 194 231 279
#     4  10  17  26  42  65  92 123 155 191 230 275
#     4  10  19  31  47  71  98 125 155 193 235 277
#     4   9  18  30  47  71  99 125 155 193 234 275
#
# _framework density 17.647894000000001
#
# number of rings (size 3 to 8) (size 9 to 14) (size 15 to 20)
#    0.000    2.667    0.000    4.500    0.000    3.333 
#    0.000    0.000    0.000    1.000    0.000    2.333 
#    0.000    0.000    0.000    0.000    0.000    0.000 
#
# Total GULP energy -297414.275961 kJ/mol
# GULP energy per Si atom -12392.261498 kJ/mol
# Density = 1.760773 g / cm^3
# Si number density = 17.647894 Si / 1000 Ang^3
#
#
#
# Elastic Constant Matrix: (Units=GPa)
#
#
# Indices 1 2 3 4 5 6 
#
# 1 75.8731 32.7229 49.9312 0.0000 0.0000 0.0000
# 2 32.7229 86.1023 77.5230 0.0000 0.0000 0.0000
# 3 49.9312 77.5230 149.5849 0.0000 0.0000 0.0000
# 4 0.0000 0.0000 0.0000 6.0369 0.0000 0.0000
# 5 0.0000 0.0000 0.0000 0.0000 24.5405 0.0000
# 6 0.0000 0.0000 0.0000 0.0000 0.0000 22.1248
#
#
#
# Elastic Compliance Matrix: (Units=1/GPa)
#
#
# Indices 1 2 3 4 5 6 
#
# 1 0.017186 -0.002562 -0.004409 0.000000 0.000000 0.000000
# 2 -0.002562 0.022156 -0.010627 0.000000 0.000000 0.000000
# 3 -0.004409 -0.010627 0.013665 0.000000 0.000000 0.000000
# 4 0.000000 0.000000 0.000000 0.165648 0.000000 0.000000
# 5 0.000000 0.000000 0.000000 0.000000 0.040749 0.000000
# 6 0.000000 0.000000 0.000000 0.000000 0.000000 0.045198
#
#
# Mechanical properties :
#
#
# Convention : Reuss Voigt Hill
#
# Bulk Modulus (GPa) = 56.14670 70.21272 63.17971
# Shear Modulus (GPa) = 14.46190 20.63264 17.54727
#
# Velocity S-wave (km/s) = 2.86574 3.42296 3.15667
# Velocity P-wave (km/s) = 6.54477 7.44942 7.01170
#
# Compressibility (1/GPa) = 0.01781049
#
# Stress axis : x y z
#
# Youngs Moduli (GPa) = 58.18562 45.13408 73.18175
#
# Poissons Ratio (x) = 0.11563 0.32267
# Poissons Ratio (y) = 0.14906 0.77773
# Poissons Ratio (z) = 0.25655 0.47966
#
# Static dielectric constant tensor:
#      x y z
#    x 3.224940 0.000000 0.000000 
#    y 0.000000 2.956520 0.000000 
#    z 0.000000 0.000000 4.436360 
# 
# 
# High freq. dielectric constant tensor:
#      x y z
#    x 1.687760 0.000000 0.000000 
#    y 0.000000 1.630400 0.000000 
#    z 0.000000 0.000000 1.705960 
# 
# From -- ./inp_files/6673.got.cif
#   From: 2010.03.12/outbox.cif.g09.slc.cpg/sg28_4_cif.got.tgz:6673.got - 2010.04.14 03:39:34.
