data_PCOD8167261
_publ_section_title
;
Structure prediction by ZEFSAII (Michael W. Deem and Ramdas Pophale) SiO2 
 PCOD8167261
Probable space group: P M C 21
;
_chemical_formula_sum "Si O2"
_cell_formula_units_Z 32
_cell_length_a 8.950010
_cell_length_b 14.314736
_cell_length_c 14.004457
_cell_angle_alpha 90.000000
_cell_angle_beta 90.000000
_cell_angle_gamma 90.000000
_cell_volume 1794.209442
_symmetry_space_group_name_H-M "P M C 21"
_symmetry_group_IT_number 26
_symmetry_cell_setting 'orthorhombic'
loop_
_space_group_symop_operation_xyz
x,y,z
-x,-y,1/2+z
-x,y,z
x,-y,1/2+z
loop_
_atom_site_type_symbol
_atom_site_label
_atom_site_fract_x
_atom_site_fract_y
_atom_site_fract_z
Si Si1 0.823764 0.357038 0.252620
Si Si2 0.325928 0.010395 0.858588
Si Si3 0.673097 0.964381 0.571628
Si Si4 0.670850 0.497040 0.123722
Si Si5 0.175540 0.857617 0.735124
Si Si6 0.176238 0.679092 0.116037
Si Si7 0.671043 0.394601 0.444931
Si Si8 0.670003 0.145108 0.690638
O O1 0.755360 0.404032 0.157592
O O2 0.777228 0.248976 0.253259
O O3 0.755257 0.408230 0.345212
O O4 0.000000 0.370961 0.252282
O O5 0.500000 0.984098 0.858946
O O6 0.294857 0.100221 0.793203
O O7 0.241397 0.919387 0.820516
O O8 0.268127 0.037392 0.963387
O O9 0.500000 0.936680 0.579461
O O10 0.763607 0.888660 0.632158
O O11 0.700423 0.068223 0.610060
O O12 0.500000 0.494286 0.159435
O O13 0.753430 0.588198 0.169170
O O14 0.678425 0.508683 0.007482
O O15 0.000000 0.870439 0.734732
O O16 0.216777 0.770231 0.176337
O O17 0.000000 0.668417 0.108278
O O18 0.247005 0.685810 0.008728
O O19 0.500000 0.364607 0.426618
O O20 0.500000 0.181834 0.685076
#
# Coordination Sequence:
#
# PCOD8167261 Si02
#       8
#     4   4   4   4   4   4   4   4
#     4  11  22  36  57  84 114 147 183 227 280 331
#     4   9  19  35  55  78 105 144 189 228 268 322
#     4   9  19  36  56  78 106 144 186 228 272 320
#     4   9  20  37  56  79 107 141 181 224 273 325
#     4  10  22  36  52  83 116 145 182 225 276 334
#     4  10  19  33  53  78 108 137 173 221 273 325
#     4   9  20  36  56  81 107 138 181 224 268 322
#     4   9  17  31  51  77 107 138 179 227 272 323
#
# _framework density 17.835152999999998
#
# number of rings (size 3 to 8) (size 9 to 14) (size 15 to 20)
#    0.750    1.750    0.000    3.000    1.750    4.500 
#    0.000    1.250    0.000    4.500    0.000    0.000 
#    0.000    0.000    0.000    0.000    0.000    0.000 
#
# Total GULP energy -396686.677780 kJ/mol
# GULP energy per Si atom -12396.458681 kJ/mol
# Density = 1.779456 g / cm^3
# Si number density = 17.835153 Si / 1000 Ang^3
#
#
#
# Elastic Constant Matrix: (Units=GPa)
#
#
# Indices 1 2 3 4 5 6 
#
# 1 107.0762 48.7506 37.1614 0.0000 0.0000 0.0000
# 2 48.7506 69.2415 34.9146 0.0000 0.0000 0.0000
# 3 37.1614 34.9146 110.7806 0.0000 0.0000 0.0000
# 4 0.0000 0.0000 0.0000 16.8546 0.0000 0.0000
# 5 0.0000 0.0000 0.0000 0.0000 25.5062 0.0000
# 6 0.0000 0.0000 0.0000 0.0000 0.0000 32.0338
#
#
#
# Elastic Compliance Matrix: (Units=1/GPa)
#
#
# Indices 1 2 3 4 5 6 
#
# 1 0.014074 -0.008951 -0.001900 0.000000 0.000000 0.000000
# 2 -0.008951 0.022864 -0.004203 0.000000 0.000000 0.000000
# 3 -0.001900 -0.004203 0.010989 0.000000 0.000000 0.000000
# 4 0.000000 0.000000 0.000000 0.059331 0.000000 0.000000
# 5 0.000000 0.000000 0.000000 0.000000 0.039206 0.000000
# 6 0.000000 0.000000 0.000000 0.000000 0.000000 0.031217
#
#
# Mechanical properties :
#
#
# Convention : Reuss Voigt Hill
#
# Bulk Modulus (GPa) = 56.12289 58.75016 57.43652
# Shear Modulus (GPa) = 23.39419 25.96371 24.67895
#
# Velocity S-wave (km/s) = 3.62565 3.81958 3.72388
# Velocity P-wave (km/s) = 7.00450 7.24323 7.12487
#
# Compressibility (1/GPa) = 0.01781804
#
# Stress axis : x y z
#
# Youngs Moduli (GPa) = 71.05425 43.73749 91.00012
#
# Poissons Ratio (x) = 0.39148 0.17290
# Poissons Ratio (y) = 0.63599 0.38251
# Poissons Ratio (z) = 0.13501 0.18385
#
# Static dielectric constant tensor:
#      x y z
#    x 3.269600 0.000000 0.000000 
#    y 0.000000 3.089130 0.000000 
#    z 0.000000 0.000000 3.374860 
# 
# 
# High freq. dielectric constant tensor:
#      x y z
#    x 1.697730 0.000000 0.000000 
#    y 0.000000 1.671940 0.000000 
#    z 0.000000 0.000000 1.682300 
# 
# From -- ./inp_files/4344.got.cif
#   From: 2010.03.12/outbox.cif.g09.slc.cpg/sg26_3_cif.got.tgz:4344.got - 2010.04.14 03:33:09.
