data_PCOD8167162
_publ_section_title
;
Structure prediction by ZEFSAII (Michael W. Deem and Ramdas Pophale) SiO2 
 PCOD8167162
Probable space group: P M C 21
;
_chemical_formula_sum "Si O2"
_cell_formula_units_Z 32
_cell_length_a 8.860611
_cell_length_b 11.380186
_cell_length_c 16.372830
_cell_angle_alpha 90.000000
_cell_angle_beta 90.000000
_cell_angle_gamma 90.000000
_cell_volume 1650.960883
_symmetry_space_group_name_H-M "P M C 21"
_symmetry_group_IT_number 26
_symmetry_cell_setting 'orthorhombic'
loop_
_space_group_symop_operation_xyz
x,y,z
-x,-y,1/2+z
-x,y,z
x,-y,1/2+z
loop_
_atom_site_type_symbol
_atom_site_label
_atom_site_fract_x
_atom_site_fract_y
_atom_site_fract_z
Si Si1 0.175529 0.710702 0.341470
Si Si2 0.664305 0.905634 0.250828
Si Si3 0.821365 0.813973 0.510907
Si Si4 0.821454 0.313650 0.174469
Si Si5 0.322057 0.439302 0.705380
Si Si6 0.823693 0.923940 0.966110
Si Si7 0.326302 0.844883 0.801112
Si Si8 0.333494 0.228170 0.590735
O O1 0.206516 0.836482 0.299486
O O2 0.226045 0.726530 0.436250
O O3 0.264728 0.607284 0.294068
O O4 0.000000 0.680749 0.334778
O O5 0.500000 0.882419 0.293380
O O6 0.654173 0.871255 0.157890
O O7 0.700375 0.042294 0.244901
O O8 0.758093 0.758482 0.595555
O O9 0.000000 0.821013 0.515618
O O10 0.762488 0.948005 0.496250
O O11 0.756521 0.443786 0.174779
O O12 0.770332 0.257578 0.259990
O O13 0.000000 0.320112 0.171266
O O14 0.500000 0.457020 0.713870
O O15 0.280049 0.347909 0.633887
O O16 0.731094 0.881548 0.888975
O O17 0.000000 0.930068 0.945978
O O18 0.793219 0.818746 0.029584
O O19 0.500000 0.804484 0.806009
O O20 0.500000 0.244387 0.549567
#
# Coordination Sequence:
#
# PCOD8167162 Si02
#       8
#     4   4   4   4   4   4   4   4
#     4  10  18  34  61  88 117 153 193 242 294 348
#     4   9  18  33  55  84 117 151 189 234 287 348
#     4   9  20  37  59  90 123 150 191 247 298 352
#     4  11  23  41  62  86 117 158 203 249 299 353
#     4  10  22  42  61  83 117 155 202 248 294 352
#     4  11  21  36  58  89 122 153 192 241 297 356
#     4  11  22  37  57  84 121 158 192 238 296 355
#     4   9  19  36  57  82 114 150 190 239 291 348
#
# _framework density 19.382650000000002
#
# number of rings (size 3 to 8) (size 9 to 14) (size 15 to 20)
#    0.000    2.000    1.250    3.375    0.000    3.000 
#    2.250    4.375    0.000    0.000    0.000    0.000 
#    0.000    0.000    0.000    0.000    0.000    0.000 
#
# Total GULP energy -396614.269773 kJ/mol
# GULP energy per Si atom -12394.195930 kJ/mol
# Density = 1.933853 g / cm^3
# Si number density = 19.382650 Si / 1000 Ang^3
#
#
#
# Elastic Constant Matrix: (Units=GPa)
#
#
# Indices 1 2 3 4 5 6 
#
# 1 71.0350 40.5169 39.8708 0.0000 0.0000 0.0000
# 2 40.5169 116.1254 71.2833 0.0000 0.0000 0.0000
# 3 39.8708 71.2833 89.2140 0.0000 0.0000 0.0000
# 4 0.0000 0.0000 0.0000 23.9043 0.0000 0.0000
# 5 0.0000 0.0000 0.0000 0.0000 26.1514 0.0000
# 6 0.0000 0.0000 0.0000 0.0000 0.0000 30.3129
#
#
#
# Elastic Compliance Matrix: (Units=1/GPa)
#
#
# Indices 1 2 3 4 5 6 
#
# 1 0.019250 -0.002817 -0.006352 0.000000 0.000000 0.000000
# 2 -0.002817 0.017313 -0.012574 0.000000 0.000000 0.000000
# 3 -0.006352 -0.012574 0.024095 0.000000 0.000000 0.000000
# 4 0.000000 0.000000 0.000000 0.041834 0.000000 0.000000
# 5 0.000000 0.000000 0.000000 0.000000 0.038239 0.000000
# 6 0.000000 0.000000 0.000000 0.000000 0.000000 0.032989
#
#
# Mechanical properties :
#
#
# Convention : Reuss Voigt Hill
#
# Bulk Modulus (GPa) = 58.23899 64.41292 61.32596
# Shear Modulus (GPa) = 22.42860 24.38728 23.40794
#
# Velocity S-wave (km/s) = 3.40538 3.55096 3.47893
# Velocity P-wave (km/s) = 6.75088 7.07933 6.91705
#
# Compressibility (1/GPa) = 0.01717063
#
# Stress axis : x y z
#
# Youngs Moduli (GPa) = 51.94892 57.75982 41.50270
#
# Poissons Ratio (x) = 0.16272 0.26362
# Poissons Ratio (y) = 0.14635 0.52187
# Poissons Ratio (z) = 0.32997 0.72629
#
# Static dielectric constant tensor:
#      x y z
#    x 3.527030 0.000000 0.000000 
#    y 0.000000 3.585400 0.000000 
#    z 0.000000 0.000000 3.740140 
# 
# 
# High freq. dielectric constant tensor:
#      x y z
#    x 1.749890 0.000000 0.000000 
#    y 0.000000 1.749740 0.000000 
#    z 0.000000 0.000000 1.752170 
# 
# From -- ./inp_files/4246.got.cif
#   From: 2010.03.12/outbox.cif.g09.slc.cpg/sg26_3_cif.got.tgz:4246.got - 2010.04.14 03:33:09.
