data_PCOD8167446
_publ_section_title
;
Structure prediction by ZEFSAII (Michael W. Deem and Ramdas Pophale) SiO2 
 PCOD8167446
Probable space group: P M C 21
;
_chemical_formula_sum "Si O2"
_cell_formula_units_Z 32
_cell_length_a 8.891219
_cell_length_b 11.377785
_cell_length_c 16.389082
_cell_angle_alpha 90.000000
_cell_angle_beta 90.000000
_cell_angle_gamma 90.000000
_cell_volume 1657.958511
_symmetry_space_group_name_H-M "P M C 21"
_symmetry_group_IT_number 26
_symmetry_cell_setting 'orthorhombic'
loop_
_space_group_symop_operation_xyz
x,y,z
-x,-y,1/2+z
-x,y,z
x,-y,1/2+z
loop_
_atom_site_type_symbol
_atom_site_label
_atom_site_fract_x
_atom_site_fract_y
_atom_site_fract_z
Si Si1 0.670352 0.164571 0.263160
Si Si2 0.175888 0.441149 0.646001
Si Si3 0.824230 0.791256 0.464051
Si Si4 0.172256 0.934536 0.608920
Si Si5 0.331230 0.078767 0.828029
Si Si6 0.172668 0.172760 0.675995
Si Si7 0.322159 0.428402 0.302216
Si Si8 0.179122 0.528894 0.466758
O O1 0.500000 0.169172 0.230335
O O2 0.777434 0.126195 0.191267
O O3 0.719727 0.290866 0.296640
O O4 0.685624 0.063067 0.332128
O O5 0.211271 0.302607 0.646045
O O6 0.258156 0.503753 0.722406
O O7 0.231320 0.482175 0.556156
O O8 0.000000 0.467892 0.656985
O O9 0.744654 0.869056 0.534517
O O10 0.793135 0.859801 0.381957
O O11 0.756920 0.660939 0.462560
O O12 0.000000 0.777708 0.475690
O O13 0.000000 0.902035 0.600477
O O14 0.193728 0.075984 0.603929
O O15 0.500000 0.115710 0.853091
O O16 0.297077 0.131154 0.739626
O O17 0.000000 0.166631 0.709264
O O18 0.500000 0.450287 0.304348
O O19 0.252235 0.465382 0.388850
O O20 0.000000 0.517692 0.457604
#
# Coordination Sequence:
#
# PCOD8167446 Si02
#       8
#     4   4   4   4   4   4   4   4
#     4   9  20  37  53  74 105 137 173 218 265 313
#     4  10  21  38  59  82 111 147 184 224 271 322
#     4  10  20  34  52  77 107 134 169 218 264 308
#     4   9  18  33  55  80 103 132 171 215 263 316
#     4  10  20  34  53  76 103 137 174 212 261 320
#     4   9  18  34  55  79 106 134 170 217 265 312
#     4  11  23  38  57  81 111 147 185 227 273 321
#     4  10  22  38  56  81 112 146 184 225 270 324
#
# _framework density 19.300844999999999
#
# number of rings (size 3 to 8) (size 9 to 14) (size 15 to 20)
#    0.000    2.250    0.000    2.250    0.000    8.500 
#    0.000    1.250    0.000    0.000    0.000    0.000 
#    0.000    0.000    0.000    0.000    0.000    0.000 
#
# Total GULP energy -396496.752364 kJ/mol
# GULP energy per Si atom -12390.523511 kJ/mol
# Density = 1.925692 g / cm^3
# Si number density = 19.300845 Si / 1000 Ang^3
#
#
#
# Elastic Constant Matrix: (Units=GPa)
#
#
# Indices 1 2 3 4 5 6 
#
# 1 26.2627 38.0812 27.1603 0.0000 0.0000 0.0000
# 2 38.0812 176.3625 71.4438 0.0000 0.0000 0.0000
# 3 27.1603 71.4438 114.2107 0.0000 0.0000 0.0000
# 4 0.0000 0.0000 0.0000 29.0333 0.0000 0.0000
# 5 0.0000 0.0000 0.0000 0.0000 -11.2070 0.0000
# 6 0.0000 0.0000 0.0000 0.0000 0.0000 10.5880
#
#
#
# Elastic Compliance Matrix: (Units=1/GPa)
#
#
# Indices 1 2 3 4 5 6 
#
# 1 0.060882 -0.009752 -0.008378 0.000000 0.000000 0.000000
# 2 -0.009752 0.009157 -0.003409 0.000000 0.000000 0.000000
# 3 -0.008378 -0.003409 0.012880 0.000000 0.000000 0.000000
# 4 0.000000 0.000000 0.000000 0.034443 0.000000 0.000000
# 5 0.000000 0.000000 0.000000 0.000000 -0.089230 0.000000
# 6 0.000000 0.000000 0.000000 0.000000 0.000000 0.094446
#
#
# Mechanical properties :
#
#
# Convention : Reuss Voigt Hill
#
# Bulk Modulus (GPa) = 25.09951 65.57850 45.33900
# Shear Modulus (GPa) = 27.94283 17.69289 22.81786
#
# Velocity S-wave (km/s) = 3.80906 3.03097 3.44207
# Velocity P-wave (km/s) = 5.69015 6.80440 6.27207
#
# Compressibility (1/GPa) = 0.03984142
#
# Stress axis : x y z
#
# Youngs Moduli (GPa) = 16.42529 109.20869 77.63705
#
# Poissons Ratio (x) = 1.06501 0.65043
# Poissons Ratio (y) = 0.16018 0.26465
# Poissons Ratio (z) = 0.13761 0.37227
#
# Static dielectric constant tensor:
#      x y z
#    x 3.397860 0.000000 0.000000 
#    y 0.000000 3.899840 0.000000 
#    z 0.000000 0.000000 3.520400 
# 
# 
# High freq. dielectric constant tensor:
#      x y z
#    x 1.739770 0.000000 0.000000 
#    y 0.000000 1.771260 0.000000 
#    z 0.000000 0.000000 1.743460 
# 
# From -- ./inp_files/4280.got.cif
#   From: 2010.03.12/outbox.cif.g09.slc.cpg/sg26_3_cif.got.tgz:4280.got - 2010.04.14 03:33:09.
