data_PCOD8167907
_publ_section_title
;
Structure prediction by ZEFSAII (Michael W. Deem and Ramdas Pophale) SiO2 
 PCOD8167907
Probable space group: P C C 2
;
_chemical_formula_sum "Si O2"
_cell_formula_units_Z 28
_cell_length_a 17.361348
_cell_length_b 7.785281
_cell_length_c 9.046703
_cell_angle_alpha 90.000000
_cell_angle_beta 90.000000
_cell_angle_gamma 90.000000
_cell_volume 1222.779271
_symmetry_space_group_name_H-M "P C C 2"
_symmetry_group_IT_number 27
_symmetry_cell_setting 'orthorhombic'
loop_
_space_group_symop_operation_xyz
x,y,z
-x,-y,z
-x,y,1/2+z
x,-y,1/2+z
loop_
_atom_site_type_symbol
_atom_site_label
_atom_site_fract_x
_atom_site_fract_y
_atom_site_fract_z
Si Si1 0.893793 0.912458 0.504050
Si Si2 0.500000 0.500000 0.294965
Si Si3 0.809984 0.275515 0.452308
Si Si4 0.354493 0.785331 0.090811
Si Si5 0.657137 0.912251 0.910778
Si Si6 0.798141 0.615881 0.623467
Si Si7 0.000000 0.000000 0.256766
Si Si8 0.467856 0.720536 0.544952
O O1 0.829692 0.764873 0.513467
O O2 0.948093 0.877044 0.362030
O O3 0.943895 0.889598 0.652786
O O4 0.860391 0.107203 0.491485
O O5 0.443570 0.611958 0.398164
O O6 0.555613 0.621259 0.194685
O O7 0.720646 0.224249 0.460836
O O8 0.825396 0.427351 0.570701
O O9 0.828743 0.347993 0.288956
O O10 0.359345 0.903906 0.237461
O O11 0.295401 0.627834 0.116054
O O12 0.439651 0.725693 0.047940
O O13 0.318535 0.895605 0.955225
O O14 0.579851 0.892518 0.015925
#
# Coordination Sequence:
#
# PCOD8167907 Si02
#       8
#     4   2   4   4   4   4   2   4
#     4  11  22  50  70 111 138 186 222 281 334 420
#     4  10  24  38  58  82 128 170 214 308 344 404
#     4  11  26  44  71 104 145 187 232 283 348 410
#     4  11  25  42  64  95 131 183 232 293 346 405
#     4  11  25  42  64  95 131 183 232 293 346 405
#     4  11  26  44  71 104 145 187 232 283 348 410
#     4  10  24  42  86  98 144 182 224 270 346 406
#     4  11  23  40  60  90 128 174 234 291 345 406
#
# _framework density 22.898655000000002
#
# number of rings (size 3 to 8) (size 9 to 14) (size 15 to 20)
#    0.000    1.143    4.286    0.429    8.000    2.286 
#    0.000    4.286    0.000    0.000    0.000    0.000 
#    0.000    0.000    0.000    0.000    0.000    0.000 
#
# Total GULP energy -346941.229803 kJ/mol
# GULP energy per Si atom -12390.758207 kJ/mol
# Density = 2.284654 g / cm^3
# Si number density = 22.898655 Si / 1000 Ang^3
#
#
#
# Elastic Constant Matrix: (Units=GPa)
#
#
# Indices 1 2 3 4 5 6 
#
# 1 99.9615 25.4417 32.1437 0.0000 0.0000 0.0000
# 2 25.4417 105.5187 32.9156 0.0000 0.0000 0.0000
# 3 32.1437 32.9156 123.3312 0.0000 0.0000 0.0000
# 4 0.0000 0.0000 0.0000 27.0905 0.0000 0.0000
# 5 0.0000 0.0000 0.0000 0.0000 25.2543 0.0000
# 6 0.0000 0.0000 0.0000 0.0000 0.0000 15.7163
#
#
#
# Elastic Compliance Matrix: (Units=1/GPa)
#
#
# Indices 1 2 3 4 5 6 
#
# 1 0.011281 -0.001967 -0.002415 0.000000 0.000000 0.000000
# 2 -0.001967 0.010680 -0.002338 0.000000 0.000000 0.000000
# 3 -0.002415 -0.002338 0.009362 0.000000 0.000000 0.000000
# 4 0.000000 0.000000 0.000000 0.036913 0.000000 0.000000
# 5 0.000000 0.000000 0.000000 0.000000 0.039597 0.000000
# 6 0.000000 0.000000 0.000000 0.000000 0.000000 0.063628
#
#
# Mechanical properties :
#
#
# Convention : Reuss Voigt Hill
#
# Bulk Modulus (GPa) = 55.91718 56.64594 56.28156
# Shear Modulus (GPa) = 26.19685 29.49959 27.84822
#
# Velocity S-wave (km/s) = 3.38603 3.59314 3.49112
# Velocity P-wave (km/s) = 6.30550 6.48117 6.39394
#
# Compressibility (1/GPa) = 0.01788359
#
# Stress axis : x y z
#
# Youngs Moduli (GPa) = 88.64433 93.62896 106.81797
#
# Poissons Ratio (x) = 0.18413 0.25800
# Poissons Ratio (y) = 0.17432 0.24973
# Poissons Ratio (z) = 0.21410 0.21890
#
# Static dielectric constant tensor:
#      x y z
#    x 4.056480 0.000000 0.000000 
#    y 0.000000 3.972830 0.000000 
#    z 0.000000 0.000000 4.349990 
# 
# 
# High freq. dielectric constant tensor:
#      x y z
#    x 1.892590 0.000000 0.000000 
#    y 0.000000 1.887890 0.000000 
#    z 0.000000 0.000000 1.920130 
# 
# From -- ./inp_files/1709.got.cif
#   From: 2010.03.12/outbox.cif.g09.slc.cpg/sg27_1_cif.got.tgz:1709.got - 2010.04.14 03:36:05.
