data_PCOD8167461
_publ_section_title
;
Structure prediction by ZEFSAII (Michael W. Deem and Ramdas Pophale) SiO2 
 PCOD8167461
Probable space group: P M C 21
;
_chemical_formula_sum "Si O2"
_cell_formula_units_Z 32
_cell_length_a 9.423845
_cell_length_b 11.598348
_cell_length_c 14.305051
_cell_angle_alpha 90.000000
_cell_angle_beta 90.000000
_cell_angle_gamma 90.000000
_cell_volume 1563.556863
_symmetry_space_group_name_H-M "P M C 21"
_symmetry_group_IT_number 26
_symmetry_cell_setting 'orthorhombic'
loop_
_space_group_symop_operation_xyz
x,y,z
-x,-y,1/2+z
-x,y,z
x,-y,1/2+z
loop_
_atom_site_type_symbol
_atom_site_label
_atom_site_fract_x
_atom_site_fract_y
_atom_site_fract_z
Si Si1 0.335843 0.419389 0.459920
Si Si2 0.664587 0.921898 0.753060
Si Si3 0.835887 0.887896 0.367745
Si Si4 0.658075 0.813503 0.055318
Si Si5 0.832016 0.484038 0.123647
Si Si6 0.839470 0.724102 0.207798
Si Si7 0.663110 0.340731 0.261103
Si Si8 0.339747 0.932015 0.537316
O O1 0.500000 0.449360 0.480884
O O2 0.297572 0.288058 0.486196
O O3 0.235243 0.504183 0.519782
O O4 0.303133 0.424592 0.349355
O O5 0.500000 0.959329 0.763686
O O6 0.689274 0.791970 0.789907
O O7 0.710021 0.922695 0.644143
O O8 0.760527 0.009260 0.811541
O O9 0.821265 0.764737 0.314695
O O10 0.764636 0.863247 0.468368
O O11 0.000000 0.922035 0.380823
O O12 0.500000 0.794121 0.093355
O O13 0.754806 0.816490 0.146758
O O14 0.669569 0.935153 0.002492
O O15 0.787263 0.593909 0.187855
O O16 0.764457 0.373823 0.174759
O O17 0.000000 0.467281 0.114087
O O18 0.000000 0.733057 0.173820
O O19 0.500000 0.356836 0.229511
O O20 0.500000 0.884209 0.526374
#
# Coordination Sequence:
#
# PCOD8167461 Si02
#       8
#     4   4   4   4   4   4   4   4
#     4   9  18  34  58  85 111 144 189 238 284 331
#     4  10  21  39  61  85 117 152 189 237 285 336
#     4  11  22  35  55  83 117 153 188 229 280 340
#     4   9  16  30  55  82 106 139 183 229 272 322
#     4  10  21  38  59  82 112 148 189 237 284 337
#     4   9  19  35  53  76 108 143 180 228 278 324
#     4  10  21  39  61  85 116 150 189 240 288 337
#     4  10  20  34  54  82 115 151 187 226 279 339
#
# _framework density 20.466156999999999
#
# number of rings (size 3 to 8) (size 9 to 14) (size 15 to 20)
#    0.000    2.250    1.250    1.500    0.000    5.000 
#    2.250    2.500    0.000    0.000    0.000    0.000 
#    0.000    0.000    0.000    0.000    0.000    0.000 
#
# Total GULP energy -396708.415588 kJ/mol
# GULP energy per Si atom -12397.137987 kJ/mol
# Density = 2.041957 g / cm^3
# Si number density = 20.466157 Si / 1000 Ang^3
#
#
#
# Elastic Constant Matrix: (Units=GPa)
#
#
# Indices 1 2 3 4 5 6 
#
# 1 79.4470 9.9603 39.7118 0.0000 0.0000 0.0000
# 2 9.9603 26.0058 0.4516 0.0000 0.0000 0.0000
# 3 39.7118 0.4516 80.2222 0.0000 0.0000 0.0000
# 4 0.0000 0.0000 0.0000 25.9047 0.0000 0.0000
# 5 0.0000 0.0000 0.0000 0.0000 19.6271 0.0000
# 6 0.0000 0.0000 0.0000 0.0000 0.0000 22.8939
#
#
#
# Elastic Compliance Matrix: (Units=1/GPa)
#
#
# Indices 1 2 3 4 5 6 
#
# 1 0.017812 -0.006669 -0.008780 0.000000 0.000000 0.000000
# 2 -0.006669 0.040954 0.003071 0.000000 0.000000 0.000000
# 3 -0.008780 0.003071 0.016794 0.000000 0.000000 0.000000
# 4 0.000000 0.000000 0.000000 0.038603 0.000000 0.000000
# 5 0.000000 0.000000 0.000000 0.000000 0.050950 0.000000
# 6 0.000000 0.000000 0.000000 0.000000 0.000000 0.043680
#
#
# Mechanical properties :
#
#
# Convention : Reuss Voigt Hill
#
# Bulk Modulus (GPa) = 19.68361 31.76917 25.72639
# Shear Modulus (GPa) = 19.96140 22.72190 21.34165
#
# Velocity S-wave (km/s) = 3.12643 3.33561 3.23271
# Velocity P-wave (km/s) = 4.76143 5.51285 5.15086
#
# Compressibility (1/GPa) = 0.05080369
#
# Stress axis : x y z
#
# Youngs Moduli (GPa) = 56.14294 24.41761 59.54436
#
# Poissons Ratio (x) = 0.16285 0.52278
# Poissons Ratio (y) = 0.37444 -0.18286
# Poissons Ratio (z) = 0.49291 -0.07499
#
# Static dielectric constant tensor:
#      x y z
#    x 3.624710 0.000000 0.000000 
#    y 0.000000 3.559750 0.000000 
#    z 0.000000 0.000000 3.720600 
# 
# 
# High freq. dielectric constant tensor:
#      x y z
#    x 1.791460 0.000000 0.000000 
#    y 0.000000 1.783090 0.000000 
#    z 0.000000 0.000000 1.799590 
# 
# From -- ./inp_files/4206.got.cif
#   From: 2010.03.12/outbox.cif.g09.slc.cpg/sg26_3_cif.got.tgz:4206.got - 2010.04.14 03:33:09.
