data_PCOD8167470
_publ_section_title
;
Structure prediction by ZEFSAII (Michael W. Deem and Ramdas Pophale) SiO2 
 PCOD8167470
Probable space group: P M C 21
;
_chemical_formula_sum "Si O2"
_cell_formula_units_Z 32
_cell_length_a 8.948647
_cell_length_b 14.175606
_cell_length_c 12.407042
_cell_angle_alpha 90.000000
_cell_angle_beta 90.000000
_cell_angle_gamma 90.000000
_cell_volume 1573.864222
_symmetry_space_group_name_H-M "P M C 21"
_symmetry_group_IT_number 26
_symmetry_cell_setting 'orthorhombic'
loop_
_space_group_symop_operation_xyz
x,y,z
-x,-y,1/2+z
-x,y,z
x,-y,1/2+z
loop_
_atom_site_type_symbol
_atom_site_label
_atom_site_fract_x
_atom_site_fract_y
_atom_site_fract_z
Si Si1 0.327020 0.862752 0.536610
Si Si2 0.166373 0.663965 0.855985
Si Si3 0.822351 0.632078 0.223699
Si Si4 0.677266 0.443448 0.163466
Si Si5 0.672804 0.334865 0.945061
Si Si6 0.837371 0.863852 0.752956
Si Si7 0.675015 0.941858 0.942972
Si Si8 0.323182 0.745489 0.051475
O O1 0.500000 0.872642 0.564295
O O2 0.299075 0.777586 0.453325
O O3 0.246394 0.835904 0.645587
O O4 0.262273 0.961742 0.494092
O O5 0.262543 0.607374 0.769848
O O6 0.144906 0.770205 0.820687
O O7 0.000000 0.618378 0.870958
O O8 0.256842 0.668235 0.968082
O O9 0.755974 0.544486 0.156850
O O10 0.773191 0.625719 0.348336
O O11 0.753266 0.725671 0.167375
O O12 0.000000 0.633471 0.216454
O O13 0.500000 0.454476 0.173937
O O14 0.720980 0.385411 0.056226
O O15 0.500000 0.356508 0.919313
O O16 0.745926 0.937917 0.824424
O O17 0.000000 0.906927 0.726545
O O18 0.500000 0.947854 0.924563
O O19 0.716798 0.852990 0.018436
O O20 0.500000 0.730853 0.058846
#
# Coordination Sequence:
#
# PCOD8167470 Si02
#       8
#     4   4   4   4   4   4   4   4
#     4  10  20  38  63  90 120 158 206 257 305 360
#     4  10  20  36  60  89 120 154 197 252 308 363
#     4  12  27  43  62  89 128 169 205 256 314 373
#     4  11  23  41  66  92 119 158 206 255 305 367
#     4  10  23  43  66  92 123 160 207 257 308 370
#     4  10  20  34  55  85 121 157 196 248 306 365
#     4   9  20  37  61  89 119 161 210 256 303 360
#     4  10  21  40  63  88 122 163 209 255 303 364
#
# _framework density 20.332122999999999
#
# number of rings (size 3 to 8) (size 9 to 14) (size 15 to 20)
#    0.000    1.750    1.250    2.625    1.750    4.500 
#    0.000    5.000    0.000    0.000    0.000    0.000 
#    0.000    0.000    0.000    0.000    0.000    0.000 
#
# Total GULP energy -396809.328508 kJ/mol
# GULP energy per Si atom -12400.291516 kJ/mol
# Density = 2.028585 g / cm^3
# Si number density = 20.332123 Si / 1000 Ang^3
#
#
#
# Elastic Constant Matrix: (Units=GPa)
#
#
# Indices 1 2 3 4 5 6 
#
# 1 105.5780 42.9830 46.4358 0.0000 0.0000 0.0000
# 2 42.9830 89.3622 32.2900 0.0000 0.0000 0.0000
# 3 46.4358 32.2900 89.2186 0.0000 0.0000 0.0000
# 4 0.0000 0.0000 0.0000 24.0752 0.0000 0.0000
# 5 0.0000 0.0000 0.0000 0.0000 -9.1890 0.0000
# 6 0.0000 0.0000 0.0000 0.0000 0.0000 17.8779
#
#
#
# Elastic Compliance Matrix: (Units=1/GPa)
#
#
# Indices 1 2 3 4 5 6 
#
# 1 0.013776 -0.004643 -0.005490 0.000000 0.000000 0.000000
# 2 -0.004643 0.014439 -0.002809 0.000000 0.000000 0.000000
# 3 -0.005490 -0.002809 0.015083 0.000000 0.000000 0.000000
# 4 0.000000 0.000000 0.000000 0.041537 0.000000 0.000000
# 5 0.000000 0.000000 0.000000 0.000000 -0.108826 0.000000
# 6 0.000000 0.000000 0.000000 0.000000 0.000000 0.055935
#
#
# Mechanical properties :
#
#
# Convention : Reuss Voigt Hill
#
# Bulk Modulus (GPa) = 57.42575 58.61957 58.02266
# Shear Modulus (GPa) = 78.57722 17.38281 47.98002
#
# Velocity S-wave (km/s) = 6.22340 2.92711 4.86306
# Velocity P-wave (km/s) = 8.94126 6.34961 7.75447
#
# Compressibility (1/GPa) = 0.01741379
#
# Stress axis : x y z
#
# Youngs Moduli (GPa) = 72.58779 69.25869 66.30194
#
# Poissons Ratio (x) = 0.32155 0.36399
# Poissons Ratio (y) = 0.33700 0.18626
# Poissons Ratio (z) = 0.39850 0.19456
#
# Static dielectric constant tensor:
#      x y z
#    x 3.868780 0.000000 0.000000 
#    y 0.000000 3.824290 0.000000 
#    z 0.000000 0.000000 3.672890 
# 
# 
# High freq. dielectric constant tensor:
#      x y z
#    x 1.797980 0.000000 0.000000 
#    y 0.000000 1.790700 0.000000 
#    z 0.000000 0.000000 1.795050 
# 
# From -- ./inp_files/2962.got.cif
#   From: 2010.03.12/outbox.cif.g09.slc.cpg/sg26_2_cif.got.tgz:2962.got - 2010.04.14 03:33:09.
