data_PCOD8167979
_publ_section_title
;
Structure prediction by ZEFSAII (Michael W. Deem and Ramdas Pophale) SiO2 
 PCOD8167979
Probable space group: P M A 2
;
_chemical_formula_sum "Si O2"
_cell_formula_units_Z 32
_cell_length_a 8.849401
_cell_length_b 15.219363
_cell_length_c 15.350702
_cell_angle_alpha 90.000000
_cell_angle_beta 90.000000
_cell_angle_gamma 90.000000
_cell_volume 2067.467025
_symmetry_space_group_name_H-M "P M A 2"
_symmetry_group_IT_number 28
_symmetry_cell_setting 'orthorhombic'
loop_
_space_group_symop_operation_xyz
x,y,z
-x,-y,z
1/2-x,y,z
1/2+x,-y,z
loop_
_atom_site_type_symbol
_atom_site_label
_atom_site_fract_x
_atom_site_fract_y
_atom_site_fract_z
Si Si1 0.070272 0.402856 0.745150
Si Si2 0.924605 0.406049 0.912291
Si Si3 0.926084 0.265394 0.423217
Si Si4 0.415367 0.083252 0.230881
Si Si5 0.581528 0.914071 0.437350
Si Si6 0.573103 0.405801 0.571712
Si Si7 0.430443 0.274365 0.239701
Si Si8 0.074473 0.594943 0.104512
O O1 0.250000 0.403204 0.743078
O O2 0.000000 0.500000 0.748663
O O3 0.010251 0.353817 0.833514
O O4 0.004598 0.360413 0.656661
O O5 0.750000 0.416592 0.886654
O O6 0.000000 0.500000 0.922320
O O7 0.942764 0.361835 0.007703
O O8 0.750000 0.251931 0.404779
O O9 0.958151 0.341900 0.491719
O O10 0.990879 0.174188 0.461179
O O11 0.006313 0.296411 0.334897
O O12 0.250000 0.079857 0.189487
O O13 0.408916 0.074469 0.334313
O O14 0.489960 0.177818 0.208956
O O15 0.500000 0.000000 0.188957
O O16 0.750000 0.907342 0.476883
O O17 0.500000 0.000000 0.477999
O O18 0.500000 0.500000 0.550179
O O19 0.750000 0.419195 0.589756
O O20 0.250000 0.274650 0.245708
O O21 0.487946 0.344280 0.171535
O O22 0.250000 0.587023 0.130125
O O23 0.000000 0.500000 0.110068
#
# Coordination Sequence:
#
# PCOD8167979 Si02
#       8
#     4   4   4   4   4   4   4   4
#     4  10  17  26  43  63  83 107 136 173 217 261
#     4   9  16  27  43  62  83 106 136 174 216 259
#     4  10  20  32  45  62  86 117 152 186 219 256
#     4   8  15  26  41  61  81 105 135 171 215 255
#     4   9  16  27  44  64  85 109 139 177 221 264
#     4  10  20  32  45  61  84 115 149 184 218 254
#     4  10  20  32  45  62  87 117 149 184 218 255
#     4  10  20  32  46  63  85 116 150 183 217 254
#
# _framework density 15.477876999999999
#
# number of rings (size 3 to 8) (size 9 to 14) (size 15 to 20)
#    0.000    2.500    0.000    5.625    0.000    7.500 
#    0.000    1.250    0.000    0.000    0.000    0.000 
#    0.000    1.000    0.000    7.000    0.000    5.375 
#
# Total GULP energy -396530.687959 kJ/mol
# GULP energy per Si atom -12391.583999 kJ/mol
# Density = 1.544265 g / cm^3
# Si number density = 15.477877 Si / 1000 Ang^3
#
#
#
# Elastic Constant Matrix: (Units=GPa)
#
#
# Indices 1 2 3 4 5 6 
#
# 1 119.8217 46.2537 55.2802 0.0000 0.0000 0.0000
# 2 46.2537 80.2544 48.5249 0.0000 0.0000 0.0000
# 3 55.2802 48.5249 89.3784 0.0000 0.0000 0.0000
# 4 0.0000 0.0000 0.0000 -1.2911 0.0000 0.0000
# 5 0.0000 0.0000 0.0000 0.0000 15.6231 0.0000
# 6 0.0000 0.0000 0.0000 0.0000 0.0000 24.3528
#
#
#
# Elastic Compliance Matrix: (Units=1/GPa)
#
#
# Indices 1 2 3 4 5 6 
#
# 1 0.012386 -0.003731 -0.005635 0.000000 0.000000 0.000000
# 2 -0.003731 0.019674 -0.008373 0.000000 0.000000 0.000000
# 3 -0.005635 -0.008373 0.019219 0.000000 0.000000 0.000000
# 4 0.000000 0.000000 0.000000 -0.774548 0.000000 0.000000
# 5 0.000000 0.000000 0.000000 0.000000 0.064008 0.000000
# 6 0.000000 0.000000 0.000000 0.000000 0.000000 0.041063
#
#
# Mechanical properties :
#
#
# Convention : Reuss Voigt Hill
#
# Bulk Modulus (GPa) = 63.29087 65.50802 64.39944
# Shear Modulus (GPa) = -8.65872 17.03001 4.18564
#
# Velocity S-wave (km/s) = -2.36778 3.32065 1.64625
# Velocity P-wave (km/s) = 5.78833 7.55763 6.73136
#
# Compressibility (1/GPa) = 0.01580007
#
# Stress axis : x y z
#
# Youngs Moduli (GPa) = 80.73811 50.82906 52.03078
#
# Poissons Ratio (x) = 0.18967 0.29318
# Poissons Ratio (y) = 0.30127 0.43567
# Poissons Ratio (z) = 0.45493 0.42561
#
# Static dielectric constant tensor:
#      x y z
#    x 3.204990 0.000000 0.000000 
#    y 0.000000 2.824520 0.000000 
#    z 0.000000 0.000000 3.279570 
# 
# 
# High freq. dielectric constant tensor:
#      x y z
#    x 1.615850 0.000000 0.000000 
#    y 0.000000 1.560590 0.000000 
#    z 0.000000 0.000000 1.572040 
# 
# From -- ./inp_files/6433.got.cif
#   From: 2010.03.12/outbox.cif.g09.slc.cpg/sg28_4_cif.got.tgz:6433.got - 2010.04.14 03:39:34.
