data_PCOD8167364
_publ_section_title
;
Structure prediction by ZEFSAII (Michael W. Deem and Ramdas Pophale) SiO2 
 PCOD8167364
Probable space group: P M C 21
;
_chemical_formula_sum "Si O2"
_cell_formula_units_Z 32
_cell_length_a 8.842714
_cell_length_b 14.511756
_cell_length_c 12.496774
_cell_angle_alpha 90.000000
_cell_angle_beta 90.000000
_cell_angle_gamma 90.000000
_cell_volume 1603.627378
_symmetry_space_group_name_H-M "P M C 21"
_symmetry_group_IT_number 26
_symmetry_cell_setting 'orthorhombic'
loop_
_space_group_symop_operation_xyz
x,y,z
-x,-y,1/2+z
-x,y,z
x,-y,1/2+z
loop_
_atom_site_type_symbol
_atom_site_label
_atom_site_fract_x
_atom_site_fract_y
_atom_site_fract_z
Si Si1 0.665938 0.666688 0.002890
Si Si2 0.664680 0.142447 0.612604
Si Si3 0.821218 0.328738 0.901100
Si Si4 0.679275 0.558678 0.204026
Si Si5 0.319560 0.142206 0.844029
Si Si6 0.680003 0.938557 0.902925
Si Si7 0.825168 0.378407 0.139423
Si Si8 0.825797 0.235799 0.314093
O O1 0.500000 0.633907 0.960996
O O2 0.642279 0.754529 0.076078
O O3 0.737162 0.593448 0.086724
O O4 0.771429 0.689347 0.902333
O O5 0.500000 0.096259 0.633049
O O6 0.751311 0.143051 0.724622
O O7 0.749277 0.085465 0.519807
O O8 0.750840 0.386717 0.803834
O O9 0.758676 0.224559 0.907823
O O10 0.000000 0.325922 0.886086
O O11 0.775891 0.373542 0.015120
O O12 0.500000 0.570192 0.213743
O O13 0.727486 0.452272 0.206172
O O14 0.500000 0.156785 0.847757
O O15 0.268722 0.042684 0.885967
O O16 0.500000 0.926533 0.901110
O O17 0.742294 0.863366 0.818316
O O18 0.797769 0.279654 0.197052
O O19 0.000000 0.406868 0.149243
O O20 0.000000 0.216807 0.336722
#
# Coordination Sequence:
#
# PCOD8167364 Si02
#       8
#     4   4   4   4   4   4   4   4
#     4   9  18  35  58  83 113 144 185 247 301 345
#     4   8  14  30  51  76 111 146 183 238 297 344
#     4  11  24  42  62  87 124 161 200 246 302 368
#     4  11  23  40  64  91 117 150 198 254 301 354
#     4  10  19  35  59  85 117 157 202 251 302 354
#     4   9  19  34  56  85 118 157 202 251 304 354
#     4  10  25  44  59  84 125 167 198 243 304 361
#     4  10  21  38  59  83 117 158 202 244 293 356
#
# _framework density 19.95476
#
# number of rings (size 3 to 8) (size 9 to 14) (size 15 to 20)
#    0.000    2.250    1.250    1.875    1.750    4.500 
#    0.000    1.250    0.000    0.000    0.000    0.000 
#    0.000    0.000    0.000    0.000    0.000    0.000 
#
# Total GULP energy -396545.091432 kJ/mol
# GULP energy per Si atom -12392.034107 kJ/mol
# Density = 1.990934 g / cm^3
# Si number density = 19.954760 Si / 1000 Ang^3
#
#
#
# Elastic Constant Matrix: (Units=GPa)
#
#
# Indices 1 2 3 4 5 6 
#
# 1 65.5464 37.4665 35.8197 0.0000 0.0000 0.0000
# 2 37.4665 112.8662 47.3117 0.0000 0.0000 0.0000
# 3 35.8197 47.3117 81.9140 0.0000 0.0000 0.0000
# 4 0.0000 0.0000 0.0000 20.2428 0.0000 0.0000
# 5 0.0000 0.0000 0.0000 0.0000 24.3569 0.0000
# 6 0.0000 0.0000 0.0000 0.0000 0.0000 28.0099
#
#
#
# Elastic Compliance Matrix: (Units=1/GPa)
#
#
# Indices 1 2 3 4 5 6 
#
# 1 0.021463 -0.004210 -0.006954 0.000000 0.000000 0.000000
# 2 -0.004210 0.012516 -0.005388 0.000000 0.000000 0.000000
# 3 -0.006954 -0.005388 0.018361 0.000000 0.000000 0.000000
# 4 0.000000 0.000000 0.000000 0.049400 0.000000 0.000000
# 5 0.000000 0.000000 0.000000 0.000000 0.041056 0.000000
# 6 0.000000 0.000000 0.000000 0.000000 0.000000 0.035702
#
#
# Mechanical properties :
#
#
# Convention : Reuss Voigt Hill
#
# Bulk Modulus (GPa) = 51.98543 55.72471 53.85507
# Shear Modulus (GPa) = 22.93435 23.83718 23.38576
#
# Velocity S-wave (km/s) = 3.39384 3.45999 3.42707
# Velocity P-wave (km/s) = 6.43939 6.62934 6.53506
#
# Compressibility (1/GPa) = 0.01923616
#
# Stress axis : x y z
#
# Youngs Moduli (GPa) = 46.59224 79.89693 54.46363
#
# Poissons Ratio (x) = 0.33634 0.37874
# Poissons Ratio (y) = 0.19614 0.29346
# Poissons Ratio (z) = 0.32400 0.43050
#
# Static dielectric constant tensor:
#      x y z
#    x 3.495830 0.000000 0.000000 
#    y 0.000000 3.618830 0.000000 
#    z 0.000000 0.000000 3.853160 
# 
# 
# High freq. dielectric constant tensor:
#      x y z
#    x 1.756570 0.000000 0.000000 
#    y 0.000000 1.778520 0.000000 
#    z 0.000000 0.000000 1.784060 
# 
# From -- ./inp_files/3080.got.cif
#   From: 2010.03.12/outbox.cif.g09.slc.cpg/sg26_2_cif.got.tgz:3080.got - 2010.04.14 03:33:09.
