data_PCOD8167477
_publ_section_title
;
Structure prediction by ZEFSAII (Michael W. Deem and Ramdas Pophale) SiO2 
 PCOD8167477
Probable space group: P M C 21
;
_chemical_formula_sum "Si O2"
_cell_formula_units_Z 24
_cell_length_a 8.806559
_cell_length_b 12.083719
_cell_length_c 10.380206
_cell_angle_alpha 90.000000
_cell_angle_beta 90.000000
_cell_angle_gamma 90.000000
_cell_volume 1104.619839
_symmetry_space_group_name_H-M "P M C 21"
_symmetry_group_IT_number 26
_symmetry_cell_setting 'orthorhombic'
loop_
_space_group_symop_operation_xyz
x,y,z
-x,-y,1/2+z
-x,y,z
x,-y,1/2+z
loop_
_atom_site_type_symbol
_atom_site_label
_atom_site_fract_x
_atom_site_fract_y
_atom_site_fract_z
Si Si1 0.323778 0.281022 0.276370
Si Si2 0.823883 0.493558 0.720204
Si Si3 0.820438 0.916868 0.413630
Si Si4 0.671537 0.704416 0.331638
Si Si5 0.330104 0.335474 0.555234
Si Si6 0.679688 0.957308 0.676374
O O1 0.500000 0.306633 0.255729
O O2 0.229200 0.380494 0.215620
O O3 0.281542 0.269196 0.427952
O O4 0.275668 0.168748 0.207965
O O5 0.738121 0.421435 0.832246
O O6 0.783264 0.439080 0.581122
O O7 0.000000 0.487078 0.748354
O O8 0.772201 0.787402 0.416892
O O9 0.742636 0.981370 0.533048
O O10 0.000000 0.928045 0.424466
O O11 0.761803 0.966204 0.279916
O O12 0.500000 0.704226 0.386934
O O13 0.674233 0.745455 0.180809
O O14 0.500000 0.383894 0.538816
O O15 0.500000 0.978567 0.682237
#
# Coordination Sequence:
#
# PCOD8167477 Si02
#       6
#     4   4   4   4   4   4
#     4  10  21  40  64  92 124 165 219 269 317 385
#     4  10  20  34  56  91 130 169 207 259 326 387
#     4  12  26  45  68 100 137 172 219 281 341 394
#     4   9  19  39  65  91 122 168 218 261 316 391
#     4   8  18  36  60  88 119 162 212 264 316 379
#     4  11  26  46  71  98 130 178 227 274 330 404
#
# _framework density 21.726932999999999
#
# number of rings (size 3 to 8) (size 9 to 14) (size 15 to 20)
#    1.000    1.000    0.000    3.500    2.333    3.333 
#    0.000    1.667    0.000    0.000    0.000    0.000 
#    0.000    0.000    0.000    0.000    0.000    0.000 
#
# Total GULP energy -297451.997120 kJ/mol
# GULP energy per Si atom -12393.833213 kJ/mol
# Density = 2.167748 g / cm^3
# Si number density = 21.726933 Si / 1000 Ang^3
#
#
#
# Elastic Constant Matrix: (Units=GPa)
#
#
# Indices 1 2 3 4 5 6 
#
# 1 116.8364 35.8090 4.0293 0.0000 0.0000 0.0000
# 2 35.8090 65.3018 2.5531 0.0000 0.0000 0.0000
# 3 4.0293 2.5531 45.4874 0.0000 0.0000 0.0000
# 4 0.0000 0.0000 0.0000 31.5591 0.0000 0.0000
# 5 0.0000 0.0000 0.0000 0.0000 25.7661 0.0000
# 6 0.0000 0.0000 0.0000 0.0000 0.0000 24.8740
#
#
#
# Elastic Compliance Matrix: (Units=1/GPa)
#
#
# Indices 1 2 3 4 5 6 
#
# 1 0.010304 -0.005627 -0.000597 0.000000 0.000000 0.000000
# 2 -0.005627 0.018420 -0.000535 0.000000 0.000000 0.000000
# 3 -0.000597 -0.000535 0.022067 0.000000 0.000000 0.000000
# 4 0.000000 0.000000 0.000000 0.031687 0.000000 0.000000
# 5 0.000000 0.000000 0.000000 0.000000 0.038811 0.000000
# 6 0.000000 0.000000 0.000000 0.000000 0.000000 0.040203
#
#
# Mechanical properties :
#
#
# Convention : Reuss Voigt Hill
#
# Bulk Modulus (GPa) = 26.82944 34.71205 30.77075
# Shear Modulus (GPa) = 26.67600 28.78878 27.73239
#
# Velocity S-wave (km/s) = 3.50778 3.64404 3.57656
# Velocity P-wave (km/s) = 5.36482 5.80660 5.59007
#
# Compressibility (1/GPa) = 0.03727249
#
# Stress axis : x y z
#
# Youngs Moduli (GPa) = 97.04781 54.28841 45.31642
#
# Poissons Ratio (x) = 0.30549 0.02705
# Poissons Ratio (y) = 0.54610 0.02426
# Poissons Ratio (z) = 0.05793 0.02907
#
# Static dielectric constant tensor:
#      x y z
#    x 3.714930 0.000000 0.000000 
#    y 0.000000 3.734720 0.000000 
#    z 0.000000 0.000000 3.924080 
# 
# 
# High freq. dielectric constant tensor:
#      x y z
#    x 1.845770 0.000000 0.000000 
#    y 0.000000 1.840770 0.000000 
#    z 0.000000 0.000000 1.852000 
# 
# From -- ./inp_files/2815.got.cif
#   From: 2010.03.12/outbox.cif.g09.slc.cpg/sg26_2_cif.got.tgz:2815.got - 2010.04.14 03:33:09.
