data_PCOD8167419
_publ_section_title
;
Structure prediction by ZEFSAII (Michael W. Deem and Ramdas Pophale) SiO2 
 PCOD8167419
Probable space group: P M C 21
;
_chemical_formula_sum "Si O2"
_cell_formula_units_Z 32
_cell_length_a 8.630037
_cell_length_b 12.001343
_cell_length_c 15.333149
_cell_angle_alpha 90.000000
_cell_angle_beta 90.000000
_cell_angle_gamma 90.000000
_cell_volume 1588.085432
_symmetry_space_group_name_H-M "P M C 21"
_symmetry_group_IT_number 26
_symmetry_cell_setting 'orthorhombic'
loop_
_space_group_symop_operation_xyz
x,y,z
-x,-y,1/2+z
-x,y,z
x,-y,1/2+z
loop_
_atom_site_type_symbol
_atom_site_label
_atom_site_fract_x
_atom_site_fract_y
_atom_site_fract_z
Si Si1 0.181233 0.100167 0.176810
Si Si2 0.322417 0.742457 0.251309
Si Si3 0.324297 0.972798 0.332695
Si Si4 0.681009 0.954281 0.022502
Si Si5 0.683850 0.510046 0.327452
Si Si6 0.821874 0.735821 0.074909
Si Si7 0.684797 0.346798 0.174799
Si Si8 0.318071 0.492114 0.521905
O O1 0.238324 0.226706 0.175486
O O2 0.000000 0.096708 0.158375
O O3 0.215328 0.045831 0.270625
O O4 0.266017 0.030513 0.102171
O O5 0.500000 0.728723 0.218937
O O6 0.307356 0.840920 0.320422
O O7 0.258990 0.628942 0.292724
O O8 0.210503 0.777014 0.172704
O O9 0.500000 0.012919 0.314911
O O10 0.277508 0.985646 0.432820
O O11 0.500000 0.930420 0.034602
O O12 0.769637 0.837000 0.013908
O O13 0.500000 0.506699 0.332654
O O14 0.741183 0.413220 0.261666
O O15 0.755823 0.498124 0.424718
O O16 0.718762 0.627742 0.060490
O O17 0.000000 0.707052 0.058662
O O18 0.500000 0.334956 0.174333
O O19 0.743975 0.413029 0.088400
O O20 0.500000 0.506853 0.514949
#
# Coordination Sequence:
#
# PCOD8167419 Si02
#       8
#     4   4   4   4   4   4   4   4
#     4  12  26  42  61  90 132 169 201 251 317 378
#     4  10  19  39  67  92 117 153 203 262 309 358
#     4  10  23  41  68  95 119 159 213 263 307 362
#     4  11  24  43  67  93 120 161 216 262 303 363
#     4   9  19  36  63  94 117 149 205 257 301 350
#     4  12  24  39  61  91 126 163 200 250 314 373
#     4  10  21  39  62  88 121 162 209 252 298 360
#     4  10  21  39  65  91 118 158 205 257 301 354
#
# _framework density 20.15005
#
# number of rings (size 3 to 8) (size 9 to 14) (size 15 to 20)
#    0.000    1.500    2.500    2.625    3.500    1.500 
#    0.000    0.625    0.000    0.000    0.000    0.000 
#    0.000    0.000    0.000    0.000    0.000    0.000 
#
# Total GULP energy -396836.250959 kJ/mol
# GULP energy per Si atom -12401.132842 kJ/mol
# Density = 2.010419 g / cm^3
# Si number density = 20.150050 Si / 1000 Ang^3
#
#
#
# Elastic Constant Matrix: (Units=GPa)
#
#
# Indices 1 2 3 4 5 6 
#
# 1 28.9073 13.8749 24.2595 0.0000 0.0000 0.0000
# 2 13.8749 116.3485 24.9654 0.0000 0.0000 0.0000
# 3 24.2595 24.9654 105.4072 0.0000 0.0000 0.0000
# 4 0.0000 0.0000 0.0000 34.1061 0.0000 0.0000
# 5 0.0000 0.0000 0.0000 0.0000 5.3614 0.0000
# 6 0.0000 0.0000 0.0000 0.0000 0.0000 8.0141
#
#
#
# Elastic Compliance Matrix: (Units=1/GPa)
#
#
# Indices 1 2 3 4 5 6 
#
# 1 0.044003 -0.003239 -0.009360 0.000000 0.000000 0.000000
# 2 -0.003239 0.009293 -0.001456 0.000000 0.000000 0.000000
# 3 -0.009360 -0.001456 0.011986 0.000000 0.000000 0.000000
# 4 0.000000 0.000000 0.000000 0.029320 0.000000 0.000000
# 5 0.000000 0.000000 0.000000 0.000000 0.186518 0.000000
# 6 0.000000 0.000000 0.000000 0.000000 0.000000 0.124779
#
#
# Mechanical properties :
#
#
# Convention : Reuss Voigt Hill
#
# Bulk Modulus (GPa) = 26.90131 41.87363 34.38747
# Shear Modulus (GPa) = 11.20069 22.00054 16.60061
#
# Velocity S-wave (km/s) = 2.36023 3.30788 2.87339
# Velocity P-wave (km/s) = 4.56148 5.95109 5.30200
#
# Compressibility (1/GPa) = 0.03717292
#
# Stress axis : x y z
#
# Youngs Moduli (GPa) = 22.72559 107.60224 83.43034
#
# Poissons Ratio (x) = 0.34853 0.78093
# Poissons Ratio (y) = 0.07361 0.12145
# Poissons Ratio (z) = 0.21272 0.15663
#
# Static dielectric constant tensor:
#      x y z
#    x 3.420540 0.000000 0.000000 
#    y 0.000000 3.752550 0.000000 
#    z 0.000000 0.000000 3.954120 
# 
# 
# High freq. dielectric constant tensor:
#      x y z
#    x 1.758490 0.000000 0.000000 
#    y 0.000000 1.801370 0.000000 
#    z 0.000000 0.000000 1.797210 
# 
# From -- ./inp_files/4318.got.cif
#   From: 2010.03.12/outbox.cif.g09.slc.cpg/sg26_3_cif.got.tgz:4318.got - 2010.04.14 03:33:09.
