data_PCOD8167545
_publ_section_title
;
Structure prediction by ZEFSAII (Michael W. Deem and Ramdas Pophale) SiO2 
 PCOD8167545
Probable space group: P M C 21
;
_chemical_formula_sum "Si O2"
_cell_formula_units_Z 32
_cell_length_a 8.586626
_cell_length_b 18.758233
_cell_length_c 10.189626
_cell_angle_alpha 90.000000
_cell_angle_beta 90.000000
_cell_angle_gamma 90.000000
_cell_volume 1641.242359
_symmetry_space_group_name_H-M "P M C 21"
_symmetry_group_IT_number 26
_symmetry_cell_setting 'orthorhombic'
loop_
_space_group_symop_operation_xyz
x,y,z
-x,-y,1/2+z
-x,y,z
x,-y,1/2+z
loop_
_atom_site_type_symbol
_atom_site_label
_atom_site_fract_x
_atom_site_fract_y
_atom_site_fract_z
Si Si1 0.179602 0.046440 0.846360
Si Si2 0.179997 0.415434 0.498789
Si Si3 0.819880 0.347254 0.222478
Si Si4 0.680637 0.661755 0.240512
Si Si5 0.680382 0.789791 0.640151
Si Si6 0.681750 0.049638 0.125390
Si Si7 0.680900 0.568541 0.488044
Si Si8 0.179303 0.209309 0.865050
O O1 0.212660 0.129326 0.816270
O O2 0.000000 0.026442 0.826010
O O3 0.282417 0.002779 0.744219
O O4 0.226575 0.026228 0.994772
O O5 0.224311 0.384728 0.357616
O O6 0.285247 0.374346 0.602486
O O7 0.214702 0.498839 0.502419
O O8 0.000000 0.402809 0.533154
O O9 0.779866 0.263073 0.232488
O O10 0.711697 0.380469 0.110686
O O11 0.000000 0.358469 0.186985
O O12 0.500000 0.680412 0.251336
O O13 0.732732 0.607952 0.355284
O O14 0.777047 0.735514 0.250105
O O15 0.500000 0.778072 0.670894
O O16 0.733228 0.870843 0.668818
O O17 0.713053 0.771214 0.488469
O O18 0.500000 0.048171 0.091347
O O19 0.500000 0.547068 0.484333
O O20 0.000000 0.217575 0.907030
#
# Coordination Sequence:
#
# PCOD8167545 Si02
#       8
#     4   4   4   4   4   4   4   4
#     4  10  21  38  61  90 121 157 197 243 293 349
#     4  11  25  41  57  84 119 154 194 242 297 348
#     4  11  23  39  61  87 116 154 196 241 293 346
#     4  11  23  39  61  88 117 154 196 240 292 346
#     4  10  20  36  60  88 117 152 197 241 286 345
#     4  10  21  38  61  89 121 157 197 244 293 349
#     4  11  23  39  62  88 114 149 195 242 293 352
#     4  10  20  36  61  88 117 153 196 241 287 343
#
# _framework density 19.497423999999999
#
# number of rings (size 3 to 8) (size 9 to 14) (size 15 to 20)
#    0.000    1.500    1.250    3.750    0.000    8.500 
#    2.250    0.000    0.000    0.000    0.000    0.000 
#    0.000    0.000    0.000    0.000    0.000    0.000 
#
# Total GULP energy -397002.432414 kJ/mol
# GULP energy per Si atom -12406.326013 kJ/mol
# Density = 1.945305 g / cm^3
# Si number density = 19.497424 Si / 1000 Ang^3
#
#
#
# Elastic Constant Matrix: (Units=GPa)
#
#
# Indices 1 2 3 4 5 6 
#
# 1 46.1129 24.2104 21.4523 0.0000 0.0000 0.0000
# 2 24.2104 103.8875 39.7787 0.0000 0.0000 0.0000
# 3 21.4523 39.7787 78.4680 0.0000 0.0000 0.0000
# 4 0.0000 0.0000 0.0000 19.1535 0.0000 0.0000
# 5 0.0000 0.0000 0.0000 0.0000 29.3544 0.0000
# 6 0.0000 0.0000 0.0000 0.0000 0.0000 32.3927
#
#
#
# Elastic Compliance Matrix: (Units=1/GPa)
#
#
# Indices 1 2 3 4 5 6 
#
# 1 0.026230 -0.004178 -0.005053 0.000000 0.000000 0.000000
# 2 -0.004178 0.012610 -0.005250 0.000000 0.000000 0.000000
# 3 -0.005053 -0.005250 0.016787 0.000000 0.000000 0.000000
# 4 0.000000 0.000000 0.000000 0.052210 0.000000 0.000000
# 5 0.000000 0.000000 0.000000 0.000000 0.034066 0.000000
# 6 0.000000 0.000000 0.000000 0.000000 0.000000 0.030871
#
#
# Mechanical properties :
#
#
# Convention : Reuss Voigt Hill
#
# Bulk Modulus (GPa) = 37.50301 44.37235 40.93768
# Shear Modulus (GPa) = 23.73887 25.71525 24.72706
#
# Velocity S-wave (km/s) = 3.49311 3.63561 3.56507
# Velocity P-wave (km/s) = 5.96202 6.35854 6.16347
#
# Compressibility (1/GPa) = 0.02666452
#
# Stress axis : x y z
#
# Youngs Moduli (GPa) = 38.12403 79.30370 59.56979
#
# Poissons Ratio (x) = 0.33133 0.30101
# Poissons Ratio (y) = 0.15928 0.31275
# Poissons Ratio (z) = 0.19264 0.41636
#
# Static dielectric constant tensor:
#      x y z
#    x 3.529060 0.000000 0.000000 
#    y 0.000000 3.733650 0.000000 
#    z 0.000000 0.000000 3.375160 
# 
# 
# High freq. dielectric constant tensor:
#      x y z
#    x 1.770640 0.000000 0.000000 
#    y 0.000000 1.769470 0.000000 
#    z 0.000000 0.000000 1.745220 
# 
# From -- ./inp_files/3128.got.cif
#   From: 2010.03.12/outbox.cif.g09.slc.cpg/sg26_2_cif.got.tgz:3128.got - 2010.04.14 03:33:09.
