data_PCOD8167556
_publ_section_title
;
Structure prediction by ZEFSAII (Michael W. Deem and Ramdas Pophale) SiO2 
 PCOD8167556
Probable space group: P M C 21
;
_chemical_formula_sum "Si O2"
_cell_formula_units_Z 24
_cell_length_a 8.604878
_cell_length_b 15.335253
_cell_length_c 9.122095
_cell_angle_alpha 90.000000
_cell_angle_beta 90.000000
_cell_angle_gamma 90.000000
_cell_volume 1203.733240
_symmetry_space_group_name_H-M "P M C 21"
_symmetry_group_IT_number 26
_symmetry_cell_setting 'orthorhombic'
loop_
_space_group_symop_operation_xyz
x,y,z
-x,-y,1/2+z
-x,y,z
x,-y,1/2+z
loop_
_atom_site_type_symbol
_atom_site_label
_atom_site_fract_x
_atom_site_fract_y
_atom_site_fract_z
Si Si1 0.817306 0.744958 0.304860
Si Si2 0.319574 0.074854 0.836337
Si Si3 0.681641 0.591123 0.132151
Si Si4 0.817143 0.273402 0.136468
Si Si5 0.183508 0.439325 0.317222
Si Si6 0.678795 0.094664 0.175498
O O1 0.778089 0.845295 0.268847
O O2 0.724654 0.687010 0.188815
O O3 0.756026 0.722078 0.469008
O O4 0.000000 0.727679 0.288874
O O5 0.500000 0.087881 0.794476
O O6 0.253145 0.984743 0.770910
O O7 0.293049 0.069212 0.008420
O O8 0.500000 0.585874 0.096715
O O9 0.727404 0.523446 0.258427
O O10 0.779419 0.570629 0.987523
O O11 0.753646 0.355556 0.227629
O O12 0.763402 0.184776 0.215829
O O13 0.000000 0.274186 0.135758
O O14 0.000000 0.452738 0.296995
O O15 0.500000 0.109352 0.213219
#
# Coordination Sequence:
#
# PCOD8167556 Si02
#       6
#     4   4   4   4   4   4
#     4  10  20  37  59  83 112 150 190 233 284 338
#     4   9  18  33  51  76 108 145 186 230 278 331
#     4  12  25  40  60  88 117 148 188 236 284 338
#     4   9  20  37  58  82 110 145 188 232 278 333
#     4  11  23  41  62  85 115 152 190 233 284 341
#     4   9  18  32  52  76 108 146 184 228 280 331
#
# _framework density 19.937973
#
# number of rings (size 3 to 8) (size 9 to 14) (size 15 to 20)
#    0.000    2.000    0.000    3.500    0.000    5.333 
#    0.000    1.667    0.000    0.000    0.000    0.000 
#    0.000    0.000    0.000    0.000    0.000    0.000 
#
# Total GULP energy -297694.616287 kJ/mol
# GULP energy per Si atom -12403.942345 kJ/mol
# Density = 1.989259 g / cm^3
# Si number density = 19.937973 Si / 1000 Ang^3
#
#
#
# Elastic Constant Matrix: (Units=GPa)
#
#
# Indices 1 2 3 4 5 6 
#
# 1 46.6408 16.5012 8.1446 0.0000 0.0000 0.0000
# 2 16.5012 79.9196 11.9560 0.0000 0.0000 0.0000
# 3 8.1446 11.9560 46.6340 0.0000 0.0000 0.0000
# 4 0.0000 0.0000 0.0000 42.2441 0.0000 0.0000
# 5 0.0000 0.0000 0.0000 0.0000 24.8544 0.0000
# 6 0.0000 0.0000 0.0000 0.0000 0.0000 37.6746
#
#
#
# Elastic Compliance Matrix: (Units=1/GPa)
#
#
# Indices 1 2 3 4 5 6 
#
# 1 0.023521 -0.004411 -0.002977 0.000000 0.000000 0.000000
# 2 -0.004411 0.013839 -0.002778 0.000000 0.000000 0.000000
# 3 -0.002977 -0.002778 0.022676 0.000000 0.000000 0.000000
# 4 0.000000 0.000000 0.000000 0.023672 0.000000 0.000000
# 5 0.000000 0.000000 0.000000 0.000000 0.040234 0.000000
# 6 0.000000 0.000000 0.000000 0.000000 0.000000 0.026543
#
#
# Mechanical properties :
#
#
# Convention : Reuss Voigt Hill
#
# Bulk Modulus (GPa) = 25.18633 27.37753 26.28193
# Shear Modulus (GPa) = 27.16642 30.06079 28.61360
#
# Velocity S-wave (km/s) = 3.69527 3.88714 3.79242
# Velocity P-wave (km/s) = 5.55576 5.82303 5.69096
#
# Compressibility (1/GPa) = 0.03970408
#
# Stress axis : x y z
#
# Youngs Moduli (GPa) = 42.51535 72.26025 44.10025
#
# Poissons Ratio (x) = 0.31874 0.13129
# Poissons Ratio (y) = 0.18754 0.12249
# Poissons Ratio (z) = 0.12657 0.20071
#
# Static dielectric constant tensor:
#      x y z
#    x 3.501890 0.000000 0.000000 
#    y 0.000000 3.922390 0.000000 
#    z 0.000000 0.000000 3.635120 
# 
# 
# High freq. dielectric constant tensor:
#      x y z
#    x 1.769380 0.000000 0.000000 
#    y 0.000000 1.793090 0.000000 
#    z 0.000000 0.000000 1.771600 
# 
# From -- ./inp_files/1405.got.cif
#   From: 2010.03.12/outbox.cif.g09.slc.cpg/sg26_1_cif.got.tgz:1405.got - 2010.04.14 03:33:09.
