data_PCOD8167282
_publ_section_title
;
Structure prediction by ZEFSAII (Michael W. Deem and Ramdas Pophale) SiO2 
 PCOD8167282
Probable space group: P M C 21
;
_chemical_formula_sum "Si O2"
_cell_formula_units_Z 32
_cell_length_a 9.013942
_cell_length_b 11.965310
_cell_length_c 14.370757
_cell_angle_alpha 90.000000
_cell_angle_beta 90.000000
_cell_angle_gamma 90.000000
_cell_volume 1549.952397
_symmetry_space_group_name_H-M "P M C 21"
_symmetry_group_IT_number 26
_symmetry_cell_setting 'orthorhombic'
loop_
_space_group_symop_operation_xyz
x,y,z
-x,-y,1/2+z
-x,y,z
x,-y,1/2+z
loop_
_atom_site_type_symbol
_atom_site_label
_atom_site_fract_x
_atom_site_fract_y
_atom_site_fract_z
Si Si1 0.674826 0.099896 0.728420
Si Si2 0.165094 0.288565 0.211432
Si Si3 0.826259 0.330560 0.760211
Si Si4 0.667770 0.123471 0.329323
Si Si5 0.173702 0.497266 0.604387
Si Si6 0.676035 0.600186 0.437460
Si Si7 0.167077 0.811714 0.518228
Si Si8 0.668216 0.966892 0.023487
O O1 0.500000 0.119510 0.743881
O O2 0.760880 0.206465 0.768635
O O3 0.717093 0.089210 0.619840
O O4 0.732637 0.990501 0.783668
O O5 0.254463 0.237166 0.297132
O O6 0.232623 0.404506 0.172983
O O7 0.168170 0.197181 0.129531
O O8 0.000000 0.310932 0.248292
O O9 0.797342 0.380110 0.656575
O O10 0.746607 0.412445 0.834783
O O11 0.000000 0.327823 0.782362
O O12 0.500000 0.132008 0.294775
O O13 0.681352 0.123317 0.441023
O O14 0.261926 0.503514 0.506731
O O15 0.000000 0.518253 0.582947
O O16 0.500000 0.590159 0.431888
O O17 0.724022 0.721210 0.474255
O O18 0.000000 0.795084 0.479209
O O19 0.225438 0.933253 0.492661
O O20 0.500000 0.012654 0.032219
#
# Coordination Sequence:
#
# PCOD8167282 Si02
#       8
#     4   4   4   4   4   4   4   4
#     4  10  21  37  56  83 123 158 195 246 294 351
#     4   9  18  34  56  80 107 139 184 238 287 339
#     4  11  23  41  64  87 119 159 203 249 296 354
#     4  10  20  34  54  81 113 152 189 230 290 350
#     4   9  21  42  63  86 116 152 196 250 300 347
#     4  11  22  37  62  92 119 153 199 247 299 358
#     4  10  19  33  56  84 114 149 195 245 286 341
#     4  10  20  34  53  81 117 156 193 237 292 350
#
# _framework density 20.645796000000001
#
# number of rings (size 3 to 8) (size 9 to 14) (size 15 to 20)
#    0.000    2.000    1.250    3.375    0.000    5.500 
#    2.250    0.000    0.000    0.000    0.000    0.000 
#    0.000    0.000    0.000    0.000    0.000    0.000 
#
# Total GULP energy -396789.740077 kJ/mol
# GULP energy per Si atom -12399.679377 kJ/mol
# Density = 2.059880 g / cm^3
# Si number density = 20.645796 Si / 1000 Ang^3
#
#
#
# Elastic Constant Matrix: (Units=GPa)
#
#
# Indices 1 2 3 4 5 6 
#
# 1 85.0558 11.6497 27.3434 0.0000 0.0000 0.0000
# 2 11.6497 35.3942 1.2514 0.0000 0.0000 0.0000
# 3 27.3434 1.2514 92.8030 0.0000 0.0000 0.0000
# 4 0.0000 0.0000 0.0000 28.1731 0.0000 0.0000
# 5 0.0000 0.0000 0.0000 0.0000 29.8639 0.0000
# 6 0.0000 0.0000 0.0000 0.0000 0.0000 27.9634
#
#
#
# Elastic Compliance Matrix: (Units=1/GPa)
#
#
# Indices 1 2 3 4 5 6 
#
# 1 0.013624 -0.004344 -0.003955 0.000000 0.000000 0.000000
# 2 -0.004344 0.029652 0.000880 0.000000 0.000000 0.000000
# 3 -0.003955 0.000880 0.011929 0.000000 0.000000 0.000000
# 4 0.000000 0.000000 0.000000 0.035495 0.000000 0.000000
# 5 0.000000 0.000000 0.000000 0.000000 0.033485 0.000000
# 6 0.000000 0.000000 0.000000 0.000000 0.000000 0.035761
#
#
# Mechanical properties :
#
#
# Convention : Reuss Voigt Hill
#
# Bulk Modulus (GPa) = 24.77361 32.63800 28.70580
# Shear Modulus (GPa) = 26.56183 28.73398 27.64791
#
# Velocity S-wave (km/s) = 3.59074 3.73468 3.66342
# Velocity P-wave (km/s) = 5.40524 5.86856 5.64166
#
# Compressibility (1/GPa) = 0.04036554
#
# Stress axis : x y z
#
# Youngs Moduli (GPa) = 73.40211 33.72455 83.82878
#
# Poissons Ratio (x) = 0.14651 0.33158
# Poissons Ratio (y) = 0.31888 -0.07378
# Poissons Ratio (z) = 0.29034 -0.02968
#
# Static dielectric constant tensor:
#      x y z
#    x 3.611250 0.000000 0.000000 
#    y 0.000000 3.437150 0.000000 
#    z 0.000000 0.000000 3.844980 
# 
# 
# High freq. dielectric constant tensor:
#      x y z
#    x 1.798240 0.000000 0.000000 
#    y 0.000000 1.785700 0.000000 
#    z 0.000000 0.000000 1.813470 
# 
# From -- ./inp_files/4198.got.cif
#   From: 2010.03.12/outbox.cif.g09.slc.cpg/sg26_3_cif.got.tgz:4198.got - 2010.04.14 03:33:09.
