data_PCOD8167692
_publ_section_title
;
Structure prediction by ZEFSAII (Michael W. Deem and Ramdas Pophale) SiO2 
 PCOD8167692
Probable space group: P M C 21
;
_chemical_formula_sum "Si O2"
_cell_formula_units_Z 24
_cell_length_a 8.721600
_cell_length_b 9.869243
_cell_length_c 13.754461
_cell_angle_alpha 90.000000
_cell_angle_beta 90.000000
_cell_angle_gamma 90.000000
_cell_volume 1183.923342
_symmetry_space_group_name_H-M "P M C 21"
_symmetry_group_IT_number 26
_symmetry_cell_setting 'orthorhombic'
loop_
_space_group_symop_operation_xyz
x,y,z
-x,-y,1/2+z
-x,y,z
x,-y,1/2+z
loop_
_atom_site_type_symbol
_atom_site_label
_atom_site_fract_x
_atom_site_fract_y
_atom_site_fract_z
Si Si1 0.319776 0.158927 0.064410
Si Si2 0.819320 0.216353 0.867085
Si Si3 0.172261 0.642479 0.044362
Si Si4 0.179247 0.095702 0.661323
Si Si5 0.677501 0.510109 0.867480
Si Si6 0.173840 0.396657 0.180894
O O1 0.500000 0.178457 0.063931
O O2 0.243368 0.296260 0.101865
O O3 0.275201 0.036473 0.134819
O O4 0.261224 0.134743 0.954654
O O5 0.766362 0.146750 0.766958
O O6 0.775560 0.373738 0.868253
O O7 0.000000 0.206068 0.881278
O O8 0.216289 0.791887 0.080231
O O9 0.179697 0.547675 0.138739
O O10 0.000000 0.639150 0.000393
O O11 0.293545 0.596347 0.964374
O O12 0.000000 0.060026 0.662532
O O13 0.500000 0.471744 0.860486
O O14 0.726220 0.606298 0.778512
O O15 0.000000 0.353122 0.205009
#
# Coordination Sequence:
#
# PCOD8167692 Si02
#       6
#     4   4   4   4   4   4
#     4  12  26  42  63  97 134 168 207 263 329 382
#     4  11  22  42  68  92 123 169 220 260 313 386
#     4  10  21  40  66  93 122 164 219 262 306 375
#     4  10  23  44  68  93 123 168 217 263 312 377
#     4  12  24  37  62  99 135 166 207 267 329 374
#     4  11  22  41  67  92 123 169 218 261 305 374
#
# _framework density 20.271583
#
# number of rings (size 3 to 8) (size 9 to 14) (size 15 to 20)
#    0.000    1.000    3.333    4.000    0.000    4.000 
#    0.000    1.667    0.000    0.000    0.000    0.000 
#    0.000    0.000    0.000    0.000    0.000    0.000 
#
# Total GULP energy -297764.842258 kJ/mol
# GULP energy per Si atom -12406.868427 kJ/mol
# Density = 2.022544 g / cm^3
# Si number density = 20.271583 Si / 1000 Ang^3
#
#
#
# Elastic Constant Matrix: (Units=GPa)
#
#
# Indices 1 2 3 4 5 6 
#
# 1 81.1889 18.7351 21.9599 0.0000 0.0000 0.0000
# 2 18.7351 64.1392 13.8969 0.0000 0.0000 0.0000
# 3 21.9599 13.8969 102.5683 0.0000 0.0000 0.0000
# 4 0.0000 0.0000 0.0000 32.5154 0.0000 0.0000
# 5 0.0000 0.0000 0.0000 0.0000 18.5775 0.0000
# 6 0.0000 0.0000 0.0000 0.0000 0.0000 21.2000
#
#
#
# Elastic Compliance Matrix: (Units=1/GPa)
#
#
# Indices 1 2 3 4 5 6 
#
# 1 0.013794 -0.003492 -0.002480 0.000000 0.000000 0.000000
# 2 -0.003492 0.016947 -0.001548 0.000000 0.000000 0.000000
# 3 -0.002480 -0.001548 0.010490 0.000000 0.000000 0.000000
# 4 0.000000 0.000000 0.000000 0.030755 0.000000 0.000000
# 5 0.000000 0.000000 0.000000 0.000000 0.053829 0.000000
# 6 0.000000 0.000000 0.000000 0.000000 0.000000 0.047170
#
#
# Mechanical properties :
#
#
# Convention : Reuss Voigt Hill
#
# Bulk Modulus (GPa) = 38.18282 39.67558 38.92920
# Shear Modulus (GPa) = 25.41243 27.34554 26.37898
#
# Velocity S-wave (km/s) = 3.54446 3.67680 3.61124
# Velocity P-wave (km/s) = 5.96887 6.13512 6.05257
#
# Compressibility (1/GPa) = 0.02618979
#
# Stress axis : x y z
#
# Youngs Moduli (GPa) = 72.49779 59.00904 95.32529
#
# Poissons Ratio (x) = 0.20604 0.23642
# Poissons Ratio (y) = 0.25314 0.14761
# Poissons Ratio (z) = 0.17980 0.09138
#
# Static dielectric constant tensor:
#      x y z
#    x 3.614810 0.000000 0.000000 
#    y 0.000000 3.519280 0.000000 
#    z 0.000000 0.000000 3.814200 
# 
# 
# High freq. dielectric constant tensor:
#      x y z
#    x 1.791760 0.000000 0.000000 
#    y 0.000000 1.784940 0.000000 
#    z 0.000000 0.000000 1.804120 
# 
# From -- ./inp_files/3933.got.cif
#   From: 2010.03.12/outbox.cif.g09.slc.cpg/sg26_2_cif.got.tgz:3933.got - 2010.04.14 03:33:09.
