data_PCOD8167212
_publ_section_title
;
Structure prediction by ZEFSAII (Michael W. Deem and Ramdas Pophale) SiO2 
 PCOD8167212
Probable space group: P M C 21
;
_chemical_formula_sum "Si O2"
_cell_formula_units_Z 32
_cell_length_a 12.904811
_cell_length_b 13.195095
_cell_length_c 8.930590
_cell_angle_alpha 90.000000
_cell_angle_beta 90.000000
_cell_angle_gamma 90.000000
_cell_volume 1520.702715
_symmetry_space_group_name_H-M "P M C 21"
_symmetry_group_IT_number 26
_symmetry_cell_setting 'orthorhombic'
loop_
_space_group_symop_operation_xyz
x,y,z
-x,-y,1/2+z
-x,y,z
x,-y,1/2+z
loop_
_atom_site_type_symbol
_atom_site_label
_atom_site_fract_x
_atom_site_fract_y
_atom_site_fract_z
Si Si1 0.758637 0.334803 0.901270
Si Si2 0.381176 0.042332 0.481734
Si Si3 0.114948 0.305576 0.174515
Si Si4 0.381461 0.370647 0.147362
Si Si5 0.744067 0.356335 0.415723
Si Si6 0.883523 0.453962 0.656222
Si Si7 0.621131 0.868897 0.678798
Si Si8 0.380256 0.236946 0.660211
O O1 0.832309 0.403245 0.800772
O O2 0.689537 0.257248 0.805362
O O3 0.830323 0.271393 0.019156
O O4 0.678626 0.406212 0.997439
O O5 0.500000 0.025164 0.439608
O O6 0.326801 0.090041 0.334013
O O7 0.371194 0.118996 0.622263
O O8 0.332710 0.935193 0.539448
O O9 0.182931 0.276379 0.321483
O O10 0.111554 0.427089 0.177400
O O11 0.000000 0.258110 0.184162
O O12 0.500000 0.404977 0.141199
O O13 0.325015 0.419272 0.292747
O O14 0.362281 0.249831 0.156731
O O15 0.818141 0.430388 0.507866
O O16 0.661592 0.300200 0.519444
O O17 0.000000 0.410197 0.637694
O O18 0.500000 0.891274 0.686712
O O19 0.500000 0.268425 0.690272
#
# Coordination Sequence:
#
# PCOD8167212 Si02
#       8
#     4   4   4   4   4   4   4   4
#     4  10  21  31  51  78 102 133 172 204 247 314
#     4   9  17  28  45  70 100 136 175 212 247 282
#     4  10  20  36  57  78  99 121 154 215 282 316
#     4  10  19  33  49  70 108 148 173 199 239 288
#     4  10  19  31  53  76  98 133 170 200 245 316
#     4  10  20  36  57  78  99 121 154 215 282 316
#     4   9  17  28  45  70 100 136 175 212 247 282
#     4  10  19  33  49  70 108 148 173 199 239 288
#
# _framework density 21.042904
#
# number of rings (size 3 to 8) (size 9 to 14) (size 15 to 20)
#    0.000    2.250    1.250    2.250    1.750    2.000 
#    0.000    0.000    0.000   52.500    0.000    0.000 
#    0.000   70.000    0.000    0.000    0.000    0.000 
#
# Total GULP energy -396461.410087 kJ/mol
# GULP energy per Si atom -12389.419065 kJ/mol
# Density = 2.099501 g / cm^3
# Si number density = 21.042904 Si / 1000 Ang^3
#
#
#
# Elastic Constant Matrix: (Units=GPa)
#
#
# Indices 1 2 3 4 5 6 
#
# 1 129.3038 5.0949 24.6048 0.0000 0.0000 0.0000
# 2 5.0949 37.5425 7.9786 0.0000 0.0000 0.0000
# 3 24.6048 7.9786 91.5883 0.0000 0.0000 0.0000
# 4 0.0000 0.0000 0.0000 17.7686 0.0000 0.0000
# 5 0.0000 0.0000 0.0000 0.0000 29.6638 0.0000
# 6 0.0000 0.0000 0.0000 0.0000 0.0000 9.0664
#
#
#
# Elastic Compliance Matrix: (Units=1/GPa)
#
#
# Indices 1 2 3 4 5 6 
#
# 1 0.008166 -0.000654 -0.002137 0.000000 0.000000 0.000000
# 2 -0.000654 0.027191 -0.002193 0.000000 0.000000 0.000000
# 3 -0.002137 -0.002193 0.011684 0.000000 0.000000 0.000000
# 4 0.000000 0.000000 0.000000 0.056279 0.000000 0.000000
# 5 0.000000 0.000000 0.000000 0.000000 0.033711 0.000000
# 6 0.000000 0.000000 0.000000 0.000000 0.000000 0.110298
#
#
# Mechanical properties :
#
#
# Convention : Reuss Voigt Hill
#
# Bulk Modulus (GPa) = 26.97377 37.08792 32.03085
# Shear Modulus (GPa) = 18.54226 26.01683 22.27955
#
# Velocity S-wave (km/s) = 2.97166 3.52002 3.25740
# Velocity P-wave (km/s) = 4.96192 5.84670 5.42239
#
# Compressibility (1/GPa) = 0.03707305
#
# Stress axis : x y z
#
# Youngs Moduli (GPa) = 122.45735 36.77647 85.59063
#
# Poissons Ratio (x) = 0.02406 0.18289
# Poissons Ratio (y) = 0.08010 0.18770
# Poissons Ratio (z) = 0.26167 0.08065
#
# Static dielectric constant tensor:
#      x y z
#    x 4.064080 0.000000 0.000000 
#    y 0.000000 3.447770 0.000000 
#    z 0.000000 0.000000 4.310300 
# 
# 
# High freq. dielectric constant tensor:
#      x y z
#    x 1.809890 0.000000 0.000000 
#    y 0.000000 1.776690 0.000000 
#    z 0.000000 0.000000 1.853100 
# 
# From -- ./inp_files/2012.got.cif
#   From: 2010.03.12/outbox.cif.g09.slc.cpg/sg26_2_cif.got.tgz:2012.got - 2010.04.14 03:33:09.
