data_PCOD8167186
_publ_section_title
;
Structure prediction by ZEFSAII (Michael W. Deem and Ramdas Pophale) SiO2 
 PCOD8167186
Probable space group: P M C 21
;
_chemical_formula_sum "Si O2"
_cell_formula_units_Z 32
_cell_length_a 10.988547
_cell_length_b 12.720454
_cell_length_c 12.220484
_cell_angle_alpha 90.000000
_cell_angle_beta 90.000000
_cell_angle_gamma 90.000000
_cell_volume 1708.170780
_symmetry_space_group_name_H-M "P M C 21"
_symmetry_group_IT_number 26
_symmetry_cell_setting 'orthorhombic'
loop_
_space_group_symop_operation_xyz
x,y,z
-x,-y,1/2+z
-x,y,z
x,-y,1/2+z
loop_
_atom_site_type_symbol
_atom_site_label
_atom_site_fract_x
_atom_site_fract_y
_atom_site_fract_z
Si Si1 0.360842 0.217304 0.867300
Si Si2 0.636981 0.505832 0.145051
Si Si3 0.787763 0.606328 0.465705
Si Si4 0.870244 0.732979 0.655707
Si Si5 0.643749 0.894772 0.151455
Si Si6 0.640907 0.130390 0.105586
Si Si7 0.212907 0.585593 0.833381
Si Si8 0.359964 0.293706 0.510438
O O1 0.500000 0.252728 0.844572
O O2 0.276410 0.319842 0.875518
O O3 0.308769 0.145290 0.769137
O O4 0.353084 0.147413 0.976460
O O5 0.500000 0.472420 0.159316
O O6 0.695494 0.482906 0.261355
O O7 0.683614 0.431944 0.048216
O O8 0.654260 0.627599 0.113353
O O9 0.881253 0.672691 0.539278
O O10 0.851975 0.504555 0.408590
O O11 0.743484 0.797597 0.665210
O O12 0.877360 0.648757 0.754772
O O13 0.000000 0.796818 0.664019
O O14 0.500000 0.890308 0.151454
O O15 0.686857 0.013027 0.130369
O O16 0.689903 0.818713 0.053540
O O17 0.500000 0.150984 0.147170
O O18 0.281038 0.671063 0.907626
O O19 0.500000 0.287762 0.472205
#
# Coordination Sequence:
#
# PCOD8167186 Si02
#       8
#     4   4   4   4   4   4   4   4
#     4   9  16  28  48  73 104 140 172 207 253 301
#     4   9  16  26  42  71 110 143 169 202 249 303
#     4   9  18  31  48  71  99 134 174 207 241 299
#     4  10  22  38  55  75 100 133 171 208 251 306
#     4   9  17  29  48  75 104 134 171 215 258 298
#     4   9  19  35  54  76 101 132 173 216 255 298
#     4  10  19  30  48  72 100 135 169 205 251 301
#     4   9  17  27  43  73 108 137 169 210 254 300
#
# _framework density 18.733488999999999
#
# number of rings (size 3 to 8) (size 9 to 14) (size 15 to 20)
#    0.000    2.750    0.000    1.500    0.000    7.500 
#    0.000    2.500    0.000    6.750    0.000    0.000 
#    0.000    0.000    0.000    0.000    0.000    0.000 
#
# Total GULP energy -396471.482401 kJ/mol
# GULP energy per Si atom -12389.733825 kJ/mol
# Density = 1.869085 g / cm^3
# Si number density = 18.733489 Si / 1000 Ang^3
#
#
#
# Elastic Constant Matrix: (Units=GPa)
#
#
# Indices 1 2 3 4 5 6 
#
# 1 78.3768 33.8386 17.6725 0.0000 0.0000 0.0000
# 2 33.8386 106.3051 36.1448 0.0000 0.0000 0.0000
# 3 17.6725 36.1448 74.6468 0.0000 0.0000 0.0000
# 4 0.0000 0.0000 0.0000 29.3724 0.0000 0.0000
# 5 0.0000 0.0000 0.0000 0.0000 -6.4045 0.0000
# 6 0.0000 0.0000 0.0000 0.0000 0.0000 -6.6865
#
#
#
# Elastic Compliance Matrix: (Units=1/GPa)
#
#
# Indices 1 2 3 4 5 6 
#
# 1 0.014926 -0.004249 -0.001476 0.000000 0.000000 0.000000
# 2 -0.004249 0.012471 -0.005032 0.000000 0.000000 0.000000
# 3 -0.001476 -0.005032 0.016183 0.000000 0.000000 0.000000
# 4 0.000000 0.000000 0.000000 0.034046 0.000000 0.000000
# 5 0.000000 0.000000 0.000000 0.000000 -0.156139 0.000000
# 6 0.000000 0.000000 0.000000 0.000000 0.000000 -0.149555
#
#
# Mechanical properties :
#
#
# Convention : Reuss Voigt Hill
#
# Bulk Modulus (GPa) = 45.32329 48.29340 46.80835
# Shear Modulus (GPa) = -25.10060 14.70113 -5.19974
#
# Velocity S-wave (km/s) = -3.66441 2.80438 -1.66783
# Velocity P-wave (km/s) = 2.51842 6.02671 4.61864
#
# Compressibility (1/GPa) = 0.02206371
#
# Stress axis : x y z
#
# Youngs Moduli (GPa) = 66.99549 80.18875 61.79466
#
# Poissons Ratio (x) = 0.34075 0.09122
# Poissons Ratio (y) = 0.28469 0.31097
# Poissons Ratio (z) = 0.09890 0.40354
#
# Static dielectric constant tensor:
#      x y z
#    x 3.030600 0.000000 0.000000 
#    y 0.000000 3.734060 0.000000 
#    z 0.000000 0.000000 3.493730 
# 
# 
# High freq. dielectric constant tensor:
#      x y z
#    x 1.682700 0.000000 0.000000 
#    y 0.000000 1.724970 0.000000 
#    z 0.000000 0.000000 1.734310 
# 
# From -- ./inp_files/3359.got.cif
#   From: 2010.03.12/outbox.cif.g09.slc.cpg/sg26_2_cif.got.tgz:3359.got - 2010.04.14 03:33:09.
