data_PCOD8167132
_publ_section_title
;
Structure prediction by ZEFSAII (Michael W. Deem and Ramdas Pophale) SiO2 
 PCOD8167132
Probable space group: P M C 21
;
_chemical_formula_sum "Si O2"
_cell_formula_units_Z 32
_cell_length_a 8.942857
_cell_length_b 11.410046
_cell_length_c 16.245337
_cell_angle_alpha 90.000000
_cell_angle_beta 90.000000
_cell_angle_gamma 90.000000
_cell_volume 1657.648353
_symmetry_space_group_name_H-M "P M C 21"
_symmetry_group_IT_number 26
_symmetry_cell_setting 'orthorhombic'
loop_
_space_group_symop_operation_xyz
x,y,z
-x,-y,1/2+z
-x,y,z
x,-y,1/2+z
loop_
_atom_site_type_symbol
_atom_site_label
_atom_site_fract_x
_atom_site_fract_y
_atom_site_fract_z
Si Si1 0.672981 0.190443 0.545560
Si Si2 0.177595 0.440020 0.843820
Si Si3 0.323636 0.928143 0.574965
Si Si4 0.164745 0.256042 0.972181
Si Si5 0.822493 0.296646 0.387087
Si Si6 0.328287 0.381787 0.673562
Si Si7 0.322542 0.778695 0.729861
Si Si8 0.165331 0.589282 0.630562
O O1 0.500000 0.190442 0.517369
O O2 0.769912 0.254509 0.476483
O O3 0.690642 0.254132 0.633744
O O4 0.733954 0.059931 0.562499
O O5 0.233636 0.569519 0.871081
O O6 0.231683 0.401098 0.754773
O O7 0.000000 0.437468 0.849654
O O8 0.242279 0.337340 0.903139
O O9 0.500000 0.920473 0.572828
O O10 0.265214 0.854765 0.496584
O O11 0.268595 0.877775 0.663868
O O12 0.145177 0.336649 0.050438
O O13 0.000000 0.211135 0.944685
O O14 0.751340 0.206180 0.319955
O O15 0.000000 0.287607 0.381811
O O16 0.500000 0.410233 0.692446
O O17 0.257301 0.472271 0.607568
O O18 0.500000 0.778108 0.738532
O O19 0.263348 0.653373 0.699706
O O20 0.000000 0.561668 0.667780
#
# Coordination Sequence:
#
# PCOD8167132 Si02
#       8
#     4   4   4   4   4   4   4   4
#     4  10  23  42  59  81 115 155 197 242 288 340
#     4  10  21  37  56  83 120 151 180 229 292 350
#     4   9  20  40  61  81 111 151 194 236 286 337
#     4   9  19  35  57  83 111 145 185 231 280 337
#     4  11  22  37  60  89 118 151 190 235 293 353
#     4  11  22  35  55  82 114 150 190 235 283 339
#     4  10  19  34  59  87 114 148 190 237 283 339
#     4  10  18  32  55  82 113 147 182 227 287 341
#
# _framework density 19.304456999999999
#
# number of rings (size 3 to 8) (size 9 to 14) (size 15 to 20)
#    0.000    2.000    1.250    2.250    0.000    4.500 
#    2.250    0.000    0.000    0.000    0.000    0.000 
#    0.000    0.000    0.000    0.000    0.000    0.000 
#
# Total GULP energy -396638.941897 kJ/mol
# GULP energy per Si atom -12394.966934 kJ/mol
# Density = 1.926052 g / cm^3
# Si number density = 19.304457 Si / 1000 Ang^3
#
#
#
# Elastic Constant Matrix: (Units=GPa)
#
#
# Indices 1 2 3 4 5 6 
#
# 1 46.4813 34.7818 27.4592 0.0000 0.0000 0.0000
# 2 34.7818 128.2457 50.0282 0.0000 0.0000 0.0000
# 3 27.4592 50.0282 82.9182 0.0000 0.0000 0.0000
# 4 0.0000 0.0000 0.0000 22.8865 0.0000 0.0000
# 5 0.0000 0.0000 0.0000 0.0000 28.3537 0.0000
# 6 0.0000 0.0000 0.0000 0.0000 0.0000 14.9593
#
#
#
# Elastic Compliance Matrix: (Units=1/GPa)
#
#
# Indices 1 2 3 4 5 6 
#
# 1 0.029408 -0.005462 -0.006443 0.000000 0.000000 0.000000
# 2 -0.005462 0.011212 -0.004956 0.000000 0.000000 0.000000
# 3 -0.006443 -0.004956 0.017184 0.000000 0.000000 0.000000
# 4 0.000000 0.000000 0.000000 0.043694 0.000000 0.000000
# 5 0.000000 0.000000 0.000000 0.000000 0.035269 0.000000
# 6 0.000000 0.000000 0.000000 0.000000 0.000000 0.066848
#
#
# Mechanical properties :
#
#
# Convention : Reuss Voigt Hill
#
# Bulk Modulus (GPa) = 41.52596 53.57595 47.55096
# Shear Modulus (GPa) = 20.37787 22.93163 21.65475
#
# Velocity S-wave (km/s) = 3.25253 3.45032 3.35289
# Velocity P-wave (km/s) = 5.97186 6.60957 6.29879
#
# Compressibility (1/GPa) = 0.02408132
#
# Stress axis : x y z
#
# Youngs Moduli (GPa) = 34.00461 89.18790 58.19400
#
# Poissons Ratio (x) = 0.48717 0.37495
# Poissons Ratio (y) = 0.18574 0.28841
# Poissons Ratio (z) = 0.21909 0.44201
#
# Static dielectric constant tensor:
#      x y z
#    x 3.576280 0.000000 0.000000 
#    y 0.000000 3.764120 0.000000 
#    z 0.000000 0.000000 3.631740 
# 
# 
# High freq. dielectric constant tensor:
#      x y z
#    x 1.749780 0.000000 0.000000 
#    y 0.000000 1.742190 0.000000 
#    z 0.000000 0.000000 1.750990 
# 
# From -- ./inp_files/4191.got.cif
#   From: 2010.03.12/outbox.cif.g09.slc.cpg/sg26_3_cif.got.tgz:4191.got - 2010.04.14 03:33:09.
