data_PCOD8167082
_publ_section_title
;
Structure prediction by ZEFSAII (Michael W. Deem and Ramdas Pophale) SiO2 
 PCOD8167082
Probable space group: P M C 21
;
_chemical_formula_sum "Si O2"
_cell_formula_units_Z 32
_cell_length_a 8.794846
_cell_length_b 9.613009
_cell_length_c 21.937687
_cell_angle_alpha 90.000000
_cell_angle_beta 90.000000
_cell_angle_gamma 90.000000
_cell_volume 1854.720294
_symmetry_space_group_name_H-M "P M C 21"
_symmetry_group_IT_number 26
_symmetry_cell_setting 'orthorhombic'
loop_
_space_group_symop_operation_xyz
x,y,z
-x,-y,1/2+z
-x,y,z
x,-y,1/2+z
loop_
_atom_site_type_symbol
_atom_site_label
_atom_site_fract_x
_atom_site_fract_y
_atom_site_fract_z
Si Si1 0.675488 0.971009 0.380120
Si Si2 0.677477 0.254114 0.721030
Si Si3 0.172223 0.814782 0.104376
Si Si4 0.671037 0.207799 0.280292
Si Si5 0.820110 0.683829 0.341355
Si Si6 0.828540 0.016380 0.202698
Si Si7 0.818499 0.183505 0.466913
Si Si8 0.680988 0.411135 0.381785
O O1 0.500000 0.933147 0.392003
O O2 0.767623 0.831448 0.367054
O O3 0.692460 0.079733 0.325827
O O4 0.746159 0.043640 0.439777
O O5 0.500000 0.282591 0.726536
O O6 0.735257 0.285281 0.651768
O O7 0.762228 0.345412 0.772222
O O8 0.718770 0.093732 0.737850
O O9 0.179491 0.975356 0.130634
O O10 0.000000 0.760057 0.104277
O O11 0.239514 0.809483 0.036907
O O12 0.500000 0.226804 0.257577
O O13 0.725729 0.345491 0.315705
O O14 0.770835 0.171905 0.219703
O O15 0.746112 0.566248 0.384536
O O16 0.000000 0.672050 0.343781
O O17 0.000000 0.997631 0.227081
O O18 0.758400 0.322822 0.435180
O O19 0.000000 0.174935 0.462225
O O20 0.500000 0.406652 0.391149
#
# Coordination Sequence:
#
# PCOD8167082 Si02
#       8
#     4   4   4   4   4   4   4   4
#     4  10  19  31  50  74 101 131 166 208 252 297
#     4  10  18  29  49  75 101 129 163 208 255 298
#     4   8  17  31  48  74 103 132 168 211 251 299
#     4   9  17  30  48  72 100 130 161 200 250 300
#     4  12  22  34  52  76 103 135 175 214 261 312
#     4   9  16  27  46  73 100 127 159 203 247 293
#     4  10  19  34  53  76 105 136 173 213 254 302
#     4  10  22  36  50  72 107 140 171 213 260 309
#
# _framework density 17.253277000000001
#
# number of rings (size 3 to 8) (size 9 to 14) (size 15 to 20)
#    0.750    1.500    1.250    4.125    0.000    3.500 
#    0.000    0.000    0.000    1.500    0.000    5.250 
#    0.000    0.000    0.000    0.000    0.000    0.000 
#
# Total GULP energy -396441.616883 kJ/mol
# GULP energy per Si atom -12388.800528 kJ/mol
# Density = 1.721401 g / cm^3
# Si number density = 17.253277 Si / 1000 Ang^3
#
#
#
# Elastic Constant Matrix: (Units=GPa)
#
#
# Indices 1 2 3 4 5 6 
#
# 1 77.3319 12.7267 28.5335 0.0000 0.0000 0.0000
# 2 12.7267 56.7115 24.2334 0.0000 0.0000 0.0000
# 3 28.5335 24.2334 91.5540 0.0000 0.0000 0.0000
# 4 0.0000 0.0000 0.0000 16.1028 0.0000 0.0000
# 5 0.0000 0.0000 0.0000 0.0000 23.3306 0.0000
# 6 0.0000 0.0000 0.0000 0.0000 0.0000 25.2574
#
#
#
# Elastic Compliance Matrix: (Units=1/GPa)
#
#
# Indices 1 2 3 4 5 6 
#
# 1 0.014726 -0.001515 -0.004188 0.000000 0.000000 0.000000
# 2 -0.001515 0.020038 -0.004832 0.000000 0.000000 0.000000
# 3 -0.004188 -0.004832 0.013507 0.000000 0.000000 0.000000
# 4 0.000000 0.000000 0.000000 0.062101 0.000000 0.000000
# 5 0.000000 0.000000 0.000000 0.000000 0.042862 0.000000
# 6 0.000000 0.000000 0.000000 0.000000 0.000000 0.039592
#
#
# Mechanical properties :
#
#
# Convention : Reuss Voigt Hill
#
# Bulk Modulus (GPa) = 36.76416 39.62050 38.19233
# Shear Modulus (GPa) = 22.42527 23.61175 23.01851
#
# Velocity S-wave (km/s) = 3.60914 3.70339 3.65657
# Velocity P-wave (km/s) = 6.22275 6.42656 6.32548
#
# Compressibility (1/GPa) = 0.02720040
#
# Stress axis : x y z
#
# Youngs Moduli (GPa) = 67.90690 49.90603 74.03691
#
# Poissons Ratio (x) = 0.07560 0.31010
# Poissons Ratio (y) = 0.10287 0.35772
# Poissons Ratio (z) = 0.28443 0.24113
#
# Static dielectric constant tensor:
#      x y z
#    x 3.238130 0.000000 0.000000 
#    y 0.000000 3.037400 0.000000 
#    z 0.000000 0.000000 3.209110 
# 
# 
# High freq. dielectric constant tensor:
#      x y z
#    x 1.678940 0.000000 0.000000 
#    y 0.000000 1.635050 0.000000 
#    z 0.000000 0.000000 1.648200 
# 
# From -- ./inp_files/5548.got.cif
#   From: 2010.03.12/outbox.cif.g09.slc.cpg/sg26_3_cif.got.tgz:5548.got - 2010.04.14 03:33:09.
