data_PCOD8167833
_publ_section_title
;
Structure prediction by ZEFSAII (Michael W. Deem and Ramdas Pophale) SiO2 
 PCOD8167833
Probable space group: P C C 2
;
_chemical_formula_sum "Si O2"
_cell_formula_units_Z 18
_cell_length_a 8.038113
_cell_length_b 7.895323
_cell_length_c 13.975195
_cell_angle_alpha 90.000000
_cell_angle_beta 90.000000
_cell_angle_gamma 90.000000
_cell_volume 886.914766
_symmetry_space_group_name_H-M "P C C 2"
_symmetry_group_IT_number 27
_symmetry_cell_setting 'orthorhombic'
loop_
_space_group_symop_operation_xyz
x,y,z
-x,-y,z
-x,y,1/2+z
x,-y,1/2+z
loop_
_atom_site_type_symbol
_atom_site_label
_atom_site_fract_x
_atom_site_fract_y
_atom_site_fract_z
Si Si1 0.836862 0.390748 0.827490
Si Si2 0.500000 0.500000 0.777756
Si Si3 0.507946 0.811961 0.636171
Si Si4 0.828655 0.681557 0.107922
Si Si5 0.171255 0.296434 0.532308
O O1 0.667190 0.499768 0.840623
O O2 0.837687 0.305468 0.723701
O O3 0.000000 0.500000 0.840882
O O4 0.832849 0.265554 0.918045
O O5 0.515980 0.669885 0.716475
O O6 0.338724 0.778874 0.574539
O O7 0.671576 0.806595 0.570572
O O8 0.500000 0.000000 0.681617
O O9 0.816360 0.490840 0.068082
O O10 0.994705 0.775260 0.070898
#
# Coordination Sequence:
#
# PCOD8167833 Si02
#       5
#     4   2   4   4   4
#     4  11  19  33  61  94 113 157 204 248 301 364
#     4  10  22  38  62  90 122 158 204 246 308 362
#     4  11  22  40  63  88 123 166 200 248 309 364
#     4  10  20  38  60  88 121 154 204 247 302 359
#     4  11  20  35  63  89 119 158 204 247 304 360
#
# _framework density 20.295074
#
# number of rings (size 3 to 8) (size 9 to 14) (size 15 to 20)
#    0.000    1.333    8.889    0.000    3.111    0.889 
#    0.000    4.444    0.000    5.333    0.000    0.000 
#    0.000    0.000    0.000    0.000    0.000    0.000 
#
# Total GULP energy -222987.255316 kJ/mol
# GULP energy per Si atom -12388.180851 kJ/mol
# Density = 2.024888 g / cm^3
# Si number density = 20.295074 Si / 1000 Ang^3
#
#
#
# Elastic Constant Matrix: (Units=GPa)
#
#
# Indices 1 2 3 4 5 6 
#
# 1 211.6784 18.5053 29.2712 0.0000 0.0000 0.0000
# 2 18.5053 62.1248 9.4542 0.0000 0.0000 0.0000
# 3 29.2712 9.4542 112.0723 0.0000 0.0000 0.0000
# 4 0.0000 0.0000 0.0000 36.4884 0.0000 0.0000
# 5 0.0000 0.0000 0.0000 0.0000 -12.7432 0.0000
# 6 0.0000 0.0000 0.0000 0.0000 0.0000 5.3769
#
#
#
# Elastic Compliance Matrix: (Units=1/GPa)
#
#
# Indices 1 2 3 4 5 6 
#
# 1 0.005004 -0.001308 -0.001197 0.000000 0.000000 0.000000
# 2 -0.001308 0.016648 -0.001063 0.000000 0.000000 0.000000
# 3 -0.001197 -0.001063 0.009325 0.000000 0.000000 0.000000
# 4 0.000000 0.000000 0.000000 0.027406 0.000000 0.000000
# 5 0.000000 0.000000 0.000000 0.000000 -0.078473 0.000000
# 6 0.000000 0.000000 0.000000 0.000000 0.000000 0.185981
#
#
# Mechanical properties :
#
#
# Convention : Reuss Voigt Hill
#
# Bulk Modulus (GPa) = 41.94333 55.59300 48.76817
# Shear Modulus (GPa) = 27.62847 27.73409 27.68128
#
# Velocity S-wave (km/s) = 3.69363 3.70069 3.69716
# Velocity P-wave (km/s) = 6.23716 6.76106 6.50439
#
# Compressibility (1/GPa) = 0.02384169
#
# Stress axis : x y z
#
# Youngs Moduli (GPa) = 199.84019 60.06691 107.23890
#
# Poissons Ratio (x) = 0.07860 0.12832
# Poissons Ratio (y) = 0.26148 0.11396
# Poissons Ratio (z) = 0.23912 0.06383
#
# Static dielectric constant tensor:
#      x y z
#    x 4.890990 0.000000 0.000000 
#    y 0.000000 2.862000 0.000000 
#    z 0.000000 0.000000 3.801640 
# 
# 
# High freq. dielectric constant tensor:
#      x y z
#    x 1.839780 0.000000 0.000000 
#    y 0.000000 1.736690 0.000000 
#    z 0.000000 0.000000 1.776960 
# 
# From -- ./inp_files/3210.got.cif
#   From: 2010.03.12/outbox.cif.g09.slc.cpg/sg27_2_cif.got.tgz:3210.got - 2010.04.14 03:36:05.
