data_PCOD8167161
_publ_section_title
;
Structure prediction by ZEFSAII (Michael W. Deem and Ramdas Pophale) SiO2 
 PCOD8167161
Probable space group: P M C 21
;
_chemical_formula_sum "Si O2"
_cell_formula_units_Z 32
_cell_length_a 9.217902
_cell_length_b 11.316034
_cell_length_c 16.359953
_cell_angle_alpha 90.000000
_cell_angle_beta 90.000000
_cell_angle_gamma 90.000000
_cell_volume 1706.508210
_symmetry_space_group_name_H-M "P M C 21"
_symmetry_group_IT_number 26
_symmetry_cell_setting 'orthorhombic'
loop_
_space_group_symop_operation_xyz
x,y,z
-x,-y,1/2+z
-x,y,z
x,-y,1/2+z
loop_
_atom_site_type_symbol
_atom_site_label
_atom_site_fract_x
_atom_site_fract_y
_atom_site_fract_z
Si Si1 0.828576 0.285134 0.964770
Si Si2 0.831332 0.074667 0.601654
Si Si3 0.836985 0.121150 0.415274
Si Si4 0.341378 0.767667 0.218361
Si Si5 0.829387 0.187965 0.136283
Si Si6 0.659613 0.087156 0.875886
Si Si7 0.327137 0.437345 0.836105
Si Si8 0.166406 0.674003 0.797154
O O1 0.775027 0.161908 0.927452
O O2 0.746166 0.394564 0.921379
O O3 0.000000 0.299197 0.950014
O O4 0.790047 0.276621 0.061293
O O5 0.796269 0.111091 0.509583
O O6 0.766506 0.184761 0.650649
O O7 0.000000 0.073043 0.620936
O O8 0.763272 0.944913 0.623165
O O9 0.822593 0.253599 0.381510
O O10 0.000000 0.074209 0.399388
O O11 0.722287 0.043541 0.365795
O O12 0.500000 0.742458 0.179371
O O13 0.356931 0.868711 0.284929
O O14 0.281048 0.649887 0.262434
O O15 0.775810 0.247812 0.220539
O O16 0.000000 0.169961 0.139217
O O17 0.500000 0.088510 0.918278
O O18 0.500000 0.436295 0.849361
O O19 0.271701 0.564144 0.808943
O O20 0.000000 0.633231 0.781635
#
# Coordination Sequence:
#
# PCOD8167161 Si02
#       8
#     4   4   4   4   4   4   4   4
#     4  10  18  34  60  84 111 146 187 237 283 328
#     4  10  19  34  56  86 116 143 180 228 281 337
#     4  10  20  35  56  82 115 149 186 230 280 338
#     4   9  20  36  53  77 108 143 184 229 273 330
#     4   9  18  34  57  86 116 142 182 234 282 337
#     4  10  19  32  53  82 115 147 183 224 278 341
#     4  10  22  41  58  78 112 148 193 238 281 344
#     4  10  21  38  59  83 111 150 195 238 284 335
#
# _framework density 18.751742
#
# number of rings (size 3 to 8) (size 9 to 14) (size 15 to 20)
#    0.000    2.250    1.250    2.625    0.000    5.000 
#    2.250    1.875    0.000    0.000    0.000    0.000 
#    0.000    0.000    0.000    0.000    0.000    0.000 
#
# Total GULP energy -396636.560827 kJ/mol
# GULP energy per Si atom -12394.892526 kJ/mol
# Density = 1.870906 g / cm^3
# Si number density = 18.751742 Si / 1000 Ang^3
#
#
#
# Elastic Constant Matrix: (Units=GPa)
#
#
# Indices 1 2 3 4 5 6 
#
# 1 71.3863 47.4343 35.7205 0.0000 0.0000 0.0000
# 2 47.4343 109.7368 64.5124 0.0000 0.0000 0.0000
# 3 35.7205 64.5124 92.4458 0.0000 0.0000 0.0000
# 4 0.0000 0.0000 0.0000 21.7861 0.0000 0.0000
# 5 0.0000 0.0000 0.0000 0.0000 18.2118 0.0000
# 6 0.0000 0.0000 0.0000 0.0000 0.0000 18.6499
#
#
#
# Elastic Compliance Matrix: (Units=1/GPa)
#
#
# Indices 1 2 3 4 5 6 
#
# 1 0.020098 -0.006989 -0.002888 0.000000 0.000000 0.000000
# 2 -0.006989 0.017883 -0.009778 0.000000 0.000000 0.000000
# 3 -0.002888 -0.009778 0.018757 0.000000 0.000000 0.000000
# 4 0.000000 0.000000 0.000000 0.045901 0.000000 0.000000
# 5 0.000000 0.000000 0.000000 0.000000 0.054909 0.000000
# 6 0.000000 0.000000 0.000000 0.000000 0.000000 0.053620
#
#
# Mechanical properties :
#
#
# Convention : Reuss Voigt Hill
#
# Bulk Modulus (GPa) = 57.38851 63.21149 60.30000
# Shear Modulus (GPa) = 19.50933 20.12300 19.81617
#
# Velocity S-wave (km/s) = 3.22902 3.27942 3.25432
# Velocity P-wave (km/s) = 6.67630 6.93702 6.80791
#
# Compressibility (1/GPa) = 0.01742509
#
# Stress axis : x y z
#
# Youngs Moduli (GPa) = 49.75671 55.92044 53.31367
#
# Poissons Ratio (x) = 0.39086 0.15398
# Poissons Ratio (y) = 0.34777 0.52133
# Poissons Ratio (z) = 0.14370 0.54682
#
# Static dielectric constant tensor:
#      x y z
#    x 3.434190 0.000000 0.000000 
#    y 0.000000 3.414210 0.000000 
#    z 0.000000 0.000000 3.624830 
# 
# 
# High freq. dielectric constant tensor:
#      x y z
#    x 1.719180 0.000000 0.000000 
#    y 0.000000 1.718030 0.000000 
#    z 0.000000 0.000000 1.724860 
# 
# From -- ./inp_files/5048.got.cif
#   From: 2010.03.12/outbox.cif.g09.slc.cpg/sg26_3_cif.got.tgz:5048.got - 2010.04.14 03:33:09.
