data_PCOD8167199
_publ_section_title
;
Structure prediction by ZEFSAII (Michael W. Deem and Ramdas Pophale) SiO2 
 PCOD8167199
Probable space group: P M C 21
;
_chemical_formula_sum "Si O2"
_cell_formula_units_Z 32
_cell_length_a 9.180296
_cell_length_b 11.417356
_cell_length_c 17.744991
_cell_angle_alpha 90.000000
_cell_angle_beta 90.000000
_cell_angle_gamma 90.000000
_cell_volume 1859.936043
_symmetry_space_group_name_H-M "P M C 21"
_symmetry_group_IT_number 26
_symmetry_cell_setting 'orthorhombic'
loop_
_space_group_symop_operation_xyz
x,y,z
-x,-y,1/2+z
-x,y,z
x,-y,1/2+z
loop_
_atom_site_type_symbol
_atom_site_label
_atom_site_fract_x
_atom_site_fract_y
_atom_site_fract_z
Si Si1 0.663040 0.149004 0.487120
Si Si2 0.162903 0.049098 0.926669
Si Si3 0.330636 0.266767 0.701961
Si Si4 0.828776 0.355331 0.561746
Si Si5 0.341024 0.974488 0.146118
Si Si6 0.171089 0.612753 0.502904
Si Si7 0.330541 0.731525 0.372169
Si Si8 0.158950 0.833660 0.587533
O O1 0.500000 0.179051 0.457622
O O2 0.750824 0.267637 0.504051
O O3 0.650657 0.070799 0.561139
O O4 0.750943 0.074692 0.424129
O O5 0.252353 0.143412 0.878638
O O6 0.000000 0.033213 0.892819
O O7 0.149408 0.090784 0.012120
O O8 0.500000 0.270931 0.675908
O O9 0.235841 0.346358 0.645972
O O10 0.275454 0.131131 0.696731
O O11 0.311258 0.313603 0.786548
O O12 0.795176 0.484624 0.532492
O O13 0.000000 0.327610 0.563960
O O14 0.500000 0.008098 0.176648
O O15 0.249874 0.094961 0.150086
O O16 0.257905 0.633980 0.425440
O O17 0.225844 0.706403 0.566084
O O18 0.000000 0.634079 0.486835
O O19 0.500000 0.746724 0.393214
O O20 0.000000 0.816048 0.623371
#
# Coordination Sequence:
#
# PCOD8167199 Si02
#       8
#     4   4   4   4   4   4   4   4
#     4   9  16  27  44  67  94 120 149 189 234 278
#     4   9  16  27  44  67  94 120 149 187 232 284
#     4   9  19  33  47  68  98 126 157 201 249 299
#     4  10  19  31  49  71  95 128 169 207 246 290
#     4   8  14  25  41  62  88 114 140 177 225 273
#     4   9  19  33  47  68  98 128 162 206 247 289
#     4  10  19  31  49  71  95 126 162 202 250 299
#     4   8  14  25  41  62  88 114 142 181 225 270
#
# _framework density 17.204892999999998
#
# number of rings (size 3 to 8) (size 9 to 14) (size 15 to 20)
#    0.000    3.000    0.000    3.000    0.000    8.000 
#    0.000    0.000    0.000    1.500    0.000    7.000 
#    0.000    0.000    0.000    0.000    0.000    0.000 
#
# Total GULP energy -396602.850585 kJ/mol
# GULP energy per Si atom -12393.839081 kJ/mol
# Density = 1.716573 g / cm^3
# Si number density = 17.204893 Si / 1000 Ang^3
#
#
#
# Elastic Constant Matrix: (Units=GPa)
#
#
# Indices 1 2 3 4 5 6 
#
# 1 114.9421 66.3553 42.4377 0.0000 0.0000 0.0000
# 2 66.3553 118.5697 40.8809 0.0000 0.0000 0.0000
# 3 42.4377 40.8809 54.7268 0.0000 0.0000 0.0000
# 4 0.0000 0.0000 0.0000 14.6005 0.0000 0.0000
# 5 0.0000 0.0000 0.0000 0.0000 16.5561 0.0000
# 6 0.0000 0.0000 0.0000 0.0000 0.0000 22.9677
#
#
#
# Elastic Compliance Matrix: (Units=1/GPa)
#
#
# Indices 1 2 3 4 5 6 
#
# 1 0.014622 -0.005756 -0.007039 0.000000 0.000000 0.000000
# 2 -0.005756 0.013625 -0.005715 0.000000 0.000000 0.000000
# 3 -0.007039 -0.005715 0.028000 0.000000 0.000000 0.000000
# 4 0.000000 0.000000 0.000000 0.068491 0.000000 0.000000
# 5 0.000000 0.000000 0.000000 0.000000 0.060401 0.000000
# 6 0.000000 0.000000 0.000000 0.000000 0.000000 0.043539
#
#
# Mechanical properties :
#
#
# Convention : Reuss Voigt Hill
#
# Bulk Modulus (GPa) = 52.00747 65.28738 58.64742
# Shear Modulus (GPa) = 18.37525 20.06252 19.21888
#
# Velocity S-wave (km/s) = 3.27161 3.41852 3.34587
# Velocity P-wave (km/s) = 6.67571 7.32196 7.00629
#
# Compressibility (1/GPa) = 0.01922801
#
# Stress axis : x y z
#
# Youngs Moduli (GPa) = 68.39204 73.39226 35.71481
#
# Poissons Ratio (x) = 0.42244 0.25138
# Poissons Ratio (y) = 0.39366 0.20410
# Poissons Ratio (z) = 0.48138 0.41942
#
# Static dielectric constant tensor:
#      x y z
#    x 3.483190 0.000000 0.000000 
#    y 0.000000 3.169580 0.000000 
#    z 0.000000 0.000000 2.846200 
# 
# 
# High freq. dielectric constant tensor:
#      x y z
#    x 1.675720 0.000000 0.000000 
#    y 0.000000 1.651510 0.000000 
#    z 0.000000 0.000000 1.618020 
# 
# From -- ./inp_files/5041.got.cif
#   From: 2010.03.12/outbox.cif.g09.slc.cpg/sg26_3_cif.got.tgz:5041.got - 2010.04.14 03:33:09.
