data_PCOD8167356
_publ_section_title
;
Structure prediction by ZEFSAII (Michael W. Deem and Ramdas Pophale) SiO2 
 PCOD8167356
Probable space group: P M C 21
;
_chemical_formula_sum "Si O2"
_cell_formula_units_Z 32
_cell_length_a 8.596138
_cell_length_b 11.268655
_cell_length_c 16.373368
_cell_angle_alpha 90.000000
_cell_angle_beta 90.000000
_cell_angle_gamma 90.000000
_cell_volume 1586.037621
_symmetry_space_group_name_H-M "P M C 21"
_symmetry_group_IT_number 26
_symmetry_cell_setting 'orthorhombic'
loop_
_space_group_symop_operation_xyz
x,y,z
-x,-y,1/2+z
-x,y,z
x,-y,1/2+z
loop_
_atom_site_type_symbol
_atom_site_label
_atom_site_fract_x
_atom_site_fract_y
_atom_site_fract_z
Si Si1 0.319973 0.060059 0.370320
Si Si2 0.821609 0.299867 0.684954
Si Si3 0.184477 0.076807 0.027039
Si Si4 0.176993 0.977664 0.200458
Si Si5 0.678860 0.423978 0.541701
Si Si6 0.181568 0.442448 0.836240
Si Si7 0.178316 0.310441 0.387870
Si Si8 0.184908 0.654099 0.506608
O O1 0.500000 0.032738 0.378341
O O2 0.291603 0.200451 0.376017
O O3 0.240104 0.993284 0.446453
O O4 0.265950 0.022590 0.280251
O O5 0.812253 0.162313 0.702751
O O6 0.702003 0.332826 0.614779
O O7 0.749755 0.370158 0.761262
O O8 0.000000 0.337354 0.664831
O O9 0.242883 0.212738 0.024399
O O10 0.000000 0.067685 0.024875
O O11 0.247213 0.023116 0.113307
O O12 0.000000 0.022822 0.207855
O O13 0.500000 0.422637 0.513432
O O14 0.794851 0.373866 0.473721
O O15 0.735132 0.557508 0.567229
O O16 0.214774 0.583500 0.823326
O O17 0.000000 0.417763 0.841982
O O18 0.252406 0.386117 0.918541
O O19 0.000000 0.266465 0.381873
O O20 0.000000 0.646672 0.515389
#
# Coordination Sequence:
#
# PCOD8167356 Si02
#       8
#     4   4   4   4   4   4   4   4
#     4  12  25  39  59  88 124 160 191 239 306 364
#     4  10  19  35  58  82 110 146 191 239 288 341
#     4  10  21  39  64  89 116 158 208 250 287 340
#     4  10  22  39  61  88 116 153 202 250 292 348
#     4  11  22  35  54  84 118 148 182 231 294 353
#     4   8  16  31  55  81 102 135 185 240 285 328
#     4  10  20  38  60  80 107 147 197 242 283 340
#     4   9  18  36  59  82 109 145 192 237 281 338
#
# _framework density 20.176067
#
# number of rings (size 3 to 8) (size 9 to 14) (size 15 to 20)
#    0.000    2.000    0.000    4.875    0.000    5.500 
#    0.000    8.125    0.000    0.000    0.000    0.000 
#    0.000    0.000    0.000    0.000    0.000    0.000 
#
# Total GULP energy -396611.086115 kJ/mol
# GULP energy per Si atom -12394.096441 kJ/mol
# Density = 2.013015 g / cm^3
# Si number density = 20.176067 Si / 1000 Ang^3
#
#
#
# Elastic Constant Matrix: (Units=GPa)
#
#
# Indices 1 2 3 4 5 6 
#
# 1 49.1166 28.6009 22.2373 0.0000 0.0000 0.0000
# 2 28.6009 119.2418 45.6582 0.0000 0.0000 0.0000
# 3 22.2373 45.6582 106.2266 0.0000 0.0000 0.0000
# 4 0.0000 0.0000 0.0000 35.0749 0.0000 0.0000
# 5 0.0000 0.0000 0.0000 0.0000 16.6646 0.0000
# 6 0.0000 0.0000 0.0000 0.0000 0.0000 13.1021
#
#
#
# Elastic Compliance Matrix: (Units=1/GPa)
#
#
# Indices 1 2 3 4 5 6 
#
# 1 0.024497 -0.004683 -0.003115 0.000000 0.000000 0.000000
# 2 -0.004683 0.010934 -0.003719 0.000000 0.000000 0.000000
# 3 -0.003115 -0.003719 0.011665 0.000000 0.000000 0.000000
# 4 0.000000 0.000000 0.000000 0.028510 0.000000 0.000000
# 5 0.000000 0.000000 0.000000 0.000000 0.060007 0.000000
# 6 0.000000 0.000000 0.000000 0.000000 0.000000 0.076324
#
#
# Mechanical properties :
#
#
# Convention : Reuss Voigt Hill
#
# Bulk Modulus (GPa) = 41.56207 51.95309 46.75758
# Shear Modulus (GPa) = 20.57683 24.84089 22.70886
#
# Velocity S-wave (km/s) = 3.19699 3.51266 3.35854
# Velocity P-wave (km/s) = 5.85424 6.50057 6.18585
#
# Compressibility (1/GPa) = 0.02406040
#
# Stress axis : x y z
#
# Youngs Moduli (GPa) = 40.82119 91.46096 85.72965
#
# Poissons Ratio (x) = 0.42830 0.26708
# Poissons Ratio (y) = 0.19116 0.31884
# Poissons Ratio (z) = 0.12717 0.34016
#
# Static dielectric constant tensor:
#      x y z
#    x 3.399180 0.000000 0.000000 
#    y 0.000000 3.961500 0.000000 
#    z 0.000000 0.000000 3.841150 
# 
# 
# High freq. dielectric constant tensor:
#      x y z
#    x 1.760650 0.000000 0.000000 
#    y 0.000000 1.804820 0.000000 
#    z 0.000000 0.000000 1.784730 
# 
# From -- ./inp_files/4122.got.cif
#   From: 2010.03.12/outbox.cif.g09.slc.cpg/sg26_3_cif.got.tgz:4122.got - 2010.04.14 03:33:09.
