data_PCOD8167218
_publ_section_title
;
Structure prediction by ZEFSAII (Michael W. Deem and Ramdas Pophale) SiO2 
 PCOD8167218
Probable space group: P M C 21
;
_chemical_formula_sum "Si O2"
_cell_formula_units_Z 32
_cell_length_a 9.028480
_cell_length_b 11.265404
_cell_length_c 17.983945
_cell_angle_alpha 90.000000
_cell_angle_beta 90.000000
_cell_angle_gamma 90.000000
_cell_volume 1829.137599
_symmetry_space_group_name_H-M "P M C 21"
_symmetry_group_IT_number 26
_symmetry_cell_setting 'orthorhombic'
loop_
_space_group_symop_operation_xyz
x,y,z
-x,-y,1/2+z
-x,y,z
x,-y,1/2+z
loop_
_atom_site_type_symbol
_atom_site_label
_atom_site_fract_x
_atom_site_fract_y
_atom_site_fract_z
Si Si1 0.172389 0.222475 0.130350
Si Si2 0.335132 0.539175 0.407490
Si Si3 0.676107 0.876802 0.769989
Si Si4 0.164685 0.338255 0.342816
Si Si5 0.334880 0.667868 0.250399
Si Si6 0.170184 0.754276 0.465743
Si Si7 0.837190 0.531724 0.687864
Si Si8 0.825816 0.117774 0.815794
O O1 0.268173 0.141414 0.185376
O O2 0.221760 0.360849 0.136309
O O3 0.000000 0.210945 0.154102
O O4 0.198945 0.181888 0.045217
O O5 0.500000 0.510625 0.435814
O O6 0.243293 0.416034 0.407118
O O7 0.339992 0.595163 0.326114
O O8 0.262442 0.633044 0.463386
O O9 0.500000 0.872525 0.770944
O O10 0.738354 0.777472 0.825580
O O11 0.732695 0.001618 0.799400
O O12 0.151635 0.419747 0.271010
O O13 0.000000 0.299988 0.369430
O O14 0.500000 0.709827 0.227864
O O15 0.271986 0.581558 0.185514
O O16 0.226975 0.780427 0.258822
O O17 0.213574 0.845183 0.400409
O O18 0.000000 0.716419 0.457024
O O19 0.000000 0.489944 0.661269
O O20 0.000000 0.095287 0.804394
#
# Coordination Sequence:
#
# PCOD8167218 Si02
#       8
#     4   4   4   4   4   4   4   4
#     4   9  18  33  51  72  98 128 164 204 247 298
#     4   9  16  26  43  69  98 123 149 187 237 287
#     4  11  21  32  48  72 100 130 167 208 251 296
#     4   9  16  28  46  67  92 122 156 193 233 279
#     4   9  16  26  42  66  94 120 149 188 231 275
#     4   9  18  32  51  73  97 128 165 204 247 299
#     4   8  14  25  43  66  91 118 147 183 229 279
#     4  10  19  32  50  71  96 129 169 207 245 291
#
# _framework density 17.494582000000001
#
# number of rings (size 3 to 8) (size 9 to 14) (size 15 to 20)
#    0.000    2.750    0.000    3.375    0.000    7.000 
#    0.000    0.000    0.000    1.500    0.000   10.500 
#    0.000    0.000    0.000    0.000    0.000    0.000 
#
# Total GULP energy -396673.517808 kJ/mol
# GULP energy per Si atom -12396.047431 kJ/mol
# Density = 1.745476 g / cm^3
# Si number density = 17.494582 Si / 1000 Ang^3
#
#
#
# Elastic Constant Matrix: (Units=GPa)
#
#
# Indices 1 2 3 4 5 6 
#
# 1 129.1505 61.5287 38.2915 0.0000 0.0000 0.0000
# 2 61.5287 100.6614 40.0596 0.0000 0.0000 0.0000
# 3 38.2915 40.0596 57.1869 0.0000 0.0000 0.0000
# 4 0.0000 0.0000 0.0000 15.4219 0.0000 0.0000
# 5 0.0000 0.0000 0.0000 0.0000 14.3422 0.0000
# 6 0.0000 0.0000 0.0000 0.0000 0.0000 32.0473
#
#
#
# Elastic Compliance Matrix: (Units=1/GPa)
#
#
# Indices 1 2 3 4 5 6 
#
# 1 0.011505 -0.005500 -0.003851 0.000000 0.000000 0.000000
# 2 -0.005500 0.016403 -0.007808 0.000000 0.000000 0.000000
# 3 -0.003851 -0.007808 0.025534 0.000000 0.000000 0.000000
# 4 0.000000 0.000000 0.000000 0.064843 0.000000 0.000000
# 5 0.000000 0.000000 0.000000 0.000000 0.069725 0.000000
# 6 0.000000 0.000000 0.000000 0.000000 0.000000 0.031204
#
#
# Mechanical properties :
#
#
# Convention : Reuss Voigt Hill
#
# Bulk Modulus (GPa) = 52.28649 62.97315 57.62982
# Shear Modulus (GPa) = 19.23773 22.17021 20.70397
#
# Velocity S-wave (km/s) = 3.31968 3.56372 3.44386
# Velocity P-wave (km/s) = 6.68175 7.28062 6.98761
#
# Compressibility (1/GPa) = 0.01912540
#
# Stress axis : x y z
#
# Youngs Moduli (GPa) = 86.92059 60.96348 39.16270
#
# Poissons Ratio (x) = 0.33528 0.15081
# Poissons Ratio (y) = 0.47804 0.30578
# Poissons Ratio (z) = 0.33472 0.47600
#
# Static dielectric constant tensor:
#      x y z
#    x 3.476950 0.000000 0.000000 
#    y 0.000000 3.178320 0.000000 
#    z 0.000000 0.000000 3.004070 
# 
# 
# High freq. dielectric constant tensor:
#      x y z
#    x 1.687430 0.000000 0.000000 
#    y 0.000000 1.660740 0.000000 
#    z 0.000000 0.000000 1.633880 
# 
# From -- ./inp_files/5006.got.cif
#   From: 2010.03.12/outbox.cif.g09.slc.cpg/sg26_3_cif.got.tgz:5006.got - 2010.04.14 03:33:09.
