data_PCOD8167432
_publ_section_title
;
Structure prediction by ZEFSAII (Michael W. Deem and Ramdas Pophale) SiO2 
 PCOD8167432
Probable space group: P M C 21
;
_chemical_formula_sum "Si O2"
_cell_formula_units_Z 32
_cell_length_a 9.739200
_cell_length_b 14.176339
_cell_length_c 12.658184
_cell_angle_alpha 90.000000
_cell_angle_beta 90.000000
_cell_angle_gamma 90.000000
_cell_volume 1747.667374
_symmetry_space_group_name_H-M "P M C 21"
_symmetry_group_IT_number 26
_symmetry_cell_setting 'orthorhombic'
loop_
_space_group_symop_operation_xyz
x,y,z
-x,-y,1/2+z
-x,y,z
x,-y,1/2+z
loop_
_atom_site_type_symbol
_atom_site_label
_atom_site_fract_x
_atom_site_fract_y
_atom_site_fract_z
Si Si1 0.662909 0.335792 0.914590
Si Si2 0.843579 0.168117 0.471665
Si Si3 0.652030 0.167149 0.778688
Si Si4 0.336859 0.462900 0.729004
Si Si5 0.347818 0.303864 0.580393
Si Si6 0.158303 0.963950 0.161456
Si Si7 0.156347 0.166377 0.230609
Si Si8 0.663224 0.663505 0.653100
O O1 0.500000 0.341308 0.909055
O O2 0.708758 0.231624 0.874986
O O3 0.723474 0.417913 0.837560
O O4 0.715258 0.350924 0.033151
O O5 0.752707 0.261545 0.491966
O O6 0.800896 0.081300 0.548378
O O7 0.822229 0.134894 0.351950
O O8 0.000000 0.197411 0.494279
O O9 0.500000 0.126586 0.804495
O O10 0.642630 0.232851 0.677169
O O11 0.754920 0.081401 0.757077
O O12 0.500000 0.456019 0.730630
O O13 0.288776 0.402927 0.625855
O O14 0.289785 0.571056 0.718197
O O15 0.500000 0.317387 0.529940
O O16 0.000000 0.945418 0.189179
O O17 0.189011 0.075593 0.157816
O O18 0.262282 0.247717 0.203232
O O19 0.000000 0.201402 0.212293
O O20 0.500000 0.679919 0.658129
#
# Coordination Sequence:
#
# PCOD8167432 Si02
#       8
#     4   4   4   4   4   4   4   4
#     4   8  15  29  48  73 104 130 154 195 247 284
#     4   9  18  33  51  71  97 128 159 196 244 289
#     4   8  14  27  48  72  98 124 152 195 245 282
#     4   8  15  29  50  75 101 129 162 199 237 279
#     4   8  14  27  49  75  98 122 157 198 236 277
#     4   9  18  33  52  71  92 125 168 202 232 285
#     4  10  22  37  49  67 100 132 156 195 249 292
#     4  10  20  33  51  74  98 128 166 200 232 282
#
# _framework density 18.310120999999999
#
# number of rings (size 3 to 8) (size 9 to 14) (size 15 to 20)
#    0.000    3.250    0.000    1.500    0.000    3.000 
#    0.000    5.000    0.000    2.250    0.000    0.000 
#    0.000    0.000    0.000    0.000    0.000    0.000 
#
# Total GULP energy -396609.347024 kJ/mol
# GULP energy per Si atom -12394.042094 kJ/mol
# Density = 1.826845 g / cm^3
# Si number density = 18.310121 Si / 1000 Ang^3
#
#
#
# Elastic Constant Matrix: (Units=GPa)
#
#
# Indices 1 2 3 4 5 6 
#
# 1 52.7794 48.4981 29.0564 0.0000 0.0000 0.0000
# 2 48.4981 123.1131 46.1935 0.0000 0.0000 0.0000
# 3 29.0564 46.1935 83.0750 0.0000 0.0000 0.0000
# 4 0.0000 0.0000 0.0000 24.9946 0.0000 0.0000
# 5 0.0000 0.0000 0.0000 0.0000 16.5079 0.0000
# 6 0.0000 0.0000 0.0000 0.0000 0.0000 19.4221
#
#
#
# Elastic Compliance Matrix: (Units=1/GPa)
#
#
# Indices 1 2 3 4 5 6 
#
# 1 0.031367 -0.010412 -0.005181 0.000000 0.000000 0.000000
# 2 -0.010412 0.013720 -0.003987 0.000000 0.000000 0.000000
# 3 -0.005181 -0.003987 0.016067 0.000000 0.000000 0.000000
# 4 0.000000 0.000000 0.000000 0.040009 0.000000 0.000000
# 5 0.000000 0.000000 0.000000 0.000000 0.060577 0.000000
# 6 0.000000 0.000000 0.000000 0.000000 0.000000 0.051488
#
#
# Mechanical properties :
#
#
# Convention : Reuss Voigt Hill
#
# Bulk Modulus (GPa) = 45.47064 56.27371 50.87218
# Shear Modulus (GPa) = 19.25151 21.19957 20.22554
#
# Velocity S-wave (km/s) = 3.24607 3.40635 3.32717
# Velocity P-wave (km/s) = 6.23994 6.80230 6.52718
#
# Compressibility (1/GPa) = 0.02199221
#
# Stress axis : x y z
#
# Youngs Moduli (GPa) = 31.88074 72.88376 62.24074
#
# Poissons Ratio (x) = 0.75889 0.32248
# Poissons Ratio (y) = 0.33195 0.24818
# Poissons Ratio (z) = 0.16518 0.29061
#
# Static dielectric constant tensor:
#      x y z
#    x 3.311970 0.000000 0.000000 
#    y 0.000000 3.486110 0.000000 
#    z 0.000000 0.000000 3.518470 
# 
# 
# High freq. dielectric constant tensor:
#      x y z
#    x 1.676000 0.000000 0.000000 
#    y 0.000000 1.705030 0.000000 
#    z 0.000000 0.000000 1.702200 
# 
# From -- ./inp_files/3363.got.cif
#   From: 2010.03.12/outbox.cif.g09.slc.cpg/sg26_2_cif.got.tgz:3363.got - 2010.04.14 03:33:09.
