data_PCOD8167981
_publ_section_title
;
Structure prediction by ZEFSAII (Michael W. Deem and Ramdas Pophale) SiO2 
 PCOD8167981
Probable space group: P M A 2
;
_chemical_formula_sum "Si O2"
_cell_formula_units_Z 20
_cell_length_a 8.761744
_cell_length_b 9.335176
_cell_length_c 13.155298
_cell_angle_alpha 90.000000
_cell_angle_beta 90.000000
_cell_angle_gamma 90.000000
_cell_volume 1076.003690
_symmetry_space_group_name_H-M "P M A 2"
_symmetry_group_IT_number 28
_symmetry_cell_setting 'orthorhombic'
loop_
_space_group_symop_operation_xyz
x,y,z
-x,-y,z
1/2-x,y,z
1/2+x,-y,z
loop_
_atom_site_type_symbol
_atom_site_label
_atom_site_fract_x
_atom_site_fract_y
_atom_site_fract_z
Si Si1 0.929835 0.344821 0.262750
Si Si2 0.930612 0.156224 0.070969
Si Si3 0.428093 0.844606 0.669286
Si Si4 0.931113 0.841109 0.866844
Si Si5 0.072053 0.844867 0.446041
O O1 0.750000 0.360747 0.269720
O O2 0.979323 0.255812 0.164037
O O3 0.995129 0.264011 0.362465
O O4 0.000000 0.500000 0.255455
O O5 0.750000 0.141964 0.058863
O O6 0.000000 0.000000 0.090148
O O7 0.001269 0.229975 0.969192
O O8 0.250000 0.855827 0.694498
O O9 0.511101 0.760961 0.763186
O O10 0.457841 0.774772 0.558166
O O11 0.500000 0.000000 0.660896
O O12 0.750000 0.842225 0.871305
O O13 0.000000 0.000000 0.862705
O O14 0.250000 0.868066 0.427835
O O15 0.000000 0.000000 0.431984
#
# Coordination Sequence:
#
# PCOD8167981 Si02
#       5
#     4   4   4   4   4
#     4  10  22  37  52  72  99 131 166 204 247 294
#     4  10  19  32  51  75 101 129 164 203 244 290
#     4   9  15  25  43  68  99 128 156 194 241 288
#     4  10  17  26  43  69 100 129 160 197 241 289
#     4   9  18  32  51  76 102 129 163 202 243 289
#
# _framework density 18.587298000000001
#
# number of rings (size 3 to 8) (size 9 to 14) (size 15 to 20)
#    0.000    2.400    0.000    6.000    0.000    3.200 
#    0.000    0.000    0.000    1.200    0.000    2.800 
#    0.000    0.000    0.000    0.000    0.000    0.000 
#
# Total GULP energy -247835.673372 kJ/mol
# GULP energy per Si atom -12391.783669 kJ/mol
# Density = 1.854499 g / cm^3
# Si number density = 18.587298 Si / 1000 Ang^3
#
#
#
# Elastic Constant Matrix: (Units=GPa)
#
#
# Indices 1 2 3 4 5 6 
#
# 1 94.7689 29.8917 71.4734 0.0000 0.0000 0.0000
# 2 29.8917 71.9378 67.1669 0.0000 0.0000 0.0000
# 3 71.4734 67.1669 216.3798 0.0000 0.0000 0.0000
# 4 0.0000 0.0000 0.0000 1.4542 0.0000 0.0000
# 5 0.0000 0.0000 0.0000 0.0000 28.0494 0.0000
# 6 0.0000 0.0000 0.0000 0.0000 0.0000 21.0729
#
#
#
# Elastic Compliance Matrix: (Units=1/GPa)
#
#
# Indices 1 2 3 4 5 6 
#
# 1 0.014286 -0.002155 -0.004050 0.000000 0.000000 0.000000
# 2 -0.002155 0.019899 -0.005465 0.000000 0.000000 0.000000
# 3 -0.004050 -0.005465 0.007656 0.000000 0.000000 0.000000
# 4 0.000000 0.000000 0.000000 0.687684 0.000000 0.000000
# 5 0.000000 0.000000 0.000000 0.000000 0.035651 0.000000
# 6 0.000000 0.000000 0.000000 0.000000 0.000000 0.047454
#
#
# Mechanical properties :
#
#
# Convention : Reuss Voigt Hill
#
# Bulk Modulus (GPa) = 54.05130 80.01673 67.03402
# Shear Modulus (GPa) = 5.93728 24.41894 15.17811
#
# Velocity S-wave (km/s) = 1.78919 3.62849 2.86070
# Velocity P-wave (km/s) = 5.78023 7.79084 6.85960
#
# Compressibility (1/GPa) = 0.01850094
#
# Stress axis : x y z
#
# Youngs Moduli (GPa) = 69.99799 50.25402 130.62100
#
# Poissons Ratio (x) = 0.10828 0.52902
# Poissons Ratio (y) = 0.15083 0.71386
# Poissons Ratio (z) = 0.28350 0.27464
#
# Static dielectric constant tensor:
#      x y z
#    x 3.426330 0.000000 0.000000 
#    y 0.000000 2.970020 0.000000 
#    z 0.000000 0.000000 4.895500 
# 
# 
# High freq. dielectric constant tensor:
#      x y z
#    x 1.728780 0.000000 0.000000 
#    y 0.000000 1.651850 0.000000 
#    z 0.000000 0.000000 1.759740 
# 
# From -- ./inp_files/5950.got.cif
#   From: 2010.03.12/outbox.cif.g09.slc.cpg/sg28_3_cif.got.tgz:5950.got - 2010.04.14 03:39:34.
