data_PCOD8167542
_publ_section_title
;
Structure prediction by ZEFSAII (Michael W. Deem and Ramdas Pophale) SiO2 
 PCOD8167542
Probable space group: P M C 21
;
_chemical_formula_sum "Si O2"
_cell_formula_units_Z 32
_cell_length_a 8.632720
_cell_length_b 12.331214
_cell_length_c 14.283945
_cell_angle_alpha 90.000000
_cell_angle_beta 90.000000
_cell_angle_gamma 90.000000
_cell_volume 1520.553338
_symmetry_space_group_name_H-M "P M C 21"
_symmetry_group_IT_number 26
_symmetry_cell_setting 'orthorhombic'
loop_
_space_group_symop_operation_xyz
x,y,z
-x,-y,1/2+z
-x,y,z
x,-y,1/2+z
loop_
_atom_site_type_symbol
_atom_site_label
_atom_site_fract_x
_atom_site_fract_y
_atom_site_fract_z
Si Si1 0.682471 0.179801 0.684460
Si Si2 0.822127 0.722376 0.514901
Si Si3 0.675302 0.691733 0.897397
Si Si4 0.180619 0.586222 0.210370
Si Si5 0.679380 0.642433 0.683576
Si Si6 0.324311 0.452609 0.902184
Si Si7 0.179687 0.114053 0.495241
Si Si8 0.181168 0.912226 0.375044
O O1 0.500000 0.193159 0.686308
O O2 0.755542 0.299242 0.672215
O O3 0.731937 0.107538 0.594724
O O4 0.732161 0.118110 0.779391
O O5 0.778985 0.730940 0.624454
O O6 0.706530 0.625435 0.488062
O O7 0.778541 0.827918 0.456914
O O8 0.000000 0.690798 0.500354
O O9 0.500000 0.732903 0.915719
O O10 0.711154 0.680573 0.788340
O O11 0.703167 0.573209 0.941224
O O12 0.795780 0.770270 0.946951
O O13 0.264666 0.481557 0.166133
O O14 0.205814 0.584208 0.321863
O O15 0.000000 0.580354 0.186916
O O16 0.500000 0.649046 0.657650
O O17 0.500000 0.442583 0.862867
O O18 0.000000 0.093984 0.516627
O O19 0.239685 0.025399 0.419609
O O20 0.000000 0.914278 0.351293
#
# Coordination Sequence:
#
# PCOD8167542 Si02
#       8
#     4   4   4   4   4   4   4   4
#     4  12  25  42  67  95 126 165 211 264 318 380
#     4  11  22  37  61  92 126 168 216 262 314 380
#     4   9  21  41  61  88 128 168 210 262 317 376
#     4  11  21  37  61  91 127 165 212 261 315 384
#     4  10  22  39  60  90 132 173 211 262 323 383
#     4  10  20  36  59  89 126 165 206 259 320 375
#     4  11  25  44  68  95 127 168 214 266 320 376
#     4  10  24  46  67  92 128 168 214 268 319 374
#
# _framework density 21.044969999999999
#
# number of rings (size 3 to 8) (size 9 to 14) (size 15 to 20)
#    0.000    1.500    1.250    4.500    1.750    5.500 
#    0.000    3.750    0.000    0.000    0.000    0.000 
#    0.000    0.000    0.000    0.000    0.000    0.000 
#
# Total GULP energy -396780.676193 kJ/mol
# GULP energy per Si atom -12399.396131 kJ/mol
# Density = 2.099707 g / cm^3
# Si number density = 21.044970 Si / 1000 Ang^3
#
#
#
# Elastic Constant Matrix: (Units=GPa)
#
#
# Indices 1 2 3 4 5 6 
#
# 1 89.3112 36.4526 29.7142 0.0000 0.0000 0.0000
# 2 36.4526 85.1520 40.8081 0.0000 0.0000 0.0000
# 3 29.7142 40.8081 67.8448 0.0000 0.0000 0.0000
# 4 0.0000 0.0000 0.0000 30.2503 0.0000 0.0000
# 5 0.0000 0.0000 0.0000 0.0000 36.6788 0.0000
# 6 0.0000 0.0000 0.0000 0.0000 0.0000 24.3472
#
#
#
# Elastic Compliance Matrix: (Units=1/GPa)
#
#
# Indices 1 2 3 4 5 6 
#
# 1 0.014164 -0.004342 -0.003592 0.000000 0.000000 0.000000
# 2 -0.004342 0.017831 -0.008824 0.000000 0.000000 0.000000
# 3 -0.003592 -0.008824 0.021620 0.000000 0.000000 0.000000
# 4 0.000000 0.000000 0.000000 0.033057 0.000000 0.000000
# 5 0.000000 0.000000 0.000000 0.000000 0.027264 0.000000
# 6 0.000000 0.000000 0.000000 0.000000 0.000000 0.041073
#
#
# Mechanical properties :
#
#
# Convention : Reuss Voigt Hill
#
# Bulk Modulus (GPa) = 49.75059 50.69528 50.22294
# Shear Modulus (GPa) = 25.61165 27.27746 26.44456
#
# Velocity S-wave (km/s) = 3.49233 3.60412 3.54866
# Velocity P-wave (km/s) = 6.32086 6.43901 6.38021
#
# Compressibility (1/GPa) = 0.02010026
#
# Stress axis : x y z
#
# Youngs Moduli (GPa) = 70.60127 56.08173 46.25376
#
# Poissons Ratio (x) = 0.24352 0.16613
# Poissons Ratio (y) = 0.30656 0.40812
# Poissons Ratio (z) = 0.25358 0.49484
#
# Static dielectric constant tensor:
#      x y z
#    x 3.697120 0.000000 0.000000 
#    y 0.000000 3.835790 0.000000 
#    z 0.000000 0.000000 3.841500 
# 
# 
# High freq. dielectric constant tensor:
#      x y z
#    x 1.825530 0.000000 0.000000 
#    y 0.000000 1.816260 0.000000 
#    z 0.000000 0.000000 1.834580 
# 
# From -- ./inp_files/4154.got.cif
#   From: 2010.03.12/outbox.cif.g09.slc.cpg/sg26_3_cif.got.tgz:4154.got - 2010.04.14 03:33:09.
