data_PCOD8167535
_publ_section_title
;
Structure prediction by ZEFSAII (Michael W. Deem and Ramdas Pophale) SiO2 
 PCOD8167535
Probable space group: P M C 21
;
_chemical_formula_sum "Si O2"
_cell_formula_units_Z 32
_cell_length_a 9.396697
_cell_length_b 12.443054
_cell_length_c 13.456265
_cell_angle_alpha 90.000000
_cell_angle_beta 90.000000
_cell_angle_gamma 90.000000
_cell_volume 1573.355057
_symmetry_space_group_name_H-M "P M C 21"
_symmetry_group_IT_number 26
_symmetry_cell_setting 'orthorhombic'
loop_
_space_group_symop_operation_xyz
x,y,z
-x,-y,1/2+z
-x,y,z
x,-y,1/2+z
loop_
_atom_site_type_symbol
_atom_site_label
_atom_site_fract_x
_atom_site_fract_y
_atom_site_fract_z
Si Si1 0.165472 0.931983 0.476550
Si Si2 0.831648 0.175467 0.187285
Si Si3 0.160603 0.422119 0.174614
Si Si4 0.164875 0.254642 0.826948
Si Si5 0.660699 0.376710 0.687085
Si Si6 0.669585 0.883283 0.877415
Si Si7 0.341855 0.652718 0.953288
Si Si8 0.158301 0.539767 0.442377
O O1 0.206976 0.873416 0.579441
O O2 0.195890 0.855408 0.382923
O O3 0.000000 0.966481 0.479363
O O4 0.266414 0.033170 0.456877
O O5 0.783308 0.300636 0.193201
O O6 0.744496 0.107506 0.269375
O O7 0.000000 0.164754 0.206943
O O8 0.258665 0.514363 0.224592
O O9 0.000000 0.434460 0.214886
O O10 0.165472 0.446332 0.059012
O O11 0.260979 0.269545 0.728922
O O12 0.217543 0.350084 0.898432
O O13 0.000000 0.263237 0.797215
O O14 0.500000 0.382998 0.727132
O O15 0.663910 0.362248 0.570351
O O16 0.500000 0.899951 0.867487
O O17 0.713547 0.769147 0.922985
O O18 0.500000 0.635752 0.912307
O O19 0.244936 0.562674 0.901858
O O20 0.000000 0.518567 0.404961
#
# Coordination Sequence:
#
# PCOD8167535 Si02
#       8
#     4   4   4   4   4   4   4   4
#     4  10  22  43  66  88 118 155 203 255 302 353
#     4  10  21  40  65  90 116 152 199 252 302 355
#     4   9  17  34  58  85 117 153 195 244 296 348
#     4  10  20  36  58  87 118 151 193 245 297 350
#     4  10  21  35  54  84 123 165 200 237 290 355
#     4  11  25  42  61  88 122 160 202 248 301 359
#     4   9  21  40  55  77 119 160 194 238 288 345
#     4   9  17  32  57  85 113 148 188 237 294 347
#
# _framework density 20.338702000000001
#
# number of rings (size 3 to 8) (size 9 to 14) (size 15 to 20)
#    0.000    2.250    1.250    0.750    1.750    4.500 
#    0.000    2.500    0.000    0.000    0.000    0.000 
#    0.000    0.000    0.000    0.000    0.000    0.000 
#
# Total GULP energy -396726.005044 kJ/mol
# GULP energy per Si atom -12397.687658 kJ/mol
# Density = 2.029241 g / cm^3
# Si number density = 20.338702 Si / 1000 Ang^3
#
#
#
# Elastic Constant Matrix: (Units=GPa)
#
#
# Indices 1 2 3 4 5 6 
#
# 1 84.6770 47.3428 25.0466 0.0000 0.0000 0.0000
# 2 47.3428 92.8515 20.5724 0.0000 0.0000 0.0000
# 3 25.0466 20.5724 36.1432 0.0000 0.0000 0.0000
# 4 0.0000 0.0000 0.0000 31.0875 0.0000 0.0000
# 5 0.0000 0.0000 0.0000 0.0000 22.4349 0.0000
# 6 0.0000 0.0000 0.0000 0.0000 0.0000 22.4677
#
#
#
# Elastic Compliance Matrix: (Units=1/GPa)
#
#
# Indices 1 2 3 4 5 6 
#
# 1 0.018577 -0.007575 -0.008562 0.000000 0.000000 0.000000
# 2 -0.007575 0.015413 -0.003523 0.000000 0.000000 0.000000
# 3 -0.008562 -0.003523 0.035607 0.000000 0.000000 0.000000
# 4 0.000000 0.000000 0.000000 0.032167 0.000000 0.000000
# 5 0.000000 0.000000 0.000000 0.000000 0.044573 0.000000
# 6 0.000000 0.000000 0.000000 0.000000 0.000000 0.044508
#
#
# Mechanical properties :
#
#
# Convention : Reuss Voigt Hill
#
# Bulk Modulus (GPa) = 33.03000 44.39948 38.71474
# Shear Modulus (GPa) = 20.81086 23.24536 22.02811
#
# Velocity S-wave (km/s) = 3.20224 3.38437 3.29456
# Velocity P-wave (km/s) = 5.47245 6.09503 5.79211
#
# Compressibility (1/GPa) = 0.03027551
#
# Stress axis : x y z
#
# Youngs Moduli (GPa) = 53.82881 64.88057 28.08468
#
# Poissons Ratio (x) = 0.49148 0.24046
# Poissons Ratio (y) = 0.40776 0.09896
# Poissons Ratio (z) = 0.46089 0.22861
#
# Static dielectric constant tensor:
#      x y z
#    x 3.777940 0.000000 0.000000 
#    y 0.000000 3.709310 0.000000 
#    z 0.000000 0.000000 3.650850 
# 
# 
# High freq. dielectric constant tensor:
#      x y z
#    x 1.785110 0.000000 0.000000 
#    y 0.000000 1.791320 0.000000 
#    z 0.000000 0.000000 1.803590 
# 
# From -- ./inp_files/4207.got.cif
#   From: 2010.03.12/outbox.cif.g09.slc.cpg/sg26_3_cif.got.tgz:4207.got - 2010.04.14 03:33:09.
