data_PCOD8167920
_publ_section_title
;
Structure prediction by ZEFSAII (Michael W. Deem and Ramdas Pophale) SiO2 
 PCOD8167920
Probable space group: P C C 2
;
_chemical_formula_sum "Si O2"
_cell_formula_units_Z 20
_cell_length_a 5.203443
_cell_length_b 15.971308
_cell_length_c 8.881223
_cell_angle_alpha 90.000000
_cell_angle_beta 90.000000
_cell_angle_gamma 90.000000
_cell_volume 738.081061
_symmetry_space_group_name_H-M "P C C 2"
_symmetry_group_IT_number 27
_symmetry_cell_setting 'orthorhombic'
loop_
_space_group_symop_operation_xyz
x,y,z
-x,-y,z
-x,y,1/2+z
x,-y,1/2+z
loop_
_atom_site_type_symbol
_atom_site_label
_atom_site_fract_x
_atom_site_fract_y
_atom_site_fract_z
Si Si1 0.000000 0.250000 0.291400
Si Si2 0.802697 0.139884 0.554492
Si Si3 0.500000 0.500000 0.426232
Si Si4 0.000000 0.500000 0.727053
Si Si5 0.000000 0.000000 0.727053
Si Si6 0.500000 0.000000 0.926232
Si Si7 0.802698 0.639884 0.554492
O O1 0.876925 0.177229 0.392395
O O2 0.775092 0.287153 0.180986
O O3 0.224908 0.212847 0.180986
O O4 0.123075 0.322771 0.392395
O O5 0.548678 0.082221 0.531721
O O6 0.032440 0.079805 0.615911
O O7 0.749972 0.484368 0.326618
O O8 0.548678 0.582221 0.531721
O O9 0.967560 0.420195 0.615911
O O10 0.749972 0.015632 0.826618
#
# Coordination Sequence:
#
# PCOD8167920 Si02
#       7
#     4   4   2   2   2   2   4
#     4  10  24  50  90 130 180 224 294 384 446 510
#     4  11  24  51  87 124 181 226 300 357 452 520
#     4  12  26  50  88 122 170 238 290 356 430 554
#     4  12  26  50  84 124 166 240 288 358 426 554
#     4  12  26  50  84 124 166 240 288 358 426 554
#     4  12  26  50  88 122 170 238 290 356 430 554
#     4  11  24  51  87 124 181 226 300 357 452 520
#
# _framework density 27.097291999999999
#
# number of rings (size 3 to 8) (size 9 to 14) (size 15 to 20)
#    0.000    0.800    4.000    2.400    0.000    0.000 
#    0.000    6.000    0.000    0.000    0.000    0.000 
#    0.000    0.000    0.000    0.000    0.000    0.000 
#
# Total GULP energy -247807.959184 kJ/mol
# GULP energy per Si atom -12390.397959 kJ/mol
# Density = 2.703562 g / cm^3
# Si number density = 27.097292 Si / 1000 Ang^3
#
#
#
# Elastic Constant Matrix: (Units=GPa)
#
#
# Indices 1 2 3 4 5 6 
#
# 1 150.8398 72.7678 92.7301 0.0000 0.0000 0.0000
# 2 72.7678 183.5258 112.5682 0.0000 0.0000 0.0000
# 3 92.7301 112.5682 219.8706 0.0000 0.0000 0.0000
# 4 0.0000 0.0000 0.0000 78.7345 0.0000 0.0000
# 5 0.0000 0.0000 0.0000 0.0000 52.7124 0.0000
# 6 0.0000 0.0000 0.0000 0.0000 0.0000 55.8569
#
#
#
# Elastic Compliance Matrix: (Units=1/GPa)
#
#
# Indices 1 2 3 4 5 6 
#
# 1 0.009376 -0.001884 -0.002990 0.000000 0.000000 0.000000
# 2 -0.001884 0.008322 -0.003466 0.000000 0.000000 0.000000
# 3 -0.002990 -0.003466 0.007584 0.000000 0.000000 0.000000
# 4 0.000000 0.000000 0.000000 0.012701 0.000000 0.000000
# 5 0.000000 0.000000 0.000000 0.000000 0.018971 0.000000
# 6 0.000000 0.000000 0.000000 0.000000 0.000000 0.017903
#
#
# Mechanical properties :
#
#
# Convention : Reuss Voigt Hill
#
# Bulk Modulus (GPa) = 116.24997 123.37425 119.81211
# Shear Modulus (GPa) = 52.96409 55.87212 54.41811
#
# Velocity S-wave (km/s) = 4.42587 4.54575 4.48621
# Velocity P-wave (km/s) = 8.31335 8.55457 8.43483
#
# Compressibility (1/GPa) = 0.00860215
#
# Stress axis : x y z
#
# Youngs Moduli (GPa) = 106.64977 120.16833 131.86174
#
# Poissons Ratio (x) = 0.22637 0.39428
# Poissons Ratio (y) = 0.20090 0.45703
# Poissons Ratio (z) = 0.31889 0.41650
#
# Static dielectric constant tensor:
#      x y z
#    x 4.325620 0.000000 0.000000 
#    y 0.000000 5.618260 0.000000 
#    z 0.000000 0.000000 5.651590 
# 
# 
# High freq. dielectric constant tensor:
#      x y z
#    x 2.040670 0.000000 0.000000 
#    y 0.000000 2.112440 0.000000 
#    z 0.000000 0.000000 2.130920 
# 
# From -- ./inp_files/889.got.cif
#   From: 2010.03.12/outbox.cif.g09.slc.cpg/sg27_1_cif.got.tgz:889.got - 2010.04.14 03:36:05.
