data_PCOD8167770
_publ_section_title
;
Structure prediction by ZEFSAII (Michael W. Deem and Ramdas Pophale) SiO2 
 PCOD8167770
Probable space group: P M C 21
;
_chemical_formula_sum "Si O2"
_cell_formula_units_Z 24
_cell_length_a 8.389561
_cell_length_b 13.552438
_cell_length_c 9.894771
_cell_angle_alpha 90.000000
_cell_angle_beta 90.000000
_cell_angle_gamma 90.000000
_cell_volume 1125.025620
_symmetry_space_group_name_H-M "P M C 21"
_symmetry_group_IT_number 26
_symmetry_cell_setting 'orthorhombic'
loop_
_space_group_symop_operation_xyz
x,y,z
-x,-y,1/2+z
-x,y,z
x,-y,1/2+z
loop_
_atom_site_type_symbol
_atom_site_label
_atom_site_fract_x
_atom_site_fract_y
_atom_site_fract_z
Si Si1 0.814027 0.583816 0.461060
Si Si2 0.815972 0.082096 0.083777
Si Si3 0.686489 0.563252 0.746592
Si Si4 0.683808 0.214541 0.311824
Si Si5 0.183669 0.855900 0.085011
Si Si6 0.683568 0.213058 0.858039
O O1 0.731901 0.537562 0.593188
O O2 0.788585 0.509164 0.338917
O O3 0.730363 0.687449 0.433446
O O4 0.000000 0.601430 0.486123
O O5 0.786862 0.139475 0.223058
O O6 0.000000 0.091916 0.043070
O O7 0.766013 0.969166 0.106597
O O8 0.711931 0.123234 0.960684
O O9 0.500000 0.544901 0.771769
O O10 0.738501 0.674493 0.780573
O O11 0.500000 0.200214 0.273011
O O12 0.710012 0.192818 0.469025
O O13 0.212385 0.797666 0.223523
O O14 0.000000 0.845855 0.043444
O O15 0.500000 0.215300 0.815745
#
# Coordination Sequence:
#
# PCOD8167770 Si02
#       6
#     4   4   4   4   4   4
#     4  12  26  45  71 100 131 172 218 266 324 389
#     4  11  23  42  67  95 131 174 219 269 325 386
#     4  11  25  46  70  98 134 171 213 269 328 386
#     4  11  24  42  67  97 131 172 215 266 326 385
#     4  11  25  42  64  96 134 175 219 269 323 384
#     4  12  25  43  67  96 133 174 218 271 326 384
#
# _framework density 21.332847000000001
#
# number of rings (size 3 to 8) (size 9 to 14) (size 15 to 20)
#    0.000    0.667    1.667    6.000    2.333    8.667 
#    0.000    0.000    0.000    0.000    0.000    0.000 
#    0.000    0.000    0.000    0.000    0.000    0.000 
#
# Total GULP energy -297854.723471 kJ/mol
# GULP energy per Si atom -12410.613478 kJ/mol
# Density = 2.128429 g / cm^3
# Si number density = 21.332847 Si / 1000 Ang^3
#
#
#
# Elastic Constant Matrix: (Units=GPa)
#
#
# Indices 1 2 3 4 5 6 
#
# 1 75.4151 30.0072 4.4184 0.0000 0.0000 0.0000
# 2 30.0072 66.0483 20.4889 0.0000 0.0000 0.0000
# 3 4.4184 20.4889 117.9250 0.0000 0.0000 0.0000
# 4 0.0000 0.0000 0.0000 42.1341 0.0000 0.0000
# 5 0.0000 0.0000 0.0000 0.0000 40.9029 0.0000
# 6 0.0000 0.0000 0.0000 0.0000 0.0000 30.8210
#
#
#
# Elastic Compliance Matrix: (Units=1/GPa)
#
#
# Indices 1 2 3 4 5 6 
#
# 1 0.016242 -0.007600 0.000712 0.000000 0.000000 0.000000
# 2 -0.007600 0.019559 -0.003114 0.000000 0.000000 0.000000
# 3 0.000712 -0.003114 0.008994 0.000000 0.000000 0.000000
# 4 0.000000 0.000000 0.000000 0.023734 0.000000 0.000000
# 5 0.000000 0.000000 0.000000 0.000000 0.024448 0.000000
# 6 0.000000 0.000000 0.000000 0.000000 0.000000 0.032445
#
#
# Mechanical properties :
#
#
# Convention : Reuss Voigt Hill
#
# Bulk Modulus (GPa) = 40.33514 41.02415 40.67965
# Shear Modulus (GPa) = 32.53294 36.40320 34.46807
#
# Velocity S-wave (km/s) = 3.90938 4.13539 4.02397
# Velocity P-wave (km/s) = 6.27107 6.48646 6.37967
#
# Compressibility (1/GPa) = 0.02479228
#
# Stress axis : x y z
#
# Youngs Moduli (GPa) = 61.56789 51.12701 111.18208
#
# Poissons Ratio (x) = 0.38857 -0.07915
# Poissons Ratio (y) = 0.46792 0.34617
# Poissons Ratio (z) = -0.04383 0.15919
#
# Static dielectric constant tensor:
#      x y z
#    x 3.801900 0.000000 0.000000 
#    y 0.000000 3.936830 0.000000 
#    z 0.000000 0.000000 3.847230 
# 
# 
# High freq. dielectric constant tensor:
#      x y z
#    x 1.845050 0.000000 0.000000 
#    y 0.000000 1.842820 0.000000 
#    z 0.000000 0.000000 1.850540 
# 
# From -- ./inp_files/1422.got.cif
#   From: 2010.03.12/outbox.cif.g09.slc.cpg/sg26_1_cif.got.tgz:1422.got - 2010.04.14 03:33:09.
