data_PCOD8167020
_publ_section_title
;
Structure prediction by ZEFSAII (Michael W. Deem and Ramdas Pophale) SiO2 
 PCOD8167020
Probable space group: P M M 2
;
_chemical_formula_sum "Si O2"
_cell_formula_units_Z 32
_cell_length_a 9.379632
_cell_length_b 9.990934
_cell_length_c 20.324845
_cell_angle_alpha 90.000000
_cell_angle_beta 90.000000
_cell_angle_gamma 90.000000
_cell_volume 1904.667327
_symmetry_space_group_name_H-M "P M M 2"
_symmetry_group_IT_number 25
_symmetry_cell_setting 'orthorhombic'
loop_
_space_group_symop_operation_xyz
x,y,z
-x,-y,z
-x,y,z
x,-y,z
loop_
_atom_site_type_symbol
_atom_site_label
_atom_site_fract_x
_atom_site_fract_y
_atom_site_fract_z
Si Si1 0.833663 0.845750 0.114390
Si Si2 0.669709 0.850228 0.466433
Si Si3 0.330356 0.648312 0.358989
Si Si4 0.333226 0.653821 0.724904
Si Si5 0.830660 0.148198 0.966823
Si Si6 0.669356 0.850179 0.612690
Si Si7 0.166653 0.653751 0.855279
Si Si8 0.333654 0.654601 0.211108
O O1 0.750761 0.749489 0.162713
O O2 0.000000 0.813860 0.120750
O O3 0.802605 0.000000 0.132589
O O4 0.778729 0.815549 0.040304
O O5 0.500000 0.843638 0.464351
O O6 0.736277 0.750449 0.412221
O O7 0.723428 0.809852 0.539598
O O8 0.721558 0.000000 0.449460
O O9 0.500000 0.648436 0.362576
O O10 0.273030 0.500000 0.375873
O O11 0.283724 0.689195 0.285392
O O12 0.500000 0.678984 0.737099
O O13 0.302468 0.500000 0.706488
O O14 0.271704 0.744297 0.665601
O O15 0.250279 0.696947 0.790191
O O16 0.772537 0.256779 0.915032
O O17 0.000000 0.148094 0.966877
O O18 0.775058 0.000000 0.946963
O O19 0.500000 0.847197 0.613071
O O20 0.722814 0.000000 0.630587
O O21 0.197223 0.500000 0.873621
O O22 0.000000 0.679335 0.842839
O O23 0.500000 0.683817 0.202446
O O24 0.299577 0.500000 0.195013
#
# Coordination Sequence:
#
# PCOD8167020 Si02
#       8
#     4   4   4   4   4   4   4   4
#     4   9  18  32  49  69  91 115 147 186 224 264
#     4   8  13  21  34  54  79 106 138 174 209 246
#     4   8  14  24  37  55  82 113 142 174 211 250
#     4   9  17  28  41  59  84 111 137 167 205 247
#     4   8  15  29  47  65  85 108 137 176 215 249
#     4   8  14  24  37  55  81 110 138 170 207 246
#     4   9  17  29  45  64  84 107 137 171 206 247
#     4   9  18  31  45  65  94 123 150 182 221 265
#
# _framework density 16.800833999999998
#
# number of rings (size 3 to 8) (size 9 to 14) (size 15 to 20)
#    0.000    3.500    0.000    2.250    0.000    2.500 
#    0.000    5.625    0.000    2.250    0.000    0.875 
#    0.000    3.000    0.000    0.000    0.000    0.000 
#
# Total GULP energy -396605.951583 kJ/mol
# GULP energy per Si atom -12393.935987 kJ/mol
# Density = 1.676260 g / cm^3
# Si number density = 16.800834 Si / 1000 Ang^3
#
#
#
# Elastic Constant Matrix: (Units=GPa)
#
#
# Indices 1 2 3 4 5 6 
#
# 1 23.0514 31.7412 34.5842 0.0000 0.0000 0.0000
# 2 31.7412 125.9238 115.5760 0.0000 0.0000 0.0000
# 3 34.5842 115.5760 165.0162 0.0000 0.0000 0.0000
# 4 0.0000 0.0000 0.0000 43.2136 0.0000 0.0000
# 5 0.0000 0.0000 0.0000 0.0000 -28.7350 0.0000
# 6 0.0000 0.0000 0.0000 0.0000 0.0000 17.8003
#
#
#
# Elastic Compliance Matrix: (Units=1/GPa)
#
#
# Indices 1 2 3 4 5 6 
#
# 1 0.068746 -0.011493 -0.006358 0.000000 0.000000 0.000000
# 2 -0.011493 0.024156 -0.014510 0.000000 0.000000 0.000000
# 3 -0.006358 -0.014510 0.017555 0.000000 0.000000 0.000000
# 4 0.000000 0.000000 0.000000 0.023141 0.000000 0.000000
# 5 0.000000 0.000000 0.000000 0.000000 -0.034801 0.000000
# 6 0.000000 0.000000 0.000000 0.000000 0.000000 0.056179
#
#
# Mechanical properties :
#
#
# Convention : Reuss Voigt Hill
#
# Bulk Modulus (GPa) = 21.86510 75.31046 48.58778
# Shear Modulus (GPa) = 21.28179 15.26179 18.27179
#
# Velocity S-wave (km/s) = 3.56295 3.01723 3.30138
# Velocity P-wave (km/s) = 5.47437 7.55387 6.59658
#
# Compressibility (1/GPa) = 0.04573499
#
# Stress axis : x y z
#
# Youngs Moduli (GPa) = 14.54633 41.39800 56.96309
#
# Poissons Ratio (x) = 0.47577 0.36220
# Poissons Ratio (y) = 0.16718 0.82653
# Poissons Ratio (z) = 0.09249 0.60068
#
# Static dielectric constant tensor:
#      x y z
#    x 2.647300 0.000000 0.000000 
#    y 0.000000 3.412370 0.000000 
#    z 0.000000 0.000000 3.441300 
# 
# 
# High freq. dielectric constant tensor:
#      x y z
#    x 1.589600 0.000000 0.000000 
#    y 0.000000 1.653360 0.000000 
#    z 0.000000 0.000000 1.656230 
# 
# From -- ./inp_files/5570.got.cif
#   From: 2010.03.12/outbox.cif.g09.slc.cpg/sg25_3_cif.got.tgz:5570.got - 2010.04.14 03:30:10.
