data_PCOD8167916
_publ_section_title
;
Structure prediction by ZEFSAII (Michael W. Deem and Ramdas Pophale) SiO2 
 PCOD8167916
Probable space group: P C C 2
;
_chemical_formula_sum "Si O2"
_cell_formula_units_Z 20
_cell_length_a 10.769458
_cell_length_b 7.962911
_cell_length_c 9.036377
_cell_angle_alpha 90.000000
_cell_angle_beta 90.000000
_cell_angle_gamma 90.000000
_cell_volume 774.925675
_symmetry_space_group_name_H-M "P C C 2"
_symmetry_group_IT_number 27
_symmetry_cell_setting 'orthorhombic'
loop_
_space_group_symop_operation_xyz
x,y,z
-x,-y,z
-x,y,1/2+z
x,-y,1/2+z
loop_
_atom_site_type_symbol
_atom_site_label
_atom_site_fract_x
_atom_site_fract_y
_atom_site_fract_z
Si Si1 0.362701 0.996191 0.985420
Si Si2 0.904495 0.347614 0.432727
Si Si3 0.658916 0.661272 0.092380
Si Si4 0.500000 0.500000 0.844034
Si Si5 0.000000 0.000000 0.045897
Si Si6 0.220528 0.140141 0.716745
O O1 0.266481 0.033148 0.856961
O O2 0.500000 0.000000 0.918953
O O3 0.348789 0.139049 0.112828
O O4 0.324530 0.830673 0.085009
O O5 0.802223 0.392446 0.559260
O O6 0.979232 0.172336 0.453859
O O7 0.831382 0.319447 0.275467
O O8 0.000000 0.500000 0.417658
O O9 0.606577 0.583359 0.242928
O O10 0.571557 0.630856 0.947981
O O11 0.881956 0.020087 0.148686
#
# Coordination Sequence:
#
# PCOD8167916 Si02
#       6
#     4   4   4   2   2   4
#     4  11  25  43  77 112 149 199 260 319 389 462
#     4  11  27  50  75 115 154 206 260 320 392 456
#     4  10  24  47  71 107 150 201 254 319 386 461
#     4  10  24  46  72 106 154 196 256 318 386 462
#     4  12  24  50  78 108 156 204 260 328 378 468
#     4  11  24  46  75 113 152 201 258 318 384 459
#
# _framework density 25.808927000000001
#
# number of rings (size 3 to 8) (size 9 to 14) (size 15 to 20)
#    0.000    1.200    4.000    1.200    8.400    5.600 
#    7.200    0.000    0.000    0.000    0.000    0.000 
#    0.000    0.000    0.000    0.000    0.000    0.000 
#
# Total GULP energy -247802.626305 kJ/mol
# GULP energy per Si atom -12390.131315 kJ/mol
# Density = 2.575018 g / cm^3
# Si number density = 25.808927 Si / 1000 Ang^3
#
#
#
# Elastic Constant Matrix: (Units=GPa)
#
#
# Indices 1 2 3 4 5 6 
#
# 1 148.4997 56.2781 42.2011 0.0000 0.0000 0.0000
# 2 56.2781 100.8459 34.2720 0.0000 0.0000 0.0000
# 3 42.2011 34.2720 97.8243 0.0000 0.0000 0.0000
# 4 0.0000 0.0000 0.0000 27.8161 0.0000 0.0000
# 5 0.0000 0.0000 0.0000 0.0000 17.6277 0.0000
# 6 0.0000 0.0000 0.0000 0.0000 0.0000 41.3185
#
#
#
# Elastic Compliance Matrix: (Units=1/GPa)
#
#
# Indices 1 2 3 4 5 6 
#
# 1 0.009016 -0.004211 -0.002414 0.000000 0.000000 0.000000
# 2 -0.004211 0.013223 -0.002816 0.000000 0.000000 0.000000
# 3 -0.002414 -0.002816 0.012250 0.000000 0.000000 0.000000
# 4 0.000000 0.000000 0.000000 0.035950 0.000000 0.000000
# 5 0.000000 0.000000 0.000000 0.000000 0.056729 0.000000
# 6 0.000000 0.000000 0.000000 0.000000 0.000000 0.024202
#
#
# Mechanical properties :
#
#
# Convention : Reuss Voigt Hill
#
# Bulk Modulus (GPa) = 64.07311 68.07469 66.07390
# Shear Modulus (GPa) = 28.49721 31.64705 30.07213
#
# Velocity S-wave (km/s) = 3.32650 3.50552 3.41718
# Velocity P-wave (km/s) = 6.29555 6.54359 6.42077
#
# Compressibility (1/GPa) = 0.01560717
#
# Stress axis : x y z
#
# Youngs Moduli (GPa) = 110.91442 75.62517 81.62971
#
# Poissons Ratio (x) = 0.31846 0.19707
# Poissons Ratio (y) = 0.46706 0.22987
# Poissons Ratio (z) = 0.26777 0.21296
#
# Static dielectric constant tensor:
#      x y z
#    x 5.262040 0.000000 0.000000 
#    y 0.000000 4.617940 0.000000 
#    z 0.000000 0.000000 4.691420 
# 
# 
# High freq. dielectric constant tensor:
#      x y z
#    x 2.056950 0.000000 0.000000 
#    y 0.000000 2.012040 0.000000 
#    z 0.000000 0.000000 2.034240 
# 
# From -- ./inp_files/1349.got.cif
#   From: 2010.03.12/outbox.cif.g09.slc.cpg/sg27_1_cif.got.tgz:1349.got - 2010.04.14 03:36:05.
