data_PCOD8167030
_publ_section_title
;
Structure prediction by ZEFSAII (Michael W. Deem and Ramdas Pophale) SiO2 
 PCOD8167030
Probable space group: P M M 2
;
_chemical_formula_sum "Si O2"
_cell_formula_units_Z 20
_cell_length_a 9.349746
_cell_length_b 7.628691
_cell_length_c 14.855593
_cell_angle_alpha 90.000000
_cell_angle_beta 90.000000
_cell_angle_gamma 90.000000
_cell_volume 1059.594827
_symmetry_space_group_name_H-M "P M M 2"
_symmetry_group_IT_number 25
_symmetry_cell_setting 'orthorhombic'
loop_
_space_group_symop_operation_xyz
x,y,z
-x,-y,z
-x,y,z
x,-y,z
loop_
_atom_site_type_symbol
_atom_site_label
_atom_site_fract_x
_atom_site_fract_y
_atom_site_fract_z
Si Si1 0.668865 0.500000 0.542140
Si Si2 0.671060 0.500000 0.743088
Si Si3 0.340964 0.791902 0.068191
Si Si4 0.839870 0.208084 0.233305
Si Si5 0.329546 0.805567 0.869498
Si Si6 0.667504 0.201172 0.408391
O O1 0.500000 0.500000 0.551071
O O2 0.735478 0.500000 0.642314
O O3 0.718187 0.324012 0.490585
O O4 0.500000 0.500000 0.742444
O O5 0.729325 0.328019 0.794610
O O6 0.500000 0.713245 0.082798
O O7 0.236367 0.713661 0.144389
O O8 0.349529 0.000000 0.076139
O O9 0.280841 0.741919 0.969124
O O10 0.751733 0.266627 0.320749
O O11 0.000000 0.285132 0.239264
O O12 0.843718 0.000000 0.227478
O O13 0.500000 0.811341 0.869109
O O14 0.269059 0.000000 0.847749
O O15 0.500000 0.223975 0.387825
O O16 0.703917 0.000000 0.433573
#
# Coordination Sequence:
#
# PCOD8167030 Si02
#       6
#     2   2   4   4   4   4
#     4   9  18  30  44  65  90 116 151 191 228 269
#     4   9  16  26  41  63  90 114 141 185 230 261
#     4   8  13  23  40  62  90 123 153 180 216 264
#     4   9  16  26  43  68  94 120 152 187 222 263
#     4   8  14  24  39  61  89 119 147 175 214 264
#     4   9  17  30  47  66  91 122 151 182 224 270
#
# _framework density 18.875139000000001
#
# number of rings (size 3 to 8) (size 9 to 14) (size 15 to 20)
#    0.000    3.400    0.000    1.800    0.000    3.200 
#    0.000    5.500    0.000    3.600    0.000    2.800 
#    0.000    6.400    0.000    0.000    0.000    0.000 
#
# Total GULP energy -247879.632572 kJ/mol
# GULP energy per Si atom -12393.981629 kJ/mol
# Density = 1.883218 g / cm^3
# Si number density = 18.875139 Si / 1000 Ang^3
#
#
#
# Elastic Constant Matrix: (Units=GPa)
#
#
# Indices 1 2 3 4 5 6 
#
# 1 56.5295 21.6484 51.4374 0.0000 0.0000 0.0000
# 2 21.6484 88.1879 75.9562 0.0000 0.0000 0.0000
# 3 51.4374 75.9562 200.4283 0.0000 0.0000 0.0000
# 4 0.0000 0.0000 0.0000 10.8153 0.0000 0.0000
# 5 0.0000 0.0000 0.0000 0.0000 3.2502 0.0000
# 6 0.0000 0.0000 0.0000 0.0000 0.0000 4.3071
#
#
#
# Elastic Compliance Matrix: (Units=1/GPa)
#
#
# Indices 1 2 3 4 5 6 
#
# 1 0.023121 -0.000839 -0.005616 0.000000 0.000000 0.000000
# 2 -0.000839 0.016865 -0.006176 0.000000 0.000000 0.000000
# 3 -0.005616 -0.006176 0.008771 0.000000 0.000000 0.000000
# 4 0.000000 0.000000 0.000000 0.092462 0.000000 0.000000
# 5 0.000000 0.000000 0.000000 0.000000 0.307673 0.000000
# 6 0.000000 0.000000 0.000000 0.000000 0.000000 0.232174
#
#
# Mechanical properties :
#
#
# Convention : Reuss Voigt Hill
#
# Bulk Modulus (GPa) = 42.56121 71.46995 57.01558
# Shear Modulus (GPa) = 7.00125 16.74811 11.87468
#
# Velocity S-wave (km/s) = 1.92803 2.98201 2.51094
# Velocity P-wave (km/s) = 5.24921 7.05714 6.21922
#
# Compressibility (1/GPa) = 0.02349557
#
# Stress axis : x y z
#
# Youngs Moduli (GPa) = 43.25059 59.29565 114.01175
#
# Poissons Ratio (x) = 0.04974 0.64027
# Poissons Ratio (y) = 0.03628 0.70413
# Poissons Ratio (z) = 0.24289 0.36620
#
# Static dielectric constant tensor:
#      x y z
#    x 3.159490 0.000000 0.000000 
#    y 0.000000 3.392930 0.000000 
#    z 0.000000 0.000000 3.739820 
# 
# 
# High freq. dielectric constant tensor:
#      x y z
#    x 1.675450 0.000000 0.000000 
#    y 0.000000 1.721870 0.000000 
#    z 0.000000 0.000000 1.736120 
# 
# From -- ./inp_files/5129.got.cif
#   From: 2010.03.12/outbox.cif.g09.slc.cpg/sg25_3_cif.got.tgz:5129.got - 2010.04.14 03:30:10.
