data_PCOD8167960
_publ_section_title
;
Structure prediction by ZEFSAII (Michael W. Deem and Ramdas Pophale) SiO2 
 PCOD8167960
Probable space group: P C C 2
;
_chemical_formula_sum "Si O2"
_cell_formula_units_Z 18
_cell_length_a 7.766594
_cell_length_b 9.161405
_cell_length_c 10.347772
_cell_angle_alpha 90.000000
_cell_angle_beta 90.000000
_cell_angle_gamma 90.000000
_cell_volume 736.274122
_symmetry_space_group_name_H-M "P C C 2"
_symmetry_group_IT_number 27
_symmetry_cell_setting 'orthorhombic'
loop_
_space_group_symop_operation_xyz
x,y,z
-x,-y,z
-x,y,1/2+z
x,-y,1/2+z
loop_
_atom_site_type_symbol
_atom_site_label
_atom_site_fract_x
_atom_site_fract_y
_atom_site_fract_z
Si Si1 0.700296 0.530247 0.193340
Si Si2 0.177791 0.346501 0.932289
Si Si3 0.000000 0.000000 0.180400
Si Si4 0.690179 0.035570 0.493478
Si Si5 0.146195 0.780685 0.844476
O O1 0.500000 0.500000 0.180829
O O2 0.791504 0.414478 0.289188
O O3 0.725104 0.687324 0.258263
O O4 0.776976 0.537654 0.047121
O O5 0.296323 0.202344 0.945192
O O6 0.970862 0.311034 0.947217
O O7 0.989174 0.147808 0.263425
O O8 0.176011 0.005990 0.104941
O O9 0.500000 0.000000 0.545041
O O10 0.734967 0.914324 0.387481
#
# Coordination Sequence:
#
# PCOD8167960 Si02
#       5
#     4   4   2   4   4
#     4  12  28  49  75 114 159 209 264 324 399 482
#     4  12  26  50  75 115 157 213 263 325 398 480
#     4  12  22  48  78 112 152 196 266 332 402 470
#     4  12  25  46  78 114 151 201 263 334 402 470
#     4  12  24  49  78 110 156 203 265 330 405 471
#
# _framework density 24.447416
#
# number of rings (size 3 to 8) (size 9 to 14) (size 15 to 20)
#    0.000    0.000    6.667    2.667    0.000    8.000 
#    0.000    0.000    0.000    0.000    0.000    0.000 
#    0.000    0.000    0.000    0.000    0.000    0.000 
#
# Total GULP energy -223048.187656 kJ/mol
# GULP energy per Si atom -12391.565981 kJ/mol
# Density = 2.439177 g / cm^3
# Si number density = 24.447416 Si / 1000 Ang^3
#
#
#
# Elastic Constant Matrix: (Units=GPa)
#
#
# Indices 1 2 3 4 5 6 
#
# 1 163.8000 63.0131 60.3222 0.0000 0.0000 0.0000
# 2 63.0131 115.7009 50.8344 0.0000 0.0000 0.0000
# 3 60.3222 50.8344 116.4922 0.0000 0.0000 0.0000
# 4 0.0000 0.0000 0.0000 71.6668 0.0000 0.0000
# 5 0.0000 0.0000 0.0000 0.0000 -16.3794 0.0000
# 6 0.0000 0.0000 0.0000 0.0000 0.0000 45.7818
#
#
#
# Elastic Compliance Matrix: (Units=1/GPa)
#
#
# Indices 1 2 3 4 5 6 
#
# 1 0.008462 -0.003320 -0.002933 0.000000 0.000000 0.000000
# 2 -0.003320 0.011996 -0.003515 0.000000 0.000000 0.000000
# 3 -0.002933 -0.003515 0.011637 0.000000 0.000000 0.000000
# 4 0.000000 0.000000 0.000000 0.013953 0.000000 0.000000
# 5 0.000000 0.000000 0.000000 0.000000 -0.061052 0.000000
# 6 0.000000 0.000000 0.000000 0.000000 0.000000 0.021843
#
#
# Mechanical properties :
#
#
# Convention : Reuss Voigt Hill
#
# Bulk Modulus (GPa) = 79.63136 82.70364 81.16750
# Shear Modulus (GPa) = 163.59885 35.00207 99.30046
#
# Velocity S-wave (km/s) = 8.18926 3.78792 6.38014
# Velocity P-wave (km/s) = 11.04816 7.28243 9.35670
#
# Compressibility (1/GPa) = 0.01255787
#
# Stress axis : x y z
#
# Youngs Moduli (GPa) = 118.16931 83.36324 85.93128
#
# Poissons Ratio (x) = 0.27677 0.25206
# Poissons Ratio (y) = 0.39233 0.30209
# Poissons Ratio (z) = 0.34662 0.29306
#
# Static dielectric constant tensor:
#      x y z
#    x 4.279870 0.000000 0.000000 
#    y 0.000000 4.856050 0.000000 
#    z 0.000000 0.000000 4.714570 
# 
# 
# High freq. dielectric constant tensor:
#      x y z
#    x 1.969790 0.000000 0.000000 
#    y 0.000000 1.996180 0.000000 
#    z 0.000000 0.000000 1.972030 
# 
# From -- ./inp_files/2208.got.cif
#   From: 2010.03.12/outbox.cif.g09.slc.cpg/sg27_2_cif.got.tgz:2208.got - 2010.04.14 03:36:05.
