data_PCOD8167547
_publ_section_title
;
Structure prediction by ZEFSAII (Michael W. Deem and Ramdas Pophale) SiO2 
 PCOD8167547
Probable space group: P M C 21
;
_chemical_formula_sum "Si O2"
_cell_formula_units_Z 10
_cell_length_a 7.190717
_cell_length_b 11.480851
_cell_length_c 4.774131
_cell_angle_alpha 90.000000
_cell_angle_beta 90.000000
_cell_angle_gamma 90.000000
_cell_volume 394.131013
_symmetry_space_group_name_H-M "P M C 21"
_symmetry_group_IT_number 26
_symmetry_cell_setting 'orthorhombic'
loop_
_space_group_symop_operation_xyz
x,y,z
-x,-y,1/2+z
-x,y,z
x,-y,1/2+z
loop_
_atom_site_type_symbol
_atom_site_label
_atom_site_fract_x
_atom_site_fract_y
_atom_site_fract_z
Si Si1 0.500000 0.081114 0.737520
Si Si2 0.793973 0.768333 0.525085
Si Si3 0.000000 0.079072 0.405437
Si Si4 0.500000 0.579644 0.668391
O O1 0.317832 0.159006 0.793264
O O2 0.500000 0.037417 0.420163
O O3 0.817851 0.848710 0.805254
O O4 0.685994 0.652462 0.612209
O O5 0.000000 0.734593 0.402607
O O6 0.000000 0.953746 0.234422
O O7 0.500000 0.539183 0.989563
#
# Coordination Sequence:
#
# PCOD8167547 Si02
#       4
#     2   4   2   2
#     4  11  22  37  60  92 132 169 200 249 310 380
#     4   9  23  42  62  97 124 166 215 258 310 387
#     4  10  20  36  60  92 128 158 192 242 306 378
#     4  11  26  47  66  90 124 167 220 277 320 356
#
# _framework density 25.372271999999999
#
# number of rings (size 3 to 8) (size 9 to 14) (size 15 to 20)
#    1.200    0.800    0.000    2.400    0.000   11.200 
#    0.000    0.000    0.000    0.000    0.000    0.000 
#    0.000    0.000    0.000    0.000    0.000    0.000 
#
# Total GULP energy -123965.654900 kJ/mol
# GULP energy per Si atom -12396.565490 kJ/mol
# Density = 2.531452 g / cm^3
# Si number density = 25.372272 Si / 1000 Ang^3
#
#
#
# Elastic Constant Matrix: (Units=GPa)
#
#
# Indices 1 2 3 4 5 6 
#
# 1 197.9333 48.1054 3.8036 0.0000 0.0000 0.0000
# 2 48.1054 106.4726 -2.6390 0.0000 0.0000 0.0000
# 3 3.8036 -2.6390 54.7068 0.0000 0.0000 0.0000
# 4 0.0000 0.0000 0.0000 8.1074 0.0000 0.0000
# 5 0.0000 0.0000 0.0000 0.0000 22.8274 0.0000
# 6 0.0000 0.0000 0.0000 0.0000 0.0000 55.7813
#
#
#
# Elastic Compliance Matrix: (Units=1/GPa)
#
#
# Indices 1 2 3 4 5 6 
#
# 1 0.005690 -0.002584 -0.000520 0.000000 0.000000 0.000000
# 2 -0.002584 0.010577 0.000690 0.000000 0.000000 0.000000
# 3 -0.000520 0.000690 0.018349 0.000000 0.000000 0.000000
# 4 0.000000 0.000000 0.000000 0.123344 0.000000 0.000000
# 5 0.000000 0.000000 0.000000 0.000000 0.043807 0.000000
# 6 0.000000 0.000000 0.000000 0.000000 0.000000 0.017927
#
#
# Mechanical properties :
#
#
# Convention : Reuss Voigt Hill
#
# Bulk Modulus (GPa) = 33.57161 50.85030 42.21096
# Shear Modulus (GPa) = 21.32638 37.99939 29.66288
#
# Velocity S-wave (km/s) = 2.90235 3.87418 3.42293
# Velocity P-wave (km/s) = 4.94892 6.33226 5.68284
#
# Compressibility (1/GPa) = 0.02978707
#
# Stress axis : x y z
#
# Youngs Moduli (GPa) = 175.74206 94.54873 54.49973
#
# Poissons Ratio (x) = 0.24429 0.02835
# Poissons Ratio (y) = 0.45408 -0.03760
# Poissons Ratio (z) = 0.09143 -0.06522
#
# Static dielectric constant tensor:
#      x y z
#    x 4.906230 0.000000 0.000000 
#    y 0.000000 4.282310 0.000000 
#    z 0.000000 0.000000 4.178950 
# 
# 
# High freq. dielectric constant tensor:
#      x y z
#    x 2.037200 0.000000 0.000000 
#    y 0.000000 1.990240 0.000000 
#    z 0.000000 0.000000 2.007060 
# 
# From -- ./inp_files/58.got.cif
#   From: 2010.03.12/outbox.cif.g09.slc.cpg/sg26_1_cif.got.tgz:58.got - 2010.04.14 03:33:09.
