data_PCOD8167694
_publ_section_title
;
Structure prediction by ZEFSAII (Michael W. Deem and Ramdas Pophale) SiO2 
 PCOD8167694
Probable space group: P M C 21
;
_chemical_formula_sum "Si O2"
_cell_formula_units_Z 32
_cell_length_a 8.891116
_cell_length_b 11.896623
_cell_length_c 14.836773
_cell_angle_alpha 90.000000
_cell_angle_beta 90.000000
_cell_angle_gamma 90.000000
_cell_volume 1569.348612
_symmetry_space_group_name_H-M "P M C 21"
_symmetry_group_IT_number 26
_symmetry_cell_setting 'orthorhombic'
loop_
_space_group_symop_operation_xyz
x,y,z
-x,-y,1/2+z
-x,y,z
x,-y,1/2+z
loop_
_atom_site_type_symbol
_atom_site_label
_atom_site_fract_x
_atom_site_fract_y
_atom_site_fract_z
Si Si1 0.177722 0.484892 0.822570
Si Si2 0.668303 0.249376 0.090260
Si Si3 0.323594 0.905398 0.958162
Si Si4 0.676779 0.355182 0.459437
Si Si5 0.321959 0.499726 0.631190
Si Si6 0.330528 0.731468 0.384087
Si Si7 0.168909 0.967466 0.617726
Si Si8 0.829815 0.057387 0.815281
O O1 0.241927 0.596278 0.870600
O O2 0.240956 0.464641 0.722717
O O3 0.228239 0.378785 0.881535
O O4 0.000000 0.493740 0.818383
O O5 0.500000 0.237104 0.129826
O O6 0.729445 0.374113 0.107866
O O7 0.776091 0.159413 0.137428
O O8 0.668519 0.221709 0.984792
O O9 0.500000 0.921151 0.944130
O O10 0.276769 0.970020 0.048174
O O11 0.279217 0.775022 0.967918
O O12 0.241407 0.955575 0.871278
O O13 0.500000 0.373656 0.445670
O O14 0.731606 0.418145 0.550293
O O15 0.500000 0.490533 0.644039
O O16 0.500000 0.701983 0.352261
O O17 0.263721 0.828509 0.322329
O O18 0.174440 0.031860 0.710692
O O19 0.000000 0.964199 0.578559
O O20 0.000000 0.076530 0.849293
#
# Coordination Sequence:
#
# PCOD8167694 Si02
#       8
#     4   4   4   4   4   4   4   4
#     4  12  26  41  63  97 132 167 206 256 319 383
#     4  10  21  40  68  94 120 159 214 265 311 369
#     4  11  24  42  66  94 124 167 218 263 310 372
#     4  10  23  45  67  91 124 167 217 263 311 369
#     4  10  22  43  67  92 124 165 213 266 310 365
#     4  11  22  42  69  94 122 163 214 264 310 370
#     4  11  25  42  63  92 132 168 204 259 319 381
#     4  11  25  43  63  94 130 168 208 258 324 379
#
# _framework density 20.390625
#
# number of rings (size 3 to 8) (size 9 to 14) (size 15 to 20)
#    0.000    1.250    2.500    2.625    3.500    4.500 
#    0.000    0.000    0.000    0.000    0.000    0.000 
#    0.000    0.000    0.000    0.000    0.000    0.000 
#
# Total GULP energy -396968.801012 kJ/mol
# GULP energy per Si atom -12405.275032 kJ/mol
# Density = 2.034422 g / cm^3
# Si number density = 20.390625 Si / 1000 Ang^3
#
#
#
# Elastic Constant Matrix: (Units=GPa)
#
#
# Indices 1 2 3 4 5 6 
#
# 1 68.7877 24.0743 22.7942 0.0000 0.0000 0.0000
# 2 24.0743 101.5520 6.4906 0.0000 0.0000 0.0000
# 3 22.7942 6.4906 63.8437 0.0000 0.0000 0.0000
# 4 0.0000 0.0000 0.0000 29.6378 0.0000 0.0000
# 5 0.0000 0.0000 0.0000 0.0000 29.1670 0.0000
# 6 0.0000 0.0000 0.0000 0.0000 0.0000 25.1361
#
#
#
# Elastic Compliance Matrix: (Units=1/GPa)
#
#
# Indices 1 2 3 4 5 6 
#
# 1 0.017871 -0.003854 -0.005989 0.000000 0.000000 0.000000
# 2 -0.003854 0.010743 0.000284 0.000000 0.000000 0.000000
# 3 -0.005989 0.000284 0.017773 0.000000 0.000000 0.000000
# 4 0.000000 0.000000 0.000000 0.033741 0.000000 0.000000
# 5 0.000000 0.000000 0.000000 0.000000 0.034285 0.000000
# 6 0.000000 0.000000 0.000000 0.000000 0.000000 0.039783
#
#
# Mechanical properties :
#
#
# Convention : Reuss Voigt Hill
#
# Bulk Modulus (GPa) = 36.67212 37.87795 37.27503
# Shear Modulus (GPa) = 27.41201 28.84315 28.12758
#
# Velocity S-wave (km/s) = 3.67051 3.76510 3.71811
# Velocity P-wave (km/s) = 5.99894 6.12518 6.06239
#
# Compressibility (1/GPa) = 0.02726867
#
# Stress axis : x y z
#
# Youngs Moduli (GPa) = 55.95772 93.08720 56.26669
#
# Poissons Ratio (x) = 0.35873 0.33696
# Poissons Ratio (y) = 0.21565 -0.01597
# Poissons Ratio (z) = 0.33511 -0.02642
#
# Static dielectric constant tensor:
#      x y z
#    x 3.806070 0.000000 0.000000 
#    y 0.000000 3.789280 0.000000 
#    z 0.000000 0.000000 3.619950 
# 
# 
# High freq. dielectric constant tensor:
#      x y z
#    x 1.796990 0.000000 0.000000 
#    y 0.000000 1.809240 0.000000 
#    z 0.000000 0.000000 1.798610 
# 
# From -- ./inp_files/4194.got.cif
#   From: 2010.03.12/outbox.cif.g09.slc.cpg/sg26_3_cif.got.tgz:4194.got - 2010.04.14 03:33:09.
