data_PCOD8167844
_publ_section_title
;
Structure prediction by ZEFSAII (Michael W. Deem and Ramdas Pophale) SiO2 
 PCOD8167844
Probable space group: P C C 2
;
_chemical_formula_sum "Si O2"
_cell_formula_units_Z 18
_cell_length_a 5.271372
_cell_length_b 5.436793
_cell_length_c 24.186478
_cell_angle_alpha 90.000000
_cell_angle_beta 90.000000
_cell_angle_gamma 90.000000
_cell_volume 693.168941
_symmetry_space_group_name_H-M "P C C 2"
_symmetry_group_IT_number 27
_symmetry_cell_setting 'orthorhombic'
loop_
_space_group_symop_operation_xyz
x,y,z
-x,-y,z
-x,y,1/2+z
x,-y,1/2+z
loop_
_atom_site_type_symbol
_atom_site_label
_atom_site_fract_x
_atom_site_fract_y
_atom_site_fract_z
Si Si1 0.747896 0.636888 0.316570
Si Si2 0.249411 0.161746 0.432472
Si Si3 0.249159 0.160072 0.552359
Si Si4 0.000000 0.000000 0.746264
Si Si5 0.350518 0.261081 0.669170
O O1 0.500000 0.500000 0.293889
O O2 0.737046 0.643715 0.383131
O O3 0.771163 0.901451 0.285945
O O4 0.000000 0.500000 0.297667
O O5 0.233865 0.299555 0.492625
O O6 0.500000 0.000000 0.428191
O O7 0.000000 0.000000 0.423393
O O8 0.265335 0.334135 0.606285
O O9 0.500000 0.000000 0.549811
O O10 0.000000 0.000000 0.560327
O O11 0.894183 0.779696 0.707727
O O12 0.500000 0.500000 0.692080
O O13 0.500000 0.000000 0.669309
#
# Coordination Sequence:
#
# PCOD8167844 Si02
#       5
#     4   4   4   2   4
#     4  12  29  47  76 111 151 205 265 324 402 474
#     4  10  20  42  74 107 153 194 249 323 397 473
#     4   9  19  42  73 110 150 196 250 324 397 477
#     4  12  30  50  74 108 162 212 270 344 386 486
#     4  11  27  49  79 112 156 209 268 328 404 476
#
# _framework density 25.967697999999999
#
# number of rings (size 3 to 8) (size 9 to 14) (size 15 to 20)
#    0.000    1.333    2.222    1.333    6.222    0.889 
#    0.000    4.444    0.000    0.000    0.000    0.000 
#    0.000    0.000    0.000    0.000    0.000    0.000 
#
# Total GULP energy -223067.319481 kJ/mol
# GULP energy per Si atom -12392.628860 kJ/mol
# Density = 2.590859 g / cm^3
# Si number density = 25.967698 Si / 1000 Ang^3
#
#
#
# Elastic Constant Matrix: (Units=GPa)
#
#
# Indices 1 2 3 4 5 6 
#
# 1 190.4316 46.0562 35.7930 0.0000 0.0000 0.0000
# 2 46.0562 99.3128 43.4540 0.0000 0.0000 0.0000
# 3 35.7930 43.4540 203.2261 0.0000 0.0000 0.0000
# 4 0.0000 0.0000 0.0000 -76.3430 0.0000 0.0000
# 5 0.0000 0.0000 0.0000 0.0000 33.8589 0.0000
# 6 0.0000 0.0000 0.0000 0.0000 0.0000 47.5218
#
#
#
# Elastic Compliance Matrix: (Units=1/GPa)
#
#
# Indices 1 2 3 4 5 6 
#
# 1 0.005961 -0.002543 -0.000506 0.000000 0.000000 0.000000
# 2 -0.002543 0.012193 -0.002159 0.000000 0.000000 0.000000
# 3 -0.000506 -0.002159 0.005471 0.000000 0.000000 0.000000
# 4 0.000000 0.000000 0.000000 -0.013099 0.000000 0.000000
# 5 0.000000 0.000000 0.000000 0.000000 0.029534 0.000000
# 6 0.000000 0.000000 0.000000 0.000000 0.000000 0.021043
#
#
# Mechanical properties :
#
#
# Convention : Reuss Voigt Hill
#
# Bulk Modulus (GPa) = 75.70552 82.61964 79.16258
# Shear Modulus (GPa) = 65.85450 25.51872 45.68661
#
# Velocity S-wave (km/s) = 5.04135 3.13822 4.19903
# Velocity P-wave (km/s) = 7.94380 6.70944 7.35257
#
# Compressibility (1/GPa) = 0.01320908
#
# Stress axis : x y z
#
# Youngs Moduli (GPa) = 167.74498 82.01189 182.76602
#
# Poissons Ratio (x) = 0.20857 0.09251
# Poissons Ratio (y) = 0.42660 0.39464
# Poissons Ratio (z) = 0.08491 0.17709
#
# Static dielectric constant tensor:
#      x y z
#    x 4.793820 0.000000 0.000000 
#    y 0.000000 4.263160 0.000000 
#    z 0.000000 0.000000 5.664740 
# 
# 
# High freq. dielectric constant tensor:
#      x y z
#    x 2.057170 0.000000 0.000000 
#    y 0.000000 1.987430 0.000000 
#    z 0.000000 0.000000 2.082060 
# 
# From -- ./inp_files/4906.got.cif
#   From: 2010.03.12/outbox.cif.g09.slc.cpg/sg27_3_cif.got.tgz:4906.got - 2010.04.14 03:36:05.
