data_PCOD8167940
_publ_section_title
;
Structure prediction by ZEFSAII (Michael W. Deem and Ramdas Pophale) SiO2 
 PCOD8167940
Probable space group: P C C 2
;
_chemical_formula_sum "Si O2"
_cell_formula_units_Z 32
_cell_length_a 11.149788
_cell_length_b 13.654213
_cell_length_c 9.633122
_cell_angle_alpha 90.000000
_cell_angle_beta 90.000000
_cell_angle_gamma 90.000000
_cell_volume 1466.561716
_symmetry_space_group_name_H-M "P C C 2"
_symmetry_group_IT_number 27
_symmetry_cell_setting 'orthorhombic'
loop_
_space_group_symop_operation_xyz
x,y,z
-x,-y,z
-x,y,1/2+z
x,-y,1/2+z
loop_
_atom_site_type_symbol
_atom_site_label
_atom_site_fract_x
_atom_site_fract_y
_atom_site_fract_z
Si Si1 0.871276 0.743323 0.753030
Si Si2 0.613778 0.173189 0.331174
Si Si3 0.602104 0.787659 0.149332
Si Si4 0.212673 0.617610 0.625677
Si Si5 0.047267 0.218921 0.036332
Si Si6 0.714627 0.025606 0.798452
Si Si7 0.862762 0.983752 0.053930
Si Si8 0.134941 0.467255 0.844544
O O1 0.744443 0.782844 0.804049
O O2 0.864373 0.625975 0.740376
O O3 0.917929 0.798346 0.612060
O O4 0.971224 0.764890 0.872648
O O5 0.522869 0.229687 0.229708
O O6 0.575247 0.181759 0.491590
O O7 0.611030 0.056685 0.298751
O O8 0.670007 0.684129 0.145730
O O9 0.668577 0.872632 0.237243
O O10 0.095676 0.685339 0.613605
O O11 0.203067 0.552250 0.762170
O O12 0.213347 0.554117 0.483210
O O13 0.148428 0.134648 0.052886
O O14 0.825114 0.981935 0.706712
O O15 0.771127 0.037586 0.950750
O O16 0.000000 0.000000 0.013435
O O17 0.000000 0.500000 0.884556
#
# Coordination Sequence:
#
# PCOD8167940 Si02
#       8
#     4   4   4   4   4   4   4   4
#     4  11  23  44  71 104 145 180 233 292 356 425
#     4  12  26  51  70 102 139 192 243 298 344 417
#     4  12  27  50  74  96 145 189 244 304 344 409
#     4  11  23  46  68 106 140 177 234 291 355 422
#     4  11  22  43  67  99 151 179 221 293 360 425
#     4  12  23  46  70 101 140 191 245 293 344 423
#     4  12  25  39  65 104 148 191 229 287 363 436
#     4  11  22  40  77 108 139 181 229 289 363 439
#
# _framework density 21.819742999999999
#
# number of rings (size 3 to 8) (size 9 to 14) (size 15 to 20)
#    0.000    0.500    7.500    1.875    5.250    1.000 
#    4.500    0.625    0.000    0.000    0.000    0.000 
#    0.000    0.000    0.000    0.000    0.000    0.000 
#
# Total GULP energy -396663.853338 kJ/mol
# GULP energy per Si atom -12395.745417 kJ/mol
# Density = 2.177008 g / cm^3
# Si number density = 21.819743 Si / 1000 Ang^3
#
#
#
# Elastic Constant Matrix: (Units=GPa)
#
#
# Indices 1 2 3 4 5 6 
#
# 1 87.1402 32.3176 59.1158 0.0000 0.0000 0.0000
# 2 32.3176 86.3712 58.9791 0.0000 0.0000 0.0000
# 3 59.1158 58.9791 129.3779 0.0000 0.0000 0.0000
# 4 0.0000 0.0000 0.0000 33.7299 0.0000 0.0000
# 5 0.0000 0.0000 0.0000 0.0000 39.1445 0.0000
# 6 0.0000 0.0000 0.0000 0.0000 0.0000 30.5383
#
#
#
# Elastic Compliance Matrix: (Units=1/GPa)
#
#
# Indices 1 2 3 4 5 6 
#
# 1 0.016766 -0.001513 -0.006971 0.000000 0.000000 0.000000
# 2 -0.001513 0.016948 -0.007034 0.000000 0.000000 0.000000
# 3 -0.006971 -0.007034 0.014121 0.000000 0.000000 0.000000
# 4 0.000000 0.000000 0.000000 0.029647 0.000000 0.000000
# 5 0.000000 0.000000 0.000000 0.000000 0.025546 0.000000
# 6 0.000000 0.000000 0.000000 0.000000 0.000000 0.032746
#
#
# Mechanical properties :
#
#
# Convention : Reuss Voigt Hill
#
# Bulk Modulus (GPa) = 59.53194 67.07936 63.30565
# Shear Modulus (GPa) = 29.00048 30.84767 29.92407
#
# Velocity S-wave (km/s) = 3.64963 3.76407 3.70729
# Velocity P-wave (km/s) = 6.71584 7.04983 6.88486
#
# Compressibility (1/GPa) = 0.01679771
#
# Stress axis : x y z
#
# Youngs Moduli (GPa) = 59.64431 59.00521 70.81505
#
# Poissons Ratio (x) = 0.08929 0.49365
# Poissons Ratio (y) = 0.09025 0.49815
# Poissons Ratio (z) = 0.41578 0.41507
#
# Static dielectric constant tensor:
#      x y z
#    x 3.738320 0.000000 0.000000 
#    y 0.000000 4.244400 0.000000 
#    z 0.000000 0.000000 4.014540 
# 
# 
# High freq. dielectric constant tensor:
#      x y z
#    x 1.836580 0.000000 0.000000 
#    y 0.000000 1.863610 0.000000 
#    z 0.000000 0.000000 1.868040 
# 
# From -- ./inp_files/1491.got.cif
#   From: 2010.03.12/outbox.cif.g09.slc.cpg/sg27_1_cif.got.tgz:1491.got - 2010.04.14 03:36:05.
