data_PCOD8167953
_publ_section_title
;
Structure prediction by ZEFSAII (Michael W. Deem and Ramdas Pophale) SiO2 
 PCOD8167953
Probable space group: P C C 2
;
_chemical_formula_sum "Si O2"
_cell_formula_units_Z 20
_cell_length_a 8.571495
_cell_length_b 9.601456
_cell_length_c 9.801013
_cell_angle_alpha 90.000000
_cell_angle_beta 90.000000
_cell_angle_gamma 90.000000
_cell_volume 806.611923
_symmetry_space_group_name_H-M "P C C 2"
_symmetry_group_IT_number 27
_symmetry_cell_setting 'orthorhombic'
loop_
_space_group_symop_operation_xyz
x,y,z
-x,-y,z
-x,y,1/2+z
x,-y,1/2+z
loop_
_atom_site_type_symbol
_atom_site_label
_atom_site_fract_x
_atom_site_fract_y
_atom_site_fract_z
Si Si1 0.291219 0.387463 0.737010
Si Si2 0.339599 0.383177 0.041132
Si Si3 0.893580 0.126487 0.951764
Si Si4 0.420642 0.857894 0.092669
Si Si5 0.967858 0.290868 0.688238
O O1 0.390634 0.481479 0.630532
O O2 0.338448 0.224398 0.717944
O O3 0.105444 0.403835 0.711877
O O4 0.329458 0.440045 0.887823
O O5 0.447609 0.247161 0.037976
O O6 0.171575 0.349246 0.099731
O O7 0.707568 0.100496 0.976286
O O8 0.963379 0.166089 0.098096
O O9 0.904857 0.243791 0.835734
O O10 0.000000 0.000000 0.897329
O O11 0.500000 0.000000 0.146438
#
# Coordination Sequence:
#
# PCOD8167953 Si02
#       5
#     4   4   4   4   4
#     4  11  28  48  79 111 156 206 266 324 393 467
#     4  12  27  50  77 116 156 204 264 326 396 471
#     4  11  24  47  76 115 157 205 259 321 392 470
#     4  11  28  49  79 115 159 211 255 324 396 472
#     4  11  24  46  77 113 150 202 267 325 381 471
#
# _framework density 24.795072000000001
#
# number of rings (size 3 to 8) (size 9 to 14) (size 15 to 20)
#    0.000    0.800    2.000    3.000    8.400    5.600 
#    0.000    0.000    0.000    0.000    0.000    0.000 
#    0.000    0.000    0.000    0.000    0.000    0.000 
#
# Total GULP energy -247855.629862 kJ/mol
# GULP energy per Si atom -12392.781493 kJ/mol
# Density = 2.473864 g / cm^3
# Si number density = 24.795072 Si / 1000 Ang^3
#
#
#
# Elastic Constant Matrix: (Units=GPa)
#
#
# Indices 1 2 3 4 5 6 
#
# 1 153.8122 67.0644 47.6379 0.0000 0.0000 0.0000
# 2 67.0644 130.5026 47.9692 0.0000 0.0000 0.0000
# 3 47.6379 47.9692 171.4959 0.0000 0.0000 0.0000
# 4 0.0000 0.0000 0.0000 93.1153 0.0000 0.0000
# 5 0.0000 0.0000 0.0000 0.0000 135.8523 0.0000
# 6 0.0000 0.0000 0.0000 0.0000 0.0000 41.2971
#
#
#
# Elastic Compliance Matrix: (Units=1/GPa)
#
#
# Indices 1 2 3 4 5 6 
#
# 1 0.008627 -0.003960 -0.001289 0.000000 0.000000 0.000000
# 2 -0.003960 0.010358 -0.001797 0.000000 0.000000 0.000000
# 3 -0.001289 -0.001797 0.006692 0.000000 0.000000 0.000000
# 4 0.000000 0.000000 0.000000 0.010739 0.000000 0.000000
# 5 0.000000 0.000000 0.000000 0.000000 0.007361 0.000000
# 6 0.000000 0.000000 0.000000 0.000000 0.000000 0.024215
#
#
# Mechanical properties :
#
#
# Convention : Reuss Voigt Hill
#
# Bulk Modulus (GPa) = 86.31643 86.79487 86.55565
# Shear Modulus (GPa) = 58.17626 73.59555 65.88590
#
# Velocity S-wave (km/s) = 4.84910 5.45399 5.16041
# Velocity P-wave (km/s) = 8.13875 8.64535 8.39587
#
# Compressibility (1/GPa) = 0.01158528
#
# Stress axis : x y z
#
# Youngs Moduli (GPa) = 115.91409 96.54199 149.43639
#
# Poissons Ratio (x) = 0.38227 0.19260
# Poissons Ratio (y) = 0.45898 0.26860
# Poissons Ratio (z) = 0.14940 0.17352
#
# Static dielectric constant tensor:
#      x y z
#    x 4.583910 0.000000 0.000000 
#    y 0.000000 1.658670 0.000000 
#    z 0.000000 0.000000 4.278990 
# 
# 
# High freq. dielectric constant tensor:
#      x y z
#    x 2.028390 0.000000 0.000000 
#    y 0.000000 1.981100 0.000000 
#    z 0.000000 0.000000 1.974930 
# 
# From -- ./inp_files/1062.got.cif
#   From: 2010.03.12/outbox.cif.g09.slc.cpg/sg27_1_cif.got.tgz:1062.got - 2010.04.14 03:36:05.
