data_PCOD8167929
_publ_section_title
;
Structure prediction by ZEFSAII (Michael W. Deem and Ramdas Pophale) SiO2 
 PCOD8167929
Probable space group: P C C 2
;
_chemical_formula_sum "Si O2"
_cell_formula_units_Z 14
_cell_length_a 7.959638
_cell_length_b 7.256886
_cell_length_c 9.504078
_cell_angle_alpha 90.000000
_cell_angle_beta 90.000000
_cell_angle_gamma 90.000000
_cell_volume 548.976317
_symmetry_space_group_name_H-M "P C C 2"
_symmetry_group_IT_number 27
_symmetry_cell_setting 'orthorhombic'
loop_
_space_group_symop_operation_xyz
x,y,z
-x,-y,z
-x,y,1/2+z
x,-y,1/2+z
loop_
_atom_site_type_symbol
_atom_site_label
_atom_site_fract_x
_atom_site_fract_y
_atom_site_fract_z
Si Si1 0.800100 0.710764 0.913190
Si Si2 0.687115 0.425581 0.117041
Si Si3 0.000000 0.000000 0.279331
Si Si4 0.681394 0.019399 0.088578
O O1 0.726813 0.597797 0.781711
O O2 0.817134 0.568779 0.043443
O O3 0.975224 0.814247 0.873933
O O4 0.677999 0.882014 0.954794
O O5 0.500000 0.500000 0.095815
O O6 0.707634 0.229743 0.039642
O O7 0.834100 0.959576 0.188970
O O8 0.500000 0.000000 0.165811
#
# Coordination Sequence:
#
# PCOD8167929 Si02
#       4
#     4   4   2   4
#     4  11  25  48  80 116 168 206 276 339 414 492
#     4  11  24  46  79 123 156 213 276 338 415 494
#     4  10  26  50  76 118 164 216 278 338 414 496
#     4  11  24  48  80 116 165 219 272 342 418 493
#
# _framework density 25.502009000000001
#
# number of rings (size 3 to 8) (size 9 to 14) (size 15 to 20)
#    0.000    1.143    2.857    1.714    0.000    9.143 
#    0.000   24.286    0.000    1.714    0.000    0.000 
#    0.000    0.000    0.000    0.000    0.000    0.000 
#
# Total GULP energy -173474.897761 kJ/mol
# GULP energy per Si atom -12391.064126 kJ/mol
# Density = 2.544397 g / cm^3
# Si number density = 25.502009 Si / 1000 Ang^3
#
#
#
# Elastic Constant Matrix: (Units=GPa)
#
#
# Indices 1 2 3 4 5 6 
#
# 1 171.2437 55.5081 63.9800 0.0000 0.0000 0.0000
# 2 55.5081 223.5376 96.1476 0.0000 0.0000 0.0000
# 3 63.9800 96.1476 147.1443 0.0000 0.0000 0.0000
# 4 0.0000 0.0000 0.0000 60.7821 0.0000 0.0000
# 5 0.0000 0.0000 0.0000 0.0000 13.7155 0.0000
# 6 0.0000 0.0000 0.0000 0.0000 0.0000 52.1004
#
#
#
# Elastic Compliance Matrix: (Units=1/GPa)
#
#
# Indices 1 2 3 4 5 6 
#
# 1 0.007030 -0.000599 -0.002665 0.000000 0.000000 0.000000
# 2 -0.000599 0.006273 -0.003839 0.000000 0.000000 0.000000
# 3 -0.002665 -0.003839 0.010463 0.000000 0.000000 0.000000
# 4 0.000000 0.000000 0.000000 0.016452 0.000000 0.000000
# 5 0.000000 0.000000 0.000000 0.000000 0.072910 0.000000
# 6 0.000000 0.000000 0.000000 0.000000 0.000000 0.019194
#
#
# Mechanical properties :
#
#
# Convention : Reuss Voigt Hill
#
# Bulk Modulus (GPa) = 104.59927 108.13301 106.36614
# Shear Modulus (GPa) = 33.39684 47.07224 40.23454
#
# Velocity S-wave (km/s) = 3.62273 4.30097 3.97634
# Velocity P-wave (km/s) = 7.65533 8.19501 7.92976
#
# Compressibility (1/GPa) = 0.00956030
#
# Stress axis : x y z
#
# Youngs Moduli (GPa) = 142.25621 159.40344 95.57474
#
# Poissons Ratio (x) = 0.09553 0.25470
# Poissons Ratio (y) = 0.08526 0.36687
# Poissons Ratio (z) = 0.37910 0.61188
#
# Static dielectric constant tensor:
#      x y z
#    x 4.606940 0.000000 0.000000 
#    y 0.000000 5.134310 0.000000 
#    z 0.000000 0.000000 4.520300 
# 
# 
# High freq. dielectric constant tensor:
#      x y z
#    x 2.011740 0.000000 0.000000 
#    y 0.000000 2.040790 0.000000 
#    z 0.000000 0.000000 2.005940 
# 
# From -- ./inp_files/925.got.cif
#   From: 2010.03.12/outbox.cif.g09.slc.cpg/sg27_1_cif.got.tgz:925.got - 2010.04.14 03:36:05.
