data_PCOD8167826
_publ_section_title
;
Structure prediction by ZEFSAII (Michael W. Deem and Ramdas Pophale) SiO2 
 PCOD8167826
Probable space group: P C C 2
;
_chemical_formula_sum "Si O2"
_cell_formula_units_Z 30
_cell_length_a 7.924874
_cell_length_b 12.287269
_cell_length_c 15.357784
_cell_angle_alpha 90.000000
_cell_angle_beta 90.000000
_cell_angle_gamma 90.000000
_cell_volume 1495.465117
_symmetry_space_group_name_H-M "P C C 2"
_symmetry_group_IT_number 27
_symmetry_cell_setting 'orthorhombic'
loop_
_space_group_symop_operation_xyz
x,y,z
-x,-y,z
-x,y,1/2+z
x,-y,1/2+z
loop_
_atom_site_type_symbol
_atom_site_label
_atom_site_fract_x
_atom_site_fract_y
_atom_site_fract_z
Si Si1 0.649485 0.424245 0.645360
Si Si2 0.078969 0.727009 0.029183
Si Si3 0.531092 0.268699 0.029218
Si Si4 0.451185 0.878597 0.876451
Si Si5 0.947363 0.119553 0.878564
Si Si6 0.402744 0.196798 0.197235
Si Si7 0.039212 0.878623 0.682342
Si Si8 0.000000 0.500000 0.088521
O O1 0.500000 0.500000 0.681414
O O2 0.586676 0.374509 0.550527
O O3 0.664255 0.321794 0.711489
O O4 0.825274 0.492152 0.644132
O O5 0.275061 0.701104 0.014582
O O6 0.993393 0.608753 0.030886
O O7 0.046591 0.789752 0.119951
O O8 0.990111 0.793014 0.950241
O O9 0.524098 0.188438 0.113304
O O10 0.462338 0.203872 0.945037
O O11 0.251870 0.868618 0.877926
O O12 0.511171 0.845236 0.779597
O O13 0.500000 0.000000 0.901254
O O14 0.023661 0.142467 0.782300
O O15 0.000000 0.000000 0.910871
O O16 0.240779 0.123433 0.179088
O O17 0.000000 0.000000 0.650286
#
# Coordination Sequence:
#
# PCOD8167826 Si02
#       8
#     4   4   4   4   4   4   4   2
#     4  10  20  40  62  87 120 156 201 253 304 356
#     4  11  20  36  60  85 116 159 202 245 310 364
#     4   9  21  37  57  83 119 151 199 254 297 363
#     4  10  21  36  59  83 117 159 195 243 309 362
#     4   9  21  38  55  82 122 151 198 252 297 367
#     4   9  20  38  56  83 121 149 196 251 297 365
#     4  10  20  36  58  84 117 158 195 248 305 365
#     4  12  20  36  68  88 112 166 200 248 308 362
#
# _framework density 20.060649000000002
#
# number of rings (size 3 to 8) (size 9 to 14) (size 15 to 20)
#    0.800    1.333    2.667    0.400    0.000    8.000 
#    0.000    1.333    0.000    0.000    0.000    0.000 
#    0.000    0.000    0.000    0.000    0.000    0.000 
#
# Total GULP energy -371701.599161 kJ/mol
# GULP energy per Si atom -12390.053305 kJ/mol
# Density = 2.001499 g / cm^3
# Si number density = 20.060649 Si / 1000 Ang^3
#
#
#
# Elastic Constant Matrix: (Units=GPa)
#
#
# Indices 1 2 3 4 5 6 
#
# 1 58.2227 17.3269 11.1033 0.0000 0.0000 0.0000
# 2 17.3269 124.4942 35.6885 0.0000 0.0000 0.0000
# 3 11.1033 35.6885 83.8216 0.0000 0.0000 0.0000
# 4 0.0000 0.0000 0.0000 21.7987 0.0000 0.0000
# 5 0.0000 0.0000 0.0000 0.0000 15.4209 0.0000
# 6 0.0000 0.0000 0.0000 0.0000 0.0000 37.1211
#
#
#
# Elastic Compliance Matrix: (Units=1/GPa)
#
#
# Indices 1 2 3 4 5 6 
#
# 1 0.018083 -0.002085 -0.001508 0.000000 0.000000 0.000000
# 2 -0.002085 0.009389 -0.003722 0.000000 0.000000 0.000000
# 3 -0.001508 -0.003722 0.013714 0.000000 0.000000 0.000000
# 4 0.000000 0.000000 0.000000 0.045874 0.000000 0.000000
# 5 0.000000 0.000000 0.000000 0.000000 0.064847 0.000000
# 6 0.000000 0.000000 0.000000 0.000000 0.000000 0.026939
#
#
# Mechanical properties :
#
#
# Convention : Reuss Voigt Hill
#
# Bulk Modulus (GPa) = 37.65175 43.86397 40.75786
# Shear Modulus (GPa) = 24.71227 28.36279 26.53753
#
# Velocity S-wave (km/s) = 3.51362 3.76420 3.64107
# Velocity P-wave (km/s) = 5.93889 6.38791 6.16749
#
# Compressibility (1/GPa) = 0.02655919
#
# Stress axis : x y z
#
# Youngs Moduli (GPa) = 55.29953 106.50207 72.91622
#
# Poissons Ratio (x) = 0.22201 0.10995
# Poissons Ratio (y) = 0.11527 0.27137
# Poissons Ratio (z) = 0.08338 0.39636
#
# Static dielectric constant tensor:
#      x y z
#    x 3.534470 0.000000 0.000000 
#    y 0.000000 3.539290 0.000000 
#    z 0.000000 0.000000 3.781690 
# 
# 
# High freq. dielectric constant tensor:
#      x y z
#    x 1.776780 0.000000 0.000000 
#    y 0.000000 1.783250 0.000000 
#    z 0.000000 0.000000 1.761560 
# 
# From -- ./inp_files/3410.got.cif
#   From: 2010.03.12/outbox.cif.g09.slc.cpg/sg27_2_cif.got.tgz:3410.got - 2010.04.14 03:36:05.
