data_PCOD8167943
_publ_section_title
;
Structure prediction by ZEFSAII (Michael W. Deem and Ramdas Pophale) SiO2 
 PCOD8167943
Probable space group: P C C 2
;
_chemical_formula_sum "Si O2"
_cell_formula_units_Z 20
_cell_length_a 10.723547
_cell_length_b 9.102422
_cell_length_c 8.653517
_cell_angle_alpha 90.000000
_cell_angle_beta 90.000000
_cell_angle_gamma 90.000000
_cell_volume 844.671959
_symmetry_space_group_name_H-M "P C C 2"
_symmetry_group_IT_number 27
_symmetry_cell_setting 'orthorhombic'
loop_
_space_group_symop_operation_xyz
x,y,z
-x,-y,z
-x,y,1/2+z
x,-y,1/2+z
loop_
_atom_site_type_symbol
_atom_site_label
_atom_site_fract_x
_atom_site_fract_y
_atom_site_fract_z
Si Si1 0.750599 0.128169 0.758060
Si Si2 0.260217 0.664585 0.185054
Si Si3 0.304195 0.639847 0.529033
Si Si4 0.453491 0.160859 0.512635
Si Si5 0.122490 0.091551 0.562608
O O1 0.777138 0.272605 0.655259
O O2 0.619216 0.149596 0.847521
O O3 0.757409 0.993255 0.637049
O O4 0.862315 0.099502 0.878435
O O5 0.236780 0.632422 0.363966
O O6 0.309398 0.525472 0.089287
O O7 0.129728 0.739650 0.125412
O O8 0.366766 0.784593 0.152119
O O9 0.435735 0.720147 0.499884
O O10 0.500000 0.000000 0.561036
O O11 0.000000 0.000000 0.606470
#
# Coordination Sequence:
#
# PCOD8167943 Si02
#       5
#     4   4   4   4   4
#     4  11  24  41  67 101 138 181 236 287 345 423
#     4  11  24  41  65  98 139 185 234 284 349 422
#     4  12  24  42  65  99 145 185 225 286 353 428
#     4  11  23  40  64 100 143 189 233 282 348 425
#     4  11  23  44  71 100 134 180 237 299 350 398
#
# _framework density 23.677831000000001
#
# number of rings (size 3 to 8) (size 9 to 14) (size 15 to 20)
#    0.000    0.800    0.000    9.600    0.000    4.800 
#    0.000    2.000    0.000    7.200    0.000    0.000 
#    0.000    0.000    0.000    0.000    0.000    0.000 
#
# Total GULP energy -247795.181159 kJ/mol
# GULP energy per Si atom -12389.759058 kJ/mol
# Density = 2.362394 g / cm^3
# Si number density = 23.677831 Si / 1000 Ang^3
#
#
#
# Elastic Constant Matrix: (Units=GPa)
#
#
# Indices 1 2 3 4 5 6 
#
# 1 87.9472 62.9947 35.0978 0.0000 0.0000 0.0000
# 2 62.9947 188.3681 67.9804 0.0000 0.0000 0.0000
# 3 35.0978 67.9804 178.0676 0.0000 0.0000 0.0000
# 4 0.0000 0.0000 0.0000 49.5612 0.0000 0.0000
# 5 0.0000 0.0000 0.0000 0.0000 10.7427 0.0000
# 6 0.0000 0.0000 0.0000 0.0000 0.0000 40.1281
#
#
#
# Elastic Compliance Matrix: (Units=1/GPa)
#
#
# Indices 1 2 3 4 5 6 
#
# 1 0.015178 -0.004635 -0.001222 0.000000 0.000000 0.000000
# 2 -0.004635 0.007572 -0.001977 0.000000 0.000000 0.000000
# 3 -0.001222 -0.001977 0.006612 0.000000 0.000000 0.000000
# 4 0.000000 0.000000 0.000000 0.020177 0.000000 0.000000
# 5 0.000000 0.000000 0.000000 0.000000 0.093087 0.000000
# 6 0.000000 0.000000 0.000000 0.000000 0.000000 0.024920
#
#
# Mechanical properties :
#
#
# Convention : Reuss Voigt Hill
#
# Bulk Modulus (GPa) = 73.02858 87.39209 80.21034
# Shear Modulus (GPa) = 26.62700 39.30706 32.96703
#
# Velocity S-wave (km/s) = 3.35708 4.07883 3.73542
# Velocity P-wave (km/s) = 6.77762 7.69229 7.24940
#
# Compressibility (1/GPa) = 0.01369327
#
# Stress axis : x y z
#
# Youngs Moduli (GPa) = 65.88473 132.05958 151.24854
#
# Poissons Ratio (x) = 0.61207 0.18486
# Poissons Ratio (y) = 0.30536 0.29907
# Poissons Ratio (z) = 0.08053 0.26113
#
# Static dielectric constant tensor:
#      x y z
#    x 3.919670 0.000000 0.000000 
#    y 0.000000 4.562980 0.000000 
#    z 0.000000 0.000000 4.401750 
# 
# 
# High freq. dielectric constant tensor:
#      x y z
#    x 1.903050 0.000000 0.000000 
#    y 0.000000 1.951780 0.000000 
#    z 0.000000 0.000000 1.959980 
# 
# From -- ./inp_files/1042.got.cif
#   From: 2010.03.12/outbox.cif.g09.slc.cpg/sg27_1_cif.got.tgz:1042.got - 2010.04.14 03:36:05.
