data_PCOD8167764
_publ_section_title
;
Structure prediction by ZEFSAII (Michael W. Deem and Ramdas Pophale) SiO2 
 PCOD8167764
Probable space group: P M C 21
;
_chemical_formula_sum "Si O2"
_cell_formula_units_Z 32
_cell_length_a 9.400788
_cell_length_b 14.201722
_cell_length_c 12.581902
_cell_angle_alpha 90.000000
_cell_angle_beta 90.000000
_cell_angle_gamma 90.000000
_cell_volume 1679.776743
_symmetry_space_group_name_H-M "P M C 21"
_symmetry_group_IT_number 26
_symmetry_cell_setting 'orthorhombic'
loop_
_space_group_symop_operation_xyz
x,y,z
-x,-y,1/2+z
-x,y,z
x,-y,1/2+z
loop_
_atom_site_type_symbol
_atom_site_label
_atom_site_fract_x
_atom_site_fract_y
_atom_site_fract_z
Si Si1 0.666080 0.354078 0.914240
Si Si2 0.832182 0.175666 0.455764
Si Si3 0.656327 0.185245 0.773332
Si Si4 0.334013 0.485828 0.717226
Si Si5 0.343525 0.319395 0.572127
Si Si6 0.167383 0.952616 0.149587
Si Si7 0.168253 0.153056 0.218343
Si Si8 0.830231 0.649495 0.626935
O O1 0.500000 0.359305 0.945918
O O2 0.705000 0.248972 0.872959
O O3 0.702004 0.431740 0.825667
O O4 0.765770 0.376414 0.013206
O O5 0.766089 0.276712 0.487272
O O6 0.784292 0.093387 0.537801
O O7 0.774729 0.148035 0.339510
O O8 0.000000 0.189426 0.458240
O O9 0.500000 0.141688 0.794771
O O10 0.647282 0.253114 0.673410
O O11 0.766424 0.101530 0.750874
O O12 0.500000 0.513721 0.713733
O O13 0.295395 0.421782 0.614072
O O14 0.234717 0.577729 0.713303
O O15 0.500000 0.326156 0.518816
O O16 0.000000 0.945337 0.164922
O O17 0.220443 0.060834 0.153666
O O18 0.222913 0.246189 0.159220
O O19 0.000000 0.154979 0.222798
O O20 0.000000 0.640817 0.625032
#
# Coordination Sequence:
#
# PCOD8167764 Si02
#       8
#     4   4   4   4   4   4   4   4
#     4   9  19  37  58  78 105 141 175 212 265 323
#     4   9  17  31  52  75 101 134 169 208 253 301
#     4   8  15  30  52  77 103 128 161 211 261 301
#     4   9  19  37  58  77 101 137 178 217 261 316
#     4   8  15  30  52  76 100 126 161 207 255 303
#     4   9  17  31  53  76  98 134 180 215 249 304
#     4   9  20  36  49  70 107 141 169 207 259 313
#     4  11  23  36  52  77 109 141 175 219 265 311
#
# _framework density 19.050151
#
# number of rings (size 3 to 8) (size 9 to 14) (size 15 to 20)
#    0.000    3.000    0.000    1.875    0.000    3.500 
#    0.000   10.625    0.000    3.000    0.000    0.000 
#    0.000    0.000    0.000    0.000    0.000    0.000 
#
# Total GULP energy -396659.566159 kJ/mol
# GULP energy per Si atom -12395.611442 kJ/mol
# Density = 1.900679 g / cm^3
# Si number density = 19.050151 Si / 1000 Ang^3
#
#
#
# Elastic Constant Matrix: (Units=GPa)
#
#
# Indices 1 2 3 4 5 6 
#
# 1 56.6741 48.5961 37.2914 0.0000 0.0000 0.0000
# 2 48.5961 129.2485 44.4079 0.0000 0.0000 0.0000
# 3 37.2914 44.4079 90.3602 0.0000 0.0000 0.0000
# 4 0.0000 0.0000 0.0000 24.7831 0.0000 0.0000
# 5 0.0000 0.0000 0.0000 0.0000 22.8801 0.0000
# 6 0.0000 0.0000 0.0000 0.0000 0.0000 26.6623
#
#
#
# Elastic Compliance Matrix: (Units=1/GPa)
#
#
# Indices 1 2 3 4 5 6 
#
# 1 0.030530 -0.008602 -0.008372 0.000000 0.000000 0.000000
# 2 -0.008602 0.011733 -0.002216 0.000000 0.000000 0.000000
# 3 -0.008372 -0.002216 0.015611 0.000000 0.000000 0.000000
# 4 0.000000 0.000000 0.000000 0.040350 0.000000 0.000000
# 5 0.000000 0.000000 0.000000 0.000000 0.043706 0.000000
# 6 0.000000 0.000000 0.000000 0.000000 0.000000 0.037506
#
#
# Mechanical properties :
#
#
# Convention : Reuss Voigt Hill
#
# Bulk Modulus (GPa) = 51.30045 59.65262 55.47654
# Shear Modulus (GPa) = 22.29022 24.59759 23.44391
#
# Velocity S-wave (km/s) = 3.42436 3.59723 3.51186
# Velocity P-wave (km/s) = 6.52860 6.97387 6.75490
#
# Compressibility (1/GPa) = 0.01949300
#
# Stress axis : x y z
#
# Youngs Moduli (GPa) = 32.75508 85.23097 64.05791
#
# Poissons Ratio (x) = 0.73319 0.53628
# Poissons Ratio (y) = 0.28177 0.14195
# Poissons Ratio (z) = 0.27422 0.18887
#
# Static dielectric constant tensor:
#      x y z
#    x 3.416400 0.000000 0.000000 
#    y 0.000000 3.731180 0.000000 
#    z 0.000000 0.000000 3.441140 
# 
# 
# High freq. dielectric constant tensor:
#      x y z
#    x 1.720010 0.000000 0.000000 
#    y 0.000000 1.741490 0.000000 
#    z 0.000000 0.000000 1.730090 
# 
# From -- ./inp_files/3362.got.cif
#   From: 2010.03.12/outbox.cif.g09.slc.cpg/sg26_2_cif.got.tgz:3362.got - 2010.04.14 03:33:09.
