data_PCOD8167185
_publ_section_title
;
Structure prediction by ZEFSAII (Michael W. Deem and Ramdas Pophale) SiO2 
 PCOD8167185
Probable space group: P M C 21
;
_chemical_formula_sum "Si O2"
_cell_formula_units_Z 32
_cell_length_a 12.670038
_cell_length_b 15.879318
_cell_length_c 9.501940
_cell_angle_alpha 90.000000
_cell_angle_beta 90.000000
_cell_angle_gamma 90.000000
_cell_volume 1911.710155
_symmetry_space_group_name_H-M "P M C 21"
_symmetry_group_IT_number 26
_symmetry_cell_setting 'orthorhombic'
loop_
_space_group_symop_operation_xyz
x,y,z
-x,-y,1/2+z
-x,y,z
x,-y,1/2+z
loop_
_atom_site_type_symbol
_atom_site_label
_atom_site_fract_x
_atom_site_fract_y
_atom_site_fract_z
Si Si1 0.880780 0.160863 0.073880
Si Si2 0.876565 0.394105 0.663520
Si Si3 0.878333 0.471181 0.370500
Si Si4 0.376986 0.093729 0.502936
Si Si5 0.793124 0.223262 0.557212
Si Si6 0.878759 0.704478 0.785490
Si Si7 0.276957 0.032878 0.218317
Si Si8 0.116331 0.894721 0.274773
O O1 0.864407 0.255865 0.131445
O O2 0.000000 0.129421 0.113142
O O3 0.792461 0.101126 0.137577
O O4 0.867552 0.168073 0.906514
O O5 0.861918 0.462488 0.537449
O O6 0.832856 0.441853 0.803656
O O7 0.801700 0.313317 0.636651
O O8 0.000000 0.365309 0.671879
O O9 0.827383 0.388542 0.294448
O O10 0.000000 0.475682 0.327339
O O11 0.500000 0.111116 0.510988
O O12 0.322655 0.180417 0.558372
O O13 0.349168 0.015368 0.604585
O O14 0.346706 0.074355 0.341075
O O15 0.826152 0.231608 0.395654
O O16 0.870627 0.156993 0.631545
O O17 0.000000 0.695615 0.832624
O O18 0.198070 0.969446 0.295192
O O19 0.000000 0.934799 0.275323
#
# Coordination Sequence:
#
# PCOD8167185 Si02
#       8
#     4   4   4   4   4   4   4   4
#     4  10  19  30  46  71 102 132 160 191 237 294
#     4   9  16  28  45  71 101 133 163 189 229 283
#     4   8  15  25  40  64  97 129 160 187 220 276
#     4  11  23  37  55  71  90 124 169 220 263 292
#     4  10  19  32  50  69  98 128 168 206 243 289
#     4   9  16  28  46  70  99 132 160 193 234 283
#     4  11  20  37  50  70  97 123 163 207 253 299
#     4  10  20  31  45  70 100 131 162 193 238 296
#
# _framework density 16.738939999999999
#
# number of rings (size 3 to 8) (size 9 to 14) (size 15 to 20)
#    0.000    2.250    2.500    2.625    0.000    1.000 
#    0.000    3.750    0.000    0.000    0.000    3.500 
#    0.000    0.000    0.000    0.000    0.000    0.000 
#
# Total GULP energy -396529.482323 kJ/mol
# GULP energy per Si atom -12391.546323 kJ/mol
# Density = 1.670084 g / cm^3
# Si number density = 16.738940 Si / 1000 Ang^3
#
#
#
# Elastic Constant Matrix: (Units=GPa)
#
#
# Indices 1 2 3 4 5 6 
#
# 1 75.7669 26.4156 24.4303 0.0000 0.0000 0.0000
# 2 26.4156 64.0700 16.4069 0.0000 0.0000 0.0000
# 3 24.4303 16.4069 49.4668 0.0000 0.0000 0.0000
# 4 0.0000 0.0000 0.0000 34.1017 0.0000 0.0000
# 5 0.0000 0.0000 0.0000 0.0000 15.7442 0.0000
# 6 0.0000 0.0000 0.0000 0.0000 0.0000 13.8575
#
#
#
# Elastic Compliance Matrix: (Units=1/GPa)
#
#
# Indices 1 2 3 4 5 6 
#
# 1 0.017247 -0.005387 -0.006731 0.000000 0.000000 0.000000
# 2 -0.005387 0.018739 -0.003555 0.000000 0.000000 0.000000
# 3 -0.006731 -0.003555 0.024719 0.000000 0.000000 0.000000
# 4 0.000000 0.000000 0.000000 0.029324 0.000000 0.000000
# 5 0.000000 0.000000 0.000000 0.000000 0.063515 0.000000
# 6 0.000000 0.000000 0.000000 0.000000 0.000000 0.072163
#
#
# Mechanical properties :
#
#
# Convention : Reuss Voigt Hill
#
# Bulk Modulus (GPa) = 34.06081 35.97879 35.01980
# Shear Modulus (GPa) = 18.73783 20.87740 19.80762
#
# Velocity S-wave (km/s) = 3.34940 3.53545 3.44368
# Velocity P-wave (km/s) = 5.94562 6.18115 6.06453
#
# Compressibility (1/GPa) = 0.02935925
#
# Stress axis : x y z
#
# Youngs Moduli (GPa) = 57.98141 53.36377 40.45491
#
# Poissons Ratio (x) = 0.28748 0.27230
# Poissons Ratio (y) = 0.31235 0.14381
# Poissons Ratio (z) = 0.39027 0.18970
#
# Static dielectric constant tensor:
#      x y z
#    x 2.769480 0.000000 0.000000 
#    y 0.000000 3.233480 0.000000 
#    z 0.000000 0.000000 3.233580 
# 
# 
# High freq. dielectric constant tensor:
#      x y z
#    x 1.589670 0.000000 0.000000 
#    y 0.000000 1.644030 0.000000 
#    z 0.000000 0.000000 1.657260 
# 
# From -- ./inp_files/2001.got.cif
#   From: 2010.03.12/outbox.cif.g09.slc.cpg/sg26_2_cif.got.tgz:2001.got - 2010.04.14 03:33:09.
