data_PCOD8167287
_publ_section_title
;
Structure prediction by ZEFSAII (Michael W. Deem and Ramdas Pophale) SiO2 
 PCOD8167287
Probable space group: P M C 21
;
_chemical_formula_sum "Si O2"
_cell_formula_units_Z 32
_cell_length_a 8.861058
_cell_length_b 12.443418
_cell_length_c 15.294490
_cell_angle_alpha 90.000000
_cell_angle_beta 90.000000
_cell_angle_gamma 90.000000
_cell_volume 1686.398741
_symmetry_space_group_name_H-M "P M C 21"
_symmetry_group_IT_number 26
_symmetry_cell_setting 'orthorhombic'
loop_
_space_group_symop_operation_xyz
x,y,z
-x,-y,1/2+z
-x,y,z
x,-y,1/2+z
loop_
_atom_site_type_symbol
_atom_site_label
_atom_site_fract_x
_atom_site_fract_y
_atom_site_fract_z
Si Si1 0.175938 0.745256 0.075580
Si Si2 0.669131 0.467320 0.540833
Si Si3 0.821344 0.978728 0.017576
Si Si4 0.327253 0.994196 0.332901
Si Si5 0.669489 0.655618 0.428270
Si Si6 0.321308 0.128150 0.165794
Si Si7 0.177344 0.668921 0.597867
Si Si8 0.672660 0.239241 0.755077
O O1 0.235537 0.857881 0.037876
O O2 0.215729 0.735312 0.176919
O O3 0.000000 0.734014 0.061555
O O4 0.252586 0.646513 0.025065
O O5 0.500000 0.450084 0.576825
O O6 0.667635 0.527023 0.446216
O O7 0.756693 0.547223 0.609169
O O8 0.000000 0.989689 0.028335
O O9 0.745780 0.058358 0.086679
O O10 0.776348 0.003241 0.918219
O O11 0.500000 0.012693 0.361529
O O12 0.275911 0.081157 0.260610
O O13 0.304817 0.880708 0.287175
O O14 0.500000 0.704197 0.440290
O O15 0.779252 0.711648 0.499907
O O16 0.725399 0.679080 0.331021
O O17 0.500000 0.130284 0.153881
O O18 0.254218 0.248693 0.165429
O O19 0.000000 0.668005 0.612518
O O20 0.500000 0.259812 0.726003
#
# Coordination Sequence:
#
# PCOD8167287 Si02
#       8
#     4   4   4   4   4   4   4   4
#     4  11  23  38  57  86 122 159 197 242 300 364
#     4   9  19  37  59  83 111 152 196 242 291 349
#     4  11  24  39  58  86 122 161 196 246 308 359
#     4  10  22  37  59  88 117 157 204 249 297 360
#     4   8  17  33  56  85 112 146 194 243 287 343
#     4  11  21  37  59  86 119 155 200 244 292 359
#     4  10  19  33  57  86 116 152 190 239 301 348
#     4  10  19  36  59  86 115 150 199 249 294 350
#
# _framework density 18.975345000000001
#
# number of rings (size 3 to 8) (size 9 to 14) (size 15 to 20)
#    0.750    1.250    1.250    3.000    0.000    4.500 
#    0.000    1.250    0.000    4.500    0.000    0.000 
#    0.000    0.000    0.000    0.000    0.000    0.000 
#
# Total GULP energy -396635.037161 kJ/mol
# GULP energy per Si atom -12394.844911 kJ/mol
# Density = 1.893216 g / cm^3
# Si number density = 18.975345 Si / 1000 Ang^3
#
#
#
# Elastic Constant Matrix: (Units=GPa)
#
#
# Indices 1 2 3 4 5 6 
#
# 1 70.6221 8.2461 0.7685 0.0000 0.0000 0.0000
# 2 8.2461 52.0467 -23.1272 0.0000 0.0000 0.0000
# 3 0.7685 -23.1272 31.2172 0.0000 0.0000 0.0000
# 4 0.0000 0.0000 0.0000 22.1908 0.0000 0.0000
# 5 0.0000 0.0000 0.0000 0.0000 23.1025 0.0000
# 6 0.0000 0.0000 0.0000 0.0000 0.0000 34.2627
#
#
#
# Elastic Compliance Matrix: (Units=1/GPa)
#
#
# Indices 1 2 3 4 5 6 
#
# 1 0.014625 -0.003693 -0.003096 0.000000 0.000000 0.000000
# 2 -0.003693 0.029575 0.022002 0.000000 0.000000 0.000000
# 3 -0.003096 0.022002 0.048410 0.000000 0.000000 0.000000
# 4 0.000000 0.000000 0.000000 0.045064 0.000000 0.000000
# 5 0.000000 0.000000 0.000000 0.000000 0.043285 0.000000
# 6 0.000000 0.000000 0.000000 0.000000 0.000000 0.029186
#
#
# Mechanical properties :
#
#
# Convention : Reuss Voigt Hill
#
# Bulk Modulus (GPa) = 8.12770 13.96230 11.04500
# Shear Modulus (GPa) = 22.65204 27.11111 24.88158
#
# Velocity S-wave (km/s) = 3.45883 3.78399 3.62506
# Velocity P-wave (km/s) = 4.49933 5.14446 4.83267
#
# Compressibility (1/GPa) = 0.12303601
#
# Stress axis : x y z
#
# Youngs Moduli (GPa) = 68.37732 33.81216 20.65698
#
# Poissons Ratio (x) = 0.12486 0.06395
# Poissons Ratio (y) = 0.25250 -0.45449
# Poissons Ratio (z) = 0.21168 -0.74392
#
# Static dielectric constant tensor:
#      x y z
#    x 3.428260 0.000000 0.000000 
#    y 0.000000 3.574220 0.000000 
#    z 0.000000 0.000000 3.312970 
# 
# 
# High freq. dielectric constant tensor:
#      x y z
#    x 1.739270 0.000000 0.000000 
#    y 0.000000 1.740870 0.000000 
#    z 0.000000 0.000000 1.716530 
# 
# From -- ./inp_files/4352.got.cif
#   From: 2010.03.12/outbox.cif.g09.slc.cpg/sg26_3_cif.got.tgz:4352.got - 2010.04.14 03:33:09.
