data_PCOD8167156
_publ_section_title
;
Structure prediction by ZEFSAII (Michael W. Deem and Ramdas Pophale) SiO2 
 PCOD8167156
Probable space group: P M C 21
;
_chemical_formula_sum "Si O2"
_cell_formula_units_Z 32
_cell_length_a 13.571027
_cell_length_b 14.889736
_cell_length_c 8.989090
_cell_angle_alpha 90.000000
_cell_angle_beta 90.000000
_cell_angle_gamma 90.000000
_cell_volume 1816.416511
_symmetry_space_group_name_H-M "P M C 21"
_symmetry_group_IT_number 26
_symmetry_cell_setting 'orthorhombic'
loop_
_space_group_symop_operation_xyz
x,y,z
-x,-y,1/2+z
-x,y,z
x,-y,1/2+z
loop_
_atom_site_type_symbol
_atom_site_label
_atom_site_fract_x
_atom_site_fract_y
_atom_site_fract_z
Si Si1 0.882635 0.385327 0.529380
Si Si2 0.389665 0.122410 0.670224
Si Si3 0.883600 0.282311 0.007310
Si Si4 0.801513 0.224339 0.698548
Si Si5 0.806117 0.894922 0.601946
Si Si6 0.389410 0.046669 0.988908
Si Si7 0.883825 0.554340 0.709726
Si Si8 0.886200 0.957120 0.293387
O O1 0.837456 0.288134 0.565452
O O2 0.848305 0.456205 0.656191
O O3 0.839789 0.418929 0.370407
O O4 0.000000 0.376825 0.525663
O O5 0.500000 0.162976 0.665922
O O6 0.314944 0.206160 0.675961
O O7 0.374752 0.057964 0.812952
O O8 0.369971 0.058092 0.528403
O O9 0.822826 0.272902 0.855167
O O10 0.000000 0.276693 0.971653
O O11 0.851410 0.204174 0.122285
O O12 0.852976 0.375402 0.082441
O O13 0.856973 0.128798 0.692860
O O14 0.688806 0.889183 0.572313
O O15 0.861294 0.941386 0.464092
O O16 0.826408 0.954450 0.746238
O O17 0.500000 0.074726 0.039026
O O18 0.000000 0.554406 0.726795
O O19 0.000000 0.976804 0.271576
#
# Coordination Sequence:
#
# PCOD8167156 Si02
#       8
#     4   4   4   4   4   4   4   4
#     4  10  19  33  53  77 104 134 167 207 252 300
#     4  10  20  35  54  75  99 133 175 221 264 301
#     4  10  19  32  48  70 103 139 174 209 247 300
#     4  11  19  32  49  73 101 134 169 209 257 307
#     4  11  19  33  46  69  97 138 173 208 255 297
#     4  10  18  34  53  72  97 130 175 224 262 298
#     4   9  19  34  52  76 103 134 172 210 248 293
#     4  11  21  31  44  66 102 140 174 202 242 304
#
# _framework density 17.617104000000001
#
# number of rings (size 3 to 8) (size 9 to 14) (size 15 to 20)
#    0.000    1.750    3.750    3.750    0.000    3.000 
#    2.250    2.500    0.000    0.000    0.000    4.375 
#    0.000    0.000    0.000    0.000    0.000    0.000 
#
# Total GULP energy -396754.196578 kJ/mol
# GULP energy per Si atom -12398.568643 kJ/mol
# Density = 1.757701 g / cm^3
# Si number density = 17.617104 Si / 1000 Ang^3
#
#
#
# Elastic Constant Matrix: (Units=GPa)
#
#
# Indices 1 2 3 4 5 6 
#
# 1 85.5550 28.2449 22.7185 0.0000 0.0000 0.0000
# 2 28.2449 60.9248 15.4212 0.0000 0.0000 0.0000
# 3 22.7185 15.4212 46.5336 0.0000 0.0000 0.0000
# 4 0.0000 0.0000 0.0000 23.5334 0.0000 0.0000
# 5 0.0000 0.0000 0.0000 0.0000 18.9604 0.0000
# 6 0.0000 0.0000 0.0000 0.0000 0.0000 14.3439
#
#
#
# Elastic Compliance Matrix: (Units=1/GPa)
#
#
# Indices 1 2 3 4 5 6 
#
# 1 0.014976 -0.005558 -0.005469 0.000000 0.000000 0.000000
# 2 -0.005558 0.019980 -0.003908 0.000000 0.000000 0.000000
# 3 -0.005469 -0.003908 0.025455 0.000000 0.000000 0.000000
# 4 0.000000 0.000000 0.000000 0.042493 0.000000 0.000000
# 5 0.000000 0.000000 0.000000 0.000000 0.052741 0.000000
# 6 0.000000 0.000000 0.000000 0.000000 0.000000 0.069716
#
#
# Mechanical properties :
#
#
# Convention : Reuss Voigt Hill
#
# Bulk Modulus (GPa) = 32.74415 36.19809 34.47112
# Shear Modulus (GPa) = 18.83868 19.80946 19.32407
#
# Velocity S-wave (km/s) = 3.27362 3.35691 3.31553
# Velocity P-wave (km/s) = 5.73722 5.96799 5.85374
#
# Compressibility (1/GPa) = 0.03053980
#
# Stress axis : x y z
#
# Youngs Moduli (GPa) = 66.77444 50.05098 39.28495
#
# Poissons Ratio (x) = 0.27820 0.21486
# Poissons Ratio (y) = 0.37116 0.15351
# Poissons Ratio (z) = 0.36522 0.19558
#
# Static dielectric constant tensor:
#      x y z
#    x 3.275180 0.000000 0.000000 
#    y 0.000000 3.280580 0.000000 
#    z 0.000000 0.000000 3.310430 
# 
# 
# High freq. dielectric constant tensor:
#      x y z
#    x 1.658860 0.000000 0.000000 
#    y 0.000000 1.664740 0.000000 
#    z 0.000000 0.000000 1.682400 
# 
# From -- ./inp_files/2293.got.cif
#   From: 2010.03.12/outbox.cif.g09.slc.cpg/sg26_2_cif.got.tgz:2293.got - 2010.04.14 03:33:09.
