data_PCOD8167459
_publ_section_title
;
Structure prediction by ZEFSAII (Michael W. Deem and Ramdas Pophale) SiO2 
 PCOD8167459
Probable space group: P M C 21
;
_chemical_formula_sum "Si O2"
_cell_formula_units_Z 32
_cell_length_a 9.451719
_cell_length_b 11.754661
_cell_length_c 14.188452
_cell_angle_alpha 90.000000
_cell_angle_beta 90.000000
_cell_angle_gamma 90.000000
_cell_volume 1576.361885
_symmetry_space_group_name_H-M "P M C 21"
_symmetry_group_IT_number 26
_symmetry_cell_setting 'orthorhombic'
loop_
_space_group_symop_operation_xyz
x,y,z
-x,-y,1/2+z
-x,y,z
x,-y,1/2+z
loop_
_atom_site_type_symbol
_atom_site_label
_atom_site_fract_x
_atom_site_fract_y
_atom_site_fract_z
Si Si1 0.337825 0.377000 0.623570
Si Si2 0.166825 0.091946 0.195514
Si Si3 0.660247 0.774853 0.957543
Si Si4 0.663080 0.995527 0.359765
Si Si5 0.661914 0.160516 0.024880
Si Si6 0.157524 0.685691 0.803747
Si Si7 0.664044 0.582845 0.485663
Si Si8 0.161576 0.432437 0.795131
O O1 0.500000 0.391461 0.655952
O O2 0.315353 0.258822 0.566440
O O3 0.292945 0.485399 0.560027
O O4 0.241787 0.360457 0.715597
O O5 0.237237 0.001465 0.267673
O O6 0.237183 0.086163 0.092748
O O7 0.206207 0.218783 0.230176
O O8 0.000000 0.067569 0.188465
O O9 0.500000 0.751591 0.928788
O O10 0.703129 0.903999 0.933995
O O11 0.746846 0.685108 0.896084
O O12 0.500000 0.004906 0.326801
O O13 0.691474 0.878955 0.416703
O O14 0.500000 0.131042 0.051622
O O15 0.690772 0.294626 0.033698
O O16 0.166826 0.562029 0.757082
O O17 0.000000 0.714373 0.838175
O O18 0.500000 0.569584 0.455157
O O19 0.763360 0.576689 0.395131
O O20 0.000000 0.389636 0.805048
#
# Coordination Sequence:
#
# PCOD8167459 Si02
#       8
#     4   4   4   4   4   4   4   4
#     4  10  20  34  54  80 109 142 182 226 273 327
#     4  10  20  35  58  86 113 145 185 230 278 329
#     4   9  17  32  55  78 100 132 176 225 270 311
#     4   9  19  37  59  82 108 141 185 232 274 322
#     4  10  21  38  59  83 112 148 188 230 276 327
#     4   9  18  32  51  77 108 141 177 219 268 321
#     4  10  21  38  58  82 112 147 186 230 277 325
#     4  11  22  34  52  80 114 150 181 218 274 336
#
# _framework density 20.299907000000001
#
# number of rings (size 3 to 8) (size 9 to 14) (size 15 to 20)
#    0.000    2.250    1.250    1.500    0.000    3.000 
#    2.250    0.000    0.000    0.000    0.000    0.000 
#    0.000    0.000    0.000    0.000    0.000    0.000 
#
# Total GULP energy -396739.965023 kJ/mol
# GULP energy per Si atom -12398.123907 kJ/mol
# Density = 2.025370 g / cm^3
# Si number density = 20.299907 Si / 1000 Ang^3
#
#
#
# Elastic Constant Matrix: (Units=GPa)
#
#
# Indices 1 2 3 4 5 6 
#
# 1 93.4878 4.5072 53.6515 0.0000 0.0000 0.0000
# 2 4.5072 30.9645 -2.5136 0.0000 0.0000 0.0000
# 3 53.6515 -2.5136 85.5750 0.0000 0.0000 0.0000
# 4 0.0000 0.0000 0.0000 20.8292 0.0000 0.0000
# 5 0.0000 0.0000 0.0000 0.0000 10.7339 0.0000
# 6 0.0000 0.0000 0.0000 0.0000 0.0000 20.1971
#
#
#
# Elastic Compliance Matrix: (Units=1/GPa)
#
#
# Indices 1 2 3 4 5 6 
#
# 1 0.017049 -0.003357 -0.010788 0.000000 0.000000 0.000000
# 2 -0.003357 0.033033 0.003075 0.000000 0.000000 0.000000
# 3 -0.010788 0.003075 0.018539 0.000000 0.000000 0.000000
# 4 0.000000 0.000000 0.000000 0.048010 0.000000 0.000000
# 5 0.000000 0.000000 0.000000 0.000000 0.093163 0.000000
# 6 0.000000 0.000000 0.000000 0.000000 0.000000 0.049512
#
#
# Mechanical properties :
#
#
# Convention : Reuss Voigt Hill
#
# Bulk Modulus (GPa) = 21.51359 35.70195 28.60777
# Shear Modulus (GPa) = 16.83837 20.64420 18.74128
#
# Velocity S-wave (km/s) = 2.88319 3.19244 3.04175
# Velocity P-wave (km/s) = 4.65882 5.58698 5.14388
#
# Compressibility (1/GPa) = 0.04648224
#
# Stress axis : x y z
#
# Youngs Moduli (GPa) = 58.65296 30.27241 53.93908
#
# Poissons Ratio (x) = 0.10164 0.58188
# Poissons Ratio (y) = 0.19692 -0.16588
# Poissons Ratio (z) = 0.63274 -0.09310
#
# Static dielectric constant tensor:
#      x y z
#    x 3.653620 0.000000 0.000000 
#    y 0.000000 3.659780 0.000000 
#    z 0.000000 0.000000 3.429480 
# 
# 
# High freq. dielectric constant tensor:
#      x y z
#    x 1.789330 0.000000 0.000000 
#    y 0.000000 1.781940 0.000000 
#    z 0.000000 0.000000 1.781600 
# 
# From -- ./inp_files/4236.got.cif
#   From: 2010.03.12/outbox.cif.g09.slc.cpg/sg26_3_cif.got.tgz:4236.got - 2010.04.14 03:33:09.
