data_PCOD8167711
_publ_section_title
;
Structure prediction by ZEFSAII (Michael W. Deem and Ramdas Pophale) SiO2 
 PCOD8167711
Probable space group: P M C 21
;
_chemical_formula_sum "Si O2"
_cell_formula_units_Z 32
_cell_length_a 8.572271
_cell_length_b 11.930535
_cell_length_c 15.465758
_cell_angle_alpha 90.000000
_cell_angle_beta 90.000000
_cell_angle_gamma 90.000000
_cell_volume 1581.710587
_symmetry_space_group_name_H-M "P M C 21"
_symmetry_group_IT_number 26
_symmetry_cell_setting 'orthorhombic'
loop_
_space_group_symop_operation_xyz
x,y,z
-x,-y,1/2+z
-x,y,z
x,-y,1/2+z
loop_
_atom_site_type_symbol
_atom_site_label
_atom_site_fract_x
_atom_site_fract_y
_atom_site_fract_z
Si Si1 0.181378 0.223130 0.791260
Si Si2 0.817026 0.616097 0.134041
Si Si3 0.683202 0.764886 0.470919
Si Si4 0.681703 0.235021 0.297425
Si Si5 0.183633 0.768170 0.978559
Si Si6 0.680260 0.001855 0.721583
Si Si7 0.683656 0.371603 0.134697
Si Si8 0.182489 0.990796 0.536574
O O1 0.223858 0.315437 0.720155
O O2 0.226813 0.272863 0.884453
O O3 0.282284 0.111747 0.776653
O O4 0.000000 0.191302 0.787137
O O5 0.726561 0.500456 0.138183
O O6 0.000000 0.591947 0.126375
O O7 0.750976 0.684471 0.051820
O O8 0.500000 0.748481 0.456732
O O9 0.749521 0.686567 0.547867
O O10 0.717525 0.893696 0.492789
O O11 0.500000 0.258910 0.308691
O O12 0.765050 0.275043 0.384905
O O13 0.752547 0.307703 0.218489
O O14 0.716902 0.104501 0.281631
O O15 0.000000 0.769244 0.987043
O O16 0.245836 0.893474 0.995761
O O17 0.500000 0.001148 0.691946
O O18 0.791017 0.995736 0.638844
O O19 0.500000 0.354906 0.134935
O O20 0.000000 0.971257 0.517897
#
# Coordination Sequence:
#
# PCOD8167711 Si02
#       8
#     4   4   4   4   4   4   4   4
#     4  11  23  41  62  90 125 159 201 251 301 362
#     4  10  23  43  62  84 119 157 202 253 300 354
#     4  11  23  41  62  90 125 159 201 251 301 362
#     4  10  22  40  60  88 122 155 194 243 295 353
#     4  10  22  40  60  88 122 155 194 243 295 353
#     4  11  21  37  62  91 125 161 197 244 303 363
#     4  10  23  43  62  84 119 157 202 253 300 354
#     4  11  21  37  62  91 125 161 197 244 303 363
#
# _framework density 20.231259999999999
#
# number of rings (size 3 to 8) (size 9 to 14) (size 15 to 20)
#    0.000    1.500    2.500    2.250    0.000    8.000 
#    0.000    5.000    0.000    0.000    0.000    0.000 
#    0.000    0.000    0.000    0.000    0.000    0.000 
#
# Total GULP energy -396965.740352 kJ/mol
# GULP energy per Si atom -12405.179386 kJ/mol
# Density = 2.018521 g / cm^3
# Si number density = 20.231260 Si / 1000 Ang^3
#
#
#
# Elastic Constant Matrix: (Units=GPa)
#
#
# Indices 1 2 3 4 5 6 
#
# 1 24.9935 18.5882 15.4203 0.0000 0.0000 0.0000
# 2 18.5882 120.8934 54.6846 0.0000 0.0000 0.0000
# 3 15.4203 54.6846 162.5449 0.0000 0.0000 0.0000
# 4 0.0000 0.0000 0.0000 16.3114 0.0000 0.0000
# 5 0.0000 0.0000 0.0000 0.0000 33.5113 0.0000
# 6 0.0000 0.0000 0.0000 0.0000 0.0000 30.1463
#
#
#
# Elastic Compliance Matrix: (Units=1/GPa)
#
#
# Indices 1 2 3 4 5 6 
#
# 1 0.045916 -0.006003 -0.002336 0.000000 0.000000 0.000000
# 2 -0.006003 0.010541 -0.002977 0.000000 0.000000 0.000000
# 3 -0.002336 -0.002977 0.007375 0.000000 0.000000 0.000000
# 4 0.000000 0.000000 0.000000 0.061307 0.000000 0.000000
# 5 0.000000 0.000000 0.000000 0.000000 0.029841 0.000000
# 6 0.000000 0.000000 0.000000 0.000000 0.000000 0.033172
#
#
# Mechanical properties :
#
#
# Convention : Reuss Voigt Hill
#
# Bulk Modulus (GPa) = 24.27169 53.97980 39.12575
# Shear Modulus (GPa) = 22.26989 30.64305 26.45647
#
# Velocity S-wave (km/s) = 3.32138 3.89606 3.62014
# Velocity P-wave (km/s) = 5.17029 6.85407 6.07084
#
# Compressibility (1/GPa) = 0.04120027
#
# Stress axis : x y z
#
# Youngs Moduli (GPa) = 21.77868 94.86463 135.58761
#
# Poissons Ratio (x) = 0.56949 0.31679
# Poissons Ratio (y) = 0.13074 0.40363
# Poissons Ratio (z) = 0.05088 0.28240
#
# Static dielectric constant tensor:
#      x y z
#    x 3.463500 0.000000 0.000000 
#    y 0.000000 3.633030 0.000000 
#    z 0.000000 0.000000 3.990280 
# 
# 
# High freq. dielectric constant tensor:
#      x y z
#    x 1.779850 0.000000 0.000000 
#    y 0.000000 1.786340 0.000000 
#    z 0.000000 0.000000 1.806700 
# 
# From -- ./inp_files/4169.got.cif
#   From: 2010.03.12/outbox.cif.g09.slc.cpg/sg26_3_cif.got.tgz:4169.got - 2010.04.14 03:33:09.
