data_PCOD8167807
_publ_section_title
;
Structure prediction by ZEFSAII (Michael W. Deem and Ramdas Pophale) SiO2 
 PCOD8167807
Probable space group: P C C 2
;
_chemical_formula_sum "Si O2"
_cell_formula_units_Z 28
_cell_length_a 5.018626
_cell_length_b 12.691599
_cell_length_c 23.191152
_cell_angle_alpha 90.000000
_cell_angle_beta 90.000000
_cell_angle_gamma 90.000000
_cell_volume 1477.146250
_symmetry_space_group_name_H-M "P C C 2"
_symmetry_group_IT_number 27
_symmetry_cell_setting 'orthorhombic'
loop_
_space_group_symop_operation_xyz
x,y,z
-x,-y,z
-x,y,1/2+z
x,-y,1/2+z
loop_
_atom_site_type_symbol
_atom_site_label
_atom_site_fract_x
_atom_site_fract_y
_atom_site_fract_z
Si Si1 0.748884 0.569612 0.772170
Si Si2 0.074881 0.241245 0.982605
Si Si3 0.405749 0.108875 0.477839
Si Si4 0.443277 0.887434 0.847340
Si Si5 0.526642 0.376515 0.155191
Si Si6 0.978354 0.375061 0.590388
Si Si7 0.040289 0.249824 0.851716
O O1 0.500000 0.500000 0.797090
O O2 0.620354 0.641569 0.721305
O O3 0.879929 0.641846 0.820905
O O4 0.000000 0.500000 0.748149
O O5 0.371193 0.197359 0.983047
O O6 0.985274 0.279039 0.918715
O O7 0.867299 0.152496 0.005722
O O8 0.074924 0.340505 0.025048
O O9 0.339255 0.084123 0.411194
O O10 0.500000 0.000000 0.508267
O O11 0.722229 0.830828 0.846833
O O12 0.216096 0.808185 0.821762
O O13 0.500000 0.000000 0.814853
O O14 0.500000 0.500000 0.145326
O O15 0.243354 0.329148 0.135370
O O16 0.745330 0.326083 0.112788
O O17 0.000000 0.500000 0.590941
#
# Coordination Sequence:
#
# PCOD8167807 Si02
#       7
#     4   4   4   4   4   4   4
#     4  11  21  35  53  73 102 135 169 210 250 296
#     4  10  19  31  48  75 105 131 162 199 250 308
#     4   9  17  30  48  70  99 133 167 203 240 286
#     4   9  17  31  50  72 101 134 169 210 249 290
#     4   9  18  33  51  69  90 125 173 213 238 272
#     4  10  19  32  50  72  99 128 162 204 244 288
#     4  10  20  32  49  77 106 134 168 203 253 314
#
# _framework density 18.955469000000001
#
# number of rings (size 3 to 8) (size 9 to 14) (size 15 to 20)
#    0.000    2.286    0.000    4.714    0.000    4.000 
#    0.000    2.143    0.000    0.000    0.000   15.000 
#    0.000    0.000    0.000    0.000    0.000    0.000 
#
# Total GULP energy -346911.086085 kJ/mol
# GULP energy per Si atom -12389.681646 kJ/mol
# Density = 1.891233 g / cm^3
# Si number density = 18.955469 Si / 1000 Ang^3
#
#
#
# Elastic Constant Matrix: (Units=GPa)
#
#
# Indices 1 2 3 4 5 6 
#
# 1 103.4720 22.2319 25.0579 0.0000 0.0000 0.0000
# 2 22.2319 55.0618 34.3366 0.0000 0.0000 0.0000
# 3 25.0579 34.3366 73.9132 0.0000 0.0000 0.0000
# 4 0.0000 0.0000 0.0000 4.9339 0.0000 0.0000
# 5 0.0000 0.0000 0.0000 0.0000 21.0453 0.0000
# 6 0.0000 0.0000 0.0000 0.0000 0.0000 30.6766
#
#
#
# Elastic Compliance Matrix: (Units=1/GPa)
#
#
# Indices 1 2 3 4 5 6 
#
# 1 0.010857 -0.002940 -0.002315 0.000000 0.000000 0.000000
# 2 -0.002940 0.026365 -0.011251 0.000000 0.000000 0.000000
# 3 -0.002315 -0.011251 0.019541 0.000000 0.000000 0.000000
# 4 0.000000 0.000000 0.000000 0.202680 0.000000 0.000000
# 5 0.000000 0.000000 0.000000 0.000000 0.047517 0.000000
# 6 0.000000 0.000000 0.000000 0.000000 0.000000 0.032598
#
#
# Mechanical properties :
#
#
# Convention : Reuss Voigt Hill
#
# Bulk Modulus (GPa) = 42.10448 43.96664 43.03556
# Shear Modulus (GPa) = 13.14109 21.38586 17.26348
#
# Velocity S-wave (km/s) = 2.63584 3.36254 3.02112
# Velocity P-wave (km/s) = 5.61463 6.19036 5.90951
#
# Compressibility (1/GPa) = 0.02375044
#
# Stress axis : x y z
#
# Youngs Moduli (GPa) = 92.10877 37.92957 51.17477
#
# Poissons Ratio (x) = 0.11151 0.11846
# Poissons Ratio (y) = 0.27080 0.57577
# Poissons Ratio (z) = 0.21322 0.42675
#
# Static dielectric constant tensor:
#      x y z
#    x 3.976330 0.000000 0.000000 
#    y 0.000000 3.302180 0.000000 
#    z 0.000000 0.000000 3.243630 
# 
# 
# High freq. dielectric constant tensor:
#      x y z
#    x 1.768890 0.000000 0.000000 
#    y 0.000000 1.706220 0.000000 
#    z 0.000000 0.000000 1.691140 
# 
# From -- ./inp_files/4652.got.cif
#   From: 2010.03.12/outbox.cif.g09.slc.cpg/sg27_3_cif.got.tgz:4652.got - 2010.04.14 03:36:05.
