data_PCOD8167560
_publ_section_title
;
Structure prediction by ZEFSAII (Michael W. Deem and Ramdas Pophale) SiO2 
 PCOD8167560
Probable space group: P M C 21
;
_chemical_formula_sum "Si O2"
_cell_formula_units_Z 24
_cell_length_a 15.384609
_cell_length_b 9.204859
_cell_length_c 8.279107
_cell_angle_alpha 90.000000
_cell_angle_beta 90.000000
_cell_angle_gamma 90.000000
_cell_volume 1172.430476
_symmetry_space_group_name_H-M "P M C 21"
_symmetry_group_IT_number 26
_symmetry_cell_setting 'orthorhombic'
loop_
_space_group_symop_operation_xyz
x,y,z
-x,-y,1/2+z
-x,y,z
x,-y,1/2+z
loop_
_atom_site_type_symbol
_atom_site_label
_atom_site_fract_x
_atom_site_fract_y
_atom_site_fract_z
Si Si1 0.000000 0.303513 0.902050
Si Si2 0.500000 0.620800 0.745986
Si Si3 0.845871 0.881041 0.269557
Si Si4 0.000000 0.383226 0.272752
Si Si5 0.339869 0.191832 0.293129
Si Si6 0.500000 0.306743 0.872835
Si Si7 0.846299 0.804709 0.896753
Si Si8 0.660687 0.879357 0.417171
O O1 0.085251 0.209617 0.870729
O O2 0.000000 0.443887 0.788266
O O3 0.000000 0.349901 0.085803
O O4 0.585559 0.690150 0.827501
O O5 0.500000 0.448826 0.763679
O O6 0.500000 0.651654 0.558410
O O7 0.750830 0.837934 0.332498
O O8 0.864395 0.052046 0.290311
O O9 0.854028 0.846359 0.082546
O O10 0.085079 0.319397 0.357870
O O11 0.248928 0.258668 0.354981
O O12 0.362035 0.048444 0.395730
O O13 0.332505 0.150819 0.106131
O O14 0.414372 0.214223 0.831766
#
# Coordination Sequence:
#
# PCOD8167560 Si02
#       8
#     2   2   4   2   4   2   4   4
#     4  12  25  42  61  86 118 154 192 236 287 346
#     4  10  23  38  56  82 116 152 191 234 284 342
#     4  11  22  39  62  89 117 152 193 239 287 339
#     4  12  25  42  61  86 118 154 192 236 287 346
#     4  10  20  37  59  86 114 148 192 240 286 338
#     4  10  23  38  56  82 116 152 191 234 284 342
#     4  11  22  39  62  89 117 152 193 239 287 339
#     4  10  20  37  59  86 114 148 192 240 286 338
#
# _framework density 20.470296999999999
#
# number of rings (size 3 to 8) (size 9 to 14) (size 15 to 20)
#    0.000    1.333    0.000    8.500    0.000    4.000 
#    0.000    3.333    0.000    0.000    0.000    0.000 
#    0.000    0.000    0.000    0.000    0.000    0.000 
#
# Total GULP energy -297734.666560 kJ/mol
# GULP energy per Si atom -12405.611107 kJ/mol
# Density = 2.042371 g / cm^3
# Si number density = 20.470297 Si / 1000 Ang^3
#
#
#
# Elastic Constant Matrix: (Units=GPa)
#
#
# Indices 1 2 3 4 5 6 
#
# 1 143.1165 62.1303 2.5747 0.0000 0.0000 0.0000
# 2 62.1303 70.2651 -19.1464 0.0000 0.0000 0.0000
# 3 2.5747 -19.1464 56.1715 0.0000 0.0000 0.0000
# 4 0.0000 0.0000 0.0000 22.9275 0.0000 0.0000
# 5 0.0000 0.0000 0.0000 0.0000 18.7815 0.0000
# 6 0.0000 0.0000 0.0000 0.0000 0.0000 -4.7295
#
#
#
# Elastic Compliance Matrix: (Units=1/GPa)
#
#
# Indices 1 2 3 4 5 6 
#
# 1 0.012390 -0.012247 -0.004743 0.000000 0.000000 0.000000
# 2 -0.012247 0.027796 0.010036 0.000000 0.000000 0.000000
# 3 -0.004743 0.010036 0.021441 0.000000 0.000000 0.000000
# 4 0.000000 0.000000 0.000000 0.043616 0.000000 0.000000
# 5 0.000000 0.000000 0.000000 0.000000 0.053244 0.000000
# 6 0.000000 0.000000 0.000000 0.000000 0.000000 -0.211440
#
#
# Mechanical properties :
#
#
# Convention : Reuss Voigt Hill
#
# Bulk Modulus (GPa) = 20.95644 40.07447 30.51545
# Shear Modulus (GPa) = -216.07872 22.32886 -96.87493
#
# Velocity S-wave (km/s) = -10.28525 3.30630 -6.88675
# Velocity P-wave (km/s) = 11.43629 5.84764 6.94960
#
# Compressibility (1/GPa) = 0.04771804
#
# Stress axis : x y z
#
# Youngs Moduli (GPa) = 80.71320 35.97638 46.64011
#
# Poissons Ratio (x) = 0.44062 0.22119
# Poissons Ratio (y) = 0.98853 -0.46807
# Poissons Ratio (z) = 0.38278 -0.36105
#
# Static dielectric constant tensor:
#      x y z
#    x 4.177450 0.000000 0.000000 
#    y 0.000000 3.838400 0.000000 
#    z 0.000000 0.000000 3.713940 
# 
# 
# High freq. dielectric constant tensor:
#      x y z
#    x 1.818380 0.000000 0.000000 
#    y 0.000000 1.790370 0.000000 
#    z 0.000000 0.000000 1.812700 
# 
# From -- ./inp_files/2158.got.cif
#   From: 2010.03.12/outbox.cif.g09.slc.cpg/sg26_2_cif.got.tgz:2158.got - 2010.04.14 03:33:09.
