data_PCOD8167611
_publ_section_title
;
Structure prediction by ZEFSAII (Michael W. Deem and Ramdas Pophale) SiO2 
 PCOD8167611
Probable space group: P M C 21
;
_chemical_formula_sum "Si O2"
_cell_formula_units_Z 32
_cell_length_a 9.103499
_cell_length_b 12.199732
_cell_length_c 14.616692
_cell_angle_alpha 90.000000
_cell_angle_beta 90.000000
_cell_angle_gamma 90.000000
_cell_volume 1623.333439
_symmetry_space_group_name_H-M "P M C 21"
_symmetry_group_IT_number 26
_symmetry_cell_setting 'orthorhombic'
loop_
_space_group_symop_operation_xyz
x,y,z
-x,-y,1/2+z
-x,y,z
x,-y,1/2+z
loop_
_atom_site_type_symbol
_atom_site_label
_atom_site_fract_x
_atom_site_fract_y
_atom_site_fract_z
Si Si1 0.833926 0.230738 0.992720
Si Si2 0.327193 0.676440 0.827934
Si Si3 0.830202 0.794526 0.139030
Si Si4 0.837875 0.961735 0.617324
Si Si5 0.327083 0.084699 0.291860
Si Si6 0.672285 0.389249 0.128030
Si Si7 0.328778 0.614332 0.026299
Si Si8 0.674431 0.842091 0.323030
O O1 0.735678 0.236321 0.902302
O O2 0.000000 0.270409 0.972289
O O3 0.831417 0.104299 0.023278
O O4 0.765509 0.301371 0.073316
O O5 0.500000 0.686226 0.820573
O O6 0.264636 0.802271 0.836634
O O7 0.274047 0.615338 0.734531
O O8 0.284109 0.605986 0.918195
O O9 0.769775 0.709102 0.067009
O O10 0.736685 0.788680 0.231332
O O11 0.000000 0.770017 0.161211
O O12 0.806388 0.912537 0.092314
O O13 0.717826 0.913114 0.685890
O O14 0.000000 0.950795 0.663083
O O15 0.500000 0.084329 0.297810
O O16 0.270278 0.969126 0.335135
O O17 0.500000 0.362190 0.119307
O O18 0.709069 0.505282 0.082054
O O19 0.500000 0.644595 0.035736
O O20 0.500000 0.834099 0.321574
#
# Coordination Sequence:
#
# PCOD8167611 Si02
#       8
#     4   4   4   4   4   4   4   4
#     4  11  22  36  56  85 119 156 196 243 295 353
#     4   9  18  35  57  83 114 147 191 245 293 342
#     4  10  21  39  58  82 119 157 192 240 298 355
#     4   9  19  34  53  80 115 151 186 233 294 352
#     4   9  17  32  55  81 111 148 193 240 287 341
#     4  10  21  39  61  84 116 159 203 249 295 343
#     4  10  22  38  60  88 116 154 201 250 298 347
#     4  10  21  35  56  87 118 156 198 240 294 357
#
# _framework density 19.712523999999998
#
# number of rings (size 3 to 8) (size 9 to 14) (size 15 to 20)
#    0.000    2.250    1.250    1.125    1.750    3.000 
#    0.000    3.750    0.000    0.000    0.000    0.000 
#    0.000    0.000    0.000    0.000    0.000    0.000 
#
# Total GULP energy -396607.147410 kJ/mol
# GULP energy per Si atom -12393.973357 kJ/mol
# Density = 1.966766 g / cm^3
# Si number density = 19.712524 Si / 1000 Ang^3
#
#
#
# Elastic Constant Matrix: (Units=GPa)
#
#
# Indices 1 2 3 4 5 6 
#
# 1 53.5408 32.2397 35.8950 0.0000 0.0000 0.0000
# 2 32.2397 85.6168 60.3849 0.0000 0.0000 0.0000
# 3 35.8950 60.3849 129.5521 0.0000 0.0000 0.0000
# 4 0.0000 0.0000 0.0000 25.6085 0.0000 0.0000
# 5 0.0000 0.0000 0.0000 0.0000 11.5128 0.0000
# 6 0.0000 0.0000 0.0000 0.0000 0.0000 23.0642
#
#
#
# Elastic Compliance Matrix: (Units=1/GPa)
#
#
# Indices 1 2 3 4 5 6 
#
# 1 0.025374 -0.006847 -0.003839 0.000000 0.000000 0.000000
# 2 -0.006847 0.019248 -0.007074 0.000000 0.000000 0.000000
# 3 -0.003839 -0.007074 0.012080 0.000000 0.000000 0.000000
# 4 0.000000 0.000000 0.000000 0.039049 0.000000 0.000000
# 5 0.000000 0.000000 0.000000 0.000000 0.086860 0.000000
# 6 0.000000 0.000000 0.000000 0.000000 0.000000 0.043357
#
#
# Mechanical properties :
#
#
# Convention : Reuss Voigt Hill
#
# Bulk Modulus (GPa) = 47.21236 58.41654 52.81445
# Shear Modulus (GPa) = 18.61852 21.38312 20.00082
#
# Velocity S-wave (km/s) = 3.07661 3.29712 3.18877
# Velocity P-wave (km/s) = 6.05171 6.64780 6.35674
#
# Compressibility (1/GPa) = 0.02118089
#
# Stress axis : x y z
#
# Youngs Moduli (GPa) = 39.41023 51.95391 82.78214
#
# Poissons Ratio (x) = 0.35575 0.31779
# Poissons Ratio (y) = 0.26985 0.58563
# Poissons Ratio (z) = 0.15129 0.36754
#
# Static dielectric constant tensor:
#      x y z
#    x 3.469090 0.000000 0.000000 
#    y 0.000000 3.695200 0.000000 
#    z 0.000000 0.000000 3.668040 
# 
# 
# High freq. dielectric constant tensor:
#      x y z
#    x 1.754430 0.000000 0.000000 
#    y 0.000000 1.764310 0.000000 
#    z 0.000000 0.000000 1.765340 
# 
# From -- ./inp_files/4291.got.cif
#   From: 2010.03.12/outbox.cif.g09.slc.cpg/sg26_3_cif.got.tgz:4291.got - 2010.04.14 03:33:09.
