data_PCOD8167209
_publ_section_title
;
Structure prediction by ZEFSAII (Michael W. Deem and Ramdas Pophale) SiO2 
 PCOD8167209
Probable space group: P M C 21
;
_chemical_formula_sum "Si O2"
_cell_formula_units_Z 32
_cell_length_a 9.348598
_cell_length_b 35.382408
_cell_length_c 5.171409
_cell_angle_alpha 90.000000
_cell_angle_beta 90.000000
_cell_angle_gamma 90.000000
_cell_volume 1710.577511
_symmetry_space_group_name_H-M "P M C 21"
_symmetry_group_IT_number 26
_symmetry_cell_setting 'orthorhombic'
loop_
_space_group_symop_operation_xyz
x,y,z
-x,-y,1/2+z
-x,y,z
x,-y,1/2+z
loop_
_atom_site_type_symbol
_atom_site_label
_atom_site_fract_x
_atom_site_fract_y
_atom_site_fract_z
Si Si1 0.669882 0.775302 0.521030
Si Si2 0.834518 0.900050 0.003100
Si Si3 0.669926 0.645727 0.045988
Si Si4 0.669812 0.269609 0.522972
Si Si5 0.667971 0.023089 0.510220
Si Si6 0.164904 0.523930 0.567879
Si Si7 0.834194 0.147441 0.003284
Si Si8 0.669900 0.600917 0.547651
O O1 0.500000 0.780295 0.519380
O O2 0.726858 0.754580 0.264481
O O3 0.738695 0.816071 0.544470
O O4 0.722116 0.750170 0.761458
O O5 0.743706 0.937248 0.046858
O O6 0.795278 0.870517 0.227769
O O7 0.000000 0.911436 0.017947
O O8 0.794852 0.882133 0.727717
O O9 0.500000 0.647782 0.036409
O O10 0.733822 0.688070 0.034913
O O11 0.723018 0.625762 0.306412
O O12 0.727069 0.621738 0.803645
O O13 0.500000 0.271779 0.533910
O O14 0.500000 0.030699 0.520128
O O15 0.716069 0.004437 0.241494
O O16 0.201578 0.493982 0.344532
O O17 0.263329 0.559869 0.526110
O O18 0.000000 0.536480 0.551037
O O19 0.000000 0.159094 0.019475
O O20 0.500000 0.596353 0.548944
#
# Coordination Sequence:
#
# PCOD8167209 Si02
#       8
#     4   4   4   4   4   4   4   4
#     4  10  19  31  51  76  98 128 169 205 240 287
#     4  10  21  36  54  75  99 133 172 204 242 294
#     4   9  17  30  49  74 102 129 158 198 248 292
#     4   9  17  30  49  74 102 129 162 203 242 289
#     4  10  21  36  54  78 106 133 162 202 252 296
#     4  10  21  36  52  70  96 131 164 196 242 294
#     4  10  21  36  52  73 103 134 165 206 252 292
#     4  10  19  31  51  76  98 125 162 202 244 288
#
# _framework density 18.707132999999999
#
# number of rings (size 3 to 8) (size 9 to 14) (size 15 to 20)
#    0.000    2.250    0.000    3.000    0.000    5.000 
#    0.000    0.000    0.000    4.500    0.000    0.000 
#    0.000    0.000    0.000    0.000    0.000    0.000 
#
# Total GULP energy -396910.058322 kJ/mol
# GULP energy per Si atom -12403.439323 kJ/mol
# Density = 1.866455 g / cm^3
# Si number density = 18.707133 Si / 1000 Ang^3
#
#
#
# Elastic Constant Matrix: (Units=GPa)
#
#
# Indices 1 2 3 4 5 6 
#
# 1 30.5143 40.4172 24.0110 0.0000 0.0000 0.0000
# 2 40.4172 111.9731 24.1924 0.0000 0.0000 0.0000
# 3 24.0110 24.1924 110.8464 0.0000 0.0000 0.0000
# 4 0.0000 0.0000 0.0000 30.2801 0.0000 0.0000
# 5 0.0000 0.0000 0.0000 0.0000 11.4832 0.0000
# 6 0.0000 0.0000 0.0000 0.0000 0.0000 -42.6337
#
#
#
# Elastic Compliance Matrix: (Units=1/GPa)
#
#
# Indices 1 2 3 4 5 6 
#
# 1 0.072911 -0.024039 -0.010547 0.000000 0.000000 0.000000
# 2 -0.024039 0.017298 0.001432 0.000000 0.000000 0.000000
# 3 -0.010547 0.001432 0.010994 0.000000 0.000000 0.000000
# 4 0.000000 0.000000 0.000000 0.033025 0.000000 0.000000
# 5 0.000000 0.000000 0.000000 0.000000 0.087083 0.000000
# 6 0.000000 0.000000 0.000000 0.000000 0.000000 -0.023456
#
#
# Mechanical properties :
#
#
# Convention : Reuss Voigt Hill
#
# Bulk Modulus (GPa) = 28.65770 47.84168 38.24969
# Shear Modulus (GPa) = 18.12939 10.80680 14.46810
#
# Velocity S-wave (km/s) = 3.11644 2.40611 2.78402
# Velocity P-wave (km/s) = 5.31996 5.77483 5.55206
#
# Compressibility (1/GPa) = 0.03489463
#
# Stress axis : x y z
#
# Youngs Moduli (GPa) = 13.71539 57.80929 90.96137
#
# Poissons Ratio (x) = 1.38966 0.95938
# Poissons Ratio (y) = 0.32970 -0.13024
# Poissons Ratio (z) = 0.14466 -0.08277
#
# Static dielectric constant tensor:
#      x y z
#    x 3.082850 0.000000 0.000000 
#    y 0.000000 3.420010 0.000000 
#    z 0.000000 0.000000 3.863270 
# 
# 
# High freq. dielectric constant tensor:
#      x y z
#    x 1.688410 0.000000 0.000000 
#    y 0.000000 1.737510 0.000000 
#    z 0.000000 0.000000 1.750390 
# 
# From -- ./inp_files/242.got.cif
#   From: 2010.03.12/outbox.cif.g09.slc.cpg/sg26_1_cif.got.tgz:242.got - 2010.04.14 03:33:09.
