data_PCOD8167839
_publ_section_title
;
Structure prediction by ZEFSAII (Michael W. Deem and Ramdas Pophale) SiO2 
 PCOD8167839
Probable space group: P C C 2
;
_chemical_formula_sum "Si O2"
_cell_formula_units_Z 24
_cell_length_a 8.919976
_cell_length_b 8.593823
_cell_length_c 13.649563
_cell_angle_alpha 90.000000
_cell_angle_beta 90.000000
_cell_angle_gamma 90.000000
_cell_volume 1046.330387
_symmetry_space_group_name_H-M "P C C 2"
_symmetry_group_IT_number 27
_symmetry_cell_setting 'orthorhombic'
loop_
_space_group_symop_operation_xyz
x,y,z
-x,-y,z
-x,y,1/2+z
x,-y,1/2+z
loop_
_atom_site_type_symbol
_atom_site_label
_atom_site_fract_x
_atom_site_fract_y
_atom_site_fract_z
Si Si1 0.101008 0.141703 0.237020
Si Si2 0.255241 0.673070 0.908509
Si Si3 0.255597 0.313141 0.947608
Si Si4 0.971877 0.319507 0.063363
Si Si5 0.471150 0.180401 0.816122
Si Si6 0.597787 0.147315 0.623293
O O1 0.148053 0.259671 0.323166
O O2 0.988106 0.229442 0.163878
O O3 0.249154 0.086657 0.177014
O O4 0.000000 0.000000 0.278572
O O5 0.265219 0.487557 0.907853
O O6 0.421515 0.738988 0.896578
O O7 0.189732 0.718955 0.015607
O O8 0.302100 0.210475 0.852828
O O9 0.090082 0.265783 0.980063
O O10 0.367039 0.270379 0.037932
O O11 0.000000 0.500000 0.085468
O O12 0.502281 0.242540 0.706041
O O13 0.500000 0.000000 0.812796
O O14 0.500000 0.000000 0.583668
#
# Coordination Sequence:
#
# PCOD8167839 Si02
#       6
#     4   4   4   4   4   4
#     4  10  22  39  61  89 122 161 206 255 308 371
#     4  10  22  40  60  88 122 160 204 253 311 371
#     4  10  20  39  62  87 122 160 202 258 312 369
#     4   9  21  39  59  86 119 157 202 251 307 369
#     4  10  21  38  61  90 123 161 206 255 307 368
#     4   9  20  39  61  90 124 161 209 256 308 370
#
# _framework density 22.937306
#
# number of rings (size 3 to 8) (size 9 to 14) (size 15 to 20)
#    0.000    2.333    0.000    1.000    0.000   10.667 
#    0.000   11.667    0.000    0.000    0.000    0.000 
#    0.000    0.000    0.000    0.000    0.000    0.000 
#
# Total GULP energy -297398.604248 kJ/mol
# GULP energy per Si atom -12391.608510 kJ/mol
# Density = 2.288510 g / cm^3
# Si number density = 22.937306 Si / 1000 Ang^3
#
#
#
# Elastic Constant Matrix: (Units=GPa)
#
#
# Indices 1 2 3 4 5 6 
#
# 1 36.8595 31.2162 19.8825 0.0000 0.0000 0.0000
# 2 31.2162 96.1491 50.3509 0.0000 0.0000 0.0000
# 3 19.8825 50.3509 76.0144 0.0000 0.0000 0.0000
# 4 0.0000 0.0000 0.0000 35.9440 0.0000 0.0000
# 5 0.0000 0.0000 0.0000 0.0000 36.3622 0.0000
# 6 0.0000 0.0000 0.0000 0.0000 0.0000 44.7344
#
#
#
# Elastic Compliance Matrix: (Units=1/GPa)
#
#
# Indices 1 2 3 4 5 6 
#
# 1 0.037774 -0.010855 -0.002690 0.000000 0.000000 0.000000
# 2 -0.010855 0.019044 -0.009775 0.000000 0.000000 0.000000
# 3 -0.002690 -0.009775 0.020334 0.000000 0.000000 0.000000
# 4 0.000000 0.000000 0.000000 0.027821 0.000000 0.000000
# 5 0.000000 0.000000 0.000000 0.000000 0.027501 0.000000
# 6 0.000000 0.000000 0.000000 0.000000 0.000000 0.022354
#
#
# Mechanical properties :
#
#
# Convention : Reuss Voigt Hill
#
# Bulk Modulus (GPa) = 32.77458 45.76913 39.27185
# Shear Modulus (GPa) = 23.62509 30.57967 27.10238
#
# Velocity S-wave (km/s) = 3.21282 3.65524 3.44115
# Velocity P-wave (km/s) = 5.29932 6.14912 5.73997
#
# Compressibility (1/GPa) = 0.03051145
#
# Stress axis : x y z
#
# Youngs Moduli (GPa) = 26.47294 52.51057 49.17918
#
# Poissons Ratio (x) = 0.57002 0.13229
# Poissons Ratio (y) = 0.28737 0.48073
# Poissons Ratio (z) = 0.07121 0.51329
#
# Static dielectric constant tensor:
#      x y z
#    x 4.489250 0.000000 0.000000 
#    y 0.000000 3.948560 0.000000 
#    z 0.000000 0.000000 4.418800 
# 
# 
# High freq. dielectric constant tensor:
#      x y z
#    x 1.913780 0.000000 0.000000 
#    y 0.000000 1.887790 0.000000 
#    z 0.000000 0.000000 1.910120 
# 
# From -- ./inp_files/3311.got.cif
#   From: 2010.03.12/outbox.cif.g09.slc.cpg/sg27_2_cif.got.tgz:3311.got - 2010.04.14 03:36:05.
