data_PCOD8167453
_publ_section_title
;
Structure prediction by ZEFSAII (Michael W. Deem and Ramdas Pophale) SiO2 
 PCOD8167453
Probable space group: P M C 21
;
_chemical_formula_sum "Si O2"
_cell_formula_units_Z 32
_cell_length_a 9.452051
_cell_length_b 16.173094
_cell_length_c 11.156932
_cell_angle_alpha 90.000000
_cell_angle_beta 90.000000
_cell_angle_gamma 90.000000
_cell_volume 1705.548026
_symmetry_space_group_name_H-M "P M C 21"
_symmetry_group_IT_number 26
_symmetry_cell_setting 'orthorhombic'
loop_
_space_group_symop_operation_xyz
x,y,z
-x,-y,1/2+z
-x,y,z
x,-y,1/2+z
loop_
_atom_site_type_symbol
_atom_site_label
_atom_site_fract_x
_atom_site_fract_y
_atom_site_fract_z
Si Si1 0.663520 0.165100 0.758490
Si Si2 0.160276 0.247889 0.575158
Si Si3 0.168987 0.434541 0.614146
Si Si4 0.335457 0.975781 0.437082
Si Si5 0.160222 0.138980 0.105087
Si Si6 0.841153 0.723808 0.426571
Si Si7 0.836014 0.462756 0.885516
Si Si8 0.160426 0.130896 0.374423
O O1 0.500000 0.183315 0.737216
O O2 0.748274 0.174822 0.635771
O O3 0.687903 0.073661 0.812338
O O4 0.724757 0.236373 0.842473
O O5 0.220285 0.339412 0.600855
O O6 0.169904 0.221324 0.436253
O O7 0.000000 0.243013 0.622664
O O8 0.229922 0.479901 0.493078
O O9 0.223319 0.469806 0.745938
O O10 0.000000 0.439628 0.613169
O O11 0.500000 0.987182 0.466800
O O12 0.267110 0.923245 0.542757
O O13 0.263712 0.064443 0.433451
O O14 0.210060 0.146085 0.240349
O O15 0.000000 0.105055 0.091035
O O16 0.170242 0.232284 0.055069
O O17 0.807081 0.627792 0.438033
O O18 0.000000 0.735836 0.372814
O O19 0.000000 0.484446 0.876704
O O20 0.000000 0.096543 0.381831
#
# Coordination Sequence:
#
# PCOD8167453 Si02
#       8
#     4   4   4   4   4   4   4   4
#     4  10  20  34  54  78 102 134 178 222 261 312
#     4  10  20  35  54  77 108 144 178 218 268 324
#     4   9  17  29  48  78 111 139 176 222 272 324
#     4  10  22  37  54  77 104 137 178 224 269 317
#     4   9  19  35  53  76 105 136 175 220 269 326
#     4   9  16  31  55  78 102 136 174 214 265 319
#     4   9  16  27  48  79 109 138 174 221 272 322
#     4  10  22  36  52  77 107 140 177 221 274 326
#
# _framework density 18.762297
#
# number of rings (size 3 to 8) (size 9 to 14) (size 15 to 20)
#    0.000    2.500    1.250    0.750    1.750    3.500 
#    0.000    5.000    0.000    0.750    0.000    0.000 
#    0.000    0.000    0.000    0.000    0.000    0.000 
#
# Total GULP energy -396446.780996 kJ/mol
# GULP energy per Si atom -12388.961906 kJ/mol
# Density = 1.871959 g / cm^3
# Si number density = 18.762297 Si / 1000 Ang^3
#
#
#
# Elastic Constant Matrix: (Units=GPa)
#
#
# Indices 1 2 3 4 5 6 
#
# 1 54.0871 25.4579 28.8508 0.0000 0.0000 0.0000
# 2 25.4579 85.3173 57.1199 0.0000 0.0000 0.0000
# 3 28.8508 57.1199 138.2821 0.0000 0.0000 0.0000
# 4 0.0000 0.0000 0.0000 25.6046 0.0000 0.0000
# 5 0.0000 0.0000 0.0000 0.0000 -2.3514 0.0000
# 6 0.0000 0.0000 0.0000 0.0000 0.0000 8.4455
#
#
#
# Elastic Compliance Matrix: (Units=1/GPa)
#
#
# Indices 1 2 3 4 5 6 
#
# 1 0.022174 -0.004865 -0.002617 0.000000 0.000000 0.000000
# 2 -0.004865 0.017269 -0.006118 0.000000 0.000000 0.000000
# 3 -0.002617 -0.006118 0.010305 0.000000 0.000000 0.000000
# 4 0.000000 0.000000 0.000000 0.039056 0.000000 0.000000
# 5 0.000000 0.000000 0.000000 0.000000 -0.425280 0.000000
# 6 0.000000 0.000000 0.000000 0.000000 0.000000 0.118406
#
#
# Mechanical properties :
#
#
# Convention : Reuss Voigt Hill
#
# Bulk Modulus (GPa) = 44.34923 55.61596 49.98259
# Shear Modulus (GPa) = -27.26945 17.42361 -4.92292
#
# Velocity S-wave (km/s) = -3.81651 3.05068 -1.62158
# Velocity P-wave (km/s) = 2.06586 6.48966 4.81578
#
# Compressibility (1/GPa) = 0.02254830
#
# Stress axis : x y z
#
# Youngs Moduli (GPa) = 45.09727 57.90865 97.04199
#
# Poissons Ratio (x) = 0.28170 0.25396
# Poissons Ratio (y) = 0.21938 0.59372
# Poissons Ratio (z) = 0.11802 0.35430
#
# Static dielectric constant tensor:
#      x y z
#    x 3.362050 0.000000 0.000000 
#    y 0.000000 3.441140 0.000000 
#    z 0.000000 0.000000 3.764940 
# 
# 
# High freq. dielectric constant tensor:
#      x y z
#    x 1.690480 0.000000 0.000000 
#    y 0.000000 1.720450 0.000000 
#    z 0.000000 0.000000 1.739780 
# 
# From -- ./inp_files/3049.got.cif
#   From: 2010.03.12/outbox.cif.g09.slc.cpg/sg26_2_cif.got.tgz:3049.got - 2010.04.14 03:33:09.
