data_PCOD8167440
_publ_section_title
;
Structure prediction by ZEFSAII (Michael W. Deem and Ramdas Pophale) SiO2 
 PCOD8167440
Probable space group: P M C 21
;
_chemical_formula_sum "Si O2"
_cell_formula_units_Z 32
_cell_length_a 9.266924
_cell_length_b 10.056200
_cell_length_c 19.487279
_cell_angle_alpha 90.000000
_cell_angle_beta 90.000000
_cell_angle_gamma 90.000000
_cell_volume 1816.020331
_symmetry_space_group_name_H-M "P M C 21"
_symmetry_group_IT_number 26
_symmetry_cell_setting 'orthorhombic'
loop_
_space_group_symop_operation_xyz
x,y,z
-x,-y,1/2+z
-x,y,z
x,-y,1/2+z
loop_
_atom_site_type_symbol
_atom_site_label
_atom_site_fract_x
_atom_site_fract_y
_atom_site_fract_z
Si Si1 0.667122 0.151647 0.966940
Si Si2 0.833009 0.361744 0.726810
Si Si3 0.168988 0.357267 0.569275
Si Si4 0.170131 0.870566 0.329759
Si Si5 0.336421 0.150941 0.480879
Si Si6 0.667763 0.619517 0.571088
Si Si7 0.668480 0.377879 0.228324
Si Si8 0.667185 0.138242 0.323085
O O1 0.500000 0.166353 0.945344
O O2 0.763789 0.181843 0.900828
O O3 0.696206 0.003861 0.995070
O O4 0.711942 0.253391 0.026328
O O5 0.791943 0.329538 0.648381
O O6 0.789700 0.234968 0.771408
O O7 0.746476 0.489147 0.754123
O O8 0.000000 0.397117 0.734250
O O9 0.225935 0.234224 0.525722
O O10 0.243572 0.493048 0.544034
O O11 0.000000 0.371491 0.556874
O O12 0.000000 0.888924 0.338719
O O13 0.238988 0.009140 0.306194
O O14 0.500000 0.186620 0.502193
O O15 0.310387 0.184444 0.401197
O O16 0.500000 0.584904 0.563255
O O17 0.707806 0.653378 0.649482
O O18 0.500000 0.400775 0.239191
O O19 0.723331 0.255057 0.273853
O O20 0.500000 0.103230 0.309299
#
# Coordination Sequence:
#
# PCOD8167440 Si02
#       8
#     4   4   4   4   4   4   4   4
#     4   9  19  35  53  74 101 130 161 203 251 292
#     4   9  20  36  50  70 102 133 163 204 248 288
#     4  10  20  34  51  72 100 133 167 202 242 291
#     4  10  20  34  52  74 100 131 167 203 242 293
#     4   9  18  33  51  73 101 130 161 201 247 291
#     4   9  18  34  54  75 100 129 163 205 249 291
#     4   9  18  33  54  77  98 127 168 205 241 293
#     4   9  19  35  53  75 102 129 162 205 248 291
#
# _framework density 17.620947000000001
#
# number of rings (size 3 to 8) (size 9 to 14) (size 15 to 20)
#    0.000    2.750    0.000    1.500    0.000    6.500 
#    0.000    5.000    0.000    0.000    0.000    0.000 
#    0.000    0.000    0.000    0.000    0.000    0.000 
#
# Total GULP energy -396886.783594 kJ/mol
# GULP energy per Si atom -12402.711987 kJ/mol
# Density = 1.758084 g / cm^3
# Si number density = 17.620947 Si / 1000 Ang^3
#
#
#
# Elastic Constant Matrix: (Units=GPa)
#
#
# Indices 1 2 3 4 5 6 
#
# 1 72.8122 68.6669 50.6920 0.0000 0.0000 0.0000
# 2 68.6669 141.0433 84.7836 0.0000 0.0000 0.0000
# 3 50.6920 84.7836 86.6816 0.0000 0.0000 0.0000
# 4 0.0000 0.0000 0.0000 35.2373 0.0000 0.0000
# 5 0.0000 0.0000 0.0000 0.0000 25.0282 0.0000
# 6 0.0000 0.0000 0.0000 0.0000 0.0000 18.4993
#
#
#
# Elastic Compliance Matrix: (Units=1/GPa)
#
#
# Indices 1 2 3 4 5 6 
#
# 1 0.027100 -0.008900 -0.007144 0.000000 0.000000 0.000000
# 2 -0.008900 0.020129 -0.014484 0.000000 0.000000 0.000000
# 3 -0.007144 -0.014484 0.029881 0.000000 0.000000 0.000000
# 4 0.000000 0.000000 0.000000 0.028379 0.000000 0.000000
# 5 0.000000 0.000000 0.000000 0.000000 0.039955 0.000000
# 6 0.000000 0.000000 0.000000 0.000000 0.000000 0.054056
#
#
# Mechanical properties :
#
#
# Convention : Reuss Voigt Hill
#
# Bulk Modulus (GPa) = 62.28194 78.75800 70.51997
# Shear Modulus (GPa) = 18.80347 22.17925 20.49136
#
# Velocity S-wave (km/s) = 3.27021 3.55165 3.41383
# Velocity P-wave (km/s) = 7.04848 7.84931 7.45965
#
# Compressibility (1/GPa) = 0.01605602
#
# Stress axis : x y z
#
# Youngs Moduli (GPa) = 36.89989 49.67839 33.46577
#
# Poissons Ratio (x) = 0.44211 0.23907
# Poissons Ratio (y) = 0.32839 0.48473
# Poissons Ratio (z) = 0.26361 0.71955
#
# Static dielectric constant tensor:
#      x y z
#    x 3.233120 0.000000 0.000000 
#    y 0.000000 3.322640 0.000000 
#    z 0.000000 0.000000 3.289250 
# 
# 
# High freq. dielectric constant tensor:
#      x y z
#    x 1.680490 0.000000 0.000000 
#    y 0.000000 1.685210 0.000000 
#    z 0.000000 0.000000 1.678200 
# 
# From -- ./inp_files/5542.got.cif
#   From: 2010.03.12/outbox.cif.g09.slc.cpg/sg26_3_cif.got.tgz:5542.got - 2010.04.14 03:33:09.
