data_PCOD8167701
_publ_section_title
;
Structure prediction by ZEFSAII (Michael W. Deem and Ramdas Pophale) SiO2 
 PCOD8167701
Probable space group: P M C 21
;
_chemical_formula_sum "Si O2"
_cell_formula_units_Z 32
_cell_length_a 8.897741
_cell_length_b 13.976806
_cell_length_c 12.494750
_cell_angle_alpha 90.000000
_cell_angle_beta 90.000000
_cell_angle_gamma 90.000000
_cell_volume 1553.872097
_symmetry_space_group_name_H-M "P M C 21"
_symmetry_group_IT_number 26
_symmetry_cell_setting 'orthorhombic'
loop_
_space_group_symop_operation_xyz
x,y,z
-x,-y,1/2+z
-x,y,z
x,-y,1/2+z
loop_
_atom_site_type_symbol
_atom_site_label
_atom_site_fract_x
_atom_site_fract_y
_atom_site_fract_z
Si Si1 0.326829 0.140766 0.691220
Si Si2 0.673882 0.933779 0.771262
Si Si3 0.323651 0.358936 0.400300
Si Si4 0.665191 0.168793 0.061522
Si Si5 0.335680 0.372537 0.160763
Si Si6 0.821846 0.169852 0.470744
Si Si7 0.172801 0.548128 0.474232
Si Si8 0.174074 0.248013 0.869706
O O1 0.500000 0.161193 0.664315
O O2 0.239302 0.124569 0.580420
O O3 0.260778 0.229890 0.758391
O O4 0.307555 0.047493 0.765678
O O5 0.500000 0.902071 0.783962
O O6 0.737230 0.891224 0.659116
O O7 0.764593 0.892903 0.871335
O O8 0.500000 0.342701 0.417769
O O9 0.274126 0.347331 0.277464
O O10 0.234472 0.279237 0.466551
O O11 0.279762 0.465149 0.433346
O O12 0.500000 0.126126 0.030482
O O13 0.643191 0.276735 0.095851
O O14 0.772568 0.170168 0.958213
O O15 0.500000 0.423890 0.168288
O O16 0.214425 0.437353 0.099055
O O17 0.000000 0.167990 0.471232
O O18 0.205684 0.643062 0.404980
O O19 0.000000 0.517276 0.466341
O O20 0.000000 0.229720 0.849783
#
# Coordination Sequence:
#
# PCOD8167701 Si02
#       8
#     4   4   4   4   4   4   4   4
#     4  11  25  43  66  92 127 174 218 260 312 377
#     4  10  22  42  66  92 122 163 213 261 308 371
#     4  11  22  40  65  91 122 163 212 261 310 375
#     4   9  17  35  62  88 115 153 205 260 309 365
#     4   9  18  35  59  85 114 154 204 258 306 364
#     4  12  26  43  65  95 132 166 205 262 325 382
#     4  10  22  38  59  90 126 165 207 259 320 380
#     4  10  22  40  60  89 130 168 208 261 322 376
#
# _framework density 20.593713999999999
#
# number of rings (size 3 to 8) (size 9 to 14) (size 15 to 20)
#    0.000    1.750    1.250    2.625    1.750    5.000 
#    0.000    2.500    0.000    0.000    0.000    0.000 
#    0.000    0.000    0.000    0.000    0.000    0.000 
#
# Total GULP energy -396810.353824 kJ/mol
# GULP energy per Si atom -12400.323557 kJ/mol
# Density = 2.054684 g / cm^3
# Si number density = 20.593714 Si / 1000 Ang^3
#
#
#
# Elastic Constant Matrix: (Units=GPa)
#
#
# Indices 1 2 3 4 5 6 
#
# 1 118.7330 50.0432 56.1027 0.0000 0.0000 0.0000
# 2 50.0432 63.0482 33.1361 0.0000 0.0000 0.0000
# 3 56.1027 33.1361 99.2501 0.0000 0.0000 0.0000
# 4 0.0000 0.0000 0.0000 21.0063 0.0000 0.0000
# 5 0.0000 0.0000 0.0000 0.0000 3.1493 0.0000
# 6 0.0000 0.0000 0.0000 0.0000 0.0000 26.1283
#
#
#
# Elastic Compliance Matrix: (Units=1/GPa)
#
#
# Indices 1 2 3 4 5 6 
#
# 1 0.014671 -0.008837 -0.005343 0.000000 0.000000 0.000000
# 2 -0.008837 0.024559 -0.003204 0.000000 0.000000 0.000000
# 3 -0.005343 -0.003204 0.014165 0.000000 0.000000 0.000000
# 4 0.000000 0.000000 0.000000 0.047605 0.000000 0.000000
# 5 0.000000 0.000000 0.000000 0.000000 0.317528 0.000000
# 6 0.000000 0.000000 0.000000 0.000000 0.000000 0.038273
#
#
# Mechanical properties :
#
#
# Convention : Reuss Voigt Hill
#
# Bulk Modulus (GPa) = 53.68314 62.17728 57.93021
# Shear Modulus (GPa) = 10.04463 19.50675 14.77569
#
# Velocity S-wave (km/s) = 2.21091 3.08103 2.68150
# Velocity P-wave (km/s) = 5.71330 6.55095 6.14641
#
# Compressibility (1/GPa) = 0.01862782
#
# Stress axis : x y z
#
# Youngs Moduli (GPa) = 68.15946 40.71803 70.59434
#
# Poissons Ratio (x) = 0.35983 0.37718
# Poissons Ratio (y) = 0.60233 0.22619
# Poissons Ratio (z) = 0.36417 0.13046
#
# Static dielectric constant tensor:
#      x y z
#    x 8.481630 0.000000 0.000000 
#    y 0.000000 3.630830 0.000000 
#    z 0.000000 0.000000 3.828810 
# 
# 
# High freq. dielectric constant tensor:
#      x y z
#    x 1.803280 0.000000 0.000000 
#    y 0.000000 1.797090 0.000000 
#    z 0.000000 0.000000 1.811390 
# 
# From -- ./inp_files/2968.got.cif
#   From: 2010.03.12/outbox.cif.g09.slc.cpg/sg26_2_cif.got.tgz:2968.got - 2010.04.14 03:33:09.
