data_PCOD8167362
_publ_section_title
;
Structure prediction by ZEFSAII (Michael W. Deem and Ramdas Pophale) SiO2 
 PCOD8167362
Probable space group: P M C 21
;
_chemical_formula_sum "Si O2"
_cell_formula_units_Z 32
_cell_length_a 9.013509
_cell_length_b 12.103562
_cell_length_c 14.323073
_cell_angle_alpha 90.000000
_cell_angle_beta 90.000000
_cell_angle_gamma 90.000000
_cell_volume 1562.583742
_symmetry_space_group_name_H-M "P M C 21"
_symmetry_group_IT_number 26
_symmetry_cell_setting 'orthorhombic'
loop_
_space_group_symop_operation_xyz
x,y,z
-x,-y,1/2+z
-x,y,z
x,-y,1/2+z
loop_
_atom_site_type_symbol
_atom_site_label
_atom_site_fract_x
_atom_site_fract_y
_atom_site_fract_z
Si Si1 0.174798 0.613512 0.197560
Si Si2 0.835628 0.204175 0.827349
Si Si3 0.163592 0.699138 0.522854
Si Si4 0.176754 0.009278 0.427438
Si Si5 0.328044 0.166136 0.294401
Si Si6 0.673753 0.416812 0.307303
Si Si7 0.328403 0.902203 0.593293
Si Si8 0.829569 0.453242 0.499092
O O1 0.242066 0.726828 0.243425
O O2 0.247212 0.504311 0.240963
O O3 0.000000 0.605060 0.219661
O O4 0.204134 0.626602 0.086951
O O5 0.000000 0.169829 0.794910
O O6 0.757683 0.090892 0.862545
O O7 0.839695 0.291139 0.911416
O O8 0.288171 0.777205 0.565752
O O9 0.202852 0.573111 0.543854
O O10 0.000000 0.731325 0.562884
O O11 0.233285 0.123086 0.382820
O O12 0.000000 0.007135 0.432989
O O13 0.235670 0.991801 0.533365
O O14 0.500000 0.158890 0.322001
O O15 0.284065 0.293056 0.273371
O O16 0.293712 0.089462 0.203932
O O17 0.500000 0.438942 0.301249
O O18 0.721278 0.426311 0.414964
O O19 0.500000 0.922324 0.572212
O O20 0.000000 0.443481 0.465141
#
# Coordination Sequence:
#
# PCOD8167362 Si02
#       8
#     4   4   4   4   4   4   4   4
#     4  10  19  35  59  84 115 152 190 233 287 347
#     4   8  15  31  53  77 108 138 173 233 286 322
#     4   9  16  30  52  79 112 145 188 239 277 327
#     4  10  21  38  61  86 113 147 192 247 292 336
#     4  10  23  42  59  81 118 160 194 235 289 344
#     4  11  23  38  57  84 122 157 192 239 284 342
#     4  10  20  36  60  86 114 151 194 238 289 346
#     4  10  20  34  55  83 116 156 193 232 288 344
#
# _framework density 20.478902999999999
#
# number of rings (size 3 to 8) (size 9 to 14) (size 15 to 20)
#    0.000    2.250    1.250    2.625    0.000    3.000 
#    2.250    0.625    0.000    0.000    0.000    0.000 
#    0.000    0.000    0.000    0.000    0.000    0.000 
#
# Total GULP energy -396614.973812 kJ/mol
# GULP energy per Si atom -12394.217932 kJ/mol
# Density = 2.043229 g / cm^3
# Si number density = 20.478903 Si / 1000 Ang^3
#
#
#
# Elastic Constant Matrix: (Units=GPa)
#
#
# Indices 1 2 3 4 5 6 
#
# 1 64.8862 18.7140 29.6955 0.0000 0.0000 0.0000
# 2 18.7140 35.4229 7.0080 0.0000 0.0000 0.0000
# 3 29.6955 7.0080 75.0976 0.0000 0.0000 0.0000
# 4 0.0000 0.0000 0.0000 27.6965 0.0000 0.0000
# 5 0.0000 0.0000 0.0000 0.0000 26.7600 0.0000
# 6 0.0000 0.0000 0.0000 0.0000 0.0000 27.2318
#
#
#
# Elastic Compliance Matrix: (Units=1/GPa)
#
#
# Indices 1 2 3 4 5 6 
#
# 1 0.021818 -0.010004 -0.007694 0.000000 0.000000 0.000000
# 2 -0.010004 0.033349 0.000844 0.000000 0.000000 0.000000
# 3 -0.007694 0.000844 0.016280 0.000000 0.000000 0.000000
# 4 0.000000 0.000000 0.000000 0.036106 0.000000 0.000000
# 5 0.000000 0.000000 0.000000 0.000000 0.037369 0.000000
# 6 0.000000 0.000000 0.000000 0.000000 0.000000 0.036722
#
#
# Mechanical properties :
#
#
# Convention : Reuss Voigt Hill
#
# Bulk Modulus (GPa) = 26.49863 31.80462 29.15163
# Shear Modulus (GPa) = 21.93646 24.33695 23.13671
#
# Velocity S-wave (km/s) = 3.27643 3.45104 3.36487
# Velocity P-wave (km/s) = 5.22311 5.60747 5.41870
#
# Compressibility (1/GPa) = 0.03773781
#
# Stress axis : x y z
#
# Youngs Moduli (GPa) = 45.83337 29.98615 61.42658
#
# Poissons Ratio (x) = 0.30000 0.47261
# Poissons Ratio (y) = 0.45854 -0.05184
# Poissons Ratio (z) = 0.35264 -0.02531
#
# Static dielectric constant tensor:
#      x y z
#    x 3.480410 0.000000 0.000000 
#    y 0.000000 3.643160 0.000000 
#    z 0.000000 0.000000 3.747550 
# 
# 
# High freq. dielectric constant tensor:
#      x y z
#    x 1.778520 0.000000 0.000000 
#    y 0.000000 1.789620 0.000000 
#    z 0.000000 0.000000 1.802370 
# 
# From -- ./inp_files/4279.got.cif
#   From: 2010.03.12/outbox.cif.g09.slc.cpg/sg26_3_cif.got.tgz:4279.got - 2010.04.14 03:33:09.
