data_PCOD8167801
_publ_section_title
;
Structure prediction by ZEFSAII (Michael W. Deem and Ramdas Pophale) SiO2 
 PCOD8167801
Probable space group: P C C 2
;
_chemical_formula_sum "Si O2"
_cell_formula_units_Z 28
_cell_length_a 13.125487
_cell_length_b 5.032774
_cell_length_c 22.353012
_cell_angle_alpha 90.000000
_cell_angle_beta 90.000000
_cell_angle_gamma 90.000000
_cell_volume 1476.586543
_symmetry_space_group_name_H-M "P C C 2"
_symmetry_group_IT_number 27
_symmetry_cell_setting 'orthorhombic'
loop_
_space_group_symop_operation_xyz
x,y,z
-x,-y,z
-x,y,1/2+z
x,-y,1/2+z
loop_
_atom_site_type_symbol
_atom_site_label
_atom_site_fract_x
_atom_site_fract_y
_atom_site_fract_z
Si Si1 0.879135 0.511384 0.382830
Si Si2 0.880408 0.557857 0.016412
Si Si3 0.222748 0.076043 0.566790
Si Si4 0.120496 0.010014 0.809442
Si Si5 0.435898 0.261877 0.567400
Si Si6 0.609304 0.572866 0.698588
Si Si7 0.264621 0.939536 0.703316
O O1 0.835686 0.494024 0.450031
O O2 0.839790 0.781281 0.353510
O O3 0.000000 0.500000 0.386220
O O4 0.839260 0.276896 0.340382
O O5 0.836201 0.354136 0.064753
O O6 0.000000 0.500000 0.017463
O O7 0.844398 0.856143 0.032256
O O8 0.333372 0.144823 0.535920
O O9 0.234409 0.985573 0.634846
O O10 0.164975 0.978310 0.743294
O O11 0.000000 0.000000 0.801564
O O12 0.500000 0.500000 0.532449
O O13 0.400318 0.411290 0.627151
O O14 0.500000 0.000000 0.582648
O O15 0.500000 0.500000 0.727548
O O16 0.692614 0.352644 0.714128
O O17 0.648301 0.853021 0.724144
#
# Coordination Sequence:
#
# PCOD8167801 Si02
#       7
#     4   4   4   4   4   4   4
#     4   9  19  36  55  73  95 134 189 228 245 279
#     4  11  22  36  54  77 108 143 179 218 257 307
#     4  11  21  34  52  82 113 139 170 209 269 331
#     4  10  20  35  54  76 104 137 174 216 255 299
#     4  10  18  32  52  75 105 139 176 217 257 305
#     4  10  18  32  51  74 105 138 173 212 252 301
#     4  11  21  33  51  81 112 136 167 206 263 328
#
# _framework density 18.962651000000001
#
# number of rings (size 3 to 8) (size 9 to 14) (size 15 to 20)
#    0.000    1.714    0.000    8.571    0.000    3.429 
#    0.000    1.429    0.000    0.000    0.000   35.000 
#    0.000    0.000    0.000    0.000    0.000    0.000 
#
# Total GULP energy -347000.672603 kJ/mol
# GULP energy per Si atom -12392.881164 kJ/mol
# Density = 1.891949 g / cm^3
# Si number density = 18.962651 Si / 1000 Ang^3
#
#
#
# Elastic Constant Matrix: (Units=GPa)
#
#
# Indices 1 2 3 4 5 6 
#
# 1 88.0083 36.0803 28.2401 0.0000 0.0000 0.0000
# 2 36.0803 117.0410 16.4846 0.0000 0.0000 0.0000
# 3 28.2401 16.4846 59.0151 0.0000 0.0000 0.0000
# 4 0.0000 0.0000 0.0000 14.4590 0.0000 0.0000
# 5 0.0000 0.0000 0.0000 0.0000 5.5181 0.0000
# 6 0.0000 0.0000 0.0000 0.0000 0.0000 37.3153
#
#
#
# Elastic Compliance Matrix: (Units=1/GPa)
#
#
# Indices 1 2 3 4 5 6 
#
# 1 0.014831 -0.003719 -0.006058 0.000000 0.000000 0.000000
# 2 -0.003719 0.009826 -0.000965 0.000000 0.000000 0.000000
# 3 -0.006058 -0.000965 0.020113 0.000000 0.000000 0.000000
# 4 0.000000 0.000000 0.000000 0.069161 0.000000 0.000000
# 5 0.000000 0.000000 0.000000 0.000000 0.181222 0.000000
# 6 0.000000 0.000000 0.000000 0.000000 0.000000 0.026799
#
#
# Mechanical properties :
#
#
# Convention : Reuss Voigt Hill
#
# Bulk Modulus (GPa) = 42.94362 47.29716 45.12039
# Shear Modulus (GPa) = 14.23692 23.67576 18.95634
#
# Velocity S-wave (km/s) = 2.74302 3.53731 3.16518
# Velocity P-wave (km/s) = 5.72082 6.45599 6.09949
#
# Compressibility (1/GPa) = 0.02328635
#
# Stress axis : x y z
#
# Youngs Moduli (GPa) = 67.42593 101.76724 49.71795
#
# Poissons Ratio (x) = 0.37844 0.30120
# Poissons Ratio (y) = 0.25074 0.04799
# Poissons Ratio (z) = 0.40848 0.09823
#
# Static dielectric constant tensor:
#      x y z
#    x 3.704960 0.000000 0.000000 
#    y 0.000000 3.874150 0.000000 
#    z 0.000000 0.000000 3.205930 
# 
# 
# High freq. dielectric constant tensor:
#      x y z
#    x 1.730460 0.000000 0.000000 
#    y 0.000000 1.765580 0.000000 
#    z 0.000000 0.000000 1.693260 
# 
# From -- ./inp_files/4665.got.cif
#   From: 2010.03.12/outbox.cif.g09.slc.cpg/sg27_3_cif.got.tgz:4665.got - 2010.04.14 03:36:05.
