data_PCOD8167811
_publ_section_title
;
Structure prediction by ZEFSAII (Michael W. Deem and Ramdas Pophale) SiO2 
 PCOD8167811
Probable space group: P C C 2
;
_chemical_formula_sum "Si O2"
_cell_formula_units_Z 28
_cell_length_a 8.889455
_cell_length_b 9.047337
_cell_length_c 18.657241
_cell_angle_alpha 90.000000
_cell_angle_beta 90.000000
_cell_angle_gamma 90.000000
_cell_volume 1500.525308
_symmetry_space_group_name_H-M "P C C 2"
_symmetry_group_IT_number 27
_symmetry_cell_setting 'orthorhombic'
loop_
_space_group_symop_operation_xyz
x,y,z
-x,-y,z
-x,y,1/2+z
x,-y,1/2+z
loop_
_atom_site_type_symbol
_atom_site_label
_atom_site_fract_x
_atom_site_fract_y
_atom_site_fract_z
Si Si1 0.275970 0.313548 0.669690
Si Si2 0.346280 0.576386 0.768975
Si Si3 0.099169 0.637889 0.879491
Si Si4 0.936175 0.337975 0.035348
Si Si5 0.967385 0.829842 0.758435
Si Si6 0.571270 0.151593 0.683608
Si Si7 0.883467 0.137708 0.622640
O O1 0.278530 0.478863 0.703354
O O2 0.189739 0.313732 0.595078
O O3 0.201515 0.203360 0.729301
O O4 0.441301 0.253677 0.648595
O O5 0.500000 0.500000 0.793767
O O6 0.245694 0.578783 0.839670
O O7 0.364164 0.748710 0.747917
O O8 0.000000 0.500000 0.899992
O O9 0.999470 0.746912 0.831883
O O10 0.134611 0.707374 0.958018
O O11 0.000000 0.500000 0.039981
O O12 0.078348 0.230317 0.051751
O O13 0.079264 0.769821 0.695714
O O14 0.000000 0.000000 0.774451
O O15 0.703703 0.105823 0.626390
O O16 0.500000 0.000000 0.713746
O O17 0.000000 0.000000 0.625992
#
# Coordination Sequence:
#
# PCOD8167811 Si02
#       7
#     4   4   4   4   4   4   4
#     4  10  21  36  58  83 116 148 196 240 293 354
#     4  10  21  36  56  82 116 153 190 245 295 346
#     4  11  21  37  58  83 117 152 195 241 296 349
#     4  10  22  36  57  86 112 152 194 239 288 354
#     4  10  19  33  57  86 109 149 195 242 286 338
#     4  11  20  34  59  89 114 146 196 245 294 348
#     4  10  20  36  59  85 115 146 190 245 286 339
#
# _framework density 18.660132000000001
#
# number of rings (size 3 to 8) (size 9 to 14) (size 15 to 20)
#    0.000    1.714    2.857    3.429    2.000    0.571 
#    0.000    5.000    0.000    0.857    0.000    0.000 
#    0.000    0.000    0.000    0.000    0.000    0.000 
#
# Total GULP energy -346921.119157 kJ/mol
# GULP energy per Si atom -12390.039970 kJ/mol
# Density = 1.861766 g / cm^3
# Si number density = 18.660132 Si / 1000 Ang^3
#
#
#
# Elastic Constant Matrix: (Units=GPa)
#
#
# Indices 1 2 3 4 5 6 
#
# 1 122.4406 37.4791 53.0917 0.0000 0.0000 0.0000
# 2 37.4791 98.3036 42.4210 0.0000 0.0000 0.0000
# 3 53.0917 42.4210 134.3747 0.0000 0.0000 0.0000
# 4 0.0000 0.0000 0.0000 60.6879 0.0000 0.0000
# 5 0.0000 0.0000 0.0000 0.0000 16.9573 0.0000
# 6 0.0000 0.0000 0.0000 0.0000 0.0000 31.8215
#
#
#
# Elastic Compliance Matrix: (Units=1/GPa)
#
#
# Indices 1 2 3 4 5 6 
#
# 1 0.010373 -0.002531 -0.003299 0.000000 0.000000 0.000000
# 2 -0.002531 0.012394 -0.002913 0.000000 0.000000 0.000000
# 3 -0.003299 -0.002913 0.009665 0.000000 0.000000 0.000000
# 4 0.000000 0.000000 0.000000 0.016478 0.000000 0.000000
# 5 0.000000 0.000000 0.000000 0.000000 0.058972 0.000000
# 6 0.000000 0.000000 0.000000 0.000000 0.000000 0.031425
#
#
# Mechanical properties :
#
#
# Convention : Reuss Voigt Hill
#
# Bulk Modulus (GPa) = 66.90752 69.01136 67.95944
# Shear Modulus (GPa) = 30.90722 36.70183 33.80453
#
# Velocity S-wave (km/s) = 4.07421 4.43974 4.26090
# Velocity P-wave (km/s) = 7.62010 7.95898 7.79138
#
# Compressibility (1/GPa) = 0.01494600
#
# Stress axis : x y z
#
# Youngs Moduli (GPa) = 96.40866 80.68099 103.46639
#
# Poissons Ratio (x) = 0.20420 0.34136
# Poissons Ratio (y) = 0.24400 0.30138
# Poissons Ratio (z) = 0.31807 0.23501
#
# Static dielectric constant tensor:
#      x y z
#    x 3.644860 0.000000 0.000000 
#    y 0.000000 3.521820 0.000000 
#    z 0.000000 0.000000 3.382530 
# 
# 
# High freq. dielectric constant tensor:
#      x y z
#    x 1.731650 0.000000 0.000000 
#    y 0.000000 1.733880 0.000000 
#    z 0.000000 0.000000 1.692760 
# 
# From -- ./inp_files/4758.got.cif
#   From: 2010.03.12/outbox.cif.g09.slc.cpg/sg27_3_cif.got.tgz:4758.got - 2010.04.14 03:36:05.
