data_PCOD8167210
_publ_section_title
;
Structure prediction by ZEFSAII (Michael W. Deem and Ramdas Pophale) SiO2 
 PCOD8167210
Probable space group: P M C 21
;
_chemical_formula_sum "Si O2"
_cell_formula_units_Z 32
_cell_length_a 18.290843
_cell_length_b 8.226842
_cell_length_c 8.871098
_cell_angle_alpha 90.000000
_cell_angle_beta 90.000000
_cell_angle_gamma 90.000000
_cell_volume 1334.886237
_symmetry_space_group_name_H-M "P M C 21"
_symmetry_group_IT_number 26
_symmetry_cell_setting 'orthorhombic'
loop_
_space_group_symop_operation_xyz
x,y,z
-x,-y,1/2+z
-x,y,z
x,-y,1/2+z
loop_
_atom_site_type_symbol
_atom_site_label
_atom_site_fract_x
_atom_site_fract_y
_atom_site_fract_z
Si Si1 0.081642 0.924529 0.004500
Si Si2 0.167726 0.741687 0.760281
Si Si3 0.419777 0.588610 0.867402
Si Si4 0.080804 0.310436 0.986937
Si Si5 0.578763 0.725633 0.540130
Si Si6 0.270791 0.803058 0.516794
Si Si7 0.182929 0.760582 0.244580
Si Si8 0.729955 0.415396 0.498640
O O1 0.136453 0.876058 0.137155
O O2 0.000000 0.854759 0.035807
O O3 0.109788 0.854977 0.845607
O O4 0.077242 0.116257 0.992441
O O5 0.123223 0.630335 0.637626
O O6 0.225611 0.854401 0.665873
O O7 0.209867 0.624924 0.873206
O O8 0.500000 0.660147 0.918695
O O9 0.408648 0.616566 0.689749
O O10 0.349446 0.663044 0.955954
O O11 0.420557 0.394738 0.896753
O O12 0.127292 0.357929 0.838152
O O13 0.000000 0.388997 0.979237
O O14 0.500000 0.816645 0.547750
O O15 0.644124 0.859929 0.524593
O O16 0.228052 0.868992 0.369104
O O17 0.275393 0.607403 0.512057
O O18 0.243752 0.657211 0.157245
#
# Coordination Sequence:
#
# PCOD8167210 Si02
#       8
#     4   4   4   4   4   4   4   4
#     4  10  20  36  57  77  96 118 152 212 278 312
#     4  10  19  31  51  76  98 127 166 198 243 308
#     4   9  17  28  45  70 100 136 175 211 244 277
#     4  10  20  36  57  77  96 118 152 212 278 312
#     4   9  17  28  45  70 100 136 175 211 244 277
#     4  10  19  32  48  70 105 146 170 195 233 281
#     4  10  21  31  51  76 102 129 168 200 243 310
#     4  10  19  32  48  70 105 146 170 195 233 281
#
# _framework density 23.972080999999999
#
# number of rings (size 3 to 8) (size 9 to 14) (size 15 to 20)
#    0.000    2.250    1.250    2.250    5.250    2.000 
#    0.000    0.000    0.000   52.500    0.000    0.000 
#    0.000   70.000    0.000    0.000    0.000    0.000 
#
# Total GULP energy -396468.838697 kJ/mol
# GULP energy per Si atom -12389.651209 kJ/mol
# Density = 2.391752 g / cm^3
# Si number density = 23.972081 Si / 1000 Ang^3
#
#
#
# Elastic Constant Matrix: (Units=GPa)
#
#
# Indices 1 2 3 4 5 6 
#
# 1 198.4478 3.2386 35.3287 0.0000 0.0000 0.0000
# 2 3.2386 19.7310 3.7696 0.0000 0.0000 0.0000
# 3 35.3287 3.7696 113.4799 0.0000 0.0000 0.0000
# 4 0.0000 0.0000 0.0000 18.3328 0.0000 0.0000
# 5 0.0000 0.0000 0.0000 0.0000 38.1126 0.0000
# 6 0.0000 0.0000 0.0000 0.0000 0.0000 14.4339
#
#
#
# Elastic Compliance Matrix: (Units=1/GPa)
#
#
# Indices 1 2 3 4 5 6 
#
# 1 0.005341 -0.000563 -0.001644 0.000000 0.000000 0.000000
# 2 -0.000563 0.051065 -0.001521 0.000000 0.000000 0.000000
# 3 -0.001644 -0.001521 0.009375 0.000000 0.000000 0.000000
# 4 0.000000 0.000000 0.000000 0.054547 0.000000 0.000000
# 5 0.000000 0.000000 0.000000 0.000000 0.026238 0.000000
# 6 0.000000 0.000000 0.000000 0.000000 0.000000 0.069281
#
#
# Mechanical properties :
#
#
# Convention : Reuss Voigt Hill
#
# Bulk Modulus (GPa) = 17.14541 46.25914 31.70228
# Shear Modulus (GPa) = 20.59785 33.46396 27.03090
#
# Velocity S-wave (km/s) = 2.93446 3.74030 3.36162
# Velocity P-wave (km/s) = 4.31847 6.16378 5.32172
#
# Compressibility (1/GPa) = 0.05832464
#
# Stress axis : x y z
#
# Youngs Moduli (GPa) = 187.23168 19.58301 106.67234
#
# Poissons Ratio (x) = 0.01102 0.17538
# Poissons Ratio (y) = 0.10533 0.16226
# Poissons Ratio (z) = 0.30782 0.02979
#
# Static dielectric constant tensor:
#      x y z
#    x 5.544480 0.000000 0.000000 
#    y 0.000000 3.435320 0.000000 
#    z 0.000000 0.000000 4.659740 
# 
# 
# High freq. dielectric constant tensor:
#      x y z
#    x 1.986600 0.000000 0.000000 
#    y 0.000000 1.871230 0.000000 
#    z 0.000000 0.000000 1.966240 
# 
# From -- ./inp_files/2453.got.cif
#   From: 2010.03.12/outbox.cif.g09.slc.cpg/sg26_2_cif.got.tgz:2453.got - 2010.04.14 03:33:09.
