data_PCOD8167480
_publ_section_title
;
Structure prediction by ZEFSAII (Michael W. Deem and Ramdas Pophale) SiO2 
 PCOD8167480
Probable space group: P M C 21
;
_chemical_formula_sum "Si O2"
_cell_formula_units_Z 32
_cell_length_a 9.190332
_cell_length_b 14.352548
_cell_length_c 12.451117
_cell_angle_alpha 90.000000
_cell_angle_beta 90.000000
_cell_angle_gamma 90.000000
_cell_volume 1642.360618
_symmetry_space_group_name_H-M "P M C 21"
_symmetry_group_IT_number 26
_symmetry_cell_setting 'orthorhombic'
loop_
_space_group_symop_operation_xyz
x,y,z
-x,-y,1/2+z
-x,y,z
x,-y,1/2+z
loop_
_atom_site_type_symbol
_atom_site_label
_atom_site_fract_x
_atom_site_fract_y
_atom_site_fract_z
Si Si1 0.165453 0.428297 0.828980
Si Si2 0.662158 0.829951 0.441088
Si Si3 0.163969 0.373172 0.236465
Si Si4 0.829657 0.171391 0.313712
Si Si5 0.169804 0.147212 0.553602
Si Si6 0.326493 0.733415 0.223709
Si Si7 0.662952 0.369875 0.029220
Si Si8 0.168529 0.059901 0.109257
O O1 0.172015 0.538706 0.813537
O O2 0.259410 0.369262 0.742941
O O3 0.000000 0.391621 0.823464
O O4 0.228421 0.416803 0.946729
O O5 0.500000 0.871365 0.431405
O O6 0.719533 0.800645 0.322973
O O7 0.663417 0.740873 0.518056
O O8 0.762704 0.906221 0.497118
O O9 0.210226 0.279890 0.299429
O O10 0.279698 0.395222 0.145466
O O11 0.000000 0.360403 0.189870
O O12 0.771229 0.140015 0.430823
O O13 0.762441 0.108817 0.215997
O O14 0.000000 0.153321 0.311699
O O15 0.262582 0.225891 0.613936
O O16 0.000000 0.175872 0.554856
O O17 0.195080 0.050367 0.615839
O O18 0.500000 0.723497 0.217172
O O19 0.500000 0.409519 0.013218
O O20 0.000000 0.085384 0.100413
#
# Coordination Sequence:
#
# PCOD8167480 Si02
#       8
#     4   4   4   4   4   4   4   4
#     4  10  21  36  58  86 113 152 204 248 295 355
#     4   9  19  35  55  79 109 145 187 239 289 340
#     4  10  20  36  59  83 113 154 196 242 296 348
#     4   9  19  37  56  84 121 149 188 245 292 342
#     4  10  22  37  58  87 120 157 196 241 294 351
#     4  10  22  40  58  82 118 155 193 242 300 356
#     4  10  20  35  55  82 115 149 191 244 296 349
#     4  10  20  34  59  87 113 149 193 241 290 343
#
# _framework density 19.484151000000001
#
# number of rings (size 3 to 8) (size 9 to 14) (size 15 to 20)
#    0.000    2.250    1.250    1.875    1.750    5.000 
#    0.000    3.750    0.000    0.000    0.000    0.000 
#    0.000    0.000    0.000    0.000    0.000    0.000 
#
# Total GULP energy -396748.756407 kJ/mol
# GULP energy per Si atom -12398.398638 kJ/mol
# Density = 1.943980 g / cm^3
# Si number density = 19.484151 Si / 1000 Ang^3
#
#
#
# Elastic Constant Matrix: (Units=GPa)
#
#
# Indices 1 2 3 4 5 6 
#
# 1 74.9988 36.2754 33.3790 0.0000 0.0000 0.0000
# 2 36.2754 89.5521 42.7920 0.0000 0.0000 0.0000
# 3 33.3790 42.7920 102.3016 0.0000 0.0000 0.0000
# 4 0.0000 0.0000 0.0000 25.2850 0.0000 0.0000
# 5 0.0000 0.0000 0.0000 0.0000 27.7098 0.0000
# 6 0.0000 0.0000 0.0000 0.0000 0.0000 17.3519
#
#
#
# Elastic Compliance Matrix: (Units=1/GPa)
#
#
# Indices 1 2 3 4 5 6 
#
# 1 0.017495 -0.005448 -0.003429 0.000000 0.000000 0.000000
# 2 -0.005448 0.015653 -0.004770 0.000000 0.000000 0.000000
# 3 -0.003429 -0.004770 0.012889 0.000000 0.000000 0.000000
# 4 0.000000 0.000000 0.000000 0.039549 0.000000 0.000000
# 5 0.000000 0.000000 0.000000 0.000000 0.036088 0.000000
# 6 0.000000 0.000000 0.000000 0.000000 0.000000 0.057630
#
#
# Mechanical properties :
#
#
# Convention : Reuss Voigt Hill
#
# Bulk Modulus (GPa) = 53.35520 54.63835 53.99678
# Shear Modulus (GPa) = 23.49106 24.36308 23.92707
#
# Velocity S-wave (km/s) = 3.47601 3.53994 3.50812
# Velocity P-wave (km/s) = 6.59951 6.69415 6.64700
#
# Compressibility (1/GPa) = 0.01874232
#
# Stress axis : x y z
#
# Youngs Moduli (GPa) = 57.15937 63.88626 77.58459
#
# Poissons Ratio (x) = 0.34806 0.26607
# Poissons Ratio (y) = 0.31141 0.37007
# Poissons Ratio (z) = 0.19602 0.30473
#
# Static dielectric constant tensor:
#      x y z
#    x 3.487760 0.000000 0.000000 
#    y 0.000000 3.468890 0.000000 
#    z 0.000000 0.000000 3.550470 
# 
# 
# High freq. dielectric constant tensor:
#      x y z
#    x 1.745250 0.000000 0.000000 
#    y 0.000000 1.752770 0.000000 
#    z 0.000000 0.000000 1.757400 
# 
# From -- ./inp_files/2945.got.cif
#   From: 2010.03.12/outbox.cif.g09.slc.cpg/sg26_2_cif.got.tgz:2945.got - 2010.04.14 03:33:09.
