data_PCOD8167544
_publ_section_title
;
Structure prediction by ZEFSAII (Michael W. Deem and Ramdas Pophale) SiO2 
 PCOD8167544
Probable space group: P M C 21
;
_chemical_formula_sum "Si O2"
_cell_formula_units_Z 32
_cell_length_a 9.422111
_cell_length_b 16.141284
_cell_length_c 10.877255
_cell_angle_alpha 90.000000
_cell_angle_beta 90.000000
_cell_angle_gamma 90.000000
_cell_volume 1654.266995
_symmetry_space_group_name_H-M "P M C 21"
_symmetry_group_IT_number 26
_symmetry_cell_setting 'orthorhombic'
loop_
_space_group_symop_operation_xyz
x,y,z
-x,-y,1/2+z
-x,y,z
x,-y,1/2+z
loop_
_atom_site_type_symbol
_atom_site_label
_atom_site_fract_x
_atom_site_fract_y
_atom_site_fract_z
Si Si1 0.837590 0.245072 0.610810
Si Si2 0.338470 0.654843 0.675138
Si Si3 0.340368 0.517447 0.468871
Si Si4 0.334842 0.344939 0.785753
Si Si5 0.839363 0.368683 0.411932
Si Si6 0.667809 0.960224 0.414746
Si Si7 0.666553 0.215904 0.986577
Si Si8 0.668766 0.924251 0.138304
O O1 0.769274 0.326671 0.673391
O O2 0.831849 0.276217 0.469892
O O3 0.744492 0.164303 0.636236
O O4 0.000000 0.229143 0.652874
O O5 0.500000 0.655136 0.724510
O O6 0.318510 0.585787 0.572276
O O7 0.230808 0.635031 0.780540
O O8 0.298928 0.745606 0.620170
O O9 0.500000 0.482572 0.473325
O O10 0.313233 0.561972 0.336778
O O11 0.237701 0.440278 0.490896
O O12 0.500000 0.331167 0.750630
O O13 0.278419 0.278445 0.884273
O O14 0.000000 0.397854 0.396873
O O15 0.500000 0.959711 0.425933
O O16 0.735382 0.874234 0.464685
O O17 0.708835 0.971536 0.268621
O O18 0.722779 0.028509 0.514179
O O19 0.500000 0.207223 0.970612
O O20 0.500000 0.909682 0.135427
#
# Coordination Sequence:
#
# PCOD8167544 Si02
#       8
#     4   4   4   4   4   4   4   4
#     4  11  24  39  54  79 115 156 196 233 276 337
#     4   9  19  36  58  83 109 140 185 238 287 339
#     4   9  20  37  59  87 111 139 185 239 287 335
#     4   9  17  34  61  85 106 137 180 232 282 331
#     4  11  25  39  52  76 116 156 190 233 285 343
#     4   9  17  31  57  91 117 141 184 241 295 350
#     4   8  14  30  57  85 110 134 173 232 287 335
#     4  10  20  36  60  88 116 149 193 244 299 354
#
# _framework density 19.343914999999999
#
# number of rings (size 3 to 8) (size 9 to 14) (size 15 to 20)
#    0.000    2.500    1.250    2.250    1.750    4.000 
#    0.000    5.000    0.000    0.000    0.000    0.000 
#    0.000    0.000    0.000    0.000    0.000    0.000 
#
# Total GULP energy -396431.240565 kJ/mol
# GULP energy per Si atom -12388.476268 kJ/mol
# Density = 1.929989 g / cm^3
# Si number density = 19.343915 Si / 1000 Ang^3
#
#
#
# Elastic Constant Matrix: (Units=GPa)
#
#
# Indices 1 2 3 4 5 6 
#
# 1 80.1812 35.9112 44.4588 0.0000 0.0000 0.0000
# 2 35.9112 78.2643 43.5596 0.0000 0.0000 0.0000
# 3 44.4588 43.5596 89.0753 0.0000 0.0000 0.0000
# 4 0.0000 0.0000 0.0000 26.7358 0.0000 0.0000
# 5 0.0000 0.0000 0.0000 0.0000 -32.8059 0.0000
# 6 0.0000 0.0000 0.0000 0.0000 0.0000 16.6349
#
#
#
# Elastic Compliance Matrix: (Units=1/GPa)
#
#
# Indices 1 2 3 4 5 6 
#
# 1 0.018360 -0.004567 -0.006930 0.000000 0.000000 0.000000
# 2 -0.004567 0.018691 -0.006861 0.000000 0.000000 0.000000
# 3 -0.006930 -0.006861 0.018041 0.000000 0.000000 0.000000
# 4 0.000000 0.000000 0.000000 0.037403 0.000000 0.000000
# 5 0.000000 0.000000 0.000000 0.000000 -0.030482 0.000000
# 6 0.000000 0.000000 0.000000 0.000000 0.000000 0.060115
#
#
# Mechanical properties :
#
#
# Convention : Reuss Voigt Hill
#
# Bulk Modulus (GPa) = 54.42121 55.04222 54.73171
# Shear Modulus (GPa) = 30.30868 10.35238 20.33053
#
# Velocity S-wave (km/s) = 3.96262 2.31589 3.24544
# Velocity P-wave (km/s) = 7.00935 5.97222 6.51147
#
# Compressibility (1/GPa) = 0.01837519
#
# Stress axis : x y z
#
# Youngs Moduli (GPa) = 54.46626 53.50045 55.43049
#
# Poissons Ratio (x) = 0.24435 0.38415
# Poissons Ratio (y) = 0.24876 0.38030
# Poissons Ratio (z) = 0.37747 0.36706
#
# Static dielectric constant tensor:
#      x y z
#    x 3.406770 0.000000 0.000000 
#    y 0.000000 3.918950 0.000000 
#    z 0.000000 0.000000 3.734860 
# 
# 
# High freq. dielectric constant tensor:
#      x y z
#    x 1.714660 0.000000 0.000000 
#    y 0.000000 1.751500 0.000000 
#    z 0.000000 0.000000 1.757850 
# 
# From -- ./inp_files/3132.got.cif
#   From: 2010.03.12/outbox.cif.g09.slc.cpg/sg26_2_cif.got.tgz:3132.got - 2010.04.14 03:33:09.
