data_PCOD8167972
_publ_section_title
;
Structure prediction by ZEFSAII (Michael W. Deem and Ramdas Pophale) SiO2 
 PCOD8167972
Probable space group: P M A 2
;
_chemical_formula_sum "Si O2"
_cell_formula_units_Z 28
_cell_length_a 8.717991
_cell_length_b 9.960346
_cell_length_c 18.051194
_cell_angle_alpha 90.000000
_cell_angle_beta 90.000000
_cell_angle_gamma 90.000000
_cell_volume 1567.461113
_symmetry_space_group_name_H-M "P M A 2"
_symmetry_group_IT_number 28
_symmetry_cell_setting 'orthorhombic'
loop_
_space_group_symop_operation_xyz
x,y,z
-x,-y,z
1/2-x,y,z
1/2+x,-y,z
loop_
_atom_site_type_symbol
_atom_site_label
_atom_site_fract_x
_atom_site_fract_y
_atom_site_fract_z
Si Si1 0.431146 0.351678 0.129080
Si Si2 0.071200 0.859319 0.531539
Si Si3 0.069399 0.352712 0.810830
Si Si4 0.932003 0.351086 0.274614
Si Si5 0.571649 0.644183 0.970989
Si Si6 0.068047 0.352333 0.424396
Si Si7 0.427084 0.861199 0.704743
O O1 0.500000 0.500000 0.124706
O O2 0.250000 0.357829 0.143719
O O3 0.511156 0.275668 0.199069
O O4 0.470985 0.279873 0.049034
O O5 0.250000 0.856149 0.510761
O O6 0.043196 0.838495 0.618290
O O7 0.981672 0.739181 0.492558
O O8 0.000000 0.000000 0.504858
O O9 0.250000 0.363667 0.800129
O O10 0.026833 0.286923 0.892262
O O11 0.000000 0.500000 0.802502
O O12 0.003120 0.261137 0.746971
O O13 0.750000 0.351673 0.279073
O O14 0.000000 0.500000 0.271665
O O15 0.001270 0.284383 0.348907
O O16 0.500000 0.500000 0.971212
O O17 0.750000 0.617896 0.972164
O O18 0.250000 0.362400 0.419447
O O19 0.000000 0.500000 0.436952
O O20 0.250000 0.866296 0.724730
O O21 0.500000 0.000000 0.732127
#
# Coordination Sequence:
#
# PCOD8167972 Si02
#       7
#     4   4   4   4   4   4   4
#     4   9  14  22  36  57  87 123 161 197 238 286
#     4  10  21  38  57  77 100 128 164 204 247 297
#     4  10  19  32  50  74 104 135 168 207 251 296
#     4  10  17  26  40  62  93 127 162 200 243 290
#     4   8  15  25  39  61  91 126 161 199 241 286
#     4  11  21  34  52  75 103 134 167 206 251 295
#     4  10  21  37  56  76  99 129 165 205 248 296
#
# _framework density 17.863282000000002
#
# number of rings (size 3 to 8) (size 9 to 14) (size 15 to 20)
#    0.000    2.286    0.000    6.000    0.000    3.429 
#    0.000    0.000    0.000    0.000    0.000    1.000 
#    0.000    2.286    0.000    0.000    0.000    0.000 
#
# Total GULP energy -346870.192759 kJ/mol
# GULP energy per Si atom -12388.221170 kJ/mol
# Density = 1.782262 g / cm^3
# Si number density = 17.863282 Si / 1000 Ang^3
#
#
#
# Elastic Constant Matrix: (Units=GPa)
#
#
# Indices 1 2 3 4 5 6 
#
# 1 130.2456 40.6629 62.1296 0.0000 0.0000 0.0000
# 2 40.6629 64.4401 51.9426 0.0000 0.0000 0.0000
# 3 62.1296 51.9426 102.8002 0.0000 0.0000 0.0000
# 4 0.0000 0.0000 0.0000 -0.6576 0.0000 0.0000
# 5 0.0000 0.0000 0.0000 0.0000 23.2130 0.0000
# 6 0.0000 0.0000 0.0000 0.0000 0.0000 23.5559
#
#
#
# Elastic Compliance Matrix: (Units=1/GPa)
#
#
# Indices 1 2 3 4 5 6 
#
# 1 0.011056 -0.002683 -0.005326 0.000000 0.000000 0.000000
# 2 -0.002683 0.026833 -0.011936 0.000000 0.000000 0.000000
# 3 -0.005326 -0.011936 0.018978 0.000000 0.000000 0.000000
# 4 0.000000 0.000000 0.000000 -1.520576 0.000000 0.000000
# 5 0.000000 0.000000 0.000000 0.000000 0.043079 0.000000
# 6 0.000000 0.000000 0.000000 0.000000 0.000000 0.042452
#
#
# Mechanical properties :
#
#
# Convention : Reuss Voigt Hill
#
# Bulk Modulus (GPa) = 58.90985 67.43957 63.17471
# Shear Modulus (GPa) = -3.75199 18.73897 7.49349
#
# Velocity S-wave (km/s) = -1.45084 3.24237 2.05037
# Velocity P-wave (km/s) = 5.49938 7.20087 6.40686
#
# Compressibility (1/GPa) = 0.01697509
#
# Stress axis : x y z
#
# Youngs Moduli (GPa) = 90.44617 37.26755 52.69318
#
# Poissons Ratio (x) = 0.10001 0.28066
# Poissons Ratio (y) = 0.24271 0.62896
# Poissons Ratio (z) = 0.48174 0.44484
#
# Static dielectric constant tensor:
#      x y z
#    x 3.486080 0.000000 0.000000 
#    y 0.000000 2.791640 0.000000 
#    z 0.000000 0.000000 4.420870 
# 
# 
# High freq. dielectric constant tensor:
#      x y z
#    x 1.711550 0.000000 0.000000 
#    y 0.000000 1.622300 0.000000 
#    z 0.000000 0.000000 1.721790 
# 
# From -- ./inp_files/6858.got.cif
#   From: 2010.03.12/outbox.cif.g09.slc.cpg/sg28_4_cif.got.tgz:6858.got - 2010.04.14 03:39:34.
