data_PCOD8167296
_publ_section_title
;
Structure prediction by ZEFSAII (Michael W. Deem and Ramdas Pophale) SiO2 
 PCOD8167296
Probable space group: P M C 21
;
_chemical_formula_sum "Si O2"
_cell_formula_units_Z 32
_cell_length_a 9.373016
_cell_length_b 14.148446
_cell_length_c 12.535858
_cell_angle_alpha 90.000000
_cell_angle_beta 90.000000
_cell_angle_gamma 90.000000
_cell_volume 1662.425393
_symmetry_space_group_name_H-M "P M C 21"
_symmetry_group_IT_number 26
_symmetry_cell_setting 'orthorhombic'
loop_
_space_group_symop_operation_xyz
x,y,z
-x,-y,1/2+z
-x,y,z
x,-y,1/2+z
loop_
_atom_site_type_symbol
_atom_site_label
_atom_site_fract_x
_atom_site_fract_y
_atom_site_fract_z
Si Si1 0.656738 0.875255 0.278820
Si Si2 0.837582 0.746620 0.006254
Si Si3 0.835651 0.661634 0.574439
Si Si4 0.835493 0.379676 0.316049
Si Si5 0.163188 0.862521 0.484435
Si Si6 0.166531 0.945632 0.097570
Si Si7 0.344112 0.327085 0.683193
Si Si8 0.670804 0.558304 0.387440
O O1 0.500000 0.918595 0.302913
O O2 0.734984 0.845926 0.385742
O O3 0.750211 0.947907 0.209775
O O4 0.639025 0.781546 0.211214
O O5 0.789353 0.855548 0.023996
O O6 0.755763 0.669269 0.079391
O O7 0.000000 0.736757 0.042780
O O8 0.816830 0.718304 0.882356
O O9 0.787991 0.636270 0.694365
O O10 0.816131 0.774331 0.563480
O O11 0.735612 0.605187 0.493263
O O12 0.000000 0.633058 0.553241
O O13 0.732351 0.454055 0.373010
O O14 0.000000 0.413782 0.321752
O O15 0.000000 0.869901 0.445133
O O16 0.212579 0.959106 0.539199
O O17 0.000000 0.945072 0.124669
O O18 0.500000 0.369581 0.654140
O O19 0.278282 0.383601 0.783065
O O20 0.500000 0.557277 0.398598
#
# Coordination Sequence:
#
# PCOD8167296 Si02
#       8
#     4   4   4   4   4   4   4   4
#     4  10  19  34  54  79 112 149 189 237 288 340
#     4   9  19  36  58  83 114 150 189 235 285 338
#     4  10  22  40  61  87 119 153 191 238 293 352
#     4  10  23  40  57  83 118 155 193 237 291 348
#     4  10  20  35  59  87 115 150 192 240 290 342
#     4   9  19  35  57  86 115 151 196 239 285 340
#     4   9  19  35  55  79 108 143 184 237 286 333
#     4  11  23  39  59  84 113 149 192 241 290 343
#
# _framework density 19.248985000000001
#
# number of rings (size 3 to 8) (size 9 to 14) (size 15 to 20)
#    0.000    2.250    1.250    0.750    1.750    4.000 
#    0.000    3.750    0.000    1.500    0.000    0.000 
#    0.000    0.000    0.000    0.000    0.000    0.000 
#
# Total GULP energy -396729.952136 kJ/mol
# GULP energy per Si atom -12397.811004 kJ/mol
# Density = 1.920517 g / cm^3
# Si number density = 19.248985 Si / 1000 Ang^3
#
#
#
# Elastic Constant Matrix: (Units=GPa)
#
#
# Indices 1 2 3 4 5 6 
#
# 1 71.6529 35.5780 45.4464 0.0000 0.0000 0.0000
# 2 35.5780 90.1487 44.6356 0.0000 0.0000 0.0000
# 3 45.4464 44.6356 113.6774 0.0000 0.0000 0.0000
# 4 0.0000 0.0000 0.0000 23.3627 0.0000 0.0000
# 5 0.0000 0.0000 0.0000 0.0000 10.8309 0.0000
# 6 0.0000 0.0000 0.0000 0.0000 0.0000 16.8534
#
#
#
# Elastic Compliance Matrix: (Units=1/GPa)
#
#
# Indices 1 2 3 4 5 6 
#
# 1 0.020344 -0.004968 -0.006183 0.000000 0.000000 0.000000
# 2 -0.004968 0.014983 -0.003897 0.000000 0.000000 0.000000
# 3 -0.006183 -0.003897 0.012799 0.000000 0.000000 0.000000
# 4 0.000000 0.000000 0.000000 0.042803 0.000000 0.000000
# 5 0.000000 0.000000 0.000000 0.000000 0.092329 0.000000
# 6 0.000000 0.000000 0.000000 0.000000 0.000000 0.059335
#
#
# Mechanical properties :
#
#
# Convention : Reuss Voigt Hill
#
# Bulk Modulus (GPa) = 55.46036 58.53322 56.99679
# Shear Modulus (GPa) = 17.94054 20.19733 19.06893
#
# Velocity S-wave (km/s) = 3.05622 3.24275 3.15087
# Velocity P-wave (km/s) = 6.42873 6.67046 6.55071
#
# Compressibility (1/GPa) = 0.01803090
#
# Stress axis : x y z
#
# Youngs Moduli (GPa) = 49.15393 66.74268 78.13270
#
# Poissons Ratio (x) = 0.33156 0.48307
# Poissons Ratio (y) = 0.24419 0.30449
# Poissons Ratio (z) = 0.30390 0.26010
#
# Static dielectric constant tensor:
#      x y z
#    x 3.726260 0.000000 0.000000 
#    y 0.000000 3.495760 0.000000 
#    z 0.000000 0.000000 3.506900 
# 
# 
# High freq. dielectric constant tensor:
#      x y z
#    x 1.747200 0.000000 0.000000 
#    y 0.000000 1.741010 0.000000 
#    z 0.000000 0.000000 1.748110 
# 
# From -- ./inp_files/2921.got.cif
#   From: 2010.03.12/outbox.cif.g09.slc.cpg/sg26_2_cif.got.tgz:2921.got - 2010.04.14 03:33:09.
