data_PCOD8167232
_publ_section_title
;
Structure prediction by ZEFSAII (Michael W. Deem and Ramdas Pophale) SiO2 
 PCOD8167232
Probable space group: P M C 21
;
_chemical_formula_sum "Si O2"
_cell_formula_units_Z 32
_cell_length_a 9.406831
_cell_length_b 11.193223
_cell_length_c 16.409343
_cell_angle_alpha 90.000000
_cell_angle_beta 90.000000
_cell_angle_gamma 90.000000
_cell_volume 1727.784967
_symmetry_space_group_name_H-M "P M C 21"
_symmetry_group_IT_number 26
_symmetry_cell_setting 'orthorhombic'
loop_
_space_group_symop_operation_xyz
x,y,z
-x,-y,1/2+z
-x,y,z
x,-y,1/2+z
loop_
_atom_site_type_symbol
_atom_site_label
_atom_site_fract_x
_atom_site_fract_y
_atom_site_fract_z
Si Si1 0.664397 0.176579 0.257210
Si Si2 0.330777 0.419313 0.643180
Si Si3 0.656969 0.811906 0.484267
Si Si4 0.163143 0.927770 0.612269
Si Si5 0.345393 0.077381 0.810422
Si Si6 0.163824 0.185539 0.677245
Si Si7 0.668385 0.436472 0.304973
Si Si8 0.331807 0.542818 0.475017
O O1 0.500000 0.192238 0.232804
O O2 0.752341 0.152906 0.176045
O O3 0.719173 0.298752 0.298560
O O4 0.690587 0.064171 0.317419
O O5 0.500000 0.402528 0.644856
O O6 0.255708 0.291498 0.639929
O O7 0.278946 0.491186 0.724266
O O8 0.279976 0.481481 0.559027
O O9 0.500000 0.811886 0.526825
O O10 0.771795 0.896373 0.525705
O O11 0.638312 0.865576 0.396607
O O12 0.719643 0.678911 0.479483
O O13 0.000000 0.890364 0.617949
O O14 0.183205 0.069353 0.621131
O O15 0.500000 0.090036 0.765228
O O16 0.222726 0.150465 0.765614
O O17 0.000000 0.224248 0.685318
O O18 0.500000 0.446034 0.307930
O O19 0.732020 0.486031 0.390922
O O20 0.500000 0.534873 0.469276
#
# Coordination Sequence:
#
# PCOD8167232 Si02
#       8
#     4   4   4   4   4   4   4   4
#     4   9  17  32  54  78 103 132 168 209 255 305
#     4  10  19  32  53  76 100 137 178 215 258 307
#     4  10  19  33  54  79 105 132 168 213 258 304
#     4  10  21  35  51  73 102 136 171 210 258 310
#     4   9  18  32  54  82 105 129 167 214 257 305
#     4  10  21  36  52  72 102 138 172 210 260 310
#     4   9  17  31  52  78 108 137 168 212 262 311
#     4   9  18  31  50  78 107 135 170 213 262 314
#
# _framework density 18.520823
#
# number of rings (size 3 to 8) (size 9 to 14) (size 15 to 20)
#    0.000    2.500    0.000    2.250    0.000    7.000 
#    0.000    5.000    0.000    2.250    0.000    0.000 
#    0.000    0.000    0.000    0.000    0.000    0.000 
#
# Total GULP energy -396613.630344 kJ/mol
# GULP energy per Si atom -12394.175948 kJ/mol
# Density = 1.847867 g / cm^3
# Si number density = 18.520823 Si / 1000 Ang^3
#
#
#
# Elastic Constant Matrix: (Units=GPa)
#
#
# Indices 1 2 3 4 5 6 
#
# 1 59.8387 47.7308 33.4985 0.0000 0.0000 0.0000
# 2 47.7308 116.1125 65.6492 0.0000 0.0000 0.0000
# 3 33.4985 65.6492 111.3940 0.0000 0.0000 0.0000
# 4 0.0000 0.0000 0.0000 -1.2060 0.0000 0.0000
# 5 0.0000 0.0000 0.0000 0.0000 7.2918 0.0000
# 6 0.0000 0.0000 0.0000 0.0000 0.0000 20.6515
#
#
#
# Elastic Compliance Matrix: (Units=1/GPa)
#
#
# Indices 1 2 3 4 5 6 
#
# 1 0.025223 -0.009118 -0.002211 0.000000 0.000000 0.000000
# 2 -0.009118 0.016212 -0.006813 0.000000 0.000000 0.000000
# 3 -0.002211 -0.006813 0.013657 0.000000 0.000000 0.000000
# 4 0.000000 0.000000 0.000000 -0.829189 0.000000 0.000000
# 5 0.000000 0.000000 0.000000 0.000000 0.137141 0.000000
# 6 0.000000 0.000000 0.000000 0.000000 0.000000 0.048423
#
#
# Mechanical properties :
#
#
# Convention : Reuss Voigt Hill
#
# Bulk Modulus (GPa) = 53.16878 64.56692 58.86785
# Shear Modulus (GPa) = -9.15785 14.71190 2.77703
#
# Velocity S-wave (km/s) = -2.22606 2.82147 1.22583
# Velocity P-wave (km/s) = 4.70773 6.74920 5.81870
#
# Compressibility (1/GPa) = 0.01880803
#
# Stress axis : x y z
#
# Youngs Moduli (GPa) = 39.64699 61.68131 73.22199
#
# Poissons Ratio (x) = 0.56242 0.16191
# Poissons Ratio (y) = 0.36151 0.49883
# Poissons Ratio (z) = 0.08767 0.42021
#
# Static dielectric constant tensor:
#      x y z
#    x 4.064630 0.000000 0.000000 
#    y 0.000000 3.637210 0.000000 
#    z 0.000000 0.000000 3.422420 
# 
# 
# High freq. dielectric constant tensor:
#      x y z
#    x 1.686130 0.000000 0.000000 
#    y 0.000000 1.732280 0.000000 
#    z 0.000000 0.000000 1.713000 
# 
# From -- ./inp_files/4283.got.cif
#   From: 2010.03.12/outbox.cif.g09.slc.cpg/sg26_3_cif.got.tgz:4283.got - 2010.04.14 03:33:09.
