data_PCOD8167339
_publ_section_title
;
Structure prediction by ZEFSAII (Michael W. Deem and Ramdas Pophale) SiO2 
 PCOD8167339
Probable space group: P M C 21
;
_chemical_formula_sum "Si O2"
_cell_formula_units_Z 32
_cell_length_a 8.880649
_cell_length_b 11.501166
_cell_length_c 16.021234
_cell_angle_alpha 90.000000
_cell_angle_beta 90.000000
_cell_angle_gamma 90.000000
_cell_volume 1636.373888
_symmetry_space_group_name_H-M "P M C 21"
_symmetry_group_IT_number 26
_symmetry_cell_setting 'orthorhombic'
loop_
_space_group_symop_operation_xyz
x,y,z
-x,-y,1/2+z
-x,y,z
x,-y,1/2+z
loop_
_atom_site_type_symbol
_atom_site_label
_atom_site_fract_x
_atom_site_fract_y
_atom_site_fract_z
Si Si1 0.675236 0.052296 0.050390
Si Si2 0.822355 0.423719 0.281573
Si Si3 0.823454 0.688203 0.260028
Si Si4 0.164784 0.774782 0.664604
Si Si5 0.834983 0.917370 0.829004
Si Si6 0.321723 0.721400 0.924910
Si Si7 0.675412 0.132430 0.865382
Si Si8 0.178578 0.804938 0.086213
O O1 0.500000 0.023353 0.059782
O O2 0.715057 0.166005 0.104390
O O3 0.766336 0.937985 0.077378
O O4 0.718377 0.093457 0.958183
O O5 0.774943 0.553847 0.258911
O O6 0.772768 0.347808 0.200612
O O7 0.741643 0.381673 0.366612
O O8 0.000000 0.408350 0.296903
O O9 0.739883 0.742036 0.340539
O O10 0.771515 0.752214 0.175325
O O11 0.000000 0.701289 0.273694
O O12 0.140395 0.856455 0.742611
O O13 0.000000 0.758852 0.620868
O O14 0.722065 0.847440 0.888880
O O15 0.000000 0.931195 0.872330
O O16 0.759861 0.040242 0.806239
O O17 0.500000 0.710186 0.930537
O O18 0.251400 0.718362 0.017574
O O19 0.500000 0.130754 0.848147
O O20 0.000000 0.802449 0.075947
#
# Coordination Sequence:
#
# PCOD8167339 Si02
#       8
#     4   4   4   4   4   4   4   4
#     4  11  23  37  55  86 124 156 192 238 296 362
#     4   9  20  42  64  84 114 153 203 251 291 348
#     4  10  23  42  63  87 116 156 206 252 297 350
#     4   9  19  35  58  85 111 145 191 241 291 344
#     4  10  19  34  58  85 114 150 193 238 289 347
#     4  11  21  35  59  90 120 153 193 240 295 356
#     4  11  23  37  55  83 123 159 192 240 298 355
#     4  11  22  38  62  90 120 154 198 250 299 354
#
# _framework density 19.555432
#
# number of rings (size 3 to 8) (size 9 to 14) (size 15 to 20)
#    0.000    1.750    1.250    4.125    0.000    8.500 
#    2.250    0.000    0.000    0.000    0.000    0.000 
#    0.000    0.000    0.000    0.000    0.000    0.000 
#
# Total GULP energy -396736.654851 kJ/mol
# GULP energy per Si atom -12398.020464 kJ/mol
# Density = 1.951092 g / cm^3
# Si number density = 19.555432 Si / 1000 Ang^3
#
#
#
# Elastic Constant Matrix: (Units=GPa)
#
#
# Indices 1 2 3 4 5 6 
#
# 1 88.9151 54.6231 44.4048 0.0000 0.0000 0.0000
# 2 54.6231 151.5934 63.1805 0.0000 0.0000 0.0000
# 3 44.4048 63.1805 77.7495 0.0000 0.0000 0.0000
# 4 0.0000 0.0000 0.0000 20.7373 0.0000 0.0000
# 5 0.0000 0.0000 0.0000 0.0000 26.8670 0.0000
# 6 0.0000 0.0000 0.0000 0.0000 0.0000 24.5185
#
#
#
# Elastic Compliance Matrix: (Units=1/GPa)
#
#
# Indices 1 2 3 4 5 6 
#
# 1 0.016632 -0.003076 -0.007000 0.000000 0.000000 0.000000
# 2 -0.003076 0.010544 -0.006811 0.000000 0.000000 0.000000
# 3 -0.007000 -0.006811 0.022394 0.000000 0.000000 0.000000
# 4 0.000000 0.000000 0.000000 0.048222 0.000000 0.000000
# 5 0.000000 0.000000 0.000000 0.000000 0.037220 0.000000
# 6 0.000000 0.000000 0.000000 0.000000 0.000000 0.040786
#
#
# Mechanical properties :
#
#
# Convention : Reuss Voigt Hill
#
# Bulk Modulus (GPa) = 63.30390 71.40830 67.35610
# Shear Modulus (GPa) = 23.27351 24.82788 24.05069
#
# Velocity S-wave (km/s) = 3.45357 3.56703 3.51076
# Velocity P-wave (km/s) = 6.95303 7.31847 7.13809
#
# Compressibility (1/GPa) = 0.01579681
#
# Stress axis : x y z
#
# Youngs Moduli (GPa) = 60.12609 94.84404 44.65400
#
# Poissons Ratio (x) = 0.29170 0.31256
# Poissons Ratio (y) = 0.18493 0.30415
# Poissons Ratio (z) = 0.42085 0.64602
#
# Static dielectric constant tensor:
#      x y z
#    x 3.545770 0.000000 0.000000 
#    y 0.000000 4.087980 0.000000 
#    z 0.000000 0.000000 3.888260 
# 
# 
# High freq. dielectric constant tensor:
#      x y z
#    x 1.764970 0.000000 0.000000 
#    y 0.000000 1.756890 0.000000 
#    z 0.000000 0.000000 1.757110 
# 
# From -- ./inp_files/4189.got.cif
#   From: 2010.03.12/outbox.cif.g09.slc.cpg/sg26_3_cif.got.tgz:4189.got - 2010.04.14 03:33:09.
