data_PCOD8167854
_publ_section_title
;
Structure prediction by ZEFSAII (Michael W. Deem and Ramdas Pophale) SiO2 
 PCOD8167854
Probable space group: P C C 2
;
_chemical_formula_sum "Si O2"
_cell_formula_units_Z 32
_cell_length_a 16.793419
_cell_length_b 16.404548
_cell_length_c 5.308915
_cell_angle_alpha 90.000000
_cell_angle_beta 90.000000
_cell_angle_gamma 90.000000
_cell_volume 1462.544754
_symmetry_space_group_name_H-M "P C C 2"
_symmetry_group_IT_number 27
_symmetry_cell_setting 'orthorhombic'
loop_
_space_group_symop_operation_xyz
x,y,z
-x,-y,z
-x,y,1/2+z
x,-y,1/2+z
loop_
_atom_site_type_symbol
_atom_site_label
_atom_site_fract_x
_atom_site_fract_y
_atom_site_fract_z
Si Si1 0.032621 0.409486 0.068580
Si Si2 0.465385 0.092172 0.527551
Si Si3 0.797111 0.356868 0.505321
Si Si4 0.090394 0.967937 0.613101
Si Si5 0.805146 0.830034 0.011434
Si Si6 0.293710 0.160833 0.511759
Si Si7 0.532236 0.408386 0.025031
Si Si8 0.297602 0.649608 0.006581
O O1 0.127169 0.414516 0.038688
O O2 0.000000 0.500000 0.107738
O O3 0.007642 0.363761 0.328683
O O4 0.500039 0.136344 0.277599
O O5 0.369567 0.100269 0.528208
O O6 0.500000 0.000000 0.527750
O O7 0.826831 0.264157 0.515485
O O8 0.760317 0.375860 0.233492
O O9 0.737667 0.373615 0.735112
O O10 0.108185 0.873940 0.541471
O O11 0.131955 0.982531 0.883952
O O12 0.000000 0.000000 0.646119
O O13 0.749408 0.855539 0.246045
O O14 0.763340 0.856913 0.750321
O O15 0.321422 0.255275 0.523420
O O16 0.500000 0.500000 0.008805
O O17 0.496159 0.362674 0.269974
O O18 0.626700 0.407668 0.041928
#
# Coordination Sequence:
#
# PCOD8167854 Si02
#       8
#     4   4   4   4   4   4   4   4
#     4  10  21  40  60  90 126 157 198 243 298 358
#     4  10  21  38  53  80 115 149 192 236 291 352
#     4  10  21  40  63  89 119 156 203 248 298 353
#     4  10  21  40  58  85 124 151 195 237 293 356
#     4  10  21  40  60  90 117 154 199 246 294 348
#     4  10  21  38  61  85 117 152 199 246 295 348
#     4  10  21  38  56  86 126 155 198 240 295 356
#     4  10  21  38  63  87 118 156 200 248 296 351
#
# _framework density 21.879674000000001
#
# number of rings (size 3 to 8) (size 9 to 14) (size 15 to 20)
#    0.000    2.000    0.000    3.000    0.000    1.000 
#   18.000   15.000    0.000    0.000    0.000    0.000 
#    0.000    0.000    0.000    0.000    0.000    0.000 
#
# Total GULP energy -396492.354856 kJ/mol
# GULP energy per Si atom -12390.386089 kJ/mol
# Density = 2.182988 g / cm^3
# Si number density = 21.879674 Si / 1000 Ang^3
#
#
#
# Elastic Constant Matrix: (Units=GPa)
#
#
# Indices 1 2 3 4 5 6 
#
# 1 96.0976 35.3002 6.6629 0.0000 0.0000 0.0000
# 2 35.3002 47.8438 0.1644 0.0000 0.0000 0.0000
# 3 6.6629 0.1644 185.3815 0.0000 0.0000 0.0000
# 4 0.0000 0.0000 0.0000 9.9039 0.0000 0.0000
# 5 0.0000 0.0000 0.0000 0.0000 27.2944 0.0000
# 6 0.0000 0.0000 0.0000 0.0000 0.0000 38.8992
#
#
#
# Elastic Compliance Matrix: (Units=1/GPa)
#
#
# Indices 1 2 3 4 5 6 
#
# 1 0.014322 -0.010565 -0.000505 0.000000 0.000000 0.000000
# 2 -0.010565 0.028696 0.000354 0.000000 0.000000 0.000000
# 3 -0.000505 0.000354 0.005412 0.000000 0.000000 0.000000
# 4 0.000000 0.000000 0.000000 0.100971 0.000000 0.000000
# 5 0.000000 0.000000 0.000000 0.000000 0.036638 0.000000
# 6 0.000000 0.000000 0.000000 0.000000 0.000000 0.025707
#
#
# Mechanical properties :
#
#
# Convention : Reuss Voigt Hill
#
# Bulk Modulus (GPa) = 37.04153 45.95311 41.49732
# Shear Modulus (GPa) = 20.64600 34.36587 27.50593
#
# Velocity S-wave (km/s) = 3.07517 3.96747 3.54947
# Velocity P-wave (km/s) = 5.43831 6.48352 5.98378
#
# Compressibility (1/GPa) = 0.02699672
#
# Stress axis : x y z
#
# Youngs Moduli (GPa) = 69.82158 34.84858 184.77009
#
# Poissons Ratio (x) = 0.36819 0.09338
# Poissons Ratio (y) = 0.73770 -0.06546
# Poissons Ratio (z) = 0.03529 -0.01235
#
# Static dielectric constant tensor:
#      x y z
#    x 3.712010 0.000000 0.000000 
#    y 0.000000 3.587760 0.000000 
#    z 0.000000 0.000000 3.864550 
# 
# 
# High freq. dielectric constant tensor:
#      x y z
#    x 1.848370 0.000000 0.000000 
#    y 0.000000 1.822330 0.000000 
#    z 0.000000 0.000000 1.907160 
# 
# From -- ./inp_files/497.got.cif
#   From: 2010.03.12/outbox.cif.g09.slc.cpg/sg27_1_cif.got.tgz:497.got - 2010.04.14 03:36:05.
