data_PCOD8167679
_publ_section_title
;
Structure prediction by ZEFSAII (Michael W. Deem and Ramdas Pophale) SiO2 
 PCOD8167679
Probable space group: P M C 21
;
_chemical_formula_sum "Si O2"
_cell_formula_units_Z 24
_cell_length_a 8.533517
_cell_length_b 9.841293
_cell_length_c 13.975810
_cell_angle_alpha 90.000000
_cell_angle_beta 90.000000
_cell_angle_gamma 90.000000
_cell_volume 1173.700279
_symmetry_space_group_name_H-M "P M C 21"
_symmetry_group_IT_number 26
_symmetry_cell_setting 'orthorhombic'
loop_
_space_group_symop_operation_xyz
x,y,z
-x,-y,1/2+z
-x,y,z
x,-y,1/2+z
loop_
_atom_site_type_symbol
_atom_site_label
_atom_site_fract_x
_atom_site_fract_y
_atom_site_fract_z
Si Si1 0.318932 0.129036 0.143410
Si Si2 0.681324 0.361272 0.643297
Si Si3 0.181376 0.381165 0.050095
Si Si4 0.316915 0.027514 0.351520
Si Si5 0.315782 0.285401 0.855089
Si Si6 0.179770 0.113401 0.539562
O O1 0.500000 0.096719 0.122391
O O2 0.282896 0.284772 0.119065
O O3 0.275178 0.098127 0.252008
O O4 0.212154 0.039376 0.074031
O O5 0.500000 0.399222 0.630624
O O6 0.787035 0.466165 0.584711
O O7 0.727411 0.358680 0.755332
O O8 0.710057 0.212722 0.599920
O O9 0.000000 0.346741 0.062021
O O10 0.228080 0.365223 0.939178
O O11 0.500000 0.035826 0.375092
O O12 0.222122 0.117028 0.427799
O O13 0.260140 0.871217 0.350789
O O14 0.500000 0.291966 0.874777
O O15 0.000000 0.154157 0.554822
#
# Coordination Sequence:
#
# PCOD8167679 Si02
#       6
#     4   4   4   4   4   4
#     4  11  22  41  66  92 123 167 217 260 303 370
#     4  11  24  45  69  92 124 171 218 262 311 377
#     4  12  26  42  63  97 134 168 205 262 327 380
#     4  10  21  39  66  95 125 167 218 263 306 370
#     4  10  21  41  68  93 121 168 219 259 310 377
#     4  12  24  38  62  97 131 163 203 262 321 372
#
# _framework density 20.448152
#
# number of rings (size 3 to 8) (size 9 to 14) (size 15 to 20)
#    0.000    1.000    3.333    4.000    0.000    4.000 
#    0.000    1.667    0.000    0.000    0.000    0.000 
#    0.000    0.000    0.000    0.000    0.000    0.000 
#
# Total GULP energy -297767.858157 kJ/mol
# GULP energy per Si atom -12406.994090 kJ/mol
# Density = 2.040161 g / cm^3
# Si number density = 20.448152 Si / 1000 Ang^3
#
#
#
# Elastic Constant Matrix: (Units=GPa)
#
#
# Indices 1 2 3 4 5 6 
#
# 1 71.7226 20.9771 57.0643 0.0000 0.0000 0.0000
# 2 20.9771 65.3764 29.9858 0.0000 0.0000 0.0000
# 3 57.0643 29.9858 138.9753 0.0000 0.0000 0.0000
# 4 0.0000 0.0000 0.0000 39.2934 0.0000 0.0000
# 5 0.0000 0.0000 0.0000 0.0000 9.0208 0.0000
# 6 0.0000 0.0000 0.0000 0.0000 0.0000 28.6217
#
#
#
# Elastic Compliance Matrix: (Units=1/GPa)
#
#
# Indices 1 2 3 4 5 6 
#
# 1 0.021269 -0.003128 -0.008058 0.000000 0.000000 0.000000
# 2 -0.003128 0.017436 -0.002478 0.000000 0.000000 0.000000
# 3 -0.008058 -0.002478 0.011039 0.000000 0.000000 0.000000
# 4 0.000000 0.000000 0.000000 0.025450 0.000000 0.000000
# 5 0.000000 0.000000 0.000000 0.000000 0.110855 0.000000
# 6 0.000000 0.000000 0.000000 0.000000 0.000000 0.034939
#
#
# Mechanical properties :
#
#
# Convention : Reuss Voigt Hill
#
# Bulk Modulus (GPa) = 44.61177 54.68095 49.64636
# Shear Modulus (GPa) = 19.54753 26.59031 23.06892
#
# Velocity S-wave (km/s) = 3.09521 3.60999 3.36246
# Velocity P-wave (km/s) = 5.88542 6.64645 6.27748
#
# Compressibility (1/GPa) = 0.02241561
#
# Stress axis : x y z
#
# Youngs Moduli (GPa) = 47.01709 57.35186 90.58945
#
# Poissons Ratio (x) = 0.17942 0.72998
# Poissons Ratio (y) = 0.14709 0.22444
# Poissons Ratio (z) = 0.37887 0.14209
#
# Static dielectric constant tensor:
#      x y z
#    x 3.524860 0.000000 0.000000 
#    y 0.000000 3.499870 0.000000 
#    z 0.000000 0.000000 3.819920 
# 
# 
# High freq. dielectric constant tensor:
#      x y z
#    x 1.795040 0.000000 0.000000 
#    y 0.000000 1.791680 0.000000 
#    z 0.000000 0.000000 1.814890 
# 
# From -- ./inp_files/2819.got.cif
#   From: 2010.03.12/outbox.cif.g09.slc.cpg/sg26_2_cif.got.tgz:2819.got - 2010.04.14 03:33:09.
