data_PCOD8167951
_publ_section_title
;
Structure prediction by ZEFSAII (Michael W. Deem and Ramdas Pophale) SiO2 
 PCOD8167951
Probable space group: P C C 2
;
_chemical_formula_sum "Si O2"
_cell_formula_units_Z 24
_cell_length_a 5.049462
_cell_length_b 16.909686
_cell_length_c 12.335555
_cell_angle_alpha 90.000000
_cell_angle_beta 90.000000
_cell_angle_gamma 90.000000
_cell_volume 1053.269105
_symmetry_space_group_name_H-M "P C C 2"
_symmetry_group_IT_number 27
_symmetry_cell_setting 'orthorhombic'
loop_
_space_group_symop_operation_xyz
x,y,z
-x,-y,z
-x,y,1/2+z
x,-y,1/2+z
loop_
_atom_site_type_symbol
_atom_site_label
_atom_site_fract_x
_atom_site_fract_y
_atom_site_fract_z
Si Si1 0.396952 0.583611 0.122180
Si Si2 0.116919 0.645693 0.515536
Si Si3 0.440796 0.162173 0.349961
Si Si4 0.937702 0.091555 0.458910
Si Si5 0.125113 0.197839 0.154516
Si Si6 0.250942 0.703150 0.301471
O O1 0.500000 0.500000 0.169519
O O2 0.405730 0.644334 0.222268
O O3 0.603489 0.602339 0.027330
O O4 0.104974 0.589409 0.069642
O O5 0.160645 0.729159 0.574204
O O6 0.061012 0.656550 0.386460
O O7 0.164143 0.143146 0.403938
O O8 0.389007 0.169166 0.219369
O O9 0.535549 0.251582 0.378952
O O10 0.664236 0.100963 0.391291
O O11 0.936292 0.120468 0.583098
O O12 0.000000 0.000000 0.457247
O O13 0.901019 0.225740 0.239488
#
# Coordination Sequence:
#
# PCOD8167951 Si02
#       6
#     4   4   4   4   4   4
#     4  11  26  46  70 107 147 185 234 296 362 428
#     4  11  24  42  74 103 141 187 237 291 356 427
#     4  12  24  47  74 105 141 190 247 301 354 446
#     4  12  29  48  71 107 151 185 242 308 376 430
#     4  11  24  45  76 104 139 191 243 297 359 437
#     4  11  25  44  77 107 140 191 251 296 353 435
#
# _framework density 22.786200000000001
#
# number of rings (size 3 to 8) (size 9 to 14) (size 15 to 20)
#    0.000    0.667    5.000    1.000    9.333    1.333 
#    3.000    3.333    0.000    0.000    0.000    0.000 
#    0.000    0.000    0.000    0.000    0.000    0.000 
#
# Total GULP energy -297314.785363 kJ/mol
# GULP energy per Si atom -12388.116057 kJ/mol
# Density = 2.273434 g / cm^3
# Si number density = 22.786200 Si / 1000 Ang^3
#
#
#
# Elastic Constant Matrix: (Units=GPa)
#
#
# Indices 1 2 3 4 5 6 
#
# 1 121.1416 34.6170 58.1244 0.0000 0.0000 0.0000
# 2 34.6170 106.3910 60.0956 0.0000 0.0000 0.0000
# 3 58.1244 60.0956 112.0199 0.0000 0.0000 0.0000
# 4 0.0000 0.0000 0.0000 29.0153 0.0000 0.0000
# 5 0.0000 0.0000 0.0000 0.0000 33.9949 0.0000
# 6 0.0000 0.0000 0.0000 0.0000 0.0000 36.5859
#
#
#
# Elastic Compliance Matrix: (Units=1/GPa)
#
#
# Indices 1 2 3 4 5 6 
#
# 1 0.011010 -0.000510 -0.005439 0.000000 0.000000 0.000000
# 2 -0.000510 0.013510 -0.006983 0.000000 0.000000 0.000000
# 3 -0.005439 -0.006983 0.015495 0.000000 0.000000 0.000000
# 4 0.000000 0.000000 0.000000 0.034465 0.000000 0.000000
# 5 0.000000 0.000000 0.000000 0.000000 0.029416 0.000000
# 6 0.000000 0.000000 0.000000 0.000000 0.000000 0.027333
#
#
# Mechanical properties :
#
#
# Convention : Reuss Voigt Hill
#
# Bulk Modulus (GPa) = 70.66726 71.69184 71.17955
# Shear Modulus (GPa) = 30.90029 32.36691 31.63360
#
# Velocity S-wave (km/s) = 3.68652 3.77299 3.73000
# Velocity P-wave (km/s) = 7.01435 7.10716 7.06091
#
# Compressibility (1/GPa) = 0.01415083
#
# Stress axis : x y z
#
# Youngs Moduli (GPa) = 90.82319 74.02161 64.53490
#
# Poissons Ratio (x) = 0.03775 0.35103
# Poissons Ratio (y) = 0.04632 0.45064
# Poissons Ratio (z) = 0.49403 0.51688
#
# Static dielectric constant tensor:
#      x y z
#    x 4.271000 0.000000 0.000000 
#    y 0.000000 4.173180 0.000000 
#    z 0.000000 0.000000 4.356500 
# 
# 
# High freq. dielectric constant tensor:
#      x y z
#    x 1.908430 0.000000 0.000000 
#    y 0.000000 1.889350 0.000000 
#    z 0.000000 0.000000 1.903660 
# 
# From -- ./inp_files/2045.got.cif
#   From: 2010.03.12/outbox.cif.g09.slc.cpg/sg27_2_cif.got.tgz:2045.got - 2010.04.14 03:36:05.
