data_PCOD8167430
_publ_section_title
;
Structure prediction by ZEFSAII (Michael W. Deem and Ramdas Pophale) SiO2 
 PCOD8167430
Probable space group: P M C 21
;
_chemical_formula_sum "Si O2"
_cell_formula_units_Z 32
_cell_length_a 8.982242
_cell_length_b 10.400242
_cell_length_c 18.582414
_cell_angle_alpha 90.000000
_cell_angle_beta 90.000000
_cell_angle_gamma 90.000000
_cell_volume 1735.922483
_symmetry_space_group_name_H-M "P M C 21"
_symmetry_group_IT_number 26
_symmetry_cell_setting 'orthorhombic'
loop_
_space_group_symop_operation_xyz
x,y,z
-x,-y,1/2+z
-x,y,z
x,-y,1/2+z
loop_
_atom_site_type_symbol
_atom_site_label
_atom_site_fract_x
_atom_site_fract_y
_atom_site_fract_z
Si Si1 0.675246 0.506588 0.245360
Si Si2 0.325004 0.276284 0.350567
Si Si3 0.836503 0.021602 0.332989
Si Si4 0.824751 0.493748 0.095443
Si Si5 0.162452 0.005574 0.002777
Si Si6 0.176735 0.736877 0.324276
Si Si7 0.177924 0.722826 0.486243
Si Si8 0.823007 0.732401 0.001790
O O1 0.500000 0.524094 0.241736
O O2 0.721997 0.392076 0.298482
O O3 0.735843 0.468006 0.167575
O O4 0.746379 0.641213 0.268719
O O5 0.500000 0.267480 0.361679
O O6 0.250141 0.308423 0.426747
O O7 0.271372 0.141185 0.315353
O O8 0.853754 0.004672 0.417510
O O9 0.776939 0.883789 0.303101
O O10 0.000000 0.051459 0.299957
O O11 0.000000 0.479643 0.109699
O O12 0.767287 0.391655 0.036547
O O13 0.783289 0.633249 0.064355
O O14 0.244751 0.141601 0.018531
O O15 0.000000 0.009999 0.039543
O O16 0.241103 0.872523 0.028117
O O17 0.233863 0.700628 0.404700
O O18 0.000000 0.720802 0.318367
O O19 0.000000 0.734826 0.484595
O O20 0.000000 0.739625 0.988025
#
# Coordination Sequence:
#
# PCOD8167430 Si02
#       8
#     4   4   4   4   4   4   4   4
#     4  11  24  37  47  67 104 144 175 206 247 296
#     4  10  20  33  51  75 103 137 173 205 245 301
#     4   8  15  29  52  80 103 124 158 208 259 300
#     4  10  20  33  50  71  95 129 171 210 250 295
#     4   7  11  23  45  73 100 118 140 189 251 298
#     4   9  17  33  58  82 101 125 164 213 260 304
#     4   8  14  27  50  77  98 118 152 201 251 294
#     4   9  17  31  53  77  98 123 161 210 257 298
#
# _framework density 18.434004000000002
#
# number of rings (size 3 to 8) (size 9 to 14) (size 15 to 20)
#    0.000    3.000    0.000    3.750    0.000    4.000 
#    0.000    1.875    0.000    6.000    0.000    0.000 
#    0.000    0.000    0.000    0.000    0.000    0.000 
#
# Total GULP energy -396491.325660 kJ/mol
# GULP energy per Si atom -12390.353927 kJ/mol
# Density = 1.839205 g / cm^3
# Si number density = 18.434004 Si / 1000 Ang^3
#
#
#
# Elastic Constant Matrix: (Units=GPa)
#
#
# Indices 1 2 3 4 5 6 
#
# 1 40.5543 24.3882 17.6065 0.0000 0.0000 0.0000
# 2 24.3882 105.2244 16.5964 0.0000 0.0000 0.0000
# 3 17.6065 16.5964 49.3961 0.0000 0.0000 0.0000
# 4 0.0000 0.0000 0.0000 9.8793 0.0000 0.0000
# 5 0.0000 0.0000 0.0000 0.0000 13.6604 0.0000
# 6 0.0000 0.0000 0.0000 0.0000 0.0000 21.1390
#
#
#
# Elastic Compliance Matrix: (Units=1/GPa)
#
#
# Indices 1 2 3 4 5 6 
#
# 1 0.032410 -0.006008 -0.009534 0.000000 0.000000 0.000000
# 2 -0.006008 0.011149 -0.001604 0.000000 0.000000 0.000000
# 3 -0.009534 -0.001604 0.024182 0.000000 0.000000 0.000000
# 4 0.000000 0.000000 0.000000 0.101222 0.000000 0.000000
# 5 0.000000 0.000000 0.000000 0.000000 0.073204 0.000000
# 6 0.000000 0.000000 0.000000 0.000000 0.000000 0.047306
#
#
# Mechanical properties :
#
#
# Convention : Reuss Voigt Hill
#
# Bulk Modulus (GPa) = 29.89636 34.70632 32.30134
# Shear Modulus (GPa) = 14.92917 18.04133 16.48525
#
# Velocity S-wave (km/s) = 2.84891 3.13181 2.99370
# Velocity P-wave (km/s) = 5.20336 5.65207 5.43235
#
# Compressibility (1/GPa) = 0.03344888
#
# Stress axis : x y z
#
# Youngs Moduli (GPa) = 30.85431 89.69347 41.35368
#
# Poissons Ratio (x) = 0.53889 0.39425
# Poissons Ratio (y) = 0.18538 0.06635
# Poissons Ratio (z) = 0.29415 0.14390
#
# Static dielectric constant tensor:
#      x y z
#    x 3.060360 0.000000 0.000000 
#    y 0.000000 4.070830 0.000000 
#    z 0.000000 0.000000 3.073490 
# 
# 
# High freq. dielectric constant tensor:
#      x y z
#    x 1.676860 0.000000 0.000000 
#    y 0.000000 1.742580 0.000000 
#    z 0.000000 0.000000 1.679410 
# 
# From -- ./inp_files/5090.got.cif
#   From: 2010.03.12/outbox.cif.g09.slc.cpg/sg26_3_cif.got.tgz:5090.got - 2010.04.14 03:33:09.
