data_PCOD8167712
_publ_section_title
;
Structure prediction by ZEFSAII (Michael W. Deem and Ramdas Pophale) SiO2 
 PCOD8167712
Probable space group: P M C 21
;
_chemical_formula_sum "Si O2"
_cell_formula_units_Z 32
_cell_length_a 8.713802
_cell_length_b 11.948594
_cell_length_c 15.345551
_cell_angle_alpha 90.000000
_cell_angle_beta 90.000000
_cell_angle_gamma 90.000000
_cell_volume 1597.743204
_symmetry_space_group_name_H-M "P M C 21"
_symmetry_group_IT_number 26
_symmetry_cell_setting 'orthorhombic'
loop_
_space_group_symop_operation_xyz
x,y,z
-x,-y,1/2+z
-x,y,z
x,-y,1/2+z
loop_
_atom_site_type_symbol
_atom_site_label
_atom_site_fract_x
_atom_site_fract_y
_atom_site_fract_z
Si Si1 0.180209 0.222221 0.959400
Si Si2 0.680630 0.004857 0.020640
Si Si3 0.819252 0.396172 0.614374
Si Si4 0.677277 0.244385 0.472523
Si Si5 0.818986 0.002024 0.205840
Si Si6 0.322022 0.788164 0.777003
Si Si7 0.180894 0.761437 0.265347
Si Si8 0.680285 0.360073 0.115393
O O1 0.229919 0.092408 0.959551
O O2 0.224641 0.271031 0.864205
O O3 0.000000 0.232355 0.977902
O O4 0.272039 0.291562 0.030553
O O5 0.500000 0.021480 0.007441
O O6 0.734065 0.880574 0.995101
O O7 0.726945 0.032627 0.118964
O O8 0.775893 0.333329 0.525651
O O9 0.750467 0.329448 0.697968
O O10 0.754889 0.519509 0.613574
O O11 0.000000 0.403658 0.620644
O O12 0.500000 0.258500 0.498554
O O13 0.704600 0.269324 0.370601
O O14 0.755437 0.884181 0.241453
O O15 0.000000 0.000038 0.187142
O O16 0.777465 0.098448 0.274852
O O17 0.500000 0.819816 0.764184
O O18 0.264298 0.703182 0.702570
O O19 0.000000 0.766393 0.254813
O O20 0.500000 0.375288 0.115054
#
# Coordination Sequence:
#
# PCOD8167712 Si02
#       8
#     4   4   4   4   4   4   4   4
#     4  11  22  39  63  90 121 158 199 246 296 356
#     4  11  21  35  58  90 126 160 194 241 297 356
#     4  11  23  42  64  86 117 156 202 252 300 354
#     4  10  22  40  62  90 123 159 198 243 299 357
#     4  11  20  35  61  90 122 159 195 240 296 356
#     4  10  22  40  61  87 123 158 196 246 295 354
#     4   9  21  39  60  90 123 153 194 246 299 350
#     4  11  24  42  61  85 119 157 202 250 300 357
#
# _framework density 20.028248000000001
#
# number of rings (size 3 to 8) (size 9 to 14) (size 15 to 20)
#    0.000    1.500    2.500    2.625    0.000    2.500 
#    0.000    6.875    0.000    0.000    0.000    0.000 
#    0.000    0.000    0.000    0.000    0.000    0.000 
#
# Total GULP energy -396920.848646 kJ/mol
# GULP energy per Si atom -12403.776520 kJ/mol
# Density = 1.998266 g / cm^3
# Si number density = 20.028248 Si / 1000 Ang^3
#
#
#
# Elastic Constant Matrix: (Units=GPa)
#
#
# Indices 1 2 3 4 5 6 
#
# 1 36.0284 26.0706 24.7826 0.0000 0.0000 0.0000
# 2 26.0706 137.5630 52.0954 0.0000 0.0000 0.0000
# 3 24.7826 52.0954 122.8965 0.0000 0.0000 0.0000
# 4 0.0000 0.0000 0.0000 10.2456 0.0000 0.0000
# 5 0.0000 0.0000 0.0000 0.0000 27.6018 0.0000
# 6 0.0000 0.0000 0.0000 0.0000 0.0000 33.4652
#
#
#
# Elastic Compliance Matrix: (Units=1/GPa)
#
#
# Indices 1 2 3 4 5 6 
#
# 1 0.034563 -0.004659 -0.004995 0.000000 0.000000 0.000000
# 2 -0.004659 0.009287 -0.002997 0.000000 0.000000 0.000000
# 3 -0.004995 -0.002997 0.010415 0.000000 0.000000 0.000000
# 4 0.000000 0.000000 0.000000 0.097603 0.000000 0.000000
# 5 0.000000 0.000000 0.000000 0.000000 0.036230 0.000000
# 6 0.000000 0.000000 0.000000 0.000000 0.000000 0.029882
#
#
# Mechanical properties :
#
#
# Convention : Reuss Voigt Hill
#
# Bulk Modulus (GPa) = 34.52697 55.82056 45.17376
# Shear Modulus (GPa) = 19.76789 27.16515 23.46652
#
# Velocity S-wave (km/s) = 3.14506 3.68685 3.42668
# Velocity P-wave (km/s) = 5.51952 6.78640 6.18548
#
# Compressibility (1/GPa) = 0.02896287
#
# Stress axis : x y z
#
# Youngs Moduli (GPa) = 28.93287 107.67225 96.01721
#
# Poissons Ratio (x) = 0.50161 0.47960
# Poissons Ratio (y) = 0.13479 0.28781
# Poissons Ratio (z) = 0.14452 0.32274
#
# Static dielectric constant tensor:
#      x y z
#    x 3.499100 0.000000 0.000000 
#    y 0.000000 3.711250 0.000000 
#    z 0.000000 0.000000 3.839630 
# 
# 
# High freq. dielectric constant tensor:
#      x y z
#    x 1.772790 0.000000 0.000000 
#    y 0.000000 1.780800 0.000000 
#    z 0.000000 0.000000 1.794250 
# 
# From -- ./inp_files/4171.got.cif
#   From: 2010.03.12/outbox.cif.g09.slc.cpg/sg26_3_cif.got.tgz:4171.got - 2010.04.14 03:33:09.
