data_PCOD8167514
_publ_section_title
;
Structure prediction by ZEFSAII (Michael W. Deem and Ramdas Pophale) SiO2 
 PCOD8167514
Probable space group: P M C 21
;
_chemical_formula_sum "Si O2"
_cell_formula_units_Z 32
_cell_length_a 9.016304
_cell_length_b 7.479376
_cell_length_c 24.455580
_cell_angle_alpha 90.000000
_cell_angle_beta 90.000000
_cell_angle_gamma 90.000000
_cell_volume 1649.194508
_symmetry_space_group_name_H-M "P M C 21"
_symmetry_group_IT_number 26
_symmetry_cell_setting 'orthorhombic'
loop_
_space_group_symop_operation_xyz
x,y,z
-x,-y,1/2+z
-x,y,z
x,-y,1/2+z
loop_
_atom_site_type_symbol
_atom_site_label
_atom_site_fract_x
_atom_site_fract_y
_atom_site_fract_z
Si Si1 0.673431 0.284375 0.963800
Si Si2 0.824422 0.982437 0.157811
Si Si3 0.329887 0.301493 0.843561
Si Si4 0.831546 0.659711 0.857383
Si Si5 0.828514 0.275604 0.240471
Si Si6 0.325029 0.035938 0.542643
Si Si7 0.826285 0.677122 0.237569
Si Si8 0.171054 0.338920 0.477492
O O1 0.500000 0.332960 0.969912
O O2 0.705858 0.209800 0.902242
O O3 0.768423 0.459354 0.978073
O O4 0.723240 0.127904 0.004348
O O5 0.785053 0.789973 0.183917
O O6 0.000000 0.001101 0.148136
O O7 0.757951 0.132817 0.199063
O O8 0.738874 0.005569 0.101838
O O9 0.500000 0.280301 0.827754
O O10 0.290903 0.507863 0.852762
O O11 0.238144 0.225875 0.792025
O O12 0.805409 0.786828 0.804231
O O13 0.811005 0.750984 0.916786
O O14 0.000000 0.580019 0.853620
O O15 0.761840 0.475452 0.231182
O O16 0.000000 0.282015 0.225611
O O17 0.500000 0.056836 0.545775
O O18 0.259501 0.221059 0.520660
O O19 0.000000 0.672720 0.246970
O O20 0.000000 0.343912 0.495507
#
# Coordination Sequence:
#
# PCOD8167514 Si02
#       8
#     4   4   4   4   4   4   4   4
#     4   9  20  38  57  79 111 150 184 220 273 328
#     4  10  21  36  53  74 100 136 184 228 264 310
#     4   9  16  29  52  80 107 135 172 214 259 321
#     4   8  15  30  52  79 108 136 169 212 268 326
#     4   8  15  31  53  75 102 132 163 208 263 315
#     4  11  24  40  55  75 109 149 187 227 272 325
#     4   9  18  33  53  77 106 137 167 210 272 325
#     4  10  20  35  59  87 111 139 180 229 275 324
#
# _framework density 19.403410999999998
#
# number of rings (size 3 to 8) (size 9 to 14) (size 15 to 20)
#    0.000    2.750    0.000    1.875    0.000    4.500 
#    0.000    5.000    0.000    0.000    0.000    0.000 
#    0.000    0.000    0.000    0.000    0.000    0.000 
#
# Total GULP energy -396514.815414 kJ/mol
# GULP energy per Si atom -12391.087982 kJ/mol
# Density = 1.935925 g / cm^3
# Si number density = 19.403411 Si / 1000 Ang^3
#
#
#
# Elastic Constant Matrix: (Units=GPa)
#
#
# Indices 1 2 3 4 5 6 
#
# 1 50.3554 22.9353 31.7901 0.0000 0.0000 0.0000
# 2 22.9353 54.4276 21.1687 0.0000 0.0000 0.0000
# 3 31.7901 21.1687 100.4089 0.0000 0.0000 0.0000
# 4 0.0000 0.0000 0.0000 35.4691 0.0000 0.0000
# 5 0.0000 0.0000 0.0000 0.0000 32.1657 0.0000
# 6 0.0000 0.0000 0.0000 0.0000 0.0000 17.0781
#
#
#
# Elastic Compliance Matrix: (Units=1/GPa)
#
#
# Indices 1 2 3 4 5 6 
#
# 1 0.028558 -0.009278 -0.007086 0.000000 0.000000 0.000000
# 2 -0.009278 0.023029 -0.001917 0.000000 0.000000 0.000000
# 3 -0.007086 -0.001917 0.012607 0.000000 0.000000 0.000000
# 4 0.000000 0.000000 0.000000 0.028194 0.000000 0.000000
# 5 0.000000 0.000000 0.000000 0.000000 0.031089 0.000000
# 6 0.000000 0.000000 0.000000 0.000000 0.000000 0.058555
#
#
# Mechanical properties :
#
#
# Convention : Reuss Voigt Hill
#
# Bulk Modulus (GPa) = 36.19135 39.66444 37.92789
# Shear Modulus (GPa) = 21.94874 25.56242 23.75558
#
# Velocity S-wave (km/s) = 3.36695 3.63356 3.50279
# Velocity P-wave (km/s) = 5.81444 6.17172 5.99574
#
# Compressibility (1/GPa) = 0.02763091
#
# Stress axis : x y z
#
# Youngs Moduli (GPa) = 35.01645 43.42435 79.32191
#
# Poissons Ratio (x) = 0.40290 0.56204
# Poissons Ratio (y) = 0.32489 0.15210
# Poissons Ratio (z) = 0.24811 0.08326
#
# Static dielectric constant tensor:
#      x y z
#    x 3.378600 0.000000 0.000000 
#    y 0.000000 3.454260 0.000000 
#    z 0.000000 0.000000 3.811930 
# 
# 
# High freq. dielectric constant tensor:
#      x y z
#    x 1.739280 0.000000 0.000000 
#    y 0.000000 1.732070 0.000000 
#    z 0.000000 0.000000 1.767090 
# 
# From -- ./inp_files/5577.got.cif
#   From: 2010.03.12/outbox.cif.g09.slc.cpg/sg26_3_cif.got.tgz:5577.got - 2010.04.14 03:33:09.
