data_PCOD8167539
_publ_section_title
;
Structure prediction by ZEFSAII (Michael W. Deem and Ramdas Pophale) SiO2 
 PCOD8167539
Probable space group: P M C 21
;
_chemical_formula_sum "Si O2"
_cell_formula_units_Z 32
_cell_length_a 8.786611
_cell_length_b 14.395109
_cell_length_c 12.193307
_cell_angle_alpha 90.000000
_cell_angle_beta 90.000000
_cell_angle_gamma 90.000000
_cell_volume 1542.260963
_symmetry_space_group_name_H-M "P M C 21"
_symmetry_group_IT_number 26
_symmetry_cell_setting 'orthorhombic'
loop_
_space_group_symop_operation_xyz
x,y,z
-x,-y,1/2+z
-x,y,z
x,-y,1/2+z
loop_
_atom_site_type_symbol
_atom_site_label
_atom_site_fract_x
_atom_site_fract_y
_atom_site_fract_z
Si Si1 0.680121 0.728508 0.005430
Si Si2 0.823680 0.146324 0.680870
Si Si3 0.677485 0.374240 0.974932
Si Si4 0.828605 0.448901 0.409539
Si Si5 0.320955 0.166468 0.912057
Si Si6 0.824891 0.057129 0.112507
Si Si7 0.830316 0.342372 0.188567
Si Si8 0.676540 0.173945 0.284723
O O1 0.500000 0.715663 0.005189
O O2 0.734405 0.770720 0.120510
O O3 0.754608 0.627554 0.990136
O O4 0.731278 0.798472 0.907155
O O5 0.760006 0.130437 0.802611
O O6 0.000000 0.173222 0.688628
O O7 0.800259 0.053340 0.609177
O O8 0.500000 0.378661 0.999507
O O9 0.728089 0.458107 0.896714
O O10 0.724242 0.274238 0.926930
O O11 0.773665 0.397612 0.083240
O O12 0.830276 0.413266 0.286878
O O13 0.000000 0.469518 0.450720
O O14 0.500000 0.153538 0.898255
O O15 0.270058 0.105172 0.015828
O O16 0.770173 0.088264 0.234364
O O17 0.000000 0.084142 0.096795
O O18 0.709029 0.260207 0.204591
O O19 0.000000 0.300702 0.171498
O O20 0.500000 0.148309 0.282301
#
# Coordination Sequence:
#
# PCOD8167539 Si02
#       8
#     4   4   4   4   4   4   4   4
#     4  10  22  41  64  92 127 167 211 263 319 376
#     4  11  26  44  64  93 131 173 215 264 322 385
#     4  11  23  39  62  92 125 164 209 262 318 379
#     4  10  22  39  62  92 124 166 214 260 317 382
#     4  11  25  44  66  94 129 168 214 265 322 382
#     4  11  24  41  64  93 125 165 211 262 318 377
#     4  10  20  36  59  87 119 159 206 258 313 374
#     4  10  20  36  61  91 120 156 204 260 315 371
#
# _framework density 20.748759
#
# number of rings (size 3 to 8) (size 9 to 14) (size 15 to 20)
#    0.000    1.500    1.250    3.000    1.750    7.500 
#    0.000    2.500    0.000    0.000    0.000    0.000 
#    0.000    0.000    0.000    0.000    0.000    0.000 
#
# Total GULP energy -396861.580065 kJ/mol
# GULP energy per Si atom -12401.924377 kJ/mol
# Density = 2.070153 g / cm^3
# Si number density = 20.748759 Si / 1000 Ang^3
#
#
#
# Elastic Constant Matrix: (Units=GPa)
#
#
# Indices 1 2 3 4 5 6 
#
# 1 86.9360 41.2403 34.8856 0.0000 0.0000 0.0000
# 2 41.2403 95.0615 27.4303 0.0000 0.0000 0.0000
# 3 34.8856 27.4303 75.0973 0.0000 0.0000 0.0000
# 4 0.0000 0.0000 0.0000 19.6524 0.0000 0.0000
# 5 0.0000 0.0000 0.0000 0.0000 35.3545 0.0000
# 6 0.0000 0.0000 0.0000 0.0000 0.0000 33.1635
#
#
#
# Elastic Compliance Matrix: (Units=1/GPa)
#
#
# Indices 1 2 3 4 5 6 
#
# 1 0.016345 -0.005477 -0.005592 0.000000 0.000000 0.000000
# 2 -0.005477 0.013594 -0.002421 0.000000 0.000000 0.000000
# 3 -0.005592 -0.002421 0.016798 0.000000 0.000000 0.000000
# 4 0.000000 0.000000 0.000000 0.050884 0.000000 0.000000
# 5 0.000000 0.000000 0.000000 0.000000 0.028285 0.000000
# 6 0.000000 0.000000 0.000000 0.000000 0.000000 0.030154
#
#
# Mechanical properties :
#
#
# Convention : Reuss Voigt Hill
#
# Bulk Modulus (GPa) = 50.61673 51.57858 51.09765
# Shear Modulus (GPa) = 26.36751 27.86997 27.11874
#
# Velocity S-wave (km/s) = 3.56869 3.66896 3.61918
# Velocity P-wave (km/s) = 6.43652 6.54683 6.49191
#
# Compressibility (1/GPa) = 0.01975632
#
# Stress axis : x y z
#
# Youngs Moduli (GPa) = 61.18059 73.56015 59.53013
#
# Poissons Ratio (x) = 0.40291 0.33291
# Poissons Ratio (y) = 0.33510 0.14413
# Poissons Ratio (z) = 0.34214 0.17810
#
# Static dielectric constant tensor:
#      x y z
#    x 3.841880 0.000000 0.000000 
#    y 0.000000 3.715160 0.000000 
#    z 0.000000 0.000000 3.700510 
# 
# 
# High freq. dielectric constant tensor:
#      x y z
#    x 1.824940 0.000000 0.000000 
#    y 0.000000 1.810820 0.000000 
#    z 0.000000 0.000000 1.809340 
# 
# From -- ./inp_files/3079.got.cif
#   From: 2010.03.12/outbox.cif.g09.slc.cpg/sg26_2_cif.got.tgz:3079.got - 2010.04.14 03:33:09.
