data_PCOD8167725
_publ_section_title
;
Structure prediction by ZEFSAII (Michael W. Deem and Ramdas Pophale) SiO2 
 PCOD8167725
Probable space group: P M C 21
;
_chemical_formula_sum "Si O2"
_cell_formula_units_Z 32
_cell_length_a 8.920327
_cell_length_b 15.077295
_cell_length_c 11.830160
_cell_angle_alpha 90.000000
_cell_angle_beta 90.000000
_cell_angle_gamma 90.000000
_cell_volume 1591.090291
_symmetry_space_group_name_H-M "P M C 21"
_symmetry_group_IT_number 26
_symmetry_cell_setting 'orthorhombic'
loop_
_space_group_symop_operation_xyz
x,y,z
-x,-y,1/2+z
-x,y,z
x,-y,1/2+z
loop_
_atom_site_type_symbol
_atom_site_label
_atom_site_fract_x
_atom_site_fract_y
_atom_site_fract_z
Si Si1 0.676412 0.579522 0.621800
Si Si2 0.823629 0.916543 0.628724
Si Si3 0.826218 0.338202 0.924120
Si Si4 0.675346 0.754929 0.758662
Si Si5 0.174142 0.599335 0.173880
Si Si6 0.324586 0.742726 0.020401
Si Si7 0.327368 0.095908 0.677361
Si Si8 0.326917 0.157938 0.926515
O O1 0.500000 0.573872 0.602618
O O2 0.758746 0.582903 0.500075
O O3 0.722213 0.663001 0.699492
O O4 0.733431 0.491127 0.681929
O O5 0.761454 0.837226 0.704948
O O6 0.758088 0.915124 0.501474
O O7 0.000000 0.908607 0.624695
O O8 0.777793 0.010751 0.679690
O O9 0.797766 0.353376 0.792782
O O10 0.736438 0.252232 0.964727
O O11 0.000000 0.325425 0.951703
O O12 0.500000 0.773556 0.744653
O O13 0.720423 0.748602 0.889824
O O14 0.232538 0.662367 0.074543
O O15 0.000000 0.578625 0.153326
O O16 0.500000 0.722710 0.038067
O O17 0.281094 0.836076 0.078605
O O18 0.500000 0.066141 0.665004
O O19 0.297883 0.144722 0.795095
O O20 0.500000 0.153965 0.958947
#
# Coordination Sequence:
#
# PCOD8167725 Si02
#       8
#     4   4   4   4   4   4   4   4
#     4  11  24  41  65  93 125 168 215 260 306 368
#     4  12  26  41  63  94 130 167 206 258 317 378
#     4  11  23  41  65  94 128 163 204 260 320 372
#     4  10  23  43  65  92 125 164 212 262 309 367
#     4  11  25  42  63  94 132 166 202 257 319 378
#     4  10  22  43  67  93 124 163 214 260 307 370
#     4  10  23  42  66  93 124 166 212 261 309 367
#     4  11  22  41  68  93 122 163 213 262 309 368
#
# _framework density 20.111995
#
# number of rings (size 3 to 8) (size 9 to 14) (size 15 to 20)
#    0.000    1.250    2.500    2.625    3.500    4.000 
#    0.000    0.000    0.000    0.000    0.000    0.000 
#    0.000    0.000    0.000    0.000    0.000    0.000 
#
# Total GULP energy -396979.690093 kJ/mol
# GULP energy per Si atom -12405.615315 kJ/mol
# Density = 2.006622 g / cm^3
# Si number density = 20.111995 Si / 1000 Ang^3
#
#
#
# Elastic Constant Matrix: (Units=GPa)
#
#
# Indices 1 2 3 4 5 6 
#
# 1 102.1583 60.2123 58.6463 0.0000 0.0000 0.0000
# 2 60.2123 116.6555 37.5739 0.0000 0.0000 0.0000
# 3 58.6463 37.5739 111.0189 0.0000 0.0000 0.0000
# 4 0.0000 0.0000 0.0000 20.0170 0.0000 0.0000
# 5 0.0000 0.0000 0.0000 0.0000 29.7694 0.0000
# 6 0.0000 0.0000 0.0000 0.0000 0.0000 18.8721
#
#
#
# Elastic Compliance Matrix: (Units=1/GPa)
#
#
# Indices 1 2 3 4 5 6 
#
# 1 0.018017 -0.006997 -0.007150 0.000000 0.000000 0.000000
# 2 -0.006997 0.012338 -0.000480 0.000000 0.000000 0.000000
# 3 -0.007150 -0.000480 0.012947 0.000000 0.000000 0.000000
# 4 0.000000 0.000000 0.000000 0.049958 0.000000 0.000000
# 5 0.000000 0.000000 0.000000 0.000000 0.033592 0.000000
# 6 0.000000 0.000000 0.000000 0.000000 0.000000 0.052988
#
#
# Mechanical properties :
#
#
# Convention : Reuss Voigt Hill
#
# Bulk Modulus (GPa) = 71.17575 71.41086 71.29330
# Shear Modulus (GPa) = 23.38912 25.29169 24.34040
#
# Velocity S-wave (km/s) = 3.41390 3.55003 3.48263
# Velocity P-wave (km/s) = 7.14186 7.23791 7.19004
#
# Compressibility (1/GPa) = 0.01404973
#
# Stress axis : x y z
#
# Youngs Moduli (GPa) = 55.50316 81.04934 77.24013
#
# Poissons Ratio (x) = 0.56708 0.55223
# Poissons Ratio (y) = 0.38834 0.03706
# Poissons Ratio (z) = 0.39682 0.03888
#
# Static dielectric constant tensor:
#      x y z
#    x 3.628210 0.000000 0.000000 
#    y 0.000000 3.611450 0.000000 
#    z 0.000000 0.000000 3.762390 
# 
# 
# High freq. dielectric constant tensor:
#      x y z
#    x 1.786750 0.000000 0.000000 
#    y 0.000000 1.789260 0.000000 
#    z 0.000000 0.000000 1.798810 
# 
# From -- ./inp_files/3029.got.cif
#   From: 2010.03.12/outbox.cif.g09.slc.cpg/sg26_2_cif.got.tgz:3029.got - 2010.04.14 03:33:09.
