data_PCOD8167630
_publ_section_title
;
Structure prediction by ZEFSAII (Michael W. Deem and Ramdas Pophale) SiO2 
 PCOD8167630
Probable space group: P M C 21
;
_chemical_formula_sum "Si O2"
_cell_formula_units_Z 24
_cell_length_a 8.863615
_cell_length_b 11.958256
_cell_length_c 11.931293
_cell_angle_alpha 90.000000
_cell_angle_beta 90.000000
_cell_angle_gamma 90.000000
_cell_volume 1264.638040
_symmetry_space_group_name_H-M "P M C 21"
_symmetry_group_IT_number 26
_symmetry_cell_setting 'orthorhombic'
loop_
_space_group_symop_operation_xyz
x,y,z
-x,-y,1/2+z
-x,y,z
x,-y,1/2+z
loop_
_atom_site_type_symbol
_atom_site_label
_atom_site_fract_x
_atom_site_fract_y
_atom_site_fract_z
Si Si1 0.176334 0.161153 0.049140
Si Si2 0.677468 0.410841 0.672816
Si Si3 0.321323 0.334093 0.215052
Si Si4 0.823563 0.785981 0.294113
Si Si5 0.677501 0.721799 0.959986
Si Si6 0.321558 0.927035 0.105435
O O1 0.237111 0.260986 0.124186
O O2 0.000000 0.145823 0.069278
O O3 0.258187 0.048148 0.082666
O O4 0.215593 0.190162 0.922168
O O5 0.500000 0.390087 0.688139
O O6 0.722390 0.538406 0.690662
O O7 0.761640 0.336995 0.765716
O O8 0.731317 0.372210 0.548881
O O9 0.500000 0.314201 0.206117
O O10 0.254508 0.301633 0.337357
O O11 0.742447 0.881453 0.222051
O O12 0.000000 0.790735 0.269106
O O13 0.500000 0.714496 0.948369
O O14 0.727351 0.844002 0.004312
O O15 0.500000 0.933101 0.116857
#
# Coordination Sequence:
#
# PCOD8167630 Si02
#       6
#     4   4   4   4   4   4
#     4  11  25  40  56  85 122 155 193 238 290 350
#     4   9  19  36  61  88 116 151 193 242 287 339
#     4  10  21  36  60  89 117 151 194 242 287 338
#     4  10  22  40  60  84 119 157 192 235 290 352
#     4   8  17  35  56  86 116 143 186 237 289 336
#     4  10  21  39  63  86 114 151 196 244 289 343
#
# _framework density 18.977761999999998
#
# number of rings (size 3 to 8) (size 9 to 14) (size 15 to 20)
#    0.000    2.333    0.000    2.500    4.667    3.333 
#    0.000    3.333    0.000    0.000    0.000    0.000 
#    0.000    0.000    0.000    0.000    0.000    0.000 
#
# Total GULP energy -297629.150297 kJ/mol
# GULP energy per Si atom -12401.214596 kJ/mol
# Density = 1.893457 g / cm^3
# Si number density = 18.977762 Si / 1000 Ang^3
#
#
#
# Elastic Constant Matrix: (Units=GPa)
#
#
# Indices 1 2 3 4 5 6 
#
# 1 65.7208 58.6934 67.6957 0.0000 0.0000 0.0000
# 2 58.6934 150.3083 92.3249 0.0000 0.0000 0.0000
# 3 67.6957 92.3249 149.1477 0.0000 0.0000 0.0000
# 4 0.0000 0.0000 0.0000 24.2261 0.0000 0.0000
# 5 0.0000 0.0000 0.0000 0.0000 28.3007 0.0000
# 6 0.0000 0.0000 0.0000 0.0000 0.0000 13.9178
#
#
#
# Elastic Compliance Matrix: (Units=1/GPa)
#
#
# Indices 1 2 3 4 5 6 
#
# 1 0.031280 -0.005637 -0.010708 0.000000 0.000000 0.000000
# 2 -0.005637 0.011750 -0.004715 0.000000 0.000000 0.000000
# 3 -0.010708 -0.004715 0.014484 0.000000 0.000000 0.000000
# 4 0.000000 0.000000 0.000000 0.041278 0.000000 0.000000
# 5 0.000000 0.000000 0.000000 0.000000 0.035335 0.000000
# 6 0.000000 0.000000 0.000000 0.000000 0.000000 0.071851
#
#
# Mechanical properties :
#
#
# Convention : Reuss Voigt Hill
#
# Bulk Modulus (GPa) = 64.96202 89.17833 77.07018
# Shear Modulus (GPa) = 19.74496 23.05310 21.39903
#
# Velocity S-wave (km/s) = 3.22906 3.48910 3.36160
# Velocity P-wave (km/s) = 6.94315 7.95768 7.46767
#
# Compressibility (1/GPa) = 0.01539361
#
# Stress axis : x y z
#
# Youngs Moduli (GPa) = 31.96919 85.10336 69.04339
#
# Poissons Ratio (x) = 0.47975 0.73932
# Poissons Ratio (y) = 0.18022 0.32554
# Poissons Ratio (z) = 0.34233 0.40127
#
# Static dielectric constant tensor:
#      x y z
#    x 3.359730 0.000000 0.000000 
#    y 0.000000 3.603910 0.000000 
#    z 0.000000 0.000000 3.746760 
# 
# 
# High freq. dielectric constant tensor:
#      x y z
#    x 1.724140 0.000000 0.000000 
#    y 0.000000 1.747940 0.000000 
#    z 0.000000 0.000000 1.748230 
# 
# From -- ./inp_files/2803.got.cif
#   From: 2010.03.12/outbox.cif.g09.slc.cpg/sg26_2_cif.got.tgz:2803.got - 2010.04.14 03:33:09.
