data_PCOD8167905
_publ_section_title
;
Structure prediction by ZEFSAII (Michael W. Deem and Ramdas Pophale) SiO2 
 PCOD8167905
Probable space group: P C C 2
;
_chemical_formula_sum "Si O2"
_cell_formula_units_Z 24
_cell_length_a 14.498809
_cell_length_b 5.531164
_cell_length_c 13.288592
_cell_angle_alpha 90.000000
_cell_angle_beta 90.000000
_cell_angle_gamma 90.000000
_cell_volume 1065.682494
_symmetry_space_group_name_H-M "P C C 2"
_symmetry_group_IT_number 27
_symmetry_cell_setting 'orthorhombic'
loop_
_space_group_symop_operation_xyz
x,y,z
-x,-y,z
-x,y,1/2+z
x,-y,1/2+z
loop_
_atom_site_type_symbol
_atom_site_label
_atom_site_fract_x
_atom_site_fract_y
_atom_site_fract_z
Si Si1 0.445345 0.254962 0.287270
Si Si2 0.705929 0.938273 0.153019
Si Si3 0.815122 0.385238 0.517984
Si Si4 0.000000 0.000000 0.238074
Si Si5 0.322230 0.232295 0.470907
Si Si6 0.811430 0.068989 0.335784
Si Si7 0.000000 0.500000 0.115528
O O1 0.500000 0.500000 0.260359
O O2 0.360623 0.250563 0.209344
O O3 0.411085 0.284016 0.402410
O O4 0.500000 0.000000 0.277247
O O5 0.796754 0.821531 0.101329
O O6 0.748923 0.122491 0.236484
O O7 0.646918 0.063843 0.064321
O O8 0.720733 0.535646 0.524559
O O9 0.823656 0.308345 0.401569
O O10 0.909534 0.516934 0.546036
O O11 0.911467 0.969579 0.308575
O O12 0.994919 0.249874 0.176361
O O13 0.239688 0.127090 0.403964
#
# Coordination Sequence:
#
# PCOD8167905 Si02
#       7
#     4   4   4   2   4   4   2
#     4  11  28  49  76 110 143 182 243 302 363 444
#     4  10  23  49  71 104 142 194 237 297 370 430
#     4  11  25  43  74 103 147 196 240 298 356 426
#     4  12  26  44  68 104 148 190 248 296 350 416
#     4  10  25  45  74 100 148 187 239 299 367 429
#     4  10  24  42  70 101 144 194 242 295 356 422
#     4  12  28  44  72 110 146 190 252 292 342 432
#
# _framework density 22.520780999999999
#
# number of rings (size 3 to 8) (size 9 to 14) (size 15 to 20)
#    0.000    1.333    1.667    1.000   16.333    2.000 
#    0.000    0.000    0.000    0.000    0.000    0.000 
#    0.000    0.000    0.000    0.000    0.000    0.000 
#
# Total GULP energy -297445.590351 kJ/mol
# GULP energy per Si atom -12393.566265 kJ/mol
# Density = 2.246952 g / cm^3
# Si number density = 22.520781 Si / 1000 Ang^3
#
#
#
# Elastic Constant Matrix: (Units=GPa)
#
#
# Indices 1 2 3 4 5 6 
#
# 1 99.1188 31.0154 52.8434 0.0000 0.0000 0.0000
# 2 31.0154 115.0021 44.0207 0.0000 0.0000 0.0000
# 3 52.8434 44.0207 149.1976 0.0000 0.0000 0.0000
# 4 0.0000 0.0000 0.0000 29.5115 0.0000 0.0000
# 5 0.0000 0.0000 0.0000 0.0000 51.2839 0.0000
# 6 0.0000 0.0000 0.0000 0.0000 0.0000 36.1155
#
#
#
# Elastic Compliance Matrix: (Units=1/GPa)
#
#
# Indices 1 2 3 4 5 6 
#
# 1 0.012809 -0.001937 -0.003965 0.000000 0.000000 0.000000
# 2 -0.001937 0.010095 -0.002293 0.000000 0.000000 0.000000
# 3 -0.003965 -0.002293 0.008783 0.000000 0.000000 0.000000
# 4 0.000000 0.000000 0.000000 0.033885 0.000000 0.000000
# 5 0.000000 0.000000 0.000000 0.000000 0.019499 0.000000
# 6 0.000000 0.000000 0.000000 0.000000 0.000000 0.027689
#
#
# Mechanical properties :
#
#
# Convention : Reuss Voigt Hill
#
# Bulk Modulus (GPa) = 65.36621 68.78639 67.07630
# Shear Modulus (GPa) = 37.24397 39.07812 38.16105
#
# Velocity S-wave (km/s) = 4.07106 4.17010 4.12087
# Velocity P-wave (km/s) = 7.15443 7.33458 7.24507
#
# Compressibility (1/GPa) = 0.01529842
#
# Stress axis : x y z
#
# Youngs Moduli (GPa) = 78.07049 99.05497 113.85069
#
# Poissons Ratio (x) = 0.19183 0.45145
# Poissons Ratio (y) = 0.15120 0.26103
# Poissons Ratio (z) = 0.30957 0.22710
#
# Static dielectric constant tensor:
#      x y z
#    x 3.993570 0.000000 0.000000 
#    y 0.000000 3.883210 0.000000 
#    z 0.000000 0.000000 4.309140 
# 
# 
# High freq. dielectric constant tensor:
#      x y z
#    x 1.887890 0.000000 0.000000 
#    y 0.000000 1.875710 0.000000 
#    z 0.000000 0.000000 1.907220 
# 
# From -- ./inp_files/3698.got.cif
#   From: 2010.03.12/outbox.cif.g09.slc.cpg/sg27_2_cif.got.tgz:3698.got - 2010.04.14 03:36:05.
