data_PCOD8167871
_publ_section_title
;
Structure prediction by ZEFSAII (Michael W. Deem and Ramdas Pophale) SiO2 
 PCOD8167871
Probable space group: P C C 2
;
_chemical_formula_sum "Si O2"
_cell_formula_units_Z 32
_cell_length_a 8.588486
_cell_length_b 11.783956
_cell_length_c 13.397633
_cell_angle_alpha 90.000000
_cell_angle_beta 90.000000
_cell_angle_gamma 90.000000
_cell_volume 1355.925416
_symmetry_space_group_name_H-M "P C C 2"
_symmetry_group_IT_number 27
_symmetry_cell_setting 'orthorhombic'
loop_
_space_group_symop_operation_xyz
x,y,z
-x,-y,z
-x,y,1/2+z
x,-y,1/2+z
loop_
_atom_site_type_symbol
_atom_site_label
_atom_site_fract_x
_atom_site_fract_y
_atom_site_fract_z
Si Si1 0.535599 0.374988 0.170630
Si Si2 0.641311 0.366723 0.476225
Si Si3 0.657505 0.061606 0.977572
Si Si4 0.388170 0.267415 0.338181
Si Si5 0.045117 0.263585 0.018140
Si Si6 0.204414 0.205480 0.659909
Si Si7 0.115299 0.908006 0.360302
Si Si8 0.858677 0.436036 0.907044
O O1 0.500000 0.500000 0.220997
O O2 0.429255 0.275943 0.220893
O O3 0.714356 0.329856 0.171332
O O4 0.490839 0.388659 0.056335
O O5 0.549179 0.317987 0.382496
O O6 0.769197 0.280558 0.522033
O O7 0.724837 0.481500 0.444976
O O8 0.635087 0.142365 0.881003
O O9 0.500000 0.000000 0.008423
O O10 0.775530 0.964194 0.944190
O O11 0.708376 0.132092 0.075014
O O12 0.228933 0.338473 0.346838
O O13 0.011867 0.182171 0.922655
O O14 0.951122 0.380077 0.999693
O O15 0.975240 0.216531 0.122502
O O16 0.209474 0.147158 0.768486
O O17 0.000000 0.000000 0.312156
O O18 0.000000 0.500000 0.845272
#
# Coordination Sequence:
#
# PCOD8167871 Si02
#       8
#     4   4   4   4   4   4   4   4
#     4  12  25  42  70 108 141 190 238 292 363 436
#     4  11  22  40  70  99 140 187 236 291 367 426
#     4  12  26  48  73 102 142 191 246 301 366 422
#     4  12  23  46  68 102 144 188 242 302 350 434
#     4  11  23  45  66 102 139 187 236 296 366 429
#     4  12  26  47  72 102 148 183 242 304 362 441
#     4  12  27  46  72 104 141 189 245 301 360 427
#     4  10  21  40  70 100 142 191 228 290 364 433
#
# _framework density 23.600117999999998
#
# number of rings (size 3 to 8) (size 9 to 14) (size 15 to 20)
#    0.000    0.500    3.750    4.875    1.750    4.500 
#    0.000    1.875    0.000    0.000    0.000    0.000 
#    0.000    0.000    0.000    0.000    0.000    0.000 
#
# Total GULP energy -396557.993914 kJ/mol
# GULP energy per Si atom -12392.437310 kJ/mol
# Density = 2.354640 g / cm^3
# Si number density = 23.600118 Si / 1000 Ang^3
#
#
#
# Elastic Constant Matrix: (Units=GPa)
#
#
# Indices 1 2 3 4 5 6 
#
# 1 108.3123 35.2687 8.8049 0.0000 0.0000 0.0000
# 2 35.2687 105.7923 20.4547 0.0000 0.0000 0.0000
# 3 8.8049 20.4547 68.9483 0.0000 0.0000 0.0000
# 4 0.0000 0.0000 0.0000 16.9557 0.0000 0.0000
# 5 0.0000 0.0000 0.0000 0.0000 21.6036 0.0000
# 6 0.0000 0.0000 0.0000 0.0000 0.0000 49.6671
#
#
#
# Elastic Compliance Matrix: (Units=1/GPa)
#
#
# Indices 1 2 3 4 5 6 
#
# 1 0.010363 -0.003394 -0.000317 0.000000 0.000000 0.000000
# 2 -0.003394 0.011139 -0.002871 0.000000 0.000000 0.000000
# 3 -0.000317 -0.002871 0.015396 0.000000 0.000000 0.000000
# 4 0.000000 0.000000 0.000000 0.058977 0.000000 0.000000
# 5 0.000000 0.000000 0.000000 0.000000 0.046289 0.000000
# 6 0.000000 0.000000 0.000000 0.000000 0.000000 0.020134
#
#
# Mechanical properties :
#
#
# Convention : Reuss Voigt Hill
#
# Bulk Modulus (GPa) = 42.13158 45.78996 43.96077
# Shear Modulus (GPa) = 27.26686 32.21358 29.74022
#
# Velocity S-wave (km/s) = 3.40276 3.69857 3.55374
# Velocity P-wave (km/s) = 5.77316 6.13871 5.95874
#
# Compressibility (1/GPa) = 0.02373517
#
# Stress axis : x y z
#
# Youngs Moduli (GPa) = 96.49384 89.77473 64.95263
#
# Poissons Ratio (x) = 0.30467 0.02057
# Poissons Ratio (y) = 0.32747 0.18649
# Poissons Ratio (z) = 0.03055 0.25776
#
# Static dielectric constant tensor:
#      x y z
#    x 4.505430 0.000000 0.000000 
#    y 0.000000 4.564580 0.000000 
#    z 0.000000 0.000000 3.894260 
# 
# 
# High freq. dielectric constant tensor:
#      x y z
#    x 1.951580 0.000000 0.000000 
#    y 0.000000 1.942770 0.000000 
#    z 0.000000 0.000000 1.910290 
# 
# From -- ./inp_files/3448.got.cif
#   From: 2010.03.12/outbox.cif.g09.slc.cpg/sg27_2_cif.got.tgz:3448.got - 2010.04.14 03:36:05.
