data_PCOD8167579
_publ_section_title
;
Structure prediction by ZEFSAII (Michael W. Deem and Ramdas Pophale) SiO2 
 PCOD8167579
Probable space group: P M C 21
;
_chemical_formula_sum "Si O2"
_cell_formula_units_Z 24
_cell_length_a 9.130294
_cell_length_b 13.814026
_cell_length_c 9.919149
_cell_angle_alpha 90.000000
_cell_angle_beta 90.000000
_cell_angle_gamma 90.000000
_cell_volume 1251.063764
_symmetry_space_group_name_H-M "P M C 21"
_symmetry_group_IT_number 26
_symmetry_cell_setting 'orthorhombic'
loop_
_space_group_symop_operation_xyz
x,y,z
-x,-y,1/2+z
-x,y,z
x,-y,1/2+z
loop_
_atom_site_type_symbol
_atom_site_label
_atom_site_fract_x
_atom_site_fract_y
_atom_site_fract_z
Si Si1 0.331084 0.630888 0.370570
Si Si2 0.328850 0.589552 0.841520
Si Si3 0.826231 0.087823 0.222941
Si Si4 0.330966 0.273860 0.586777
Si Si5 0.173700 0.704857 0.620490
Si Si6 0.825849 0.079762 0.527406
O O1 0.500000 0.645917 0.411034
O O2 0.286107 0.518895 0.382599
O O3 0.299527 0.665518 0.220142
O O4 0.230380 0.694186 0.468600
O O5 0.500000 0.596383 0.806614
O O6 0.239101 0.618388 0.709270
O O7 0.282281 0.659479 0.962610
O O8 0.768394 0.192805 0.177989
O O9 0.769403 0.065068 0.374033
O O10 0.000000 0.086231 0.219716
O O11 0.764779 0.007976 0.118859
O O12 0.500000 0.243946 0.574467
O O13 0.234124 0.178255 0.589895
O O14 0.000000 0.699135 0.622500
O O15 0.000000 0.084817 0.531440
#
# Coordination Sequence:
#
# PCOD8167579 Si02
#       6
#     4   4   4   4   4   4
#     4  10  22  39  59  84 115 157 198 229 276 345
#     4  10  20  39  63  82 111 156 196 231 282 344
#     4   9  20  36  58  84 110 147 188 229 282 346
#     4  10  21  37  58  86 115 146 193 242 283 330
#     4  11  22  37  58  89 120 146 189 241 288 333
#     4  10  20  38  60  81 111 150 190 230 283 346
#
# _framework density 19.183675999999998
#
# number of rings (size 3 to 8) (size 9 to 14) (size 15 to 20)
#    0.000    2.000    1.667    1.500    2.333    4.000 
#    0.000    4.167    0.000    0.000    0.000    0.000 
#    0.000    0.000    0.000    0.000    0.000    0.000 
#
# Total GULP energy -297702.474205 kJ/mol
# GULP energy per Si atom -12404.269759 kJ/mol
# Density = 1.914001 g / cm^3
# Si number density = 19.183676 Si / 1000 Ang^3
#
#
#
# Elastic Constant Matrix: (Units=GPa)
#
#
# Indices 1 2 3 4 5 6 
#
# 1 40.1957 31.4005 30.1487 0.0000 0.0000 0.0000
# 2 31.4005 115.0517 39.6110 0.0000 0.0000 0.0000
# 3 30.1487 39.6110 91.0130 0.0000 0.0000 0.0000
# 4 0.0000 0.0000 0.0000 38.6407 0.0000 0.0000
# 5 0.0000 0.0000 0.0000 0.0000 31.2599 0.0000
# 6 0.0000 0.0000 0.0000 0.0000 0.0000 28.0740
#
#
#
# Elastic Compliance Matrix: (Units=1/GPa)
#
#
# Indices 1 2 3 4 5 6 
#
# 1 0.037324 -0.006975 -0.009328 0.000000 0.000000 0.000000
# 2 -0.006975 0.011527 -0.002706 0.000000 0.000000 0.000000
# 3 -0.009328 -0.002706 0.015255 0.000000 0.000000 0.000000
# 4 0.000000 0.000000 0.000000 0.025879 0.000000 0.000000
# 5 0.000000 0.000000 0.000000 0.000000 0.031990 0.000000
# 6 0.000000 0.000000 0.000000 0.000000 0.000000 0.035620
#
#
# Mechanical properties :
#
#
# Convention : Reuss Voigt Hill
#
# Bulk Modulus (GPa) = 38.33289 49.84231 44.08760
# Shear Modulus (GPa) = 24.47260 29.26826 26.87043
#
# Velocity S-wave (km/s) = 3.57557 3.91024 3.74664
# Velocity P-wave (km/s) = 6.08865 6.81356 6.46128
#
# Compressibility (1/GPa) = 0.02608725
#
# Stress axis : x y z
#
# Youngs Moduli (GPa) = 26.79271 86.75157 65.55099
#
# Poissons Ratio (x) = 0.60509 0.61146
# Poissons Ratio (y) = 0.18688 0.17741
# Poissons Ratio (z) = 0.24992 0.23478
#
# Static dielectric constant tensor:
#      x y z
#    x 3.251330 0.000000 0.000000 
#    y 0.000000 3.608180 0.000000 
#    z 0.000000 0.000000 3.657660 
# 
# 
# High freq. dielectric constant tensor:
#      x y z
#    x 1.720450 0.000000 0.000000 
#    y 0.000000 1.754660 0.000000 
#    z 0.000000 0.000000 1.761900 
# 
# From -- ./inp_files/1421.got.cif
#   From: 2010.03.12/outbox.cif.g09.slc.cpg/sg26_1_cif.got.tgz:1421.got - 2010.04.14 03:33:09.
