data_PCOD8167761
_publ_section_title
;
Structure prediction by ZEFSAII (Michael W. Deem and Ramdas Pophale) SiO2 
 PCOD8167761
Probable space group: P M C 21
;
_chemical_formula_sum "Si O2"
_cell_formula_units_Z 32
_cell_length_a 8.851667
_cell_length_b 14.411987
_cell_length_c 12.207271
_cell_angle_alpha 90.000000
_cell_angle_beta 90.000000
_cell_angle_gamma 90.000000
_cell_volume 1557.282901
_symmetry_space_group_name_H-M "P M C 21"
_symmetry_group_IT_number 26
_symmetry_cell_setting 'orthorhombic'
loop_
_space_group_symop_operation_xyz
x,y,z
-x,-y,1/2+z
-x,y,z
x,-y,1/2+z
loop_
_atom_site_type_symbol
_atom_site_label
_atom_site_fract_x
_atom_site_fract_y
_atom_site_fract_z
Si Si1 0.823474 0.726369 0.045450
Si Si2 0.168869 0.168816 0.759956
Si Si3 0.166643 0.365106 0.843687
Si Si4 0.823040 0.867793 0.862476
Si Si5 0.677465 0.951041 0.430350
Si Si6 0.325013 0.443678 0.646014
Si Si7 0.678818 0.825009 0.634668
Si Si8 0.175028 0.628952 0.590766
O O1 0.769537 0.796580 0.141874
O O2 0.739372 0.627348 0.054156
O O3 0.000000 0.706407 0.063560
O O4 0.789549 0.771851 0.927648
O O5 0.166033 0.253964 0.844677
O O6 0.279937 0.093286 0.812559
O O7 0.000000 0.126261 0.748192
O O8 0.298881 0.400701 0.765624
O O9 0.000000 0.400620 0.805170
O O10 0.202310 0.398116 0.965070
O O11 0.740362 0.869203 0.746297
O O12 0.000000 0.880481 0.843439
O O13 0.761705 0.950693 0.938652
O O14 0.500000 0.967585 0.434227
O O15 0.732680 0.887843 0.532159
O O16 0.500000 0.459208 0.622430
O O17 0.241109 0.541586 0.654306
O O18 0.500000 0.821861 0.639987
O O19 0.738532 0.721211 0.624202
O O20 0.000000 0.643488 0.619764
#
# Coordination Sequence:
#
# PCOD8167761 Si02
#       8
#     4   4   4   4   4   4   4   4
#     4   9  21  42  63  89 122 161 211 264 311 364
#     4   9  17  35  62  89 115 150 202 257 306 363
#     4   9  19  37  60  86 116 156 206 258 306 364
#     4  11  25  43  66  92 125 171 217 260 310 375
#     4  11  24  40  61  92 127 162 202 256 318 375
#     4  11  23  37  60  93 127 166 207 257 319 381
#     4  11  25  44  64  94 133 165 204 261 322 380
#     4  11  22  40  66  91 121 165 213 261 310 370
#
# _framework density 20.548611000000001
#
# number of rings (size 3 to 8) (size 9 to 14) (size 15 to 20)
#    0.000    1.750    1.250    3.375    1.750    6.500 
#    0.000    1.250    0.000    0.000    0.000    0.000 
#    0.000    0.000    0.000    0.000    0.000    0.000 
#
# Total GULP energy -396824.305468 kJ/mol
# GULP energy per Si atom -12400.759546 kJ/mol
# Density = 2.050184 g / cm^3
# Si number density = 20.548611 Si / 1000 Ang^3
#
#
#
# Elastic Constant Matrix: (Units=GPa)
#
#
# Indices 1 2 3 4 5 6 
#
# 1 88.4262 43.2691 36.6125 0.0000 0.0000 0.0000
# 2 43.2691 112.2420 34.1069 0.0000 0.0000 0.0000
# 3 36.6125 34.1069 75.0216 0.0000 0.0000 0.0000
# 4 0.0000 0.0000 0.0000 23.2623 0.0000 0.0000
# 5 0.0000 0.0000 0.0000 0.0000 28.0431 0.0000
# 6 0.0000 0.0000 0.0000 0.0000 0.0000 37.4478
#
#
#
# Elastic Compliance Matrix: (Units=1/GPa)
#
#
# Indices 1 2 3 4 5 6 
#
# 1 0.015815 -0.004353 -0.005739 0.000000 0.000000 0.000000
# 2 -0.004353 0.011535 -0.003120 0.000000 0.000000 0.000000
# 3 -0.005739 -0.003120 0.017549 0.000000 0.000000 0.000000
# 4 0.000000 0.000000 0.000000 0.042988 0.000000 0.000000
# 5 0.000000 0.000000 0.000000 0.000000 0.035659 0.000000
# 6 0.000000 0.000000 0.000000 0.000000 0.000000 0.026704
#
#
# Mechanical properties :
#
#
# Convention : Reuss Voigt Hill
#
# Bulk Modulus (GPa) = 54.12662 55.96298 55.04480
# Shear Modulus (GPa) = 27.34734 28.53073 27.93904
#
# Velocity S-wave (km/s) = 3.65205 3.73023 3.69135
# Velocity P-wave (km/s) = 6.64690 6.77100 6.70924
#
# Compressibility (1/GPa) = 0.01847520
#
# Stress axis : x y z
#
# Youngs Moduli (GPa) = 63.23082 86.68990 56.98357
#
# Poissons Ratio (x) = 0.37733 0.32705
# Poissons Ratio (y) = 0.27522 0.17779
# Poissons Ratio (z) = 0.36290 0.27048
#
# Static dielectric constant tensor:
#      x y z
#    x 3.612470 0.000000 0.000000 
#    y 0.000000 3.675650 0.000000 
#    z 0.000000 0.000000 3.670020 
# 
# 
# High freq. dielectric constant tensor:
#      x y z
#    x 1.800000 0.000000 0.000000 
#    y 0.000000 1.804030 0.000000 
#    z 0.000000 0.000000 1.800780 
# 
# From -- ./inp_files/3009.got.cif
#   From: 2010.03.12/outbox.cif.g09.slc.cpg/sg26_2_cif.got.tgz:3009.got - 2010.04.14 03:33:09.
