data_PCOD8167297
_publ_section_title
;
Structure prediction by ZEFSAII (Michael W. Deem and Ramdas Pophale) SiO2 
 PCOD8167297
Probable space group: P M C 21
;
_chemical_formula_sum "Si O2"
_cell_formula_units_Z 32
_cell_length_a 8.752222
_cell_length_b 13.436203
_cell_length_c 13.152771
_cell_angle_alpha 90.000000
_cell_angle_beta 90.000000
_cell_angle_gamma 90.000000
_cell_volume 1546.721564
_symmetry_space_group_name_H-M "P M C 21"
_symmetry_group_IT_number 26
_symmetry_cell_setting 'orthorhombic'
loop_
_space_group_symop_operation_xyz
x,y,z
-x,-y,1/2+z
-x,y,z
x,-y,1/2+z
loop_
_atom_site_type_symbol
_atom_site_label
_atom_site_fract_x
_atom_site_fract_y
_atom_site_fract_z
Si Si1 0.320304 0.252914 0.487980
Si Si2 0.681627 0.101445 0.867801
Si Si3 0.321647 0.179337 0.083230
Si Si4 0.318689 0.117307 0.303014
Si Si5 0.177284 0.464991 0.718054
Si Si6 0.818019 0.244254 0.698880
Si Si7 0.175586 0.446533 0.414946
Si Si8 0.171176 0.617440 0.549438
O O1 0.500000 0.238706 0.499152
O O2 0.257957 0.194960 0.387808
O O3 0.244174 0.206595 0.589439
O O4 0.278791 0.369200 0.476995
O O5 0.500000 0.114431 0.861260
O O6 0.759310 0.177164 0.790588
O O7 0.735532 0.991744 0.836506
O O8 0.741531 0.121796 0.983343
O O9 0.500000 0.161260 0.089132
O O10 0.249206 0.141381 0.190368
O O11 0.290766 0.296165 0.069333
O O12 0.500000 0.123793 0.298079
O O13 0.250952 0.355125 0.717034
O O14 0.238491 0.546069 0.799891
O O15 0.208010 0.517740 0.612228
O O16 0.000000 0.449404 0.741243
O O17 0.000000 0.241388 0.695841
O O18 0.189182 0.565635 0.440347
O O19 0.000000 0.410187 0.427152
O O20 0.000000 0.659152 0.569386
#
# Coordination Sequence:
#
# PCOD8167297 Si02
#       8
#     4   4   4   4   4   4   4   4
#     4  11  22  37  60  91 123 159 201 246 294 352
#     4  10  22  40  64  89 114 153 201 247 301 362
#     4  10  21  38  60  88 119 151 197 252 297 349
#     4   9  21  40  63  88 117 157 199 244 303 363
#     4   9  18  33  55  80 110 155 199 232 285 351
#     4  11  22  40  62  88 123 159 199 249 297 352
#     4  10  19  34  56  81 114 156 197 239 288 348
#     4  10  19  34  54  79 114 156 193 227 285 353
#
# _framework density 20.688921000000001
#
# number of rings (size 3 to 8) (size 9 to 14) (size 15 to 20)
#    0.000    2.000    1.250    2.250    1.750    2.000 
#    0.000    3.750    0.000    0.000    0.000    0.000 
#    0.000    0.000    0.000    0.000    0.000    0.000 
#
# Total GULP energy -396578.125659 kJ/mol
# GULP energy per Si atom -12393.066427 kJ/mol
# Density = 2.064183 g / cm^3
# Si number density = 20.688921 Si / 1000 Ang^3
#
#
#
# Elastic Constant Matrix: (Units=GPa)
#
#
# Indices 1 2 3 4 5 6 
#
# 1 35.3139 19.0882 31.2432 0.0000 0.0000 0.0000
# 2 19.0882 110.6795 53.0270 0.0000 0.0000 0.0000
# 3 31.2432 53.0270 151.1161 0.0000 0.0000 0.0000
# 4 0.0000 0.0000 0.0000 24.1049 0.0000 0.0000
# 5 0.0000 0.0000 0.0000 0.0000 25.5422 0.0000
# 6 0.0000 0.0000 0.0000 0.0000 0.0000 20.8585
#
#
#
# Elastic Compliance Matrix: (Units=1/GPa)
#
#
# Indices 1 2 3 4 5 6 
#
# 1 0.035540 -0.003136 -0.006247 0.000000 0.000000 0.000000
# 2 -0.003136 0.011138 -0.003260 0.000000 0.000000 0.000000
# 3 -0.006247 -0.003260 0.009053 0.000000 0.000000 0.000000
# 4 0.000000 0.000000 0.000000 0.041485 0.000000 0.000000
# 5 0.000000 0.000000 0.000000 0.000000 0.039151 0.000000
# 6 0.000000 0.000000 0.000000 0.000000 0.000000 0.047942
#
#
# Mechanical properties :
#
#
# Convention : Reuss Voigt Hill
#
# Bulk Modulus (GPa) = 32.84745 55.98069 44.41407
# Shear Modulus (GPa) = 22.75377 27.01785 24.88581
#
# Velocity S-wave (km/s) = 3.31993 3.61766 3.47199
# Velocity P-wave (km/s) = 5.53238 6.67585 6.13083
#
# Compressibility (1/GPa) = 0.03044377
#
# Stress axis : x y z
#
# Youngs Moduli (GPa) = 28.13744 89.78436 110.46111
#
# Poissons Ratio (x) = 0.28158 0.69009
# Poissons Ratio (y) = 0.08824 0.36009
# Poissons Ratio (z) = 0.17578 0.29269
#
# Static dielectric constant tensor:
#      x y z
#    x 3.307310 0.000000 0.000000 
#    y 0.000000 3.672380 0.000000 
#    z 0.000000 0.000000 4.218110 
# 
# 
# High freq. dielectric constant tensor:
#      x y z
#    x 1.765860 0.000000 0.000000 
#    y 0.000000 1.806820 0.000000 
#    z 0.000000 0.000000 1.838160 
# 
# From -- ./inp_files/4123.got.cif
#   From: 2010.03.12/outbox.cif.g09.slc.cpg/sg26_3_cif.got.tgz:4123.got - 2010.04.14 03:33:09.
