data_PCOD8167508
_publ_section_title
;
Structure prediction by ZEFSAII (Michael W. Deem and Ramdas Pophale) SiO2 
 PCOD8167508
Probable space group: P M C 21
;
_chemical_formula_sum "Si O2"
_cell_formula_units_Z 32
_cell_length_a 9.497865
_cell_length_b 14.382227
_cell_length_c 12.304509
_cell_angle_alpha 90.000000
_cell_angle_beta 90.000000
_cell_angle_gamma 90.000000
_cell_volume 1680.801472
_symmetry_space_group_name_H-M "P M C 21"
_symmetry_group_IT_number 26
_symmetry_cell_setting 'orthorhombic'
loop_
_space_group_symop_operation_xyz
x,y,z
-x,-y,1/2+z
-x,y,z
x,-y,1/2+z
loop_
_atom_site_type_symbol
_atom_site_label
_atom_site_fract_x
_atom_site_fract_y
_atom_site_fract_z
Si Si1 0.666131 0.259805 0.518460
Si Si2 0.837041 0.149682 0.349950
Si Si3 0.833765 0.619133 0.546085
Si Si4 0.342339 0.452965 0.618817
Si Si5 0.654018 0.359889 0.847644
Si Si6 0.339059 0.166258 0.740400
Si Si7 0.163061 0.942434 0.402065
Si Si8 0.166272 0.174541 0.106279
O O1 0.500000 0.251151 0.498932
O O2 0.748488 0.228627 0.411162
O O3 0.706906 0.366870 0.542978
O O4 0.711250 0.194055 0.619454
O O5 0.782210 0.141487 0.225273
O O6 0.000000 0.180388 0.350583
O O7 0.815600 0.052771 0.412979
O O8 0.765144 0.538194 0.616968
O O9 0.778262 0.605015 0.424304
O O10 0.783160 0.719557 0.589109
O O11 0.000000 0.608138 0.548821
O O12 0.500000 0.483856 0.584105
O O13 0.342468 0.421987 0.741988
O O14 0.500000 0.370866 0.903440
O O15 0.679264 0.253202 0.819576
O O16 0.500000 0.131592 0.737567
O O17 0.241832 0.086688 0.791319
O O18 0.226400 0.892796 0.510563
O O19 0.000000 0.916344 0.386031
O O20 0.000000 0.168169 0.099197
#
# Coordination Sequence:
#
# PCOD8167508 Si02
#       8
#     4   4   4   4   4   4   4   4
#     4   9  20  39  58  80 114 148 184 237 290 330
#     4  10  22  37  58  83 115 156 192 231 281 342
#     4  11  21  34  56  83 116 150 182 236 292 336
#     4   9  20  38  58  80 110 150 193 237 283 338
#     4   9  18  35  56  78 106 143 189 235 281 335
#     4   9  18  34  57  81 107 140 182 238 285 326
#     4  10  20  35  58  83 110 148 189 231 281 337
#     4   9  20  38  53  80 120 147 181 235 287 330
#
# _framework density 19.038536000000001
#
# number of rings (size 3 to 8) (size 9 to 14) (size 15 to 20)
#    0.000    2.500    1.250    1.875    1.750    3.000 
#    0.000    6.875    0.000    0.000    0.000    0.000 
#    0.000    0.000    0.000    0.000    0.000    0.000 
#
# Total GULP energy -396725.549489 kJ/mol
# GULP energy per Si atom -12397.673422 kJ/mol
# Density = 1.899520 g / cm^3
# Si number density = 19.038536 Si / 1000 Ang^3
#
#
#
# Elastic Constant Matrix: (Units=GPa)
#
#
# Indices 1 2 3 4 5 6 
#
# 1 58.8963 36.5795 27.7164 0.0000 0.0000 0.0000
# 2 36.5795 88.7514 37.1397 0.0000 0.0000 0.0000
# 3 27.7164 37.1397 82.4678 0.0000 0.0000 0.0000
# 4 0.0000 0.0000 0.0000 23.7218 0.0000 0.0000
# 5 0.0000 0.0000 0.0000 0.0000 33.0653 0.0000
# 6 0.0000 0.0000 0.0000 0.0000 0.0000 26.4173
#
#
#
# Elastic Compliance Matrix: (Units=1/GPa)
#
#
# Indices 1 2 3 4 5 6 
#
# 1 0.024085 -0.008058 -0.004466 0.000000 0.000000 0.000000
# 2 -0.008058 0.016580 -0.004759 0.000000 0.000000 0.000000
# 3 -0.004466 -0.004759 0.015770 0.000000 0.000000 0.000000
# 4 0.000000 0.000000 0.000000 0.042155 0.000000 0.000000
# 5 0.000000 0.000000 0.000000 0.000000 0.030243 0.000000
# 6 0.000000 0.000000 0.000000 0.000000 0.000000 0.037854
#
#
# Mechanical properties :
#
#
# Convention : Reuss Voigt Hill
#
# Bulk Modulus (GPa) = 45.72441 48.10963 46.91702
# Shear Modulus (GPa) = 23.97587 25.21953 24.59770
#
# Velocity S-wave (km/s) = 3.55256 3.64353 3.59833
# Velocity P-wave (km/s) = 6.39504 6.55934 6.47771
#
# Compressibility (1/GPa) = 0.02187016
#
# Stress axis : x y z
#
# Youngs Moduli (GPa) = 41.51894 60.31364 63.41202
#
# Poissons Ratio (x) = 0.48602 0.28318
# Poissons Ratio (y) = 0.33457 0.30175
# Poissons Ratio (z) = 0.18541 0.28701
#
# Static dielectric constant tensor:
#      x y z
#    x 3.373130 0.000000 0.000000 
#    y 0.000000 3.460610 0.000000 
#    z 0.000000 0.000000 3.469050 
# 
# 
# High freq. dielectric constant tensor:
#      x y z
#    x 1.722110 0.000000 0.000000 
#    y 0.000000 1.738910 0.000000 
#    z 0.000000 0.000000 1.740380 
# 
# From -- ./inp_files/2994.got.cif
#   From: 2010.03.12/outbox.cif.g09.slc.cpg/sg26_2_cif.got.tgz:2994.got - 2010.04.14 03:33:09.
