data_PCOD8167489
_publ_section_title
;
Structure prediction by ZEFSAII (Michael W. Deem and Ramdas Pophale) SiO2 
 PCOD8167489
Probable space group: P M C 21
;
_chemical_formula_sum "Si O2"
_cell_formula_units_Z 32
_cell_length_a 8.854560
_cell_length_b 9.280020
_cell_length_c 20.176998
_cell_angle_alpha 90.000000
_cell_angle_beta 90.000000
_cell_angle_gamma 90.000000
_cell_volume 1657.953891
_symmetry_space_group_name_H-M "P M C 21"
_symmetry_group_IT_number 26
_symmetry_cell_setting 'orthorhombic'
loop_
_space_group_symop_operation_xyz
x,y,z
-x,-y,1/2+z
-x,y,z
x,-y,1/2+z
loop_
_atom_site_type_symbol
_atom_site_label
_atom_site_fract_x
_atom_site_fract_y
_atom_site_fract_z
Si Si1 0.823686 0.612540 0.814900
Si Si2 0.678462 0.082916 0.298749
Si Si3 0.177554 0.381116 0.079673
Si Si4 0.178183 0.412893 0.694820
Si Si5 0.677742 0.888059 0.418623
Si Si6 0.826194 0.594201 0.429802
Si Si7 0.321066 0.081093 0.067756
Si Si8 0.179662 0.090468 0.680418
O O1 0.721977 0.751583 0.805853
O O2 0.771145 0.494736 0.761097
O O3 0.788668 0.547701 0.887379
O O4 0.000000 0.652054 0.806147
O O5 0.500000 0.068081 0.290053
O O6 0.738272 0.999939 0.364048
O O7 0.758439 0.019023 0.234685
O O8 0.238084 0.501238 0.130502
O O9 0.266651 0.234953 0.095506
O O10 0.000000 0.350345 0.088912
O O11 0.215844 0.438108 0.006000
O O12 0.243065 0.250737 0.695366
O O13 0.000000 0.402841 0.690715
O O14 0.500000 0.881525 0.417395
O O15 0.736042 0.729490 0.400852
O O16 0.733177 0.936605 0.491553
O O17 0.000000 0.636553 0.422027
O O18 0.500000 0.069704 0.075574
O O19 0.241330 0.954545 0.108535
O O20 0.000000 0.084216 0.680231
#
# Coordination Sequence:
#
# PCOD8167489 Si02
#       8
#     4   4   4   4   4   4   4   4
#     4  10  20  35  54  78 106 138 176 223 270 315
#     4  11  23  38  55  79 109 144 183 224 268 320
#     4   9  17  33  55  79 106 139 177 220 265 314
#     4   9  19  34  53  75 102 134 172 216 265 316
#     4   9  20  37  56  78 110 147 182 220 266 317
#     4   9  18  32  54  81 107 136 177 222 265 313
#     4  10  20  36  56  81 111 144 180 220 265 320
#     4  11  22  37  57  81 107 140 179 223 272 323
#
# _framework density 19.300899999999999
#
# number of rings (size 3 to 8) (size 9 to 14) (size 15 to 20)
#    0.000    2.250    0.000    2.625    0.000    5.000 
#    0.000    3.750    0.000    0.000    0.000    0.000 
#    0.000    0.000    0.000    0.000    0.000    0.000 
#
# Total GULP energy -396873.952807 kJ/mol
# GULP energy per Si atom -12402.311025 kJ/mol
# Density = 1.925697 g / cm^3
# Si number density = 19.300900 Si / 1000 Ang^3
#
#
#
# Elastic Constant Matrix: (Units=GPa)
#
#
# Indices 1 2 3 4 5 6 
#
# 1 34.7169 9.3606 16.6236 0.0000 0.0000 0.0000
# 2 9.3606 72.6405 27.1205 0.0000 0.0000 0.0000
# 3 16.6236 27.1205 85.1539 0.0000 0.0000 0.0000
# 4 0.0000 0.0000 0.0000 39.2535 0.0000 0.0000
# 5 0.0000 0.0000 0.0000 0.0000 22.4056 0.0000
# 6 0.0000 0.0000 0.0000 0.0000 0.0000 20.9460
#
#
#
# Elastic Compliance Matrix: (Units=1/GPa)
#
#
# Indices 1 2 3 4 5 6 
#
# 1 0.032038 -0.002035 -0.005606 0.000000 0.000000 0.000000
# 2 -0.002035 0.015754 -0.004620 0.000000 0.000000 0.000000
# 3 -0.005606 -0.004620 0.014309 0.000000 0.000000 0.000000
# 4 0.000000 0.000000 0.000000 0.025475 0.000000 0.000000
# 5 0.000000 0.000000 0.000000 0.000000 0.044632 0.000000
# 6 0.000000 0.000000 0.000000 0.000000 0.000000 0.047742
#
#
# Mechanical properties :
#
#
# Convention : Reuss Voigt Hill
#
# Bulk Modulus (GPa) = 26.61166 33.19121 29.90144
# Shear Modulus (GPa) = 23.04166 25.81478 24.42822
#
# Velocity S-wave (km/s) = 3.45891 3.66114 3.56146
# Velocity P-wave (km/s) = 5.45617 5.92503 5.69543
#
# Compressibility (1/GPa) = 0.03757751
#
# Stress axis : x y z
#
# Youngs Moduli (GPa) = 31.21334 63.47761 69.88480
#
# Poissons Ratio (x) = 0.12920 0.39178
# Poissons Ratio (y) = 0.06353 0.32287
# Poissons Ratio (z) = 0.17498 0.29327
#
# Static dielectric constant tensor:
#      x y z
#    x 3.329510 0.000000 0.000000 
#    y 0.000000 3.579700 0.000000 
#    z 0.000000 0.000000 3.894810 
# 
# 
# High freq. dielectric constant tensor:
#      x y z
#    x 1.734420 0.000000 0.000000 
#    y 0.000000 1.749990 0.000000 
#    z 0.000000 0.000000 1.766410 
# 
# From -- ./inp_files/5338.got.cif
#   From: 2010.03.12/outbox.cif.g09.slc.cpg/sg26_3_cif.got.tgz:5338.got - 2010.04.14 03:33:09.
