data_PCOD8167968
_publ_section_title
;
Structure prediction by ZEFSAII (Michael W. Deem and Ramdas Pophale) SiO2 
 PCOD8167968
Probable space group: P M A 2
;
_chemical_formula_sum "Si O2"
_cell_formula_units_Z 28
_cell_length_a 8.602684
_cell_length_b 9.958291
_cell_length_c 18.175341
_cell_angle_alpha 90.000000
_cell_angle_beta 90.000000
_cell_angle_gamma 90.000000
_cell_volume 1557.045670
_symmetry_space_group_name_H-M "P M A 2"
_symmetry_group_IT_number 28
_symmetry_cell_setting 'orthorhombic'
loop_
_space_group_symop_operation_xyz
x,y,z
-x,-y,z
1/2-x,y,z
1/2+x,-y,z
loop_
_atom_site_type_symbol
_atom_site_label
_atom_site_fract_x
_atom_site_fract_y
_atom_site_fract_z
Si Si1 0.065583 0.350342 0.317850
Si Si2 0.066511 0.859481 0.048058
Si Si3 0.566511 0.140519 0.882602
Si Si4 0.934233 0.349714 0.465330
Si Si5 0.065583 0.350342 0.612810
Si Si6 0.934442 0.352089 0.167938
Si Si7 0.565558 0.352089 0.762722
O O1 0.250000 0.349506 0.320534
O O2 0.000000 0.500000 0.316612
O O3 0.998063 0.276601 0.391179
O O4 0.003876 0.283872 0.242382
O O5 0.250000 0.869599 0.049538
O O6 0.008853 0.739858 0.100473
O O7 0.005499 0.830098 0.965330
O O8 0.000000 0.000000 0.077560
O O9 0.750000 0.130401 0.881122
O O10 0.508853 0.260142 0.830186
O O11 0.500000 0.000000 0.853100
O O12 0.750000 0.350543 0.465330
O O13 0.000000 0.500000 0.465330
O O14 0.998063 0.276601 0.539481
O O15 0.250000 0.349506 0.610126
O O16 0.000000 0.500000 0.614048
O O17 0.003876 0.283872 0.688278
O O18 0.750000 0.359633 0.174954
O O19 0.000000 0.500000 0.153592
O O20 0.500000 0.500000 0.777068
O O21 0.750000 0.359633 0.755705
#
# Coordination Sequence:
#
# PCOD8167968 Si02
#       7
#     4   4   4   4   4   4   4
#     4  10  17  26  40  61  90 123 158 194 234 279
#     4   9  19  35  53  72  95 124 160 200 240 285
#     4   9  19  35  53  72  95 124 160 200 240 285
#     4  10  16  24  38  58  87 122 157 192 233 278
#     4  10  17  26  40  61  90 123 158 194 234 279
#     4  10  19  31  47  70  99 128 159 197 241 286
#     4  10  19  31  47  70  99 128 159 197 241 286
#
# _framework density 17.982775
#
# number of rings (size 3 to 8) (size 9 to 14) (size 15 to 20)
#    0.000    2.286    0.000    8.143    0.000    2.857 
#    0.000    0.000    0.000    0.000    0.000    1.000 
#    0.000    0.000    0.000    0.000    0.000    0.000 
#
# Total GULP energy -347035.526399 kJ/mol
# GULP energy per Si atom -12394.125943 kJ/mol
# Density = 1.794185 g / cm^3
# Si number density = 17.982775 Si / 1000 Ang^3
#
#
#
# Elastic Constant Matrix: (Units=GPa)
#
#
# Indices 1 2 3 4 5 6 
#
# 1 116.8489 28.5790 58.7910 0.0000 0.0000 0.0000
# 2 28.5790 64.5325 68.6264 0.0000 0.0000 0.0000
# 3 58.7910 68.6264 172.1681 0.0000 0.0000 0.0000
# 4 0.0000 0.0000 0.0000 2.0728 0.0000 0.0000
# 5 0.0000 0.0000 0.0000 0.0000 30.6105 0.0000
# 6 0.0000 0.0000 0.0000 0.0000 0.0000 18.8698
#
#
#
# Elastic Compliance Matrix: (Units=1/GPa)
#
#
# Indices 1 2 3 4 5 6 
#
# 1 0.010410 -0.001441 -0.002981 0.000000 0.000000 0.000000
# 2 -0.001441 0.027097 -0.010309 0.000000 0.000000 0.000000
# 3 -0.002981 -0.010309 0.010935 0.000000 0.000000 0.000000
# 4 0.000000 0.000000 0.000000 0.482429 0.000000 0.000000
# 5 0.000000 0.000000 0.000000 0.000000 0.032668 0.000000
# 6 0.000000 0.000000 0.000000 0.000000 0.000000 0.052995
#
#
# Mechanical properties :
#
#
# Convention : Reuss Voigt Hill
#
# Bulk Modulus (GPa) = 52.68131 73.94917 63.31524
# Shear Modulus (GPa) = 7.66492 23.48083 15.57288
#
# Velocity S-wave (km/s) = 2.06679 3.61742 2.94596
# Velocity P-wave (km/s) = 5.92069 7.65893 6.84521
#
# Compressibility (1/GPa) = 0.01898206
#
# Stress axis : x y z
#
# Youngs Moduli (GPa) = 96.06125 36.90440 91.44753
#
# Poissons Ratio (x) = 0.05316 0.27256
# Poissons Ratio (y) = 0.13838 0.94273
# Poissons Ratio (z) = 0.28631 0.38045
#
# Static dielectric constant tensor:
#      x y z
#    x 3.338250 0.000000 0.000000 
#    y 0.000000 2.887430 0.000000 
#    z 0.000000 0.000000 4.914320 
# 
# 
# High freq. dielectric constant tensor:
#      x y z
#    x 1.709570 0.000000 0.000000 
#    y 0.000000 1.626520 0.000000 
#    z 0.000000 0.000000 1.725830 
# 
# From -- ./inp_files/6906.got.cif
#   From: 2010.03.12/outbox.cif.g09.slc.cpg/sg28_4_cif.got.tgz:6906.got - 2010.04.14 03:39:34.
