data_PCOD8167778
_publ_section_title
;
Structure prediction by ZEFSAII (Michael W. Deem and Ramdas Pophale) SiO2 
 PCOD8167778
Probable space group: P M C 21
;
_chemical_formula_sum "Si O2"
_cell_formula_units_Z 32
_cell_length_a 9.565749
_cell_length_b 24.454423
_cell_length_c 7.647581
_cell_angle_alpha 90.000000
_cell_angle_beta 90.000000
_cell_angle_gamma 90.000000
_cell_volume 1788.959409
_symmetry_space_group_name_H-M "P M C 21"
_symmetry_group_IT_number 26
_symmetry_cell_setting 'orthorhombic'
loop_
_space_group_symop_operation_xyz
x,y,z
-x,-y,1/2+z
-x,y,z
x,-y,1/2+z
loop_
_atom_site_type_symbol
_atom_site_label
_atom_site_fract_x
_atom_site_fract_y
_atom_site_fract_z
Si Si1 0.166362 0.559304 0.796630
Si Si2 0.163554 0.160188 0.899871
Si Si3 0.655315 0.059351 0.897385
Si Si4 0.166994 0.363439 0.601741
Si Si5 0.833637 0.559288 0.406816
Si Si6 0.836447 0.160190 0.303762
Si Si7 0.165157 0.241428 0.601814
Si Si8 0.344685 0.940644 0.806312
O O1 0.225414 0.500010 0.851748
O O2 0.218909 0.573983 0.601718
O O3 0.000000 0.557543 0.803297
O O4 0.222994 0.605223 0.929671
O O5 0.242990 0.106606 0.827136
O O6 0.213419 0.210367 0.778283
O O7 0.000000 0.148341 0.877243
O O8 0.199987 0.174174 0.101816
O O9 0.500000 0.065006 0.812598
O O10 0.719445 0.999997 0.851861
O O11 0.643635 0.066172 0.101848
O O12 0.223007 0.394803 0.773752
O O13 0.230415 0.302239 0.601800
O O14 0.000000 0.362290 0.601747
O O15 0.000000 0.557530 0.400140
O O16 0.786583 0.210371 0.425338
O O17 0.757016 0.106613 0.376534
O O18 0.000000 0.148343 0.326386
O O19 0.000000 0.246395 0.601823
O O20 0.500000 0.934985 0.891098
#
# Coordination Sequence:
#
# PCOD8167778 Si02
#       8
#     4   4   4   4   4   4   4   4
#     4   9  14  20  31  47  70  99 133 178 225 261
#     4   9  18  32  47  63  87 118 151 186 222 265
#     4   9  18  31  47  69  93 114 142 183 228 273
#     4   9  16  24  34  51  73 101 140 183 222 258
#     4   9  14  20  31  47  70  99 133 178 225 261
#     4   9  18  32  47  63  87 118 151 186 222 265
#     4   9  18  30  43  59  81 113 154 191 222 264
#     4   9  18  31  47  69  93 114 142 183 228 273
#
# _framework density 17.887494
#
# number of rings (size 3 to 8) (size 9 to 14) (size 15 to 20)
#    0.000    3.000    1.250    0.000    1.750    1.500 
#    0.000    5.000    0.000    0.000    0.000    0.000 
#    0.000    0.000    0.000    0.000    0.000    5.000 
#
# Total GULP energy -396621.837425 kJ/mol
# GULP energy per Si atom -12394.432420 kJ/mol
# Density = 1.784678 g / cm^3
# Si number density = 17.887494 Si / 1000 Ang^3
#
#
#
# Elastic Constant Matrix: (Units=GPa)
#
#
# Indices 1 2 3 4 5 6 
#
# 1 22.5624 32.7104 19.2972 0.0000 0.0000 0.0000
# 2 32.7104 189.6611 84.2139 0.0000 0.0000 0.0000
# 3 19.2972 84.2139 127.3078 0.0000 0.0000 0.0000
# 4 0.0000 0.0000 0.0000 33.7248 0.0000 0.0000
# 5 0.0000 0.0000 0.0000 0.0000 6.2512 0.0000
# 6 0.0000 0.0000 0.0000 0.0000 0.0000 -90.9395
#
#
#
# Elastic Compliance Matrix: (Units=1/GPa)
#
#
# Indices 1 2 3 4 5 6 
#
# 1 0.059997 -0.008933 -0.003185 0.000000 0.000000 0.000000
# 2 -0.008933 0.008795 -0.004464 0.000000 0.000000 0.000000
# 3 -0.003185 -0.004464 0.011291 0.000000 0.000000 0.000000
# 4 0.000000 0.000000 0.000000 0.029652 0.000000 0.000000
# 5 0.000000 0.000000 0.000000 0.000000 0.159970 0.000000
# 6 0.000000 0.000000 0.000000 0.000000 0.000000 -0.010996
#
#
# Mechanical properties :
#
#
# Convention : Reuss Voigt Hill
#
# Bulk Modulus (GPa) = 21.31359 67.99713 44.65536
# Shear Modulus (GPa) = 16.25950 3.36128 9.81039
#
# Velocity S-wave (km/s) = 3.01821 1.37230 2.34444
# Velocity P-wave (km/s) = 4.90789 6.37238 5.68747
#
# Compressibility (1/GPa) = 0.04691843
#
# Stress axis : x y z
#
# Youngs Moduli (GPa) = 16.66755 113.69561 88.56854
#
# Poissons Ratio (x) = 1.01568 0.28208
# Poissons Ratio (y) = 0.14890 0.39537
# Poissons Ratio (z) = 0.05308 0.50754
#
# Static dielectric constant tensor:
#      x y z
#    x 2.905650 0.000000 0.000000 
#    y 0.000000 3.572140 0.000000 
#    z 0.000000 0.000000 3.483270 
# 
# 
# High freq. dielectric constant tensor:
#      x y z
#    x 1.620900 0.000000 0.000000 
#    y 0.000000 1.693840 0.000000 
#    z 0.000000 0.000000 1.704630 
# 
# From -- ./inp_files/1624.got.cif
#   From: 2010.03.12/outbox.cif.g09.slc.cpg/sg26_1_cif.got.tgz:1624.got - 2010.04.14 03:33:09.
