data_PCOD8167882
_publ_section_title
;
Structure prediction by ZEFSAII (Michael W. Deem and Ramdas Pophale) SiO2 
 PCOD8167882
Probable space group: P C C 2
;
_chemical_formula_sum "Si O2"
_cell_formula_units_Z 32
_cell_length_a 14.341004
_cell_length_b 8.129701
_cell_length_c 11.810796
_cell_angle_alpha 90.000000
_cell_angle_beta 90.000000
_cell_angle_gamma 90.000000
_cell_volume 1376.997965
_symmetry_space_group_name_H-M "P C C 2"
_symmetry_group_IT_number 27
_symmetry_cell_setting 'orthorhombic'
loop_
_space_group_symop_operation_xyz
x,y,z
-x,-y,z
-x,y,1/2+z
x,-y,1/2+z
loop_
_atom_site_type_symbol
_atom_site_label
_atom_site_fract_x
_atom_site_fract_y
_atom_site_fract_z
Si Si1 0.174972 0.832893 0.775100
Si Si2 0.959726 0.183166 0.961777
Si Si3 0.798679 0.358663 0.077061
Si Si4 0.360373 0.295733 0.737804
Si Si5 0.856273 0.292720 0.547758
Si Si6 0.579215 0.864189 0.516634
Si Si7 0.278139 0.088488 0.912831
Si Si8 0.335520 0.374267 0.363895
O O1 0.143050 0.847868 0.645353
O O2 0.268123 0.719496 0.776133
O O3 0.198910 0.004049 0.836248
O O4 0.083218 0.767291 0.840268
O O5 0.874771 0.217921 0.049587
O O6 0.047032 0.301823 0.980592
O O7 0.000000 0.000000 0.972728
O O8 0.744160 0.301237 0.188075
O O9 0.847823 0.530391 0.106064
O O10 0.727077 0.404899 0.975429
O O11 0.428779 0.239624 0.634690
O O12 0.362311 0.154558 0.833755
O O13 0.382035 0.470842 0.798532
O O14 0.769294 0.247877 0.467776
O O15 0.577015 0.738805 0.408610
O O16 0.500000 0.000000 0.510980
O O17 0.679060 0.960759 0.505413
#
# Coordination Sequence:
#
# PCOD8167882 Si02
#       8
#     4   4   4   4   4   4   4   4
#     4  10  22  40  59  93 129 184 236 286 352 424
#     4  11  24  39  56  93 137 178 233 294 355 405
#     4  10  22  40  62  99 133 181 236 289 344 410
#     4  11  21  41  77 101 129 186 236 284 355 428
#     4  12  22  39  64  88 136 181 237 299 346 412
#     4  10  24  45  71 108 150 174 223 296 363 444
#     4  11  23  40  68  98 131 188 235 289 357 434
#     4   9  19  41  70  98 137 175 233 280 345 426
#
# _framework density 23.238958
#
# number of rings (size 3 to 8) (size 9 to 14) (size 15 to 20)
#    0.000    1.500    3.750    1.875    1.750    2.000 
#    0.000    1.875    2.750    0.000    0.000    3.500 
#    0.000    0.000    0.000    0.000    0.000    0.000 
#
# Total GULP energy -396517.763945 kJ/mol
# GULP energy per Si atom -12391.180123 kJ/mol
# Density = 2.318607 g / cm^3
# Si number density = 23.238958 Si / 1000 Ang^3
#
#
#
# Elastic Constant Matrix: (Units=GPa)
#
#
# Indices 1 2 3 4 5 6 
#
# 1 78.9392 33.3593 31.5247 0.0000 0.0000 0.0000
# 2 33.3593 107.3944 44.7540 0.0000 0.0000 0.0000
# 3 31.5247 44.7540 94.1555 0.0000 0.0000 0.0000
# 4 0.0000 0.0000 0.0000 36.7328 0.0000 0.0000
# 5 0.0000 0.0000 0.0000 0.0000 18.0961 0.0000
# 6 0.0000 0.0000 0.0000 0.0000 0.0000 42.5289
#
#
#
# Elastic Compliance Matrix: (Units=1/GPa)
#
#
# Indices 1 2 3 4 5 6 
#
# 1 0.015513 -0.003310 -0.003621 0.000000 0.000000 0.000000
# 2 -0.003310 0.012318 -0.004747 0.000000 0.000000 0.000000
# 3 -0.003621 -0.004747 0.014089 0.000000 0.000000 0.000000
# 4 0.000000 0.000000 0.000000 0.027224 0.000000 0.000000
# 5 0.000000 0.000000 0.000000 0.000000 0.055261 0.000000
# 6 0.000000 0.000000 0.000000 0.000000 0.000000 0.023513
#
#
# Mechanical properties :
#
#
# Convention : Reuss Voigt Hill
#
# Bulk Modulus (GPa) = 53.86416 55.52946 54.69681
# Shear Modulus (GPa) = 28.17542 30.86162 29.51852
#
# Velocity S-wave (km/s) = 3.48576 3.64814 3.56788
# Velocity P-wave (km/s) = 6.27929 6.45694 6.36873
#
# Compressibility (1/GPa) = 0.01856522
#
# Stress axis : x y z
#
# Youngs Moduli (GPa) = 64.46375 81.18452 70.97660
#
# Poissons Ratio (x) = 0.26870 0.25698
# Poissons Ratio (y) = 0.21336 0.33690
# Poissons Ratio (z) = 0.23340 0.38535
#
# Static dielectric constant tensor:
#      x y z
#    x 3.981240 0.000000 0.000000 
#    y 0.000000 4.160720 0.000000 
#    z 0.000000 0.000000 4.113390 
# 
# 
# High freq. dielectric constant tensor:
#      x y z
#    x 1.897500 0.000000 0.000000 
#    y 0.000000 1.922770 0.000000 
#    z 0.000000 0.000000 1.913440 
# 
# From -- ./inp_files/2767.got.cif
#   From: 2010.03.12/outbox.cif.g09.slc.cpg/sg27_2_cif.got.tgz:2767.got - 2010.04.14 03:36:05.
