data_PCOD8167524
_publ_section_title
;
Structure prediction by ZEFSAII (Michael W. Deem and Ramdas Pophale) SiO2 
 PCOD8167524
Probable space group: P M C 21
;
_chemical_formula_sum "Si O2"
_cell_formula_units_Z 32
_cell_length_a 9.443939
_cell_length_b 11.000078
_cell_length_c 16.373710
_cell_angle_alpha 90.000000
_cell_angle_beta 90.000000
_cell_angle_gamma 90.000000
_cell_volume 1700.967564
_symmetry_space_group_name_H-M "P M C 21"
_symmetry_group_IT_number 26
_symmetry_cell_setting 'orthorhombic'
loop_
_space_group_symop_operation_xyz
x,y,z
-x,-y,1/2+z
-x,y,z
x,-y,1/2+z
loop_
_atom_site_type_symbol
_atom_site_label
_atom_site_fract_x
_atom_site_fract_y
_atom_site_fract_z
Si Si1 0.836751 0.057362 0.121130
Si Si2 0.336263 0.303748 0.735808
Si Si3 0.654408 0.153604 0.264922
Si Si4 0.831244 0.563347 0.370542
Si Si5 0.666156 0.817184 0.071163
Si Si6 0.651105 0.090211 0.850966
Si Si7 0.841805 0.204351 0.967888
Si Si8 0.334561 0.326706 0.407779
O O1 0.775180 0.112775 0.203586
O O2 0.000000 0.018655 0.134117
O O3 0.753025 0.940888 0.087090
O O4 0.825760 0.176376 0.063206
O O5 0.500000 0.343787 0.746486
O O6 0.237615 0.402720 0.782131
O O7 0.298465 0.285980 0.639981
O O8 0.303154 0.170749 0.773170
O O9 0.500000 0.175587 0.222012
O O10 0.699019 0.268621 0.319240
O O11 0.635317 0.048794 0.330434
O O12 0.786821 0.664267 0.438371
O O13 0.764678 0.443832 0.409916
O O14 0.000000 0.548750 0.359773
O O15 0.500000 0.851401 0.076226
O O16 0.707349 0.761102 0.983351
O O17 0.500000 0.140328 0.882824
O O18 0.760445 0.096108 0.923842
O O19 0.000000 0.192136 0.936669
O O20 0.500000 0.362155 0.415030
#
# Coordination Sequence:
#
# PCOD8167524 Si02
#       8
#     4   4   4   4   4   4   4   4
#     4  11  22  35  55  85 119 149 184 229 280 344
#     4   9  17  33  59  85 111 141 183 233 275 332
#     4  10  20  36  55  80 115 148 182 228 280 336
#     4  10  21  39  59  78 111 152 192 234 280 335
#     4  10  20  38  62  87 116 147 186 238 290 340
#     4   9  16  30  55  83 107 137 176 221 276 331
#     4   9  20  36  53  78 110 145 182 225 274 328
#     4  10  22  39  60  84 113 151 195 240 285 336
#
# _framework density 18.812823000000002
#
# number of rings (size 3 to 8) (size 9 to 14) (size 15 to 20)
#    0.000    2.250    1.250    1.500    0.000    4.500 
#    2.250    0.000    0.000    0.000    0.000    0.000 
#    0.000    0.000    0.000    0.000    0.000    0.000 
#
# Total GULP energy -396540.735822 kJ/mol
# GULP energy per Si atom -12391.897994 kJ/mol
# Density = 1.877000 g / cm^3
# Si number density = 18.812823 Si / 1000 Ang^3
#
#
#
# Elastic Constant Matrix: (Units=GPa)
#
#
# Indices 1 2 3 4 5 6 
#
# 1 96.0674 56.2223 56.7193 0.0000 0.0000 0.0000
# 2 56.2223 78.7838 48.4650 0.0000 0.0000 0.0000
# 3 56.7193 48.4650 91.1789 0.0000 0.0000 0.0000
# 4 0.0000 0.0000 0.0000 26.4584 0.0000 0.0000
# 5 0.0000 0.0000 0.0000 0.0000 34.2786 0.0000
# 6 0.0000 0.0000 0.0000 0.0000 0.0000 23.4905
#
#
#
# Elastic Compliance Matrix: (Units=1/GPa)
#
#
# Indices 1 2 3 4 5 6 
#
# 1 0.020850 -0.010253 -0.007520 0.000000 0.000000 0.000000
# 2 -0.010253 0.023902 -0.006327 0.000000 0.000000 0.000000
# 3 -0.007520 -0.006327 0.019008 0.000000 0.000000 0.000000
# 4 0.000000 0.000000 0.000000 0.037795 0.000000 0.000000
# 5 0.000000 0.000000 0.000000 0.000000 0.029173 0.000000
# 6 0.000000 0.000000 0.000000 0.000000 0.000000 0.042570
#
#
# Mechanical properties :
#
#
# Convention : Reuss Voigt Hill
#
# Bulk Modulus (GPa) = 64.26569 65.42702 64.84635
# Shear Modulus (GPa) = 22.05715 23.82041 22.93878
#
# Velocity S-wave (km/s) = 3.42783 3.56220 3.49566
# Velocity P-wave (km/s) = 7.06409 7.19531 7.13000
#
# Compressibility (1/GPa) = 0.01556040
#
# Stress axis : x y z
#
# Youngs Moduli (GPa) = 47.96240 41.83820 52.60852
#
# Poissons Ratio (x) = 0.42896 0.39562
# Poissons Ratio (y) = 0.49175 0.33284
# Poissons Ratio (z) = 0.36068 0.26470
#
# Static dielectric constant tensor:
#      x y z
#    x 3.375570 0.000000 0.000000 
#    y 0.000000 3.303750 0.000000 
#    z 0.000000 0.000000 3.486540 
# 
# 
# High freq. dielectric constant tensor:
#      x y z
#    x 1.732010 0.000000 0.000000 
#    y 0.000000 1.717030 0.000000 
#    z 0.000000 0.000000 1.726860 
# 
# From -- ./inp_files/4153.got.cif
#   From: 2010.03.12/outbox.cif.g09.slc.cpg/sg26_3_cif.got.tgz:4153.got - 2010.04.14 03:33:09.
