data_PCOD8167623
_publ_section_title
;
Structure prediction by ZEFSAII (Michael W. Deem and Ramdas Pophale) SiO2 
 PCOD8167623
Probable space group: P M C 21
;
_chemical_formula_sum "Si O2"
_cell_formula_units_Z 24
_cell_length_a 8.629073
_cell_length_b 15.138449
_cell_length_c 9.316935
_cell_angle_alpha 90.000000
_cell_angle_beta 90.000000
_cell_angle_gamma 90.000000
_cell_volume 1217.078500
_symmetry_space_group_name_H-M "P M C 21"
_symmetry_group_IT_number 26
_symmetry_cell_setting 'orthorhombic'
loop_
_space_group_symop_operation_xyz
x,y,z
-x,-y,1/2+z
-x,y,z
x,-y,1/2+z
loop_
_atom_site_type_symbol
_atom_site_label
_atom_site_fract_x
_atom_site_fract_y
_atom_site_fract_z
Si Si1 0.182578 0.253611 0.920050
Si Si2 0.319903 0.560965 0.380659
Si Si3 0.823345 0.779407 0.096064
Si Si4 0.314922 0.904153 0.592544
Si Si5 0.681376 0.930249 0.913824
Si Si6 0.177795 0.420451 0.579701
O O1 0.264739 0.346889 0.949325
O O2 0.228075 0.217453 0.762650
O O3 0.000000 0.268767 0.931051
O O4 0.240899 0.186869 0.040474
O O5 0.500000 0.547454 0.412262
O O6 0.223274 0.480817 0.447004
O O7 0.289240 0.557446 0.211721
O O8 0.800031 0.681278 0.033377
O O9 0.000000 0.810974 0.079452
O O10 0.715441 0.843765 0.006207
O O11 0.500000 0.896524 0.588519
O O12 0.251249 0.921980 0.753195
O O13 0.250594 0.983013 0.492051
O O14 0.500000 0.942156 0.903139
O O15 0.000000 0.436240 0.626587
#
# Coordination Sequence:
#
# PCOD8167623 Si02
#       6
#     4   4   4   4   4   4
#     4  10  21  38  58  81 110 148 187 229 282 338
#     4  11  22  37  59  87 115 148 191 239 284 335
#     4   9  20  37  57  80 108 143 185 226 272 330
#     4  10  21  37  56  82 111 144 185 229 277 333
#     4  10  21  36  57  82 111 145 183 228 280 332
#     4  10  21  39  59  82 115 154 191 233 285 342
#
# _framework density 19.719353999999999
#
# number of rings (size 3 to 8) (size 9 to 14) (size 15 to 20)
#    0.000    2.000    0.000    4.500    0.000    8.000 
#    0.000    3.333    0.000    0.000    0.000    0.000 
#    0.000    0.000    0.000    0.000    0.000    0.000 
#
# Total GULP energy -297689.910799 kJ/mol
# GULP energy per Si atom -12403.746283 kJ/mol
# Density = 1.967447 g / cm^3
# Si number density = 19.719354 Si / 1000 Ang^3
#
#
#
# Elastic Constant Matrix: (Units=GPa)
#
#
# Indices 1 2 3 4 5 6 
#
# 1 45.7694 19.4388 13.1468 0.0000 0.0000 0.0000
# 2 19.4388 66.8507 11.0036 0.0000 0.0000 0.0000
# 3 13.1468 11.0036 51.2523 0.0000 0.0000 0.0000
# 4 0.0000 0.0000 0.0000 40.1601 0.0000 0.0000
# 5 0.0000 0.0000 0.0000 0.0000 30.0701 0.0000
# 6 0.0000 0.0000 0.0000 0.0000 0.0000 31.2236
#
#
#
# Elastic Compliance Matrix: (Units=1/GPa)
#
#
# Indices 1 2 3 4 5 6 
#
# 1 0.026236 -0.006760 -0.005278 0.000000 0.000000 0.000000
# 2 -0.006760 0.017249 -0.001969 0.000000 0.000000 0.000000
# 3 -0.005278 -0.001969 0.021288 0.000000 0.000000 0.000000
# 4 0.000000 0.000000 0.000000 0.024900 0.000000 0.000000
# 5 0.000000 0.000000 0.000000 0.000000 0.033256 0.000000
# 6 0.000000 0.000000 0.000000 0.000000 0.000000 0.032027
#
#
# Mechanical properties :
#
#
# Convention : Reuss Voigt Hill
#
# Bulk Modulus (GPa) = 27.20556 27.89455 27.55005
# Shear Modulus (GPa) = 25.61171 28.30964 26.96068
#
# Velocity S-wave (km/s) = 3.60781 3.79308 3.70160
# Velocity P-wave (km/s) = 5.58403 5.77579 5.68072
#
# Compressibility (1/GPa) = 0.03675719
#
# Stress axis : x y z
#
# Youngs Moduli (GPa) = 38.11565 57.97604 46.97468
#
# Poissons Ratio (x) = 0.39192 0.24796
# Poissons Ratio (y) = 0.25766 0.09250
# Poissons Ratio (z) = 0.20119 0.11416
#
# Static dielectric constant tensor:
#      x y z
#    x 3.443090 0.000000 0.000000 
#    y 0.000000 3.641720 0.000000 
#    z 0.000000 0.000000 3.636310 
# 
# 
# High freq. dielectric constant tensor:
#      x y z
#    x 1.763810 0.000000 0.000000 
#    y 0.000000 1.778350 0.000000 
#    z 0.000000 0.000000 1.765880 
# 
# From -- ./inp_files/1409.got.cif
#   From: 2010.03.12/outbox.cif.g09.slc.cpg/sg26_1_cif.got.tgz:1409.got - 2010.04.14 03:33:09.
