data_PCOD8167846
_publ_section_title
;
Structure prediction by ZEFSAII (Michael W. Deem and Ramdas Pophale) SiO2 
 PCOD8167846
Probable space group: P C C 2
;
_chemical_formula_sum "Si O2"
_cell_formula_units_Z 32
_cell_length_a 11.124942
_cell_length_b 15.545914
_cell_length_c 8.757547
_cell_angle_alpha 90.000000
_cell_angle_beta 90.000000
_cell_angle_gamma 90.000000
_cell_volume 1514.594910
_symmetry_space_group_name_H-M "P C C 2"
_symmetry_group_IT_number 27
_symmetry_cell_setting 'orthorhombic'
loop_
_space_group_symop_operation_xyz
x,y,z
-x,-y,z
-x,y,1/2+z
x,-y,1/2+z
loop_
_atom_site_type_symbol
_atom_site_label
_atom_site_fract_x
_atom_site_fract_y
_atom_site_fract_z
Si Si1 0.759849 0.193209 0.609610
Si Si2 0.674449 0.507397 0.765488
Si Si3 0.561582 0.386366 0.005634
Si Si4 0.719696 0.620213 0.020863
Si Si5 0.123369 0.950966 0.471753
Si Si6 0.329762 0.794391 0.939772
Si Si7 0.743401 0.076546 0.174501
Si Si8 0.443453 0.911396 0.430694
O O1 0.779770 0.286724 0.534084
O O2 0.879283 0.138952 0.564714
O O3 0.754780 0.201821 0.791351
O O4 0.646736 0.140012 0.542108
O O5 0.592891 0.570435 0.665614
O O6 0.761227 0.568899 0.868340
O O7 0.752851 0.440918 0.664868
O O8 0.585737 0.454973 0.874652
O O9 0.422745 0.361689 0.013100
O O10 0.642153 0.303266 0.978441
O O11 0.145892 0.931750 0.293047
O O12 0.236634 0.005420 0.541422
O O13 0.000000 0.000000 0.495059
O O14 0.448587 0.846662 0.897450
O O15 0.259748 0.832315 0.086753
O O16 0.619551 0.065624 0.268439
O O17 0.500000 0.000000 0.500639
#
# Coordination Sequence:
#
# PCOD8167846 Si02
#       8
#     4   4   4   4   4   4   4   4
#     4  11  23  36  58  88 119 162 216 260 315 384
#     4  10  21  32  50  76 119 180 229 257 299 351
#     4  11  20  32  50  77 123 177 222 261 286 354
#     4  11  19  33  50  81 119 171 223 256 301 358
#     4  11  24  46  68  87 114 153 205 281 338 379
#     4  12  23  35  55  89 130 168 209 256 297 371
#     4  11  25  40  62  90 115 161 209 252 316 391
#     4  11  23  38  55  81 124 171 207 246 307 371
#
# _framework density 21.127762000000001
#
# number of rings (size 3 to 8) (size 9 to 14) (size 15 to 20)
#    0.000    1.000    2.500    7.125    3.500    2.000 
#    0.000    0.625    0.000    0.000    0.000    0.000 
#    0.000    6.000    0.000    0.125    0.000    0.000 
#
# Total GULP energy -396652.080053 kJ/mol
# GULP energy per Si atom -12395.377502 kJ/mol
# Density = 2.107967 g / cm^3
# Si number density = 21.127762 Si / 1000 Ang^3
#
#
#
# Elastic Constant Matrix: (Units=GPa)
#
#
# Indices 1 2 3 4 5 6 
#
# 1 55.9042 44.5461 28.3609 0.0000 0.0000 0.0000
# 2 44.5461 168.1404 72.7075 0.0000 0.0000 0.0000
# 3 28.3609 72.7075 146.3639 0.0000 0.0000 0.0000
# 4 0.0000 0.0000 0.0000 75.8084 0.0000 0.0000
# 5 0.0000 0.0000 0.0000 0.0000 37.3810 0.0000
# 6 0.0000 0.0000 0.0000 0.0000 0.0000 27.5278
#
#
#
# Elastic Compliance Matrix: (Units=1/GPa)
#
#
# Indices 1 2 3 4 5 6 
#
# 1 0.023051 -0.005318 -0.001825 0.000000 0.000000 0.000000
# 2 -0.005318 0.008801 -0.003342 0.000000 0.000000 0.000000
# 3 -0.001825 -0.003342 0.008846 0.000000 0.000000 0.000000
# 4 0.000000 0.000000 0.000000 0.013191 0.000000 0.000000
# 5 0.000000 0.000000 0.000000 0.000000 0.026752 0.000000
# 6 0.000000 0.000000 0.000000 0.000000 0.000000 0.036327
#
#
# Mechanical properties :
#
#
# Convention : Reuss Voigt Hill
#
# Bulk Modulus (GPa) = 50.68602 73.51526 62.10064
# Shear Modulus (GPa) = 34.59896 43.12971 38.86433
#
# Velocity S-wave (km/s) = 4.05113 4.52306 4.29358
# Velocity P-wave (km/s) = 6.77676 7.88343 7.35095
#
# Compressibility (1/GPa) = 0.01972931
#
# Stress axis : x y z
#
# Youngs Moduli (GPa) = 43.38218 113.61954 113.04668
#
# Poissons Ratio (x) = 0.60421 0.20630
# Poissons Ratio (y) = 0.23070 0.37777
# Poissons Ratio (z) = 0.07917 0.37968
#
# Static dielectric constant tensor:
#      x y z
#    x 3.188820 0.000000 0.000000 
#    y 0.000000 4.196730 0.000000 
#    z 0.000000 0.000000 4.206900 
# 
# 
# High freq. dielectric constant tensor:
#      x y z
#    x 1.752840 0.000000 0.000000 
#    y 0.000000 1.847310 0.000000 
#    z 0.000000 0.000000 1.853240 
# 
# From -- ./inp_files/1472.got.cif
#   From: 2010.03.12/outbox.cif.g09.slc.cpg/sg27_1_cif.got.tgz:1472.got - 2010.04.14 03:36:05.
