data_PCOD8167184
_publ_section_title
;
Structure prediction by ZEFSAII (Michael W. Deem and Ramdas Pophale) SiO2 
 PCOD8167184
Probable space group: P M C 21
;
_chemical_formula_sum "Si O2"
_cell_formula_units_Z 32
_cell_length_a 9.222263
_cell_length_b 9.365610
_cell_length_c 20.358015
_cell_angle_alpha 90.000000
_cell_angle_beta 90.000000
_cell_angle_gamma 90.000000
_cell_volume 1758.364886
_symmetry_space_group_name_H-M "P M C 21"
_symmetry_group_IT_number 26
_symmetry_cell_setting 'orthorhombic'
loop_
_space_group_symop_operation_xyz
x,y,z
-x,-y,1/2+z
-x,y,z
x,-y,1/2+z
loop_
_atom_site_type_symbol
_atom_site_label
_atom_site_fract_x
_atom_site_fract_y
_atom_site_fract_z
Si Si1 0.830730 0.823750 0.584310
Si Si2 0.167797 0.295735 0.662905
Si Si3 0.833626 0.629841 0.303938
Si Si4 0.339794 0.116225 0.963104
Si Si5 0.334985 0.910553 0.323812
Si Si6 0.336716 0.445243 0.922166
Si Si7 0.333231 0.995485 0.184803
Si Si8 0.168746 0.504298 0.546737
O O1 0.775095 0.913527 0.520708
O O2 0.789113 0.658677 0.575917
O O3 0.000000 0.850817 0.591298
O O4 0.752904 0.877796 0.649803
O O5 0.190181 0.400155 0.726245
O O6 0.269312 0.157912 0.664772
O O7 0.213032 0.385716 0.599379
O O8 0.000000 0.246335 0.659588
O O9 0.787327 0.793044 0.313135
O O10 0.739757 0.526716 0.351434
O O11 0.000000 0.612029 0.324955
O O12 0.500000 0.085389 0.991746
O O13 0.310440 0.020771 0.896952
O O14 0.328354 0.277968 0.937485
O O15 0.500000 0.845262 0.321694
O O16 0.318590 0.022320 0.263700
O O17 0.500000 0.502769 0.918192
O O18 0.255355 0.530125 0.980097
O O19 0.500000 0.999337 0.162512
O O20 0.000000 0.500808 0.529575
#
# Coordination Sequence:
#
# PCOD8167184 Si02
#       8
#     4   4   4   4   4   4   4   4
#     4  10  19  30  46  69  95 123 155 190 228 272
#     4   9  18  32  49  70  95 122 155 194 233 275
#     4   9  15  24  42  66  90 117 149 187 232 275
#     4   8  14  26  43  63  87 115 148 189 232 269
#     4   8  15  27  43  64  89 116 149 190 232 271
#     4   9  16  26  42  65  92 119 151 191 230 270
#     4  10  19  31  48  70  96 125 154 187 231 279
#     4   9  18  32  49  69  94 123 155 192 232 273
#
# _framework density 18.198726000000001
#
# number of rings (size 3 to 8) (size 9 to 14) (size 15 to 20)
#    0.000    3.000    0.000    2.250    0.000    5.000 
#    0.000    0.000    0.000    1.500    0.000    5.250 
#    0.000    0.000    0.000    0.000    0.000    0.000 
#
# Total GULP energy -396535.559796 kJ/mol
# GULP energy per Si atom -12391.736244 kJ/mol
# Density = 1.815730 g / cm^3
# Si number density = 18.198726 Si / 1000 Ang^3
#
#
#
# Elastic Constant Matrix: (Units=GPa)
#
#
# Indices 1 2 3 4 5 6 
#
# 1 71.9429 4.9165 3.5725 0.0000 0.0000 0.0000
# 2 4.9165 14.7306 -9.7199 0.0000 0.0000 0.0000
# 3 3.5725 -9.7199 20.8767 0.0000 0.0000 0.0000
# 4 0.0000 0.0000 0.0000 21.7313 0.0000 0.0000
# 5 0.0000 0.0000 0.0000 0.0000 32.6765 0.0000
# 6 0.0000 0.0000 0.0000 0.0000 0.0000 16.7196
#
#
#
# Elastic Compliance Matrix: (Units=1/GPa)
#
#
# Indices 1 2 3 4 5 6 
#
# 1 0.014906 -0.009610 -0.007025 0.000000 0.000000 0.000000
# 2 -0.009610 0.104186 0.050152 0.000000 0.000000 0.000000
# 3 -0.007025 0.050152 0.072453 0.000000 0.000000 0.000000
# 4 0.000000 0.000000 0.000000 0.046017 0.000000 0.000000
# 5 0.000000 0.000000 0.000000 0.000000 0.030603 0.000000
# 6 0.000000 0.000000 0.000000 0.000000 0.000000 0.059810
#
#
# Mechanical properties :
#
#
# Convention : Reuss Voigt Hill
#
# Bulk Modulus (GPa) = 3.86730 11.67649 7.77190
# Shear Modulus (GPa) = 14.40369 21.47756 17.94063
#
# Velocity S-wave (km/s) = 2.81635 3.43908 3.14318
# Velocity P-wave (km/s) = 3.56447 4.71166 4.17763
#
# Compressibility (1/GPa) = 0.25857803
#
# Stress axis : x y z
#
# Youngs Moduli (GPa) = 67.08924 9.59819 13.80211
#
# Poissons Ratio (x) = 0.09224 0.09696
# Poissons Ratio (y) = 0.64475 -0.69221
# Poissons Ratio (z) = 0.47131 -0.48137
#
# Static dielectric constant tensor:
#      x y z
#    x 3.444390 0.000000 0.000000 
#    y 0.000000 2.723460 0.000000 
#    z 0.000000 0.000000 3.864410 
# 
# 
# High freq. dielectric constant tensor:
#      x y z
#    x 1.714940 0.000000 0.000000 
#    y 0.000000 1.629300 0.000000 
#    z 0.000000 0.000000 1.726760 
# 
# From -- ./inp_files/5018.got.cif
#   From: 2010.03.12/outbox.cif.g09.slc.cpg/sg26_3_cif.got.tgz:5018.got - 2010.04.14 03:33:09.
