data_PCOD8167434
_publ_section_title
;
Structure prediction by ZEFSAII (Michael W. Deem and Ramdas Pophale) SiO2 
 PCOD8167434
Probable space group: P M C 21
;
_chemical_formula_sum "Si O2"
_cell_formula_units_Z 32
_cell_length_a 9.344633
_cell_length_b 12.357738
_cell_length_c 14.433482
_cell_angle_alpha 90.000000
_cell_angle_beta 90.000000
_cell_angle_gamma 90.000000
_cell_volume 1666.757231
_symmetry_space_group_name_H-M "P M C 21"
_symmetry_group_IT_number 26
_symmetry_cell_setting 'orthorhombic'
loop_
_space_group_symop_operation_xyz
x,y,z
-x,-y,1/2+z
-x,y,z
x,-y,1/2+z
loop_
_atom_site_type_symbol
_atom_site_label
_atom_site_fract_x
_atom_site_fract_y
_atom_site_fract_z
Si Si1 0.160040 0.517884 0.787940
Si Si2 0.329976 0.899492 0.199338
Si Si3 0.668229 0.173994 0.503520
Si Si4 0.338531 0.648250 0.513328
Si Si5 0.670894 0.884125 0.799700
Si Si6 0.160379 0.722807 0.673372
Si Si7 0.333941 0.586510 0.961175
Si Si8 0.335540 0.314915 0.798771
O O1 0.154383 0.597663 0.701389
O O2 0.239439 0.580180 0.869920
O O3 0.243409 0.411235 0.754858
O O4 0.000000 0.486465 0.820562
O O5 0.500000 0.902886 0.197871
O O6 0.276512 0.797260 0.258476
O O7 0.272869 0.006271 0.251061
O O8 0.268939 0.889005 0.093702
O O9 0.500000 0.160557 0.505876
O O10 0.723594 0.121195 0.407133
O O11 0.707696 0.301756 0.512756
O O12 0.500000 0.671806 0.546265
O O13 0.233611 0.723642 0.572747
O O14 0.305026 0.519601 0.524100
O O15 0.316160 0.685972 0.408601
O O16 0.500000 0.871336 0.793449
O O17 0.744134 0.786501 0.746369
O O18 0.000000 0.771905 0.667537
O O19 0.500000 0.588085 0.929962
O O20 0.500000 0.333956 0.770066
#
# Coordination Sequence:
#
# PCOD8167434 Si02
#       8
#     4   4   4   4   4   4   4   4
#     4  10  20  33  51  77 110 146 182 224 275 329
#     4   9  19  34  57  88 113 141 184 235 283 329
#     4   9  17  31  54  84 112 140 179 227 278 328
#     4   9  19  32  52  83 112 144 183 227 278 334
#     4  10  20  36  59  83 111 147 187 232 277 328
#     4  11  23  36  52  78 112 151 189 228 273 328
#     4   9  17  32  54  81 109 141 185 229 276 329
#     4   9  19  36  57  82 113 144 181 230 282 333
#
# _framework density 19.198955999999999
#
# number of rings (size 3 to 8) (size 9 to 14) (size 15 to 20)
#    0.000    2.500    1.250    1.500    1.750    4.500 
#    0.000    4.375    0.000    3.750    0.000    0.000 
#    0.000    0.000    0.000    0.000    0.000    0.000 
#
# Total GULP energy -396663.954828 kJ/mol
# GULP energy per Si atom -12395.748588 kJ/mol
# Density = 1.915526 g / cm^3
# Si number density = 19.198956 Si / 1000 Ang^3
#
#
#
# Elastic Constant Matrix: (Units=GPa)
#
#
# Indices 1 2 3 4 5 6 
#
# 1 59.8740 31.3686 28.1465 0.0000 0.0000 0.0000
# 2 31.3686 111.7605 64.9708 0.0000 0.0000 0.0000
# 3 28.1465 64.9708 110.8668 0.0000 0.0000 0.0000
# 4 0.0000 0.0000 0.0000 27.5972 0.0000 0.0000
# 5 0.0000 0.0000 0.0000 0.0000 8.4476 0.0000
# 6 0.0000 0.0000 0.0000 0.0000 0.0000 10.4416
#
#
#
# Elastic Compliance Matrix: (Units=1/GPa)
#
#
# Indices 1 2 3 4 5 6 
#
# 1 0.020110 -0.004059 -0.002727 0.000000 0.000000 0.000000
# 2 -0.004059 0.014391 -0.007403 0.000000 0.000000 0.000000
# 3 -0.002727 -0.007403 0.014050 0.000000 0.000000 0.000000
# 4 0.000000 0.000000 0.000000 0.036236 0.000000 0.000000
# 5 0.000000 0.000000 0.000000 0.000000 0.118377 0.000000
# 6 0.000000 0.000000 0.000000 0.000000 0.000000 0.095770
#
#
# Mechanical properties :
#
#
# Convention : Reuss Voigt Hill
#
# Bulk Modulus (GPa) = 49.56953 59.05257 54.31105
# Shear Modulus (GPa) = 14.96846 19.83166 17.40006
#
# Velocity S-wave (km/s) = 2.79525 3.21745 3.01375
# Velocity P-wave (km/s) = 6.02435 6.68039 6.36083
#
# Compressibility (1/GPa) = 0.02017368
#
# Stress axis : x y z
#
# Youngs Moduli (GPa) = 49.72586 69.49018 71.17346
#
# Poissons Ratio (x) = 0.28209 0.19406
# Poissons Ratio (y) = 0.20186 0.52687
# Poissons Ratio (z) = 0.13558 0.51441
#
# Static dielectric constant tensor:
#      x y z
#    x 3.286370 0.000000 0.000000 
#    y 0.000000 3.618330 0.000000 
#    z 0.000000 0.000000 3.606030 
# 
# 
# High freq. dielectric constant tensor:
#      x y z
#    x 1.711970 0.000000 0.000000 
#    y 0.000000 1.742930 0.000000 
#    z 0.000000 0.000000 1.746960 
# 
# From -- ./inp_files/4128.got.cif
#   From: 2010.03.12/outbox.cif.g09.slc.cpg/sg26_3_cif.got.tgz:4128.got - 2010.04.14 03:33:09.
