data_PCOD8167645
_publ_section_title
;
Structure prediction by ZEFSAII (Michael W. Deem and Ramdas Pophale) SiO2 
 PCOD8167645
Probable space group: P M C 21
;
_chemical_formula_sum "Si O2"
_cell_formula_units_Z 32
_cell_length_a 8.917812
_cell_length_b 16.194755
_cell_length_c 10.957267
_cell_angle_alpha 90.000000
_cell_angle_beta 90.000000
_cell_angle_gamma 90.000000
_cell_volume 1582.468009
_symmetry_space_group_name_H-M "P M C 21"
_symmetry_group_IT_number 26
_symmetry_cell_setting 'orthorhombic'
loop_
_space_group_symop_operation_xyz
x,y,z
-x,-y,1/2+z
-x,y,z
x,-y,1/2+z
loop_
_atom_site_type_symbol
_atom_site_label
_atom_site_fract_x
_atom_site_fract_y
_atom_site_fract_z
Si Si1 0.667143 0.147935 0.729010
Si Si2 0.320883 0.263090 0.525720
Si Si3 0.178820 0.436619 0.587856
Si Si4 0.325491 0.984268 0.406921
Si Si5 0.328649 0.149760 0.112623
Si Si6 0.665381 0.712557 0.430888
Si Si7 0.824316 0.450260 0.864351
Si Si8 0.174465 0.147968 0.358466
O O1 0.500000 0.121992 0.690587
O O2 0.744628 0.188231 0.610874
O O3 0.741058 0.065809 0.788133
O O4 0.660533 0.220337 0.826500
O O5 0.500000 0.271868 0.529442
O O6 0.249710 0.347462 0.570208
O O7 0.260347 0.233193 0.394895
O O8 0.240782 0.491344 0.473429
O O9 0.230013 0.470430 0.723818
O O10 0.000000 0.429689 0.584698
O O11 0.500000 0.005602 0.385894
O O12 0.304838 0.926011 0.522143
O O13 0.234216 0.067625 0.430779
O O14 0.500000 0.149802 0.160837
O O15 0.209500 0.134031 0.217581
O O16 0.290622 0.238902 0.053944
O O17 0.500000 0.671742 0.443298
O O18 0.785112 0.642871 0.400106
O O19 0.000000 0.460314 0.867210
O O20 0.000000 0.159338 0.382151
#
# Coordination Sequence:
#
# PCOD8167645 Si02
#       8
#     4   4   4   4   4   4   4   4
#     4   8  16  33  60  87 110 140 186 242 290 339
#     4  11  22  39  63  88 115 155 202 247 299 359
#     4  10  22  40  59  86 123 163 205 253 307 371
#     4   9  19  38  62  85 111 152 200 245 296 352
#     4   9  20  39  61  84 113 151 197 248 298 355
#     4   9  17  35  62  89 112 140 191 248 294 344
#     4  10  21  37  59  87 123 164 203 244 306 376
#     4  12  26  39  54  84 125 159 194 245 300 360
#
# _framework density 20.221578999999998
#
# number of rings (size 3 to 8) (size 9 to 14) (size 15 to 20)
#    0.000    2.250    1.250    3.000    1.750    2.500 
#    0.000    3.750    0.000    0.000    0.000    0.000 
#    0.000    0.000    0.000    0.000    0.000    0.000 
#
# Total GULP energy -396459.735759 kJ/mol
# GULP energy per Si atom -12389.366742 kJ/mol
# Density = 2.017555 g / cm^3
# Si number density = 20.221579 Si / 1000 Ang^3
#
#
#
# Elastic Constant Matrix: (Units=GPa)
#
#
# Indices 1 2 3 4 5 6 
#
# 1 36.3193 24.4847 31.4538 0.0000 0.0000 0.0000
# 2 24.4847 80.6032 54.3075 0.0000 0.0000 0.0000
# 3 31.4538 54.3075 106.6662 0.0000 0.0000 0.0000
# 4 0.0000 0.0000 0.0000 28.4587 0.0000 0.0000
# 5 0.0000 0.0000 0.0000 0.0000 22.7383 0.0000
# 6 0.0000 0.0000 0.0000 0.0000 0.0000 31.4146
#
#
#
# Elastic Compliance Matrix: (Units=1/GPa)
#
#
# Indices 1 2 3 4 5 6 
#
# 1 0.038927 -0.006227 -0.008308 0.000000 0.000000 0.000000
# 2 -0.006227 0.019881 -0.008286 0.000000 0.000000 0.000000
# 3 -0.008308 -0.008286 0.016044 0.000000 0.000000 0.000000
# 4 0.000000 0.000000 0.000000 0.035139 0.000000 0.000000
# 5 0.000000 0.000000 0.000000 0.000000 0.043979 0.000000
# 6 0.000000 0.000000 0.000000 0.000000 0.000000 0.031832
#
#
# Mechanical properties :
#
#
# Convention : Reuss Voigt Hill
#
# Bulk Modulus (GPa) = 34.23608 49.34232 41.78920
# Shear Modulus (GPa) = 20.73149 24.07849 22.40499
#
# Velocity S-wave (km/s) = 3.20537 3.45444 3.33224
# Velocity P-wave (km/s) = 5.53773 6.35332 5.95949
#
# Compressibility (1/GPa) = 0.02920895
#
# Stress axis : x y z
#
# Youngs Moduli (GPa) = 25.68928 50.30031 62.33013
#
# Poissons Ratio (x) = 0.31321 0.51787
# Poissons Ratio (y) = 0.15996 0.51645
# Poissons Ratio (z) = 0.21344 0.41678
#
# Static dielectric constant tensor:
#      x y z
#    x 3.510520 0.000000 0.000000 
#    y 0.000000 3.697180 0.000000 
#    z 0.000000 0.000000 4.125480 
# 
# 
# High freq. dielectric constant tensor:
#      x y z
#    x 1.755750 0.000000 0.000000 
#    y 0.000000 1.788020 0.000000 
#    z 0.000000 0.000000 1.803410 
# 
# From -- ./inp_files/3052.got.cif
#   From: 2010.03.12/outbox.cif.g09.slc.cpg/sg26_2_cif.got.tgz:3052.got - 2010.04.14 03:33:09.
