data_PCOD8167562
_publ_section_title
;
Structure prediction by ZEFSAII (Michael W. Deem and Ramdas Pophale) SiO2 
 PCOD8167562
Probable space group: P M C 21
;
_chemical_formula_sum "Si O2"
_cell_formula_units_Z 32
_cell_length_a 8.720307
_cell_length_b 14.406872
_cell_length_c 12.343641
_cell_angle_alpha 90.000000
_cell_angle_beta 90.000000
_cell_angle_gamma 90.000000
_cell_volume 1550.760586
_symmetry_space_group_name_H-M "P M C 21"
_symmetry_group_IT_number 26
_symmetry_cell_setting 'orthorhombic'
loop_
_space_group_symop_operation_xyz
x,y,z
-x,-y,1/2+z
-x,y,z
x,-y,1/2+z
loop_
_atom_site_type_symbol
_atom_site_label
_atom_site_fract_x
_atom_site_fract_y
_atom_site_fract_z
Si Si1 0.818757 0.866268 0.857440
Si Si2 0.821467 0.176592 0.978895
Si Si3 0.671636 0.452376 0.090087
Si Si4 0.821310 0.166523 0.602961
Si Si5 0.318969 0.945763 0.301466
Si Si6 0.681517 0.741383 0.688593
Si Si7 0.670189 0.343973 0.878260
Si Si8 0.824216 0.626944 0.165003
O O1 0.762512 0.771055 0.800477
O O2 0.000000 0.875122 0.845436
O O3 0.736104 0.948390 0.791263
O O4 0.769966 0.866783 0.983689
O O5 0.757032 0.089126 0.913216
O O6 0.795250 0.265174 0.902104
O O7 0.000000 0.161554 0.002014
O O8 0.734716 0.189944 0.092244
O O9 0.500000 0.481058 0.126659
O O10 0.729968 0.364708 0.161870
O O11 0.787442 0.538787 0.090344
O O12 0.671240 0.424610 0.965319
O O13 0.729876 0.111685 0.695282
O O14 0.783737 0.276057 0.607493
O O15 0.000000 0.147295 0.623005
O O16 0.500000 0.940381 0.311708
O O17 0.500000 0.749630 0.698804
O O18 0.500000 0.298227 0.872939
O O19 0.714369 0.390795 0.766362
O O20 0.000000 0.625039 0.200659
#
# Coordination Sequence:
#
# PCOD8167562 Si02
#       8
#     4   4   4   4   4   4   4   4
#     4  11  25  44  66  92 130 173 212 264 325 384
#     4  11  21  37  63  91 121 159 206 262 319 374
#     4   9  21  39  60  88 125 167 212 261 315 379
#     4  10  24  45  65  92 129 167 213 264 322 385
#     4  12  25  41  65  94 125 164 212 263 315 383
#     4  10  22  42  64  91 127 167 216 266 318 382
#     4  10  20  37  59  87 120 160 208 260 318 375
#     4  11  22  37  62  93 125 163 211 264 316 380
#
# _framework density 20.635035999999999
#
# number of rings (size 3 to 8) (size 9 to 14) (size 15 to 20)
#    0.000    1.500    1.250    4.500    1.750    5.500 
#    0.000    2.500    0.000    0.000    0.000    0.000 
#    0.000    0.000    0.000    0.000    0.000    0.000 
#
# Total GULP energy -396846.767585 kJ/mol
# GULP energy per Si atom -12401.461487 kJ/mol
# Density = 2.058807 g / cm^3
# Si number density = 20.635036 Si / 1000 Ang^3
#
#
#
# Elastic Constant Matrix: (Units=GPa)
#
#
# Indices 1 2 3 4 5 6 
#
# 1 91.1614 39.5061 40.6943 0.0000 0.0000 0.0000
# 2 39.5061 105.5255 36.8586 0.0000 0.0000 0.0000
# 3 40.6943 36.8586 82.6912 0.0000 0.0000 0.0000
# 4 0.0000 0.0000 0.0000 20.5095 0.0000 0.0000
# 5 0.0000 0.0000 0.0000 0.0000 33.3876 0.0000
# 6 0.0000 0.0000 0.0000 0.0000 0.0000 33.8302
#
#
#
# Elastic Compliance Matrix: (Units=1/GPa)
#
#
# Indices 1 2 3 4 5 6 
#
# 1 0.015149 -0.003633 -0.005836 0.000000 0.000000 0.000000
# 2 -0.003633 0.012095 -0.003603 0.000000 0.000000 0.000000
# 3 -0.005836 -0.003603 0.016571 0.000000 0.000000 0.000000
# 4 0.000000 0.000000 0.000000 0.048758 0.000000 0.000000
# 5 0.000000 0.000000 0.000000 0.000000 0.029951 0.000000
# 6 0.000000 0.000000 0.000000 0.000000 0.000000 0.029559
#
#
# Mechanical properties :
#
#
# Convention : Reuss Voigt Hill
#
# Bulk Modulus (GPa) = 56.58981 57.05511 56.82246
# Shear Modulus (GPa) = 27.15637 28.36673 27.76155
#
# Velocity S-wave (km/s) = 3.63165 3.71170 3.67189
# Velocity P-wave (km/s) = 6.71333 6.78812 6.75083
#
# Compressibility (1/GPa) = 0.01767103
#
# Stress axis : x y z
#
# Youngs Moduli (GPa) = 66.01053 82.67809 60.34534
#
# Poissons Ratio (x) = 0.30037 0.35217
# Poissons Ratio (y) = 0.23982 0.21744
# Poissons Ratio (z) = 0.38523 0.29792
#
# Static dielectric constant tensor:
#      x y z
#    x 3.723510 0.000000 0.000000 
#    y 0.000000 3.692590 0.000000 
#    z 0.000000 0.000000 3.735820 
# 
# 
# High freq. dielectric constant tensor:
#      x y z
#    x 1.812030 0.000000 0.000000 
#    y 0.000000 1.805950 0.000000 
#    z 0.000000 0.000000 1.807970 
# 
# From -- ./inp_files/3037.got.cif
#   From: 2010.03.12/outbox.cif.g09.slc.cpg/sg26_2_cif.got.tgz:3037.got - 2010.04.14 03:33:09.
