data_PCOD8167490
_publ_section_title
;
Structure prediction by ZEFSAII (Michael W. Deem and Ramdas Pophale) SiO2 
 PCOD8167490
Probable space group: P M C 21
;
_chemical_formula_sum "Si O2"
_cell_formula_units_Z 32
_cell_length_a 9.234238
_cell_length_b 12.121648
_cell_length_c 14.968372
_cell_angle_alpha 90.000000
_cell_angle_beta 90.000000
_cell_angle_gamma 90.000000
_cell_volume 1675.472484
_symmetry_space_group_name_H-M "P M C 21"
_symmetry_group_IT_number 26
_symmetry_cell_setting 'orthorhombic'
loop_
_space_group_symop_operation_xyz
x,y,z
-x,-y,1/2+z
-x,y,z
x,-y,1/2+z
loop_
_atom_site_type_symbol
_atom_site_label
_atom_site_fract_x
_atom_site_fract_y
_atom_site_fract_z
Si Si1 0.166026 0.617087 0.732380
Si Si2 0.341088 0.008063 0.087999
Si Si3 0.328763 0.610128 0.232380
Si Si4 0.830918 0.217821 0.074003
Si Si5 0.169082 0.782179 0.890756
Si Si6 0.671192 0.232659 0.889730
Si Si7 0.671192 0.767341 0.075030
Si Si8 0.341088 0.991937 0.876761
O O1 0.265283 0.510857 0.732380
O O2 0.201765 0.686750 0.644416
O O3 0.201765 0.686749 0.820344
O O4 0.000000 0.579257 0.732380
O O5 0.500000 0.037015 0.127655
O O6 0.229021 0.103137 0.115740
O O7 0.290541 0.886367 0.120010
O O8 0.351222 1.000000 0.982380
O O9 0.500000 0.602113 0.232380
O O10 0.276324 0.674199 0.320909
O O11 0.276324 0.674199 0.143851
O O12 0.000000 0.201685 0.056188
O O13 0.753981 0.252013 0.982336
O O14 0.000000 0.798316 0.908572
O O15 0.229021 0.896863 0.849020
O O16 0.246019 0.747987 0.982424
O O17 0.500000 0.238341 0.909624
O O18 0.709459 0.113634 0.844750
O O19 0.500000 0.761659 0.055136
O O20 0.500000 0.962986 0.837104
#
# Coordination Sequence:
#
# PCOD8167490 Si02
#       8
#     4   4   4   4   4   4   4   4
#     4  10  24  41  52  72 108 143 179 222 263 304
#     4   8  15  30  53  80 109 136 165 209 263 315
#     4  10  22  39  58  78 102 137 181 222 259 310
#     4  10  20  35  55  78 107 142 176 213 258 310
#     4  10  20  35  55  78 107 142 176 213 258 310
#     4   9  19  36  56  81 110 136 168 215 267 313
#     4   9  19  36  56  81 110 136 168 215 267 313
#     4   8  15  30  53  80 109 136 165 209 263 315
#
# _framework density 19.099091999999999
#
# number of rings (size 3 to 8) (size 9 to 14) (size 15 to 20)
#    0.000    2.750    0.000    2.250    0.000    9.500 
#    0.000    6.250    0.000    0.000    0.000    0.000 
#    0.000    0.000    0.000    0.000    0.000    0.000 
#
# Total GULP energy -396688.630930 kJ/mol
# GULP energy per Si atom -12396.519717 kJ/mol
# Density = 1.905562 g / cm^3
# Si number density = 19.099092 Si / 1000 Ang^3
#
#
#
# Elastic Constant Matrix: (Units=GPa)
#
#
# Indices 1 2 3 4 5 6 
#
# 1 78.1601 57.7675 52.2153 0.0000 0.0000 0.0000
# 2 57.7675 135.3486 58.5495 0.0000 0.0000 0.0000
# 3 52.2153 58.5495 97.4508 0.0000 0.0000 0.0000
# 4 0.0000 0.0000 0.0000 45.3522 0.0000 0.0000
# 5 0.0000 0.0000 0.0000 0.0000 13.7833 0.0000
# 6 0.0000 0.0000 0.0000 0.0000 0.0000 18.2313
#
#
#
# Elastic Compliance Matrix: (Units=1/GPa)
#
#
# Indices 1 2 3 4 5 6 
#
# 1 0.023134 -0.006096 -0.008733 0.000000 0.000000 0.000000
# 2 -0.006096 0.011589 -0.003697 0.000000 0.000000 0.000000
# 3 -0.008733 -0.003697 0.017162 0.000000 0.000000 0.000000
# 4 0.000000 0.000000 0.000000 0.022050 0.000000 0.000000
# 5 0.000000 0.000000 0.000000 0.000000 0.072552 0.000000
# 6 0.000000 0.000000 0.000000 0.000000 0.000000 0.054851
#
#
# Mechanical properties :
#
#
# Convention : Reuss Voigt Hill
#
# Bulk Modulus (GPa) = 67.41337 72.00266 69.70802
# Shear Modulus (GPa) = 20.54806 24.96850 22.75828
#
# Velocity S-wave (km/s) = 3.28360 3.61960 3.45569
# Velocity P-wave (km/s) = 7.05332 7.43304 7.24567
#
# Compressibility (1/GPa) = 0.01483385
#
# Stress axis : x y z
#
# Youngs Moduli (GPa) = 43.22702 86.28716 58.26926
#
# Poissons Ratio (x) = 0.52600 0.50885
# Poissons Ratio (y) = 0.26351 0.21540
# Poissons Ratio (z) = 0.37749 0.31897
#
# Static dielectric constant tensor:
#      x y z
#    x 3.434610 0.000000 0.000000 
#    y 0.000000 3.786210 0.000000 
#    z 0.000000 0.000000 3.407840 
# 
# 
# High freq. dielectric constant tensor:
#      x y z
#    x 1.733930 0.000000 0.000000 
#    y 0.000000 1.746180 0.000000 
#    z 0.000000 0.000000 1.737520 
# 
# From -- ./inp_files/4305.got.cif
#   From: 2010.03.12/outbox.cif.g09.slc.cpg/sg26_3_cif.got.tgz:4305.got - 2010.04.14 03:33:09.
