data_PCOD8167025
_publ_section_title
;
Structure prediction by ZEFSAII (Michael W. Deem and Ramdas Pophale) SiO2 
 PCOD8167025
Probable space group: P M M 2
;
_chemical_formula_sum "Si O2"
_cell_formula_units_Z 28
_cell_length_a 9.487161
_cell_length_b 9.574080
_cell_length_c 17.990742
_cell_angle_alpha 90.000000
_cell_angle_beta 90.000000
_cell_angle_gamma 90.000000
_cell_volume 1634.114179
_symmetry_space_group_name_H-M "P M M 2"
_symmetry_group_IT_number 25
_symmetry_cell_setting 'orthorhombic'
loop_
_space_group_symop_operation_xyz
x,y,z
-x,-y,z
-x,y,z
x,-y,z
loop_
_atom_site_type_symbol
_atom_site_label
_atom_site_fract_x
_atom_site_fract_y
_atom_site_fract_z
Si Si1 0.163871 0.337875 0.709660
Si Si2 0.663288 0.661832 0.567187
Si Si3 0.167870 0.657853 0.143327
Si Si4 0.167394 0.843594 0.845005
Si Si5 0.167816 0.157209 0.009499
Si Si6 0.835662 0.838893 0.282480
Si Si7 0.662918 0.161249 0.426371
O O1 0.190353 0.500000 0.724361
O O2 0.247767 0.285558 0.637584
O O3 0.226539 0.258729 0.781609
O O4 0.000000 0.303981 0.696629
O O5 0.500000 0.690347 0.584480
O O6 0.692828 0.500000 0.550376
O O7 0.714981 0.748634 0.496162
O O8 0.227236 0.500000 0.146179
O O9 0.229320 0.734935 0.070104
O O10 0.219506 0.742854 0.215340
O O11 0.000000 0.656940 0.140595
O O12 0.000000 0.838579 0.844465
O O13 0.220559 0.000000 0.827738
O O14 0.220335 0.797072 0.927122
O O15 0.000000 0.158770 0.012379
O O16 0.220682 0.000000 0.027489
O O17 0.752369 0.791251 0.355450
O O18 0.000000 0.815122 0.297982
O O19 0.804323 0.000000 0.262087
O O20 0.500000 0.190708 0.408423
O O21 0.690127 0.000000 0.445684
#
# Coordination Sequence:
#
# PCOD8167025 Si02
#       7
#     4   4   4   4   4   4   4
#     4   9  17  28  42  62  87 112 139 173 211 248
#     4   9  18  32  47  62  83 112 142 170 206 254
#     4   9  16  24  36  58  86 113 142 175 208 243
#     4   8  14  24  38  58  84 113 143 173 207 248
#     4   8  13  22  36  54  80 114 145 171 205 249
#     4   9  17  29  44  62  86 114 140 168 208 255
#     4   9  18  32  48  65  84 107 139 177 211 245
#
# _framework density 17.134667
#
# number of rings (size 3 to 8) (size 9 to 14) (size 15 to 20)
#    0.000    3.286    0.000    1.286    0.000    4.000 
#    0.000    2.857    0.000    0.000    0.000    1.000 
#    0.000    1.143    0.000    0.000    0.000    0.000 
#
# Total GULP energy -347115.325456 kJ/mol
# GULP energy per Si atom -12396.975909 kJ/mol
# Density = 1.709567 g / cm^3
# Si number density = 17.134667 Si / 1000 Ang^3
#
#
#
# Elastic Constant Matrix: (Units=GPa)
#
#
# Indices 1 2 3 4 5 6 
#
# 1 25.2983 26.2027 43.5816 0.0000 0.0000 0.0000
# 2 26.2027 100.0857 100.1297 0.0000 0.0000 0.0000
# 3 43.5816 100.1297 191.6308 0.0000 0.0000 0.0000
# 4 0.0000 0.0000 0.0000 33.7428 0.0000 0.0000
# 5 0.0000 0.0000 0.0000 0.0000 0.9342 0.0000
# 6 0.0000 0.0000 0.0000 0.0000 0.0000 12.2872
#
#
#
# Elastic Compliance Matrix: (Units=1/GPa)
#
#
# Indices 1 2 3 4 5 6 
#
# 1 0.066048 -0.004744 -0.012542 0.000000 0.000000 0.000000
# 2 -0.004744 0.021276 -0.010038 0.000000 0.000000 0.000000
# 3 -0.012542 -0.010038 0.013316 0.000000 0.000000 0.000000
# 4 0.000000 0.000000 0.000000 0.029636 0.000000 0.000000
# 5 0.000000 0.000000 0.000000 0.000000 1.070417 0.000000
# 6 0.000000 0.000000 0.000000 0.000000 0.000000 0.081386
#
#
# Mechanical properties :
#
#
# Convention : Reuss Voigt Hill
#
# Bulk Modulus (GPa) = 21.74307 72.98254 47.36280
# Shear Modulus (GPa) = 3.69807 19.19955 11.44881
#
# Velocity S-wave (km/s) = 1.47069 3.35103 2.58770
# Velocity P-wave (km/s) = 3.94981 7.59332 6.05225
#
# Compressibility (1/GPa) = 0.04599167
#
# Stress axis : x y z
#
# Youngs Moduli (GPa) = 15.14040 47.00159 75.09856
#
# Poissons Ratio (x) = 0.22297 0.94191
# Poissons Ratio (y) = 0.07182 0.75384
# Poissons Ratio (z) = 0.18990 0.47181
#
# Static dielectric constant tensor:
#      x y z
#    x 2.735060 0.000000 0.000000 
#    y 0.000000 3.309480 0.000000 
#    z 0.000000 0.000000 3.482150 
# 
# 
# High freq. dielectric constant tensor:
#      x y z
#    x 1.605920 0.000000 0.000000 
#    y 0.000000 1.660890 0.000000 
#    z 0.000000 0.000000 1.673710 
# 
# From -- ./inp_files/6050.got.cif
#   From: 2010.03.12/outbox.cif.g09.slc.cpg/sg25_4_cif.got.tgz:6050.got - 2010.04.14 03:30:10.
