data_PCOD8167858
_publ_section_title
;
Structure prediction by ZEFSAII (Michael W. Deem and Ramdas Pophale) SiO2 
 PCOD8167858
Probable space group: P C C 2
;
_chemical_formula_sum "Si O2"
_cell_formula_units_Z 30
_cell_length_a 10.651125
_cell_length_b 6.595259
_cell_length_c 19.064159
_cell_angle_alpha 90.000000
_cell_angle_beta 90.000000
_cell_angle_gamma 90.000000
_cell_volume 1339.198605
_symmetry_space_group_name_H-M "P C C 2"
_symmetry_group_IT_number 27
_symmetry_cell_setting 'orthorhombic'
loop_
_space_group_symop_operation_xyz
x,y,z
-x,-y,z
-x,y,1/2+z
x,-y,1/2+z
loop_
_atom_site_type_symbol
_atom_site_label
_atom_site_fract_x
_atom_site_fract_y
_atom_site_fract_z
Si Si1 0.659566 0.289795 0.610860
Si Si2 0.500000 0.000000 0.365704
Si Si3 0.609362 0.654520 0.956064
Si Si4 0.747531 0.195526 0.813679
Si Si5 0.373541 0.529898 0.240680
Si Si6 0.755542 0.081567 0.191920
Si Si7 0.864210 0.406148 0.937381
Si Si8 0.123463 0.609137 0.094780
O O1 0.587746 0.282809 0.537107
O O2 0.583667 0.400570 0.671858
O O3 0.779230 0.429839 0.600433
O O4 0.689478 0.061071 0.634635
O O5 0.589380 0.144141 0.411546
O O6 0.397178 0.123288 0.321026
O O7 0.500000 0.500000 0.935265
O O8 0.748836 0.568100 0.938149
O O9 0.742980 0.422547 0.780028
O O10 0.828311 0.220187 0.884888
O O11 0.814649 0.046549 0.756958
O O12 0.500000 0.500000 0.287833
O O13 0.344671 0.763292 0.225328
O O14 0.859147 0.206582 0.148917
O O15 0.000000 0.500000 0.915083
O O16 0.879702 0.308267 0.014718
O O17 0.000000 0.500000 0.119313
#
# Coordination Sequence:
#
# PCOD8167858 Si02
#       8
#     4   2   4   4   4   4   4   4
#     4   9  21  37  60  99 127 168 224 280 349 397
#     4  12  26  38  70 102 136 182 234 286 354 420
#     4  11  23  41  69 102 138 179 230 292 342 420
#     4  11  24  40  64 101 131 181 230 281 351 415
#     4  10  21  38  61  86 131 176 212 277 349 403
#     4  10  22  40  66  93 132 173 229 291 341 418
#     4  10  23  46  70  97 144 186 225 286 356 417
#     4   9  20  42  68  92 129 179 227 285 349 411
#
# _framework density 22.401456
#
# number of rings (size 3 to 8) (size 9 to 14) (size 15 to 20)
#    0.000    1.867    1.333    1.200    5.600    4.267 
#    0.000    8.000    2.933    0.000    0.000    0.000 
#    0.000    0.000    0.000    0.000    0.000    0.000 
#
# Total GULP energy -371683.894959 kJ/mol
# GULP energy per Si atom -12389.463165 kJ/mol
# Density = 2.235047 g / cm^3
# Si number density = 22.401456 Si / 1000 Ang^3
#
#
#
# Elastic Constant Matrix: (Units=GPa)
#
#
# Indices 1 2 3 4 5 6 
#
# 1 102.5260 32.9528 32.8790 0.0000 0.0000 0.0000
# 2 32.9528 128.0773 55.4154 0.0000 0.0000 0.0000
# 3 32.8790 55.4154 115.2823 0.0000 0.0000 0.0000
# 4 0.0000 0.0000 0.0000 43.4687 0.0000 0.0000
# 5 0.0000 0.0000 0.0000 0.0000 20.6388 0.0000
# 6 0.0000 0.0000 0.0000 0.0000 0.0000 15.1162
#
#
#
# Elastic Compliance Matrix: (Units=1/GPa)
#
#
# Indices 1 2 3 4 5 6 
#
# 1 0.011080 -0.001873 -0.002260 0.000000 0.000000 0.000000
# 2 -0.001873 0.010175 -0.004357 0.000000 0.000000 0.000000
# 3 -0.002260 -0.004357 0.011413 0.000000 0.000000 0.000000
# 4 0.000000 0.000000 0.000000 0.023005 0.000000 0.000000
# 5 0.000000 0.000000 0.000000 0.000000 0.048452 0.000000
# 6 0.000000 0.000000 0.000000 0.000000 0.000000 0.066154
#
#
# Mechanical properties :
#
#
# Convention : Reuss Voigt Hill
#
# Bulk Modulus (GPa) = 63.73892 65.37558 64.55725
# Shear Modulus (GPa) = 25.97557 30.82064 28.39810
#
# Velocity S-wave (km/s) = 3.40891 3.71325 3.56433
# Velocity P-wave (km/s) = 6.63393 6.90154 6.76906
#
# Compressibility (1/GPa) = 0.01568900
#
# Stress axis : x y z
#
# Youngs Moduli (GPa) = 90.24987 98.28260 87.61867
#
# Poissons Ratio (x) = 0.18409 0.19800
# Poissons Ratio (y) = 0.16905 0.38173
# Poissons Ratio (z) = 0.20394 0.42819
#
# Static dielectric constant tensor:
#      x y z
#    x 3.776050 0.000000 0.000000 
#    y 0.000000 4.042610 0.000000 
#    z 0.000000 0.000000 4.654820 
# 
# 
# High freq. dielectric constant tensor:
#      x y z
#    x 1.861850 0.000000 0.000000 
#    y 0.000000 1.882910 0.000000 
#    z 0.000000 0.000000 1.901820 
# 
# From -- ./inp_files/4858.got.cif
#   From: 2010.03.12/outbox.cif.g09.slc.cpg/sg27_3_cif.got.tgz:4858.got - 2010.04.14 03:36:05.
