data_PCOD8167181
_publ_section_title
;
Structure prediction by ZEFSAII (Michael W. Deem and Ramdas Pophale) SiO2 
 PCOD8167181
Probable space group: P M C 21
;
_chemical_formula_sum "Si O2"
_cell_formula_units_Z 32
_cell_length_a 13.774299
_cell_length_b 27.079747
_cell_length_c 5.199646
_cell_angle_alpha 90.000000
_cell_angle_beta 90.000000
_cell_angle_gamma 90.000000
_cell_volume 1939.491523
_symmetry_space_group_name_H-M "P M C 21"
_symmetry_group_IT_number 26
_symmetry_cell_setting 'orthorhombic'
loop_
_space_group_symop_operation_xyz
x,y,z
-x,-y,1/2+z
-x,y,z
x,-y,1/2+z
loop_
_atom_site_type_symbol
_atom_site_label
_atom_site_fract_x
_atom_site_fract_y
_atom_site_fract_z
Si Si1 0.112054 0.531185 0.454390
Si Si2 0.114787 0.801222 0.477235
Si Si3 0.114691 0.860832 0.977703
Si Si4 0.884136 0.971543 0.979513
Si Si5 0.391614 0.607054 0.980843
Si Si6 0.275958 0.607072 0.481161
Si Si7 0.274936 0.723948 0.480611
Si Si8 0.391289 0.724139 0.980273
O O1 0.138741 0.495106 0.687951
O O2 0.171336 0.581725 0.477135
O O3 0.000000 0.546776 0.465028
O O4 0.148805 0.832417 0.723551
O O5 0.169059 0.748793 0.479690
O O6 0.000000 0.790361 0.476806
O O7 0.149561 0.831630 0.228869
O O8 0.158638 0.916029 0.978980
O O9 0.000000 0.865167 0.980115
O O10 0.000000 0.970482 0.979223
O O11 0.844807 0.000107 0.729825
O O12 0.500000 0.584419 0.976946
O O13 0.337296 0.588977 0.236169
O O14 0.398272 0.665594 0.978805
O O15 0.333863 0.588630 0.731359
O O16 0.257979 0.665476 0.481179
O O17 0.334958 0.742058 0.233154
O O18 0.334444 0.742303 0.728554
O O19 0.500000 0.746651 0.980055
#
# Coordination Sequence:
#
# PCOD8167181 Si02
#       8
#     4   4   4   4   4   4   4   4
#     4  10  21  37  55  72  91 119 153 189 233 275
#     4  10  19  30  42  59  90 127 157 183 214 264
#     4   9  17  28  40  55  81 120 157 187 225 265
#     4   9  15  23  37  56  75 100 147 203 233 250
#     4   9  17  30  50  74  97 120 143 174 221 271
#     4  10  19  32  52  73  93 117 149 190 223 261
#     4  10  19  30  47  71  92 118 155 185 220 265
#     4   9  17  30  47  68  92 115 147 189 226 265
#
# _framework density 16.499169999999999
#
# number of rings (size 3 to 8) (size 9 to 14) (size 15 to 20)
#    0.000    2.500    0.000    3.000    0.000    6.500 
#    0.000    0.000    0.000   16.500    0.000    0.000 
#    0.000    0.000    0.000    0.000    0.000  157.500 
#
# Total GULP energy -396801.503295 kJ/mol
# GULP energy per Si atom -12400.046978 kJ/mol
# Density = 1.646162 g / cm^3
# Si number density = 16.499170 Si / 1000 Ang^3
#
#
#
# Elastic Constant Matrix: (Units=GPa)
#
#
# Indices 1 2 3 4 5 6 
#
# 1 83.4353 47.6657 44.9149 0.0000 0.0000 0.0000
# 2 47.6657 63.0193 34.0907 0.0000 0.0000 0.0000
# 3 44.9149 34.0907 149.3645 0.0000 0.0000 0.0000
# 4 0.0000 0.0000 0.0000 11.8847 0.0000 0.0000
# 5 0.0000 0.0000 0.0000 0.0000 13.1461 0.0000
# 6 0.0000 0.0000 0.0000 0.0000 0.0000 5.8463
#
#
#
# Elastic Compliance Matrix: (Units=1/GPa)
#
#
# Indices 1 2 3 4 5 6 
#
# 1 0.022428 -0.015191 -0.003277 0.000000 0.000000 0.000000
# 2 -0.015191 0.028393 -0.001912 0.000000 0.000000 0.000000
# 3 -0.003277 -0.001912 0.008117 0.000000 0.000000 0.000000
# 4 0.000000 0.000000 0.000000 0.084142 0.000000 0.000000
# 5 0.000000 0.000000 0.000000 0.000000 0.076068 0.000000
# 6 0.000000 0.000000 0.000000 0.000000 0.000000 0.171048
#
#
# Mechanical properties :
#
#
# Convention : Reuss Voigt Hill
#
# Bulk Modulus (GPa) = 55.01515 61.01796 58.01655
# Shear Modulus (GPa) = 11.44126 17.45194 14.44660
#
# Velocity S-wave (km/s) = 2.63619 3.25583 2.96226
# Velocity P-wave (km/s) = 6.53319 7.15518 6.85125
#
# Compressibility (1/GPa) = 0.01817681
#
# Stress axis : x y z
#
# Youngs Moduli (GPa) = 44.58735 35.22048 123.19961
#
# Poissons Ratio (x) = 0.53503 0.40373
# Poissons Ratio (y) = 0.67733 0.23559
# Poissons Ratio (z) = 0.14611 0.06735
#
# Static dielectric constant tensor:
#      x y z
#    x 2.899580 0.000000 0.000000 
#    y 0.000000 2.889800 0.000000 
#    z 0.000000 0.000000 3.483510 
# 
# 
# High freq. dielectric constant tensor:
#      x y z
#    x 1.602880 0.000000 0.000000 
#    y 0.000000 1.608820 0.000000 
#    z 0.000000 0.000000 1.661570 
# 
# From -- ./inp_files/494.got.cif
#   From: 2010.03.12/outbox.cif.g09.slc.cpg/sg26_1_cif.got.tgz:494.got - 2010.04.14 03:33:09.
