data_PCOD8167564
_publ_section_title
;
Structure prediction by ZEFSAII (Michael W. Deem and Ramdas Pophale) SiO2 
 PCOD8167564
Probable space group: P M C 21
;
_chemical_formula_sum "Si O2"
_cell_formula_units_Z 32
_cell_length_a 8.735680
_cell_length_b 11.884940
_cell_length_c 15.357820
_cell_angle_alpha 90.000000
_cell_angle_beta 90.000000
_cell_angle_gamma 90.000000
_cell_volume 1594.495447
_symmetry_space_group_name_H-M "P M C 21"
_symmetry_group_IT_number 26
_symmetry_cell_setting 'orthorhombic'
loop_
_space_group_symop_operation_xyz
x,y,z
-x,-y,1/2+z
-x,y,z
x,-y,1/2+z
loop_
_atom_site_type_symbol
_atom_site_label
_atom_site_fract_x
_atom_site_fract_y
_atom_site_fract_z
Si Si1 0.319444 0.279552 0.290180
Si Si2 0.819320 0.746022 0.308173
Si Si3 0.177513 0.503577 0.857961
Si Si4 0.681512 0.147334 0.458807
Si Si5 0.319445 0.279545 0.627444
Si Si6 0.177517 0.503584 0.059655
Si Si7 0.180681 0.253992 0.109453
Si Si8 0.318680 0.108148 0.958813
O O1 0.500000 0.267975 0.278558
O O2 0.275163 0.410286 0.300407
O O3 0.256342 0.210497 0.373076
O O4 0.237089 0.226854 0.206388
O O5 0.766098 0.621318 0.335408
O O6 0.762970 0.773141 0.211222
O O7 0.742833 0.834440 0.372159
O O8 0.000000 0.758739 0.315795
O O9 0.000000 0.518837 0.833697
O O10 0.208803 0.527829 0.958807
O O11 0.500000 0.153028 0.458799
O O12 0.743637 0.210489 0.544545
O O13 0.740982 0.019925 0.458804
O O14 0.500000 0.267959 0.639093
O O15 0.275178 0.410280 0.617203
O O16 0.233914 0.378692 0.082211
O O17 0.000000 0.518847 0.083915
O O18 0.000000 0.241313 0.101884
O O19 0.257060 0.165564 0.045438
O O20 0.500000 0.114102 0.958857
#
# Coordination Sequence:
#
# PCOD8167564 Si02
#       8
#     4   4   4   4   4   4   4   4
#     4  11  22  39  62  91 121 156 200 247 292 351
#     4  11  23  41  61  89 125 159 193 242 301 358
#     4  10  20  37  60  86 121 161 192 234 301 361
#     4   9  22  42  61  84 120 157 196 249 306 345
#     4  11  22  39  62  91 121 156 200 247 292 351
#     4  10  20  37  60  86 121 161 192 234 301 361
#     4  11  23  41  61  89 125 159 193 242 301 358
#     4  11  23  42  65  86 112 157 206 249 294 351
#
# _framework density 20.069044999999999
#
# number of rings (size 3 to 8) (size 9 to 14) (size 15 to 20)
#    0.000    1.500    2.500    2.625    0.000    6.000 
#    0.000   10.000    0.000    0.000    0.000    0.000 
#    0.000    0.000    0.000    0.000    0.000    0.000 
#
# Total GULP energy -396992.286857 kJ/mol
# GULP energy per Si atom -12406.008964 kJ/mol
# Density = 2.002337 g / cm^3
# Si number density = 20.069045 Si / 1000 Ang^3
#
#
#
# Elastic Constant Matrix: (Units=GPa)
#
#
# Indices 1 2 3 4 5 6 
#
# 1 57.4638 36.6385 26.7501 0.0000 0.0000 0.0000
# 2 36.6385 131.0306 50.3488 0.0000 0.0000 0.0000
# 3 26.7501 50.3488 124.0312 0.0000 0.0000 0.0000
# 4 0.0000 0.0000 0.0000 11.8297 0.0000 0.0000
# 5 0.0000 0.0000 0.0000 0.0000 36.6650 0.0000
# 6 0.0000 0.0000 0.0000 0.0000 0.0000 0.6277
#
#
#
# Elastic Compliance Matrix: (Units=1/GPa)
#
#
# Indices 1 2 3 4 5 6 
#
# 1 0.021889 -0.005102 -0.002650 0.000000 0.000000 0.000000
# 2 -0.005102 0.010232 -0.003053 0.000000 0.000000 0.000000
# 3 -0.002650 -0.003053 0.009873 0.000000 0.000000 0.000000
# 4 0.000000 0.000000 0.000000 0.084533 0.000000 0.000000
# 5 0.000000 0.000000 0.000000 0.000000 0.027274 0.000000
# 6 0.000000 0.000000 0.000000 0.000000 0.000000 1.593211
#
#
# Mechanical properties :
#
#
# Convention : Reuss Voigt Hill
#
# Bulk Modulus (GPa) = 49.05831 60.00005 54.52918
# Shear Modulus (GPa) = 2.81624 23.07702 12.94663
#
# Velocity S-wave (km/s) = 1.18588 3.39467 2.54265
# Velocity P-wave (km/s) = 5.13546 6.73251 5.98747
#
# Compressibility (1/GPa) = 0.02038391
#
# Stress axis : x y z
#
# Youngs Moduli (GPa) = 45.68519 97.73608 101.28399
#
# Poissons Ratio (x) = 0.49869 0.26836
# Poissons Ratio (y) = 0.23311 0.30921
# Poissons Ratio (z) = 0.12105 0.29838
#
# Static dielectric constant tensor:
#      x y z
#    x 3.484100 0.000000 0.000000 
#    y 0.000000 3.694330 0.000000 
#    z 0.000000 0.000000 3.846070 
# 
# 
# High freq. dielectric constant tensor:
#      x y z
#    x 1.773760 0.000000 0.000000 
#    y 0.000000 1.780910 0.000000 
#    z 0.000000 0.000000 1.801760 
# 
# From -- ./inp_files/4289.got.cif
#   From: 2010.03.12/outbox.cif.g09.slc.cpg/sg26_3_cif.got.tgz:4289.got - 2010.04.14 03:33:09.
