data_PCOD8167106
_publ_section_title
;
Structure prediction by ZEFSAII (Michael W. Deem and Ramdas Pophale) SiO2 
 PCOD8167106
Probable space group: P M C 21
;
_chemical_formula_sum "Si O2"
_cell_formula_units_Z 20
_cell_length_a 10.970241
_cell_length_b 17.613483
_cell_length_c 5.001037
_cell_angle_alpha 90.000000
_cell_angle_beta 90.000000
_cell_angle_gamma 90.000000
_cell_volume 966.321140
_symmetry_space_group_name_H-M "P M C 21"
_symmetry_group_IT_number 26
_symmetry_cell_setting 'orthorhombic'
loop_
_space_group_symop_operation_xyz
x,y,z
-x,-y,1/2+z
-x,y,z
x,-y,1/2+z
loop_
_atom_site_type_symbol
_atom_site_label
_atom_site_fract_x
_atom_site_fract_y
_atom_site_fract_z
Si Si1 0.645013 0.454687 0.063610
Si Si2 0.740201 0.790318 0.922575
Si Si3 0.260591 0.959305 0.135637
Si Si4 0.640567 0.287377 0.929887
Si Si5 0.000000 0.926250 0.300644
Si Si6 0.000000 0.826470 0.814926
O O1 0.500000 0.453554 0.060218
O O2 0.695670 0.487948 0.339558
O O3 0.691909 0.369106 0.021929
O O4 0.713476 0.875254 0.029892
O O5 0.720150 0.735573 0.173463
O O6 0.874684 0.779060 0.790668
O O7 0.650344 0.770904 0.678128
O O8 0.116795 0.974496 0.200768
O O9 0.317629 0.979879 0.424845
O O10 0.500000 0.290909 0.838682
O O11 0.000000 0.850482 0.124344
O O12 0.000000 0.897129 0.607256
#
# Coordination Sequence:
#
# PCOD8167106 Si02
#       6
#     4   4   4   4   2   2
#     4   9  17  31  53  83 113 136 169 224 287 340
#     4  11  22  37  56  82 114 149 190 233 280 339
#     4  11  20  32  51  75 106 141 183 235 283 325
#     4  11  22  37  59  85 114 149 185 227 281 337
#     4  10  18  31  50  78 106 135 175 232 301 343
#     4  10  20  35  54  80 112 145 181 226 281 337
#
# _framework density 20.697054999999999
#
# number of rings (size 3 to 8) (size 9 to 14) (size 15 to 20)
#    0.000    1.600    0.000    8.400    0.000    3.200 
#    0.000    0.000    0.000   12.000    0.000   14.000 
#    0.000    0.000    0.000    0.000    0.000    0.000 
#
# Total GULP energy -247812.820894 kJ/mol
# GULP energy per Si atom -12390.641045 kJ/mol
# Density = 2.064995 g / cm^3
# Si number density = 20.697055 Si / 1000 Ang^3
#
#
#
# Elastic Constant Matrix: (Units=GPa)
#
#
# Indices 1 2 3 4 5 6 
#
# 1 33.1278 26.6874 14.4844 0.0000 0.0000 0.0000
# 2 26.6874 84.0698 23.3388 0.0000 0.0000 0.0000
# 3 14.4844 23.3388 111.4576 0.0000 0.0000 0.0000
# 4 0.0000 0.0000 0.0000 46.6194 0.0000 0.0000
# 5 0.0000 0.0000 0.0000 0.0000 25.9773 0.0000
# 6 0.0000 0.0000 0.0000 0.0000 0.0000 11.7412
#
#
#
# Elastic Compliance Matrix: (Units=1/GPa)
#
#
# Indices 1 2 3 4 5 6 
#
# 1 0.041358 -0.012355 -0.002788 0.000000 0.000000 0.000000
# 2 -0.012355 0.016320 -0.001812 0.000000 0.000000 0.000000
# 3 -0.002788 -0.001812 0.009714 0.000000 0.000000 0.000000
# 4 0.000000 0.000000 0.000000 0.021450 0.000000 0.000000
# 5 0.000000 0.000000 0.000000 0.000000 0.038495 0.000000
# 6 0.000000 0.000000 0.000000 0.000000 0.000000 0.085170
#
#
# Mechanical properties :
#
#
# Convention : Reuss Voigt Hill
#
# Bulk Modulus (GPa) = 29.86595 39.74182 34.80389
# Shear Modulus (GPa) = 19.41170 27.81056 23.61113
#
# Velocity S-wave (km/s) = 3.06583 3.66962 3.38123
# Velocity P-wave (km/s) = 5.19556 6.09903 5.66533
#
# Compressibility (1/GPa) = 0.03348294
#
# Stress axis : x y z
#
# Youngs Moduli (GPa) = 24.17915 61.27513 102.94792
#
# Poissons Ratio (x) = 0.75705 0.28697
# Poissons Ratio (y) = 0.29873 0.18651
# Poissons Ratio (z) = 0.06740 0.11101
#
# Static dielectric constant tensor:
#      x y z
#    x 3.723460 0.000000 0.000000 
#    y 0.000000 3.683640 0.000000 
#    z 0.000000 0.000000 4.152490 
# 
# 
# High freq. dielectric constant tensor:
#      x y z
#    x 1.753200 0.000000 0.000000 
#    y 0.000000 1.798860 0.000000 
#    z 0.000000 0.000000 1.841760 
# 
# From -- ./inp_files/343.got.cif
#   From: 2010.03.12/outbox.cif.g09.slc.cpg/sg26_1_cif.got.tgz:343.got - 2010.04.14 03:33:09.
