data_PCOD8167415
_publ_section_title
;
Structure prediction by ZEFSAII (Michael W. Deem and Ramdas Pophale) SiO2 
 PCOD8167415
Probable space group: P M C 21
;
_chemical_formula_sum "Si O2"
_cell_formula_units_Z 24
_cell_length_a 15.148670
_cell_length_b 8.427949
_cell_length_c 9.686476
_cell_angle_alpha 90.000000
_cell_angle_beta 90.000000
_cell_angle_gamma 90.000000
_cell_volume 1236.693877
_symmetry_space_group_name_H-M "P M C 21"
_symmetry_group_IT_number 26
_symmetry_cell_setting 'orthorhombic'
loop_
_space_group_symop_operation_xyz
x,y,z
-x,-y,1/2+z
-x,y,z
x,-y,1/2+z
loop_
_atom_site_type_symbol
_atom_site_label
_atom_site_fract_x
_atom_site_fract_y
_atom_site_fract_z
Si Si1 0.187196 0.872060 0.377170
Si Si2 0.207440 0.304214 0.154450
Si Si3 0.345269 0.080792 0.285843
Si Si4 0.780310 0.327563 0.621897
Si Si5 0.099832 0.189413 0.391521
Si Si6 0.596161 0.170992 0.572912
O O1 0.195267 0.743108 0.496243
O O2 0.170066 0.780052 0.234938
O O3 0.277066 0.969093 0.366279
O O4 0.110084 0.999188 0.409135
O O5 0.296607 0.230798 0.217303
O O6 0.212181 0.492013 0.166148
O O7 0.121771 0.237763 0.234492
O O8 0.409068 0.136152 0.408843
O O9 0.395331 0.988976 0.163836
O O10 0.831058 0.290795 0.481151
O O11 0.676265 0.289101 0.608400
O O12 0.000000 0.236862 0.428908
O O13 0.500000 0.246924 0.609615
#
# Coordination Sequence:
#
# PCOD8167415 Si02
#       6
#     4   4   4   4   4   4
#     4  10  20  37  63  86 116 159 203 243 301 356
#     4  11  21  39  63  88 122 162 197 248 314 358
#     4  10  19  38  61  89 117 158 204 253 295 351
#     4  11  23  39  63  89 129 159 196 254 309 359
#     4  11  23  41  64  90 119 157 207 251 299 367
#     4  11  21  38  63  92 123 163 210 249 293 359
#
# _framework density 19.406580000000002
#
# number of rings (size 3 to 8) (size 9 to 14) (size 15 to 20)
#    0.000    1.333    5.000    3.500    0.000    3.333 
#    0.000    3.333    0.000    0.000    0.000    0.000 
#    0.000    0.000    0.000    0.000    0.000    0.000 
#
# Total GULP energy -297563.473289 kJ/mol
# GULP energy per Si atom -12398.478054 kJ/mol
# Density = 1.936241 g / cm^3
# Si number density = 19.406580 Si / 1000 Ang^3
#
#
#
# Elastic Constant Matrix: (Units=GPa)
#
#
# Indices 1 2 3 4 5 6 
#
# 1 115.6363 31.2821 19.0894 0.0000 0.0000 0.0000
# 2 31.2821 100.3905 10.5760 0.0000 0.0000 0.0000
# 3 19.0894 10.5760 82.3641 0.0000 0.0000 0.0000
# 4 0.0000 0.0000 0.0000 30.7264 0.0000 0.0000
# 5 0.0000 0.0000 0.0000 0.0000 10.1076 0.0000
# 6 0.0000 0.0000 0.0000 0.0000 0.0000 9.4289
#
#
#
# Elastic Compliance Matrix: (Units=1/GPa)
#
#
# Indices 1 2 3 4 5 6 
#
# 1 0.009726 -0.002831 -0.001891 0.000000 0.000000 0.000000
# 2 -0.002831 0.010922 -0.000746 0.000000 0.000000 0.000000
# 3 -0.001891 -0.000746 0.012675 0.000000 0.000000 0.000000
# 4 0.000000 0.000000 0.000000 0.032545 0.000000 0.000000
# 5 0.000000 0.000000 0.000000 0.000000 0.098936 0.000000
# 6 0.000000 0.000000 0.000000 0.000000 0.000000 0.106057
#
#
# Mechanical properties :
#
#
# Convention : Reuss Voigt Hill
#
# Bulk Modulus (GPa) = 44.66955 46.69843 45.68399
# Shear Modulus (GPa) = 17.28550 25.88213 21.58381
#
# Velocity S-wave (km/s) = 2.98770 3.65592 3.33857
# Velocity P-wave (km/s) = 5.91350 6.47583 6.20105
#
# Compressibility (1/GPa) = 0.02238662
#
# Stress axis : x y z
#
# Youngs Moduli (GPa) = 102.81853 91.55833 78.89423
#
# Poissons Ratio (x) = 0.25924 0.14916
# Poissons Ratio (y) = 0.29113 0.05887
# Poissons Ratio (z) = 0.19439 0.06832
#
# Static dielectric constant tensor:
#      x y z
#    x 3.366870 0.000000 0.000000 
#    y 0.000000 3.419500 0.000000 
#    z 0.000000 0.000000 3.705390 
# 
# 
# High freq. dielectric constant tensor:
#      x y z
#    x 1.738300 0.000000 0.000000 
#    y 0.000000 1.741980 0.000000 
#    z 0.000000 0.000000 1.774820 
# 
# From -- ./inp_files/2112.got.cif
#   From: 2010.03.12/outbox.cif.g09.slc.cpg/sg26_2_cif.got.tgz:2112.got - 2010.04.14 03:33:09.
