data_PCOD8167803
_publ_section_title
;
Structure prediction by ZEFSAII (Michael W. Deem and Ramdas Pophale) SiO2 
 PCOD8167803
Probable space group: P C C 2
;
_chemical_formula_sum "Si O2"
_cell_formula_units_Z 24
_cell_length_a 9.603185
_cell_length_b 8.904031
_cell_length_c 14.010439
_cell_angle_alpha 90.000000
_cell_angle_beta 90.000000
_cell_angle_gamma 90.000000
_cell_volume 1197.991405
_symmetry_space_group_name_H-M "P C C 2"
_symmetry_group_IT_number 27
_symmetry_cell_setting 'orthorhombic'
loop_
_space_group_symop_operation_xyz
x,y,z
-x,-y,z
-x,y,1/2+z
x,-y,1/2+z
loop_
_atom_site_type_symbol
_atom_site_label
_atom_site_fract_x
_atom_site_fract_y
_atom_site_fract_z
Si Si1 0.993358 0.176414 0.868070
Si Si2 0.397501 0.368658 0.270555
Si Si3 0.493772 0.320205 0.079596
Si Si4 0.789360 0.336698 0.489954
Si Si5 0.894198 0.633273 0.193355
Si Si6 0.739807 0.685928 0.456365
O O1 0.947420 0.237255 0.764589
O O2 0.879339 0.217321 0.949255
O O3 0.000000 0.000000 0.858825
O O4 0.140989 0.245457 0.902607
O O5 0.500000 0.500000 0.303699
O O6 0.467297 0.262679 0.188347
O O7 0.254881 0.434007 0.224993
O O8 0.358279 0.278009 0.365105
O O9 0.500000 0.500000 0.086403
O O10 0.367412 0.274296 0.008606
O O11 0.644260 0.260341 0.045075
O O12 0.882079 0.308379 0.584840
O O13 0.784473 0.511822 0.461483
O O14 0.000000 0.500000 0.198861
#
# Coordination Sequence:
#
# PCOD8167803 Si02
#       6
#     4   4   4   4   4   4
#     4  11  23  36  51  77 114 152 187 225 274 333
#     4   9  16  27  48  79 109 131 164 221 280 323
#     4   8  16  29  50  80 107 132 171 227 280 324
#     4  10  19  35  58  82 106 138 184 233 281 331
#     4  10  20  34  55  80 106 140 185 234 278 327
#     4  10  18  33  56  82 107 139 181 226 273 328
#
# _framework density 20.033532999999998
#
# number of rings (size 3 to 8) (size 9 to 14) (size 15 to 20)
#    0.000    2.333    0.000    6.000    0.000    0.667 
#    0.000    0.833    0.000    0.000    0.000   30.333 
#    0.000    0.000    0.000    0.000    0.000    0.000 
#
# Total GULP energy -297400.135315 kJ/mol
# GULP energy per Si atom -12391.672305 kJ/mol
# Density = 1.998794 g / cm^3
# Si number density = 20.033533 Si / 1000 Ang^3
#
#
#
# Elastic Constant Matrix: (Units=GPa)
#
#
# Indices 1 2 3 4 5 6 
#
# 1 72.8415 25.4526 22.7868 0.0000 0.0000 0.0000
# 2 25.4526 65.9220 11.6063 0.0000 0.0000 0.0000
# 3 22.7868 11.6063 89.0483 0.0000 0.0000 0.0000
# 4 0.0000 0.0000 0.0000 5.3920 0.0000 0.0000
# 5 0.0000 0.0000 0.0000 0.0000 43.5230 0.0000
# 6 0.0000 0.0000 0.0000 0.0000 0.0000 10.0659
#
#
#
# Elastic Compliance Matrix: (Units=1/GPa)
#
#
# Indices 1 2 3 4 5 6 
#
# 1 0.016903 -0.005900 -0.003556 0.000000 0.000000 0.000000
# 2 -0.005900 0.017585 -0.000782 0.000000 0.000000 0.000000
# 3 -0.003556 -0.000782 0.012242 0.000000 0.000000 0.000000
# 4 0.000000 0.000000 0.000000 0.185459 0.000000 0.000000
# 5 0.000000 0.000000 0.000000 0.000000 0.022976 0.000000
# 6 0.000000 0.000000 0.000000 0.000000 0.000000 0.099345
#
#
# Mechanical properties :
#
#
# Convention : Reuss Voigt Hill
#
# Bulk Modulus (GPa) = 38.09148 38.61147 38.35148
# Shear Modulus (GPa) = 13.02972 22.99392 18.01182
#
# Velocity S-wave (km/s) = 2.55305 3.39155 3.00172
# Velocity P-wave (km/s) = 5.26744 5.88660 5.58561
#
# Compressibility (1/GPa) = 0.02625259
#
# Stress axis : x y z
#
# Youngs Moduli (GPa) = 59.16278 56.86611 81.68715
#
# Poissons Ratio (x) = 0.33551 0.29050
# Poissons Ratio (y) = 0.34906 0.06390
# Poissons Ratio (z) = 0.21040 0.04448
#
# Static dielectric constant tensor:
#      x y z
#    x 3.930100 0.000000 0.000000 
#    y 0.000000 2.905240 0.000000 
#    z 0.000000 0.000000 4.141310 
# 
# 
# High freq. dielectric constant tensor:
#      x y z
#    x 1.805740 0.000000 0.000000 
#    y 0.000000 1.696610 0.000000 
#    z 0.000000 0.000000 1.799360 
# 
# From -- ./inp_files/3320.got.cif
#   From: 2010.03.12/outbox.cif.g09.slc.cpg/sg27_2_cif.got.tgz:3320.got - 2010.04.14 03:36:05.
