data_PCOD8167295
_publ_section_title
;
Structure prediction by ZEFSAII (Michael W. Deem and Ramdas Pophale) SiO2 
 PCOD8167295
Probable space group: P M C 21
;
_chemical_formula_sum "Si O2"
_cell_formula_units_Z 24
_cell_length_a 8.719058
_cell_length_b 15.348793
_cell_length_c 9.444407
_cell_angle_alpha 90.000000
_cell_angle_beta 90.000000
_cell_angle_gamma 90.000000
_cell_volume 1263.916810
_symmetry_space_group_name_H-M "P M C 21"
_symmetry_group_IT_number 26
_symmetry_cell_setting 'orthorhombic'
loop_
_space_group_symop_operation_xyz
x,y,z
-x,-y,1/2+z
-x,y,z
x,-y,1/2+z
loop_
_atom_site_type_symbol
_atom_site_label
_atom_site_fract_x
_atom_site_fract_y
_atom_site_fract_z
Si Si1 0.322626 0.588920 0.868780
Si Si2 0.819090 0.229119 0.406230
Si Si3 0.324414 0.568556 0.192466
Si Si4 0.181773 0.926886 0.709485
Si Si5 0.317339 0.238749 0.707914
Si Si6 0.182620 0.090392 0.889215
O O1 0.500000 0.608934 0.831899
O O2 0.228046 0.677037 0.845814
O O3 0.246718 0.513520 0.771290
O O4 0.305310 0.553547 0.026742
O O5 0.760767 0.158345 0.292747
O O6 0.741907 0.206040 0.555886
O O7 0.000000 0.224284 0.428166
O O8 0.500000 0.568160 0.241033
O O9 0.254913 0.662748 0.235203
O O10 0.243570 0.925364 0.548691
O O11 0.000000 0.929904 0.708286
O O12 0.244058 0.012423 0.789979
O O13 0.500000 0.237333 0.703505
O O14 0.253697 0.180114 0.833868
O O15 0.000000 0.097510 0.885666
#
# Coordination Sequence:
#
# PCOD8167295 Si02
#       6
#     4   4   4   4   4   4
#     4   9  17  32  51  72  98 134 174 213 253 302
#     4  10  19  34  54  77 104 138 174 213 257 305
#     4   8  16  30  49  69  95 130 167 202 248 303
#     4   9  19  34  55  78 102 134 173 209 256 316
#     4  10  20  35  53  77 105 137 174 213 255 306
#     4  10  19  35  56  77 100 133 172 212 255 308
#
# _framework density 18.988592000000001
#
# number of rings (size 3 to 8) (size 9 to 14) (size 15 to 20)
#    0.000    2.667    0.000    3.000    0.000    4.000 
#    0.000   11.667    0.000    0.000    0.000    0.000 
#    0.000    0.000    0.000    0.000    0.000    0.000 
#
# Total GULP energy -297555.634092 kJ/mol
# GULP energy per Si atom -12398.151421 kJ/mol
# Density = 1.894537 g / cm^3
# Si number density = 18.988592 Si / 1000 Ang^3
#
#
#
# Elastic Constant Matrix: (Units=GPa)
#
#
# Indices 1 2 3 4 5 6 
#
# 1 37.0025 16.9915 18.5568 0.0000 0.0000 0.0000
# 2 16.9915 102.1796 55.3562 0.0000 0.0000 0.0000
# 3 18.5568 55.3562 101.6019 0.0000 0.0000 0.0000
# 4 0.0000 0.0000 0.0000 46.2400 0.0000 0.0000
# 5 0.0000 0.0000 0.0000 0.0000 21.2863 0.0000
# 6 0.0000 0.0000 0.0000 0.0000 0.0000 25.7016
#
#
#
# Elastic Compliance Matrix: (Units=1/GPa)
#
#
# Indices 1 2 3 4 5 6 
#
# 1 0.030344 -0.002899 -0.003962 0.000000 0.000000 0.000000
# 2 -0.002899 0.014162 -0.007186 0.000000 0.000000 0.000000
# 3 -0.003962 -0.007186 0.014482 0.000000 0.000000 0.000000
# 4 0.000000 0.000000 0.000000 0.021626 0.000000 0.000000
# 5 0.000000 0.000000 0.000000 0.000000 0.046978 0.000000
# 6 0.000000 0.000000 0.000000 0.000000 0.000000 0.038908
#
#
# Mechanical properties :
#
#
# Convention : Reuss Voigt Hill
#
# Bulk Modulus (GPa) = 32.37187 46.95477 39.66332
# Shear Modulus (GPa) = 24.40292 28.63755 26.52024
#
# Velocity S-wave (km/s) = 3.58877 3.88770 3.74122
# Velocity P-wave (km/s) = 5.85298 6.70327 6.29250
#
# Compressibility (1/GPa) = 0.03089102
#
# Stress axis : x y z
#
# Youngs Moduli (GPa) = 32.95575 70.61093 69.05360
#
# Poissons Ratio (x) = 0.20471 0.27362
# Poissons Ratio (y) = 0.09554 0.49625
# Poissons Ratio (z) = 0.13059 0.50744
#
# Static dielectric constant tensor:
#      x y z
#    x 3.122280 0.000000 0.000000 
#    y 0.000000 3.780630 0.000000 
#    z 0.000000 0.000000 3.578240 
# 
# 
# High freq. dielectric constant tensor:
#      x y z
#    x 1.701200 0.000000 0.000000 
#    y 0.000000 1.753270 0.000000 
#    z 0.000000 0.000000 1.739270 
# 
# From -- ./inp_files/1406.got.cif
#   From: 2010.03.12/outbox.cif.g09.slc.cpg/sg26_1_cif.got.tgz:1406.got - 2010.04.14 03:33:09.
