data_PCOD8167829
_publ_section_title
;
Structure prediction by ZEFSAII (Michael W. Deem and Ramdas Pophale) SiO2 
 PCOD8167829
Probable space group: P C C 2
;
_chemical_formula_sum "Si O2"
_cell_formula_units_Z 22
_cell_length_a 5.057325
_cell_length_b 12.723433
_cell_length_c 16.065576
_cell_angle_alpha 90.000000
_cell_angle_beta 90.000000
_cell_angle_gamma 90.000000
_cell_volume 1033.764161
_symmetry_space_group_name_H-M "P C C 2"
_symmetry_group_IT_number 27
_symmetry_cell_setting 'orthorhombic'
loop_
_space_group_symop_operation_xyz
x,y,z
-x,-y,z
-x,y,1/2+z
x,-y,1/2+z
loop_
_atom_site_type_symbol
_atom_site_label
_atom_site_fract_x
_atom_site_fract_y
_atom_site_fract_z
Si Si1 0.466151 0.280916 0.065870
Si Si2 0.950646 0.881700 0.322794
Si Si3 0.157586 0.406352 0.773751
Si Si4 0.561118 0.759435 0.876905
Si Si5 0.982075 0.774968 0.665738
Si Si6 0.500000 0.500000 0.635150
O O1 0.699352 0.238005 0.123491
O O2 0.413060 0.404596 0.075865
O O3 0.203755 0.219951 0.095008
O O4 0.532948 0.260370 0.970428
O O5 0.653209 0.837153 0.335597
O O6 0.152751 0.813328 0.377562
O O7 0.015360 0.878918 0.223393
O O8 0.000000 0.000000 0.353643
O O9 0.393283 0.352562 0.828432
O O10 0.964402 0.316168 0.736126
O O11 0.260662 0.465341 0.692485
O O12 0.000000 0.500000 0.823953
#
# Coordination Sequence:
#
# PCOD8167829 Si02
#       6
#     4   4   4   4   4   2
#     4  11  22  40  58  93 135 162 208 263 327 371
#     4  11  23  46  69  91 119 170 223 272 332 399
#     4  10  20  37  60  89 128 173 218 249 308 387
#     4  11  25  40  64  99 133 163 212 279 329 385
#     4  10  21  40  64  87 123 167 213 264 309 387
#     4  10  20  36  60  84 128 178 214 244 296 386
#
# _framework density 21.28145
#
# number of rings (size 3 to 8) (size 9 to 14) (size 15 to 20)
#    0.000    1.455    1.818    4.909    2.545    0.727 
#    6.545    5.455    0.000    0.000    0.000    0.000 
#    0.000    0.000    0.000    0.000    0.000    0.000 
#
# Total GULP energy -272656.335910 kJ/mol
# GULP energy per Si atom -12393.469814 kJ/mol
# Density = 2.123301 g / cm^3
# Si number density = 21.281450 Si / 1000 Ang^3
#
#
#
# Elastic Constant Matrix: (Units=GPa)
#
#
# Indices 1 2 3 4 5 6 
#
# 1 99.0466 27.1192 15.6826 0.0000 0.0000 0.0000
# 2 27.1192 89.5152 31.7650 0.0000 0.0000 0.0000
# 3 15.6826 31.7650 106.5564 0.0000 0.0000 0.0000
# 4 0.0000 0.0000 0.0000 19.8277 0.0000 0.0000
# 5 0.0000 0.0000 0.0000 0.0000 31.1390 0.0000
# 6 0.0000 0.0000 0.0000 0.0000 0.0000 33.7705
#
#
#
# Elastic Compliance Matrix: (Units=1/GPa)
#
#
# Indices 1 2 3 4 5 6 
#
# 1 0.011056 -0.003100 -0.000703 0.000000 0.000000 0.000000
# 2 -0.003100 0.013362 -0.003527 0.000000 0.000000 0.000000
# 3 -0.000703 -0.003527 0.010540 0.000000 0.000000 0.000000
# 4 0.000000 0.000000 0.000000 0.050434 0.000000 0.000000
# 5 0.000000 0.000000 0.000000 0.000000 0.032114 0.000000
# 6 0.000000 0.000000 0.000000 0.000000 0.000000 0.029612
#
#
# Mechanical properties :
#
#
# Convention : Reuss Voigt Hill
#
# Bulk Modulus (GPa) = 49.26685 49.36128 49.31407
# Shear Modulus (GPa) = 29.66574 31.65087 30.65831
#
# Velocity S-wave (km/s) = 3.73764 3.86067 3.79966
# Velocity P-wave (km/s) = 6.46738 6.56643 6.51709
#
# Compressibility (1/GPa) = 0.02029762
#
# Stress axis : x y z
#
# Youngs Moduli (GPa) = 90.44537 74.83870 94.88021
#
# Poissons Ratio (x) = 0.23201 0.06671
# Poissons Ratio (y) = 0.28039 0.33465
# Poissons Ratio (z) = 0.06359 0.26396
#
# Static dielectric constant tensor:
#      x y z
#    x 3.738090 0.000000 0.000000 
#    y 0.000000 4.189080 0.000000 
#    z 0.000000 0.000000 3.669410 
# 
# 
# High freq. dielectric constant tensor:
#      x y z
#    x 1.841490 0.000000 0.000000 
#    y 0.000000 1.824560 0.000000 
#    z 0.000000 0.000000 1.817530 
# 
# From -- ./inp_files/3003.got.cif
#   From: 2010.03.12/outbox.cif.g09.slc.cpg/sg27_2_cif.got.tgz:3003.got - 2010.04.14 03:36:05.
