data_PCOD8167641
_publ_section_title
;
Structure prediction by ZEFSAII (Michael W. Deem and Ramdas Pophale) SiO2 
 PCOD8167641
Probable space group: P M C 21
;
_chemical_formula_sum "Si O2"
_cell_formula_units_Z 20
_cell_length_a 7.675907
_cell_length_b 14.286114
_cell_length_c 8.836062
_cell_angle_alpha 90.000000
_cell_angle_beta 90.000000
_cell_angle_gamma 90.000000
_cell_volume 968.952684
_symmetry_space_group_name_H-M "P M C 21"
_symmetry_group_IT_number 26
_symmetry_cell_setting 'orthorhombic'
loop_
_space_group_symop_operation_xyz
x,y,z
-x,-y,1/2+z
-x,y,z
x,-y,1/2+z
loop_
_atom_site_type_symbol
_atom_site_label
_atom_site_fract_x
_atom_site_fract_y
_atom_site_fract_z
Si Si1 0.305412 0.923506 0.691440
Si Si2 0.203004 0.699404 0.423811
Si Si3 0.806412 0.092920 0.867302
Si Si4 0.500000 0.579954 0.276701
Si Si5 0.802004 0.729875 0.775545
Si Si6 0.500000 0.618013 0.922542
O O1 0.500000 0.894372 0.643445
O O2 0.188943 0.934418 0.543273
O O3 0.224762 0.841588 0.796144
O O4 0.317226 0.022119 0.778233
O O5 0.254468 0.799500 0.350191
O O6 0.324263 0.622831 0.346484
O O7 0.240223 0.701459 0.602830
O O8 0.000000 0.675769 0.393170
O O9 0.000000 0.080674 0.802268
O O10 0.500000 0.471084 0.314013
O O11 0.500000 0.589969 0.097058
O O12 0.673796 0.677132 0.889334
O O13 0.000000 0.703528 0.819076
#
# Coordination Sequence:
#
# PCOD8167641 Si02
#       6
#     4   4   4   2   4   2
#     4  11  21  35  59  90 124 164 209 250 299 356
#     4   9  21  41  66  92 120 164 207 251 309 365
#     4  10  21  37  57  86 124 167 207 247 300 356
#     4  12  26  42  69  88 129 154 199 260 310 370
#     4  10  21  42  67  90 125 164 206 256 308 366
#     4  12  26  44  63  98 117 162 201 250 316 372
#
# _framework density 20.640841999999999
#
# number of rings (size 3 to 8) (size 9 to 14) (size 15 to 20)
#    0.000    1.600    1.000    5.400    5.600    3.200 
#    0.000    2.000    0.000    0.000    0.000    0.000 
#    0.000    0.000    0.000    0.000    0.000    0.000 
#
# Total GULP energy -248026.404906 kJ/mol
# GULP energy per Si atom -12401.320245 kJ/mol
# Density = 2.059386 g / cm^3
# Si number density = 20.640842 Si / 1000 Ang^3
#
#
#
# Elastic Constant Matrix: (Units=GPa)
#
#
# Indices 1 2 3 4 5 6 
#
# 1 106.9459 14.9689 10.3579 0.0000 0.0000 0.0000
# 2 14.9689 51.8964 -8.6045 0.0000 0.0000 0.0000
# 3 10.3579 -8.6045 28.0549 0.0000 0.0000 0.0000
# 4 0.0000 0.0000 0.0000 38.1059 0.0000 0.0000
# 5 0.0000 0.0000 0.0000 0.0000 28.4490 0.0000
# 6 0.0000 0.0000 0.0000 0.0000 0.0000 15.7196
#
#
#
# Elastic Compliance Matrix: (Units=1/GPa)
#
#
# Indices 1 2 3 4 5 6 
#
# 1 0.010369 -0.003820 -0.005000 0.000000 0.000000 0.000000
# 2 -0.003820 0.021709 0.008068 0.000000 0.000000 0.000000
# 3 -0.005000 0.008068 0.039965 0.000000 0.000000 0.000000
# 4 0.000000 0.000000 0.000000 0.026243 0.000000 0.000000
# 5 0.000000 0.000000 0.000000 0.000000 0.035151 0.000000
# 6 0.000000 0.000000 0.000000 0.000000 0.000000 0.063615
#
#
# Mechanical properties :
#
#
# Convention : Reuss Voigt Hill
#
# Bulk Modulus (GPa) = 14.17631 24.48241 19.32936
# Shear Modulus (GPa) = 22.51566 27.79991 25.15778
#
# Velocity S-wave (km/s) = 3.30636 3.67391 3.49497
# Velocity P-wave (km/s) = 4.63238 5.46660 5.06669
#
# Compressibility (1/GPa) = 0.07054023
#
# Stress axis : x y z
#
# Youngs Moduli (GPa) = 96.43724 46.06445 25.02186
#
# Poissons Ratio (x) = 0.17596 0.12511
# Poissons Ratio (y) = 0.36838 -0.20189
# Poissons Ratio (z) = 0.48218 -0.37167
#
# Static dielectric constant tensor:
#      x y z
#    x 3.728000 0.000000 0.000000 
#    y 0.000000 3.737190 0.000000 
#    z 0.000000 0.000000 3.441930 
# 
# 
# High freq. dielectric constant tensor:
#      x y z
#    x 1.823230 0.000000 0.000000 
#    y 0.000000 1.805960 0.000000 
#    z 0.000000 0.000000 1.786610 
# 
# From -- ./inp_files/1336.got.cif
#   From: 2010.03.12/outbox.cif.g09.slc.cpg/sg26_1_cif.got.tgz:1336.got - 2010.04.14 03:33:09.
