data_PCOD8167883
_publ_section_title
;
Structure prediction by ZEFSAII (Michael W. Deem and Ramdas Pophale) SiO2 
 PCOD8167883
Probable space group: P C C 2
;
_chemical_formula_sum "Si O2"
_cell_formula_units_Z 32
_cell_length_a 11.132267
_cell_length_b 8.517889
_cell_length_c 16.140671
_cell_angle_alpha 90.000000
_cell_angle_beta 90.000000
_cell_angle_gamma 90.000000
_cell_volume 1530.513539
_symmetry_space_group_name_H-M "P C C 2"
_symmetry_group_IT_number 27
_symmetry_cell_setting 'orthorhombic'
loop_
_space_group_symop_operation_xyz
x,y,z
-x,-y,z
-x,y,1/2+z
x,-y,1/2+z
loop_
_atom_site_type_symbol
_atom_site_label
_atom_site_fract_x
_atom_site_fract_y
_atom_site_fract_z
Si Si1 0.101923 0.193055 0.253740
Si Si2 0.548374 0.176244 0.540476
Si Si3 0.833350 0.842379 0.734861
Si Si4 0.642431 0.141740 0.367352
Si Si5 0.296141 0.641767 0.652573
Si Si6 0.703987 0.308839 0.079947
Si Si7 0.251707 0.809253 0.905847
Si Si8 0.555892 0.655018 0.308514
O O1 0.174699 0.323008 0.202857
O O2 0.128415 0.183737 0.353058
O O3 0.963380 0.238840 0.240917
O O4 0.143611 0.025577 0.218116
O O5 0.603680 0.228088 0.451866
O O6 0.660534 0.205106 0.601541
O O7 0.437594 0.287915 0.564573
O O8 0.500000 0.000000 0.544566
O O9 0.764913 0.805249 0.821582
O O10 0.752597 0.779461 0.660520
O O11 0.532183 0.190604 0.305875
O O12 0.660652 0.960318 0.393260
O O13 0.272617 0.494040 0.592229
O O14 0.403798 0.609690 0.716149
O O15 0.775797 0.233942 0.001247
O O16 0.328432 0.672122 0.865776
O O17 0.500000 0.500000 0.347997
#
# Coordination Sequence:
#
# PCOD8167883 Si02
#       8
#     4   4   4   4   4   4   4   4
#     4   9  22  46  66  94 121 172 230 278 324 399
#     4  12  22  37  61  97 134 166 218 270 328 399
#     4  10  22  43  71  91 126 171 225 279 331 386
#     4  11  21  39  63  94 129 165 215 269 330 401
#     4  11  25  39  62  94 135 171 220 265 332 407
#     4  12  23  41  62  99 136 176 213 278 339 398
#     4  10  22  40  64  91 130 170 218 273 330 390
#     4  11  21  37  59  90 127 172 207 262 334 399
#
# _framework density 20.908014999999999
#
# number of rings (size 3 to 8) (size 9 to 14) (size 15 to 20)
#    0.000    1.250    2.500    3.750    1.750    2.500 
#    2.250    1.875    0.000    0.000    0.000    0.000 
#    0.000    0.000    0.000    0.000    0.000    0.000 
#
# Total GULP energy -396456.257370 kJ/mol
# GULP energy per Si atom -12389.258043 kJ/mol
# Density = 2.086043 g / cm^3
# Si number density = 20.908015 Si / 1000 Ang^3
#
#
#
# Elastic Constant Matrix: (Units=GPa)
#
#
# Indices 1 2 3 4 5 6 
#
# 1 112.4864 33.4541 63.4093 0.0000 0.0000 0.0000
# 2 33.4541 86.8415 52.6402 0.0000 0.0000 0.0000
# 3 63.4093 52.6402 128.2916 0.0000 0.0000 0.0000
# 4 0.0000 0.0000 0.0000 30.0628 0.0000 0.0000
# 5 0.0000 0.0000 0.0000 0.0000 27.7483 0.0000
# 6 0.0000 0.0000 0.0000 0.0000 0.0000 23.1616
#
#
#
# Elastic Compliance Matrix: (Units=1/GPa)
#
#
# Indices 1 2 3 4 5 6 
#
# 1 0.012454 -0.001419 -0.005573 0.000000 0.000000 0.000000
# 2 -0.001419 0.015489 -0.005654 0.000000 0.000000 0.000000
# 3 -0.005573 -0.005654 0.012869 0.000000 0.000000 0.000000
# 4 0.000000 0.000000 0.000000 0.033264 0.000000 0.000000
# 5 0.000000 0.000000 0.000000 0.000000 0.036038 0.000000
# 6 0.000000 0.000000 0.000000 0.000000 0.000000 0.043175
#
#
# Mechanical properties :
#
#
# Convention : Reuss Voigt Hill
#
# Bulk Modulus (GPa) = 64.43535 69.62520 67.03027
# Shear Modulus (GPa) = 27.21024 28.06894 27.63959
#
# Velocity S-wave (km/s) = 3.61144 3.66798 3.63982
# Velocity P-wave (km/s) = 6.94805 7.16323 7.05646
#
# Compressibility (1/GPa) = 0.01551943
#
# Stress axis : x y z
#
# Youngs Moduli (GPa) = 80.29815 64.56088 77.70552
#
# Poissons Ratio (x) = 0.09164 0.43304
# Poissons Ratio (y) = 0.11398 0.43934
# Poissons Ratio (z) = 0.44749 0.36502
#
# Static dielectric constant tensor:
#      x y z
#    x 3.739320 0.000000 0.000000 
#    y 0.000000 3.679350 0.000000 
#    z 0.000000 0.000000 3.995990 
# 
# 
# High freq. dielectric constant tensor:
#      x y z
#    x 1.805510 0.000000 0.000000 
#    y 0.000000 1.811180 0.000000 
#    z 0.000000 0.000000 1.825170 
# 
# From -- ./inp_files/3663.got.cif
#   From: 2010.03.12/outbox.cif.g09.slc.cpg/sg27_2_cif.got.tgz:3663.got - 2010.04.14 03:36:05.
