data_PCOD8167149
_publ_section_title
;
Structure prediction by ZEFSAII (Michael W. Deem and Ramdas Pophale) SiO2 
 PCOD8167149
Probable space group: P M C 21
;
_chemical_formula_sum "Si O2"
_cell_formula_units_Z 32
_cell_length_a 9.116690
_cell_length_b 10.086487
_cell_length_c 19.336120
_cell_angle_alpha 90.000000
_cell_angle_beta 90.000000
_cell_angle_gamma 90.000000
_cell_volume 1778.060169
_symmetry_space_group_name_H-M "P M C 21"
_symmetry_group_IT_number 26
_symmetry_cell_setting 'orthorhombic'
loop_
_space_group_symop_operation_xyz
x,y,z
-x,-y,1/2+z
-x,y,z
x,-y,1/2+z
loop_
_atom_site_type_symbol
_atom_site_label
_atom_site_fract_x
_atom_site_fract_y
_atom_site_fract_z
Si Si1 0.327072 0.225817 0.943800
Si Si2 0.827617 0.859161 0.157999
Si Si3 0.326474 0.779956 0.289759
Si Si4 0.671212 0.092139 0.081620
Si Si5 0.327819 0.517657 0.795365
Si Si6 0.329917 0.364060 0.154413
Si Si7 0.827860 0.404338 0.577103
Si Si8 0.326502 0.527022 0.946604
O O1 0.500000 0.233609 0.949479
O O2 0.282850 0.172236 0.867529
O O3 0.271376 0.375439 0.955974
O O4 0.269458 0.130055 0.004796
O O5 0.754873 0.871901 0.233809
O O6 0.784932 0.717424 0.126070
O O7 0.000000 0.879047 0.165297
O O8 0.765330 0.969491 0.106988
O O9 0.500000 0.792261 0.277491
O O10 0.266462 0.629714 0.280197
O O11 0.500000 0.053783 0.080329
O O12 0.699935 0.213477 0.133806
O O13 0.500000 0.497980 0.801112
O O14 0.282353 0.618465 0.734660
O O15 0.275582 0.573742 0.869702
O O16 0.500000 0.402348 0.143423
O O17 0.234704 0.460260 0.107659
O O18 0.756248 0.380772 0.501792
O O19 0.000000 0.417829 0.568348
O O20 0.500000 0.541925 0.957770
#
# Coordination Sequence:
#
# PCOD8167149 Si02
#       8
#     4   4   4   4   4   4   4   4
#     4   8  15  30  54  84 107 127 168 224 269 315
#     4  11  24  38  50  73 112 149 184 219 255 309
#     4   9  16  31  57  81 103 134 174 219 268 317
#     4  10  20  35  56  80 107 139 176 219 268 315
#     4   8  15  28  53  85 108 130 167 219 272 315
#     4  10  18  33  58  83 105 131 170 220 269 317
#     4  11  22  34  50  76 108 141 177 216 259 310
#     4   9  16  31  54  80 108 135 170 220 268 312
#
# _framework density 17.997140999999999
#
# number of rings (size 3 to 8) (size 9 to 14) (size 15 to 20)
#    0.000    2.500    2.500    2.250    0.000    2.000 
#    0.000    5.000    0.000    6.000    0.000    0.000 
#    0.000    0.000    0.000    0.000    0.000    0.000 
#
# Total GULP energy -396670.464653 kJ/mol
# GULP energy per Si atom -12395.952020 kJ/mol
# Density = 1.795618 g / cm^3
# Si number density = 17.997141 Si / 1000 Ang^3
#
#
#
# Elastic Constant Matrix: (Units=GPa)
#
#
# Indices 1 2 3 4 5 6 
#
# 1 52.0677 30.2515 45.7774 0.0000 0.0000 0.0000
# 2 30.2515 40.0504 30.8775 0.0000 0.0000 0.0000
# 3 45.7774 30.8775 151.5831 0.0000 0.0000 0.0000
# 4 0.0000 0.0000 0.0000 30.1624 0.0000 0.0000
# 5 0.0000 0.0000 0.0000 0.0000 8.4390 0.0000
# 6 0.0000 0.0000 0.0000 0.0000 0.0000 20.7367
#
#
#
# Elastic Compliance Matrix: (Units=1/GPa)
#
#
# Indices 1 2 3 4 5 6 
#
# 1 0.039570 -0.024528 -0.006954 0.000000 0.000000 0.000000
# 2 -0.024528 0.044824 -0.001723 0.000000 0.000000 0.000000
# 3 -0.006954 -0.001723 0.009048 0.000000 0.000000 0.000000
# 4 0.000000 0.000000 0.000000 0.033154 0.000000 0.000000
# 5 0.000000 0.000000 0.000000 0.000000 0.118497 0.000000
# 6 0.000000 0.000000 0.000000 0.000000 0.000000 0.048224
#
#
# Mechanical properties :
#
#
# Convention : Reuss Voigt Hill
#
# Bulk Modulus (GPa) = 36.99243 50.83487 43.91365
# Shear Modulus (GPa) = 13.55981 20.98727 17.27354
#
# Velocity S-wave (km/s) = 2.74787 3.41859 3.10141
# Velocity P-wave (km/s) = 5.53777 6.62493 6.10560
#
# Compressibility (1/GPa) = 0.02703256
#
# Stress axis : x y z
#
# Youngs Moduli (GPa) = 25.27172 22.30960 110.52066
#
# Poissons Ratio (x) = 0.54720 0.76853
# Poissons Ratio (y) = 0.61985 0.19047
# Poissons Ratio (z) = 0.17573 0.03845
#
# Static dielectric constant tensor:
#      x y z
#    x 2.991870 0.000000 0.000000 
#    y 0.000000 3.077230 0.000000 
#    z 0.000000 0.000000 3.950320 
# 
# 
# High freq. dielectric constant tensor:
#      x y z
#    x 1.664810 0.000000 0.000000 
#    y 0.000000 1.663820 0.000000 
#    z 0.000000 0.000000 1.720570 
# 
# From -- ./inp_files/5077.got.cif
#   From: 2010.03.12/outbox.cif.g09.slc.cpg/sg26_3_cif.got.tgz:5077.got - 2010.04.14 03:33:09.
