data_PCOD8167016
_publ_section_title
;
Structure prediction by ZEFSAII (Michael W. Deem and Ramdas Pophale) SiO2 
 PCOD8167016
Probable space group: P M M 2
;
_chemical_formula_sum "Si O2"
_cell_formula_units_Z 28
_cell_length_a 9.213067
_cell_length_b 9.370985
_cell_length_c 18.235057
_cell_angle_alpha 90.000000
_cell_angle_beta 90.000000
_cell_angle_gamma 90.000000
_cell_volume 1574.332994
_symmetry_space_group_name_H-M "P M M 2"
_symmetry_group_IT_number 25
_symmetry_cell_setting 'orthorhombic'
loop_
_space_group_symop_operation_xyz
x,y,z
-x,-y,z
-x,y,z
x,-y,z
loop_
_atom_site_type_symbol
_atom_site_label
_atom_site_fract_x
_atom_site_fract_y
_atom_site_fract_z
Si Si1 0.172730 0.339327 0.625000
Si Si2 0.173322 0.838766 0.488921
Si Si3 0.827336 0.661520 0.350427
Si Si4 0.169781 0.834535 0.209199
Si Si5 0.663768 0.830284 0.065764
Si Si6 0.827612 0.339850 0.786677
Si Si7 0.831633 0.833006 0.924087
O O1 0.227839 0.500000 0.608554
O O2 0.234569 0.232082 0.563629
O O3 0.226760 0.289660 0.705933
O O4 0.000000 0.338345 0.622581
O O5 0.233285 0.747184 0.420589
O O6 0.000000 0.838991 0.488587
O O7 0.232935 0.000000 0.483372
O O8 0.766277 0.500000 0.351305
O O9 0.773723 0.742223 0.277601
O O10 0.000000 0.659954 0.352758
O O11 0.253976 0.776193 0.138177
O O12 0.000000 0.812289 0.194589
O O13 0.204450 0.000000 0.225545
O O14 0.500000 0.771430 0.066486
O O15 0.667422 0.000000 0.064281
O O16 0.745152 0.771142 0.993829
O O17 0.772845 0.500000 0.801952
O O18 0.766385 0.238501 0.850583
O O19 0.000000 0.334181 0.787464
O O20 0.000000 0.795129 0.935932
O O21 0.807264 0.000000 0.914904
#
# Coordination Sequence:
#
# PCOD8167016 Si02
#       7
#     4   4   4   4   4   4   4
#     4   8  13  21  32  47  72 107 141 169 201 244
#     4   9  15  21  31  50  77 108 140 172 206 244
#     4   9  16  25  37  54  78 108 140 172 207 248
#     4   9  16  27  44  63  82 106 139 177 211 244
#     4   9  17  29  45  64  85 109 137 170 211 257
#     4   8  14  24  37  54  78 109 142 173 207 248
#     4   9  16  26  42  63  84 107 139 177 211 244
#
# _framework density 17.785309000000002
#
# number of rings (size 3 to 8) (size 9 to 14) (size 15 to 20)
#    0.000    3.286    0.000    2.143    0.000    5.714 
#    0.000    3.571    0.000    5.143    0.000    0.000 
#    0.000    1.143    0.000   11.143    0.000   13.429 
#
# Total GULP energy -347057.813156 kJ/mol
# GULP energy per Si atom -12394.921898 kJ/mol
# Density = 1.774483 g / cm^3
# Si number density = 17.785309 Si / 1000 Ang^3
#
#
#
# Elastic Constant Matrix: (Units=GPa)
#
#
# Indices 1 2 3 4 5 6 
#
# 1 30.9178 21.3681 38.7928 0.0000 0.0000 0.0000
# 2 21.3681 98.8849 88.5861 0.0000 0.0000 0.0000
# 3 38.7928 88.5861 203.9991 0.0000 0.0000 0.0000
# 4 0.0000 0.0000 0.0000 27.8337 0.0000 0.0000
# 5 0.0000 0.0000 0.0000 0.0000 1.4021 0.0000
# 6 0.0000 0.0000 0.0000 0.0000 0.0000 5.0454
#
#
#
# Elastic Compliance Matrix: (Units=1/GPa)
#
#
# Indices 1 2 3 4 5 6 
#
# 1 0.043099 -0.003226 -0.006795 0.000000 0.000000 0.000000
# 2 -0.003226 0.016793 -0.006679 0.000000 0.000000 0.000000
# 3 -0.006795 -0.006679 0.009094 0.000000 0.000000 0.000000
# 4 0.000000 0.000000 0.000000 0.035928 0.000000 0.000000
# 5 0.000000 0.000000 0.000000 0.000000 0.713225 0.000000
# 6 0.000000 0.000000 0.000000 0.000000 0.000000 0.198201
#
#
# Mechanical properties :
#
#
# Convention : Reuss Voigt Hill
#
# Bulk Modulus (GPa) = 28.10027 70.14400 49.12214
# Shear Modulus (GPa) = 4.70986 19.19321 11.95154
#
# Velocity S-wave (km/s) = 1.62909 3.28862 2.59509
# Velocity P-wave (km/s) = 4.40143 7.34472 6.05465
#
# Compressibility (1/GPa) = 0.03558684
#
# Stress axis : x y z
#
# Youngs Moduli (GPa) = 23.20238 59.54774 109.95758
#
# Poissons Ratio (x) = 0.19211 0.74714
# Poissons Ratio (y) = 0.07485 0.73440
# Poissons Ratio (z) = 0.15766 0.39772
#
# Static dielectric constant tensor:
#      x y z
#    x 2.688640 0.000000 0.000000 
#    y 0.000000 3.271160 0.000000 
#    z 0.000000 0.000000 3.712330 
# 
# 
# High freq. dielectric constant tensor:
#      x y z
#    x 1.615060 0.000000 0.000000 
#    y 0.000000 1.672680 0.000000 
#    z 0.000000 0.000000 1.709110 
# 
# From -- ./inp_files/6399.got.cif
#   From: 2010.03.12/outbox.cif.g09.slc.cpg/sg25_4_cif.got.tgz:6399.got - 2010.04.14 03:30:10.
