data_PCOD8167608
_publ_section_title
;
Structure prediction by ZEFSAII (Michael W. Deem and Ramdas Pophale) SiO2 
 PCOD8167608
Probable space group: P M C 21
;
_chemical_formula_sum "Si O2"
_cell_formula_units_Z 32
_cell_length_a 8.967268
_cell_length_b 9.979610
_cell_length_c 19.779101
_cell_angle_alpha 90.000000
_cell_angle_beta 90.000000
_cell_angle_gamma 90.000000
_cell_volume 1770.028533
_symmetry_space_group_name_H-M "P M C 21"
_symmetry_group_IT_number 26
_symmetry_cell_setting 'orthorhombic'
loop_
_space_group_symop_operation_xyz
x,y,z
-x,-y,1/2+z
-x,y,z
x,-y,1/2+z
loop_
_atom_site_type_symbol
_atom_site_label
_atom_site_fract_x
_atom_site_fract_y
_atom_site_fract_z
Si Si1 0.825888 0.813042 0.959660
Si Si2 0.324378 0.675861 0.579088
Si Si3 0.323611 0.545754 0.324948
Si Si4 0.324473 0.453672 0.472610
Si Si5 0.829294 0.893719 0.498050
Si Si6 0.823207 0.655420 0.722009
Si Si7 0.175850 0.107147 0.314831
Si Si8 0.173349 0.182099 0.844054
O O1 0.744540 0.688247 0.994867
O O2 0.757916 0.831019 0.884120
O O3 0.000000 0.780716 0.957123
O O4 0.794862 0.947806 0.002278
O O5 0.500000 0.673597 0.591136
O O6 0.270307 0.565466 0.525241
O O7 0.277091 0.821382 0.551751
O O8 0.242434 0.641649 0.648065
O O9 0.500000 0.533628 0.316434
O O10 0.268277 0.494653 0.398068
O O11 0.243209 0.461137 0.267669
O O12 0.275164 0.699480 0.315725
O O13 0.500000 0.440608 0.474124
O O14 0.796914 0.839016 0.423330
O O15 0.000000 0.865481 0.518281
O O16 0.775724 0.800824 0.751957
O O17 0.000000 0.639998 0.720132
O O18 0.000000 0.103924 0.325756
O O19 0.226665 0.952976 0.304671
O O20 0.000000 0.214459 0.830343
#
# Coordination Sequence:
#
# PCOD8167608 Si02
#       8
#     4   4   4   4   4   4   4   4
#     4   9  17  32  56  84 110 136 178 231 276 318
#     4  11  23  39  55  78 115 153 187 227 279 338
#     4  11  21  35  54  83 116 147 183 228 279 333
#     4  10  21  35  53  80 114 148 183 225 276 329
#     4   9  18  33  55  83 110 139 180 227 274 326
#     4  11  22  38  59  82 109 147 190 232 282 335
#     4   8  16  32  54  81 109 135 173 228 277 320
#     4   9  17  32  56  83 109 139 178 226 273 321
#
# _framework density 18.078807000000001
#
# number of rings (size 3 to 8) (size 9 to 14) (size 15 to 20)
#    0.000    2.250    2.500    2.625    0.000    2.000 
#    0.000    4.375    0.000    1.500    0.000    0.000 
#    0.000    0.000    0.000    0.000    0.000    0.000 
#
# Total GULP energy -396800.075680 kJ/mol
# GULP energy per Si atom -12400.002365 kJ/mol
# Density = 1.803766 g / cm^3
# Si number density = 18.078807 Si / 1000 Ang^3
#
#
#
# Elastic Constant Matrix: (Units=GPa)
#
#
# Indices 1 2 3 4 5 6 
#
# 1 50.9939 43.1231 37.3083 0.0000 0.0000 0.0000
# 2 43.1231 140.6176 56.0155 0.0000 0.0000 0.0000
# 3 37.3083 56.0155 94.8496 0.0000 0.0000 0.0000
# 4 0.0000 0.0000 0.0000 23.0420 0.0000 0.0000
# 5 0.0000 0.0000 0.0000 0.0000 27.2057 0.0000
# 6 0.0000 0.0000 0.0000 0.0000 0.0000 24.9946
#
#
#
# Elastic Compliance Matrix: (Units=1/GPa)
#
#
# Indices 1 2 3 4 5 6 
#
# 1 0.031072 -0.006094 -0.008623 0.000000 0.000000 0.000000
# 2 -0.006094 0.010494 -0.003801 0.000000 0.000000 0.000000
# 3 -0.008623 -0.003801 0.016179 0.000000 0.000000 0.000000
# 4 0.000000 0.000000 0.000000 0.043399 0.000000 0.000000
# 5 0.000000 0.000000 0.000000 0.000000 0.036757 0.000000
# 6 0.000000 0.000000 0.000000 0.000000 0.000000 0.040009
#
#
# Mechanical properties :
#
#
# Convention : Reuss Voigt Hill
#
# Bulk Modulus (GPa) = 48.28431 62.15054 55.21742
# Shear Modulus (GPa) = 22.53777 25.04941 23.79359
#
# Velocity S-wave (km/s) = 3.53461 3.72636 3.63175
# Velocity P-wave (km/s) = 6.58966 7.27781 6.94227
#
# Compressibility (1/GPa) = 0.02071066
#
# Stress axis : x y z
#
# Youngs Moduli (GPa) = 32.18293 95.28992 61.80688
#
# Poissons Ratio (x) = 0.58068 0.53297
# Poissons Ratio (y) = 0.19612 0.23491
# Poissons Ratio (z) = 0.27752 0.36216
#
# Static dielectric constant tensor:
#      x y z
#    x 3.145960 0.000000 0.000000 
#    y 0.000000 3.551890 0.000000 
#    z 0.000000 0.000000 3.178440 
# 
# 
# High freq. dielectric constant tensor:
#      x y z
#    x 1.688710 0.000000 0.000000 
#    y 0.000000 1.714810 0.000000 
#    z 0.000000 0.000000 1.674790 
# 
# From -- ./inp_files/5554.got.cif
#   From: 2010.03.12/outbox.cif.g09.slc.cpg/sg26_3_cif.got.tgz:5554.got - 2010.04.14 03:33:09.
