data_PCOD8167780
_publ_section_title
;
Structure prediction by ZEFSAII (Michael W. Deem and Ramdas Pophale) SiO2 
 PCOD8167780
Probable space group: P C C 2
;
_chemical_formula_sum "Si O2"
_cell_formula_units_Z 32
_cell_length_a 13.723466
_cell_length_b 25.555702
_cell_length_c 5.279019
_cell_angle_alpha 90.000000
_cell_angle_beta 90.000000
_cell_angle_gamma 90.000000
_cell_volume 1851.419574
_symmetry_space_group_name_H-M "P C C 2"
_symmetry_group_IT_number 27
_symmetry_cell_setting 'orthorhombic'
loop_
_space_group_symop_operation_xyz
x,y,z
-x,-y,z
-x,y,1/2+z
x,-y,1/2+z
loop_
_atom_site_type_symbol
_atom_site_label
_atom_site_fract_x
_atom_site_fract_y
_atom_site_fract_z
Si Si1 0.888788 0.021964 0.046070
Si Si2 0.239745 0.602719 0.592916
Si Si3 0.761972 0.330674 0.092945
Si Si4 0.058131 0.134803 0.607506
Si Si5 0.541163 0.695070 0.591135
Si Si6 0.959288 0.441765 0.515321
Si Si7 0.064017 0.250485 0.552061
Si Si8 0.458236 0.577752 0.593123
O O1 0.875107 0.084682 0.051745
O O2 0.835415 0.998270 0.292814
O O3 0.000000 0.000000 0.044016
O O4 0.227882 0.645554 0.373149
O O5 0.156573 0.558728 0.556027
O O6 0.342443 0.574047 0.566237
O O7 0.227616 0.626516 0.872217
O O8 0.656950 0.303944 0.066291
O O9 0.843695 0.287598 0.057550
O O10 0.107569 0.191296 0.560483
O O11 0.971084 0.130814 0.402350
O O12 0.493495 0.724188 0.348471
O O13 0.496690 0.636930 0.617404
O O14 0.000000 0.500000 0.474617
O O15 0.987802 0.412507 0.251937
O O16 0.005836 0.260767 0.291944
O O17 0.507124 0.549123 0.351269
#
# Coordination Sequence:
#
# PCOD8167780 Si02
#       8
#     4   4   4   4   4   4   4   4
#     4  10  14  20  36  60  70  90 145 215 232 274
#     4  12  21  32  58  79  96 127 157 198 229 272
#     4  12  21  32  51  75 101 128 166 191 233 272
#     4  10  16  27  39  51  79 114 153 193 243 264
#     4  10  16  30  48  71 102 121 144 198 237 279
#     4  10  23  42  57  76 101 130 160 192 234 273
#     4  10  23  35  42  58  95 142 165 196 220 280
#     4  10  16  30  48  78 105 116 142 191 243 277
#
# _framework density 17.284034999999999
#
# number of rings (size 3 to 8) (size 9 to 14) (size 15 to 20)
#    0.000    1.500    7.500    1.500    0.000    3.000 
#    0.000    0.000    0.000    0.000    0.000   10.500 
#    0.000    0.000    0.000    0.000    0.000    3.750 
#
# Total GULP energy -396483.115417 kJ/mol
# GULP energy per Si atom -12390.097357 kJ/mol
# Density = 1.724470 g / cm^3
# Si number density = 17.284035 Si / 1000 Ang^3
#
#
#
# Elastic Constant Matrix: (Units=GPa)
#
#
# Indices 1 2 3 4 5 6 
#
# 1 91.0694 28.8926 10.3576 0.0000 0.0000 0.0000
# 2 28.8926 43.1860 5.3122 0.0000 0.0000 0.0000
# 3 10.3576 5.3122 136.6984 0.0000 0.0000 0.0000
# 4 0.0000 0.0000 0.0000 17.9181 0.0000 0.0000
# 5 0.0000 0.0000 0.0000 0.0000 22.5884 0.0000
# 6 0.0000 0.0000 0.0000 0.0000 0.0000 0.3176
#
#
#
# Elastic Compliance Matrix: (Units=1/GPa)
#
#
# Indices 1 2 3 4 5 6 
#
# 1 0.014006 -0.009284 -0.000700 0.000000 0.000000 0.000000
# 2 -0.009284 0.029421 -0.000440 0.000000 0.000000 0.000000
# 3 -0.000700 -0.000440 0.007386 0.000000 0.000000 0.000000
# 4 0.000000 0.000000 0.000000 0.055809 0.000000 0.000000
# 5 0.000000 0.000000 0.000000 0.000000 0.044271 0.000000
# 6 0.000000 0.000000 0.000000 0.000000 0.000000 3.148985
#
#
# Mechanical properties :
#
#
# Convention : Reuss Voigt Hill
#
# Bulk Modulus (GPa) = 33.37382 40.00873 36.69127
# Shear Modulus (GPa) = 1.50118 23.25756 12.37937
#
# Velocity S-wave (km/s) = 0.93296 3.67223 2.67915
# Velocity P-wave (km/s) = 4.52896 6.41704 5.55383
#
# Compressibility (1/GPa) = 0.02996361
#
# Stress axis : x y z
#
# Youngs Moduli (GPa) = 71.39919 33.98926 135.39969
#
# Poissons Ratio (x) = 0.31556 0.09484
# Poissons Ratio (y) = 0.66288 0.05956
# Poissons Ratio (z) = 0.05001 0.01495
#
# Static dielectric constant tensor:
#      x y z
#    x 2.983750 0.000000 0.000000 
#    y 0.000000 3.018380 0.000000 
#    z 0.000000 0.000000 4.994510 
# 
# 
# High freq. dielectric constant tensor:
#      x y z
#    x 1.624420 0.000000 0.000000 
#    y 0.000000 1.623360 0.000000 
#    z 0.000000 0.000000 1.715840 
# 
# From -- ./inp_files/396.got.cif
#   From: 2010.03.12/outbox.cif.g09.slc.cpg/sg27_1_cif.got.tgz:396.got - 2010.04.14 03:36:05.
