data_PCOD8167724
_publ_section_title
;
Structure prediction by ZEFSAII (Michael W. Deem and Ramdas Pophale) SiO2 
 PCOD8167724
Probable space group: P M C 21
;
_chemical_formula_sum "Si O2"
_cell_formula_units_Z 32
_cell_length_a 8.570882
_cell_length_b 15.219977
_cell_length_c 11.948149
_cell_angle_alpha 90.000000
_cell_angle_beta 90.000000
_cell_angle_gamma 90.000000
_cell_volume 1558.619631
_symmetry_space_group_name_H-M "P M C 21"
_symmetry_group_IT_number 26
_symmetry_cell_setting 'orthorhombic'
loop_
_space_group_symop_operation_xyz
x,y,z
-x,-y,1/2+z
-x,y,z
x,-y,1/2+z
loop_
_atom_site_type_symbol
_atom_site_label
_atom_site_fract_x
_atom_site_fract_y
_atom_site_fract_z
Si Si1 0.820611 0.592748 0.698350
Si Si2 0.818941 0.910873 0.683421
Si Si3 0.822645 0.345905 0.959068
Si Si4 0.683187 0.754289 0.826589
Si Si5 0.319122 0.592372 0.238666
Si Si6 0.685022 0.747910 0.081925
Si Si7 0.320415 0.092468 0.732281
Si Si8 0.322902 0.167235 0.977686
O O1 0.789107 0.592493 0.565501
O O2 0.716102 0.663812 0.762455
O O3 0.780092 0.495949 0.739189
O O4 0.000000 0.614492 0.725406
O O5 0.768734 0.836111 0.770595
O O6 0.723197 0.906423 0.567653
O O7 0.000000 0.900049 0.658433
O O8 0.785124 0.006367 0.732975
O O9 0.700706 0.366320 0.861363
O O10 0.794009 0.247189 0.000845
O O11 0.000000 0.356811 0.916442
O O12 0.500000 0.773180 0.824522
O O13 0.744080 0.745944 0.954360
O O14 0.500000 0.570966 0.217590
O O15 0.253031 0.661064 0.146566
O O16 0.500000 0.746579 0.091010
O O17 0.744943 0.836620 0.142720
O O18 0.500000 0.067983 0.707119
O O19 0.301143 0.132574 0.854014
O O20 0.500000 0.197689 0.998979
#
# Coordination Sequence:
#
# PCOD8167724 Si02
#       8
#     4   4   4   4   4   4   4   4
#     4  11  25  43  62  93 131 168 208 262 321 375
#     4  12  26  42  61  94 133 167 206 259 318 381
#     4  11  23  41  65  93 129 165 205 263 323 377
#     4  11  23  42  67  93 123 168 216 262 310 372
#     4  11  23  42  67  95 125 165 214 263 312 379
#     4   9  21  42  65  93 124 157 209 265 312 362
#     4  10  22  43  67  93 123 163 211 262 312 372
#     4  11  22  41  70  94 120 163 215 266 312 370
#
# _framework density 20.530988000000001
#
# number of rings (size 3 to 8) (size 9 to 14) (size 15 to 20)
#    0.000    1.250    2.500    3.000    3.500    2.500 
#    0.000    2.500    0.000    0.000    0.000    0.000 
#    0.000    0.000    0.000    0.000    0.000    0.000 
#
# Total GULP energy -396952.081929 kJ/mol
# GULP energy per Si atom -12404.752560 kJ/mol
# Density = 2.048426 g / cm^3
# Si number density = 20.530988 Si / 1000 Ang^3
#
#
#
# Elastic Constant Matrix: (Units=GPa)
#
#
# Indices 1 2 3 4 5 6 
#
# 1 52.9064 24.3975 44.5899 0.0000 0.0000 0.0000
# 2 24.3975 118.4807 31.2127 0.0000 0.0000 0.0000
# 3 44.5899 31.2127 112.3624 0.0000 0.0000 0.0000
# 4 0.0000 0.0000 0.0000 18.8608 0.0000 0.0000
# 5 0.0000 0.0000 0.0000 0.0000 23.3137 0.0000
# 6 0.0000 0.0000 0.0000 0.0000 0.0000 23.7854
#
#
#
# Elastic Compliance Matrix: (Units=1/GPa)
#
#
# Indices 1 2 3 4 5 6 
#
# 1 0.029501 -0.003227 -0.010811 0.000000 0.000000 0.000000
# 2 -0.003227 0.009460 -0.001347 0.000000 0.000000 0.000000
# 3 -0.010811 -0.001347 0.013564 0.000000 0.000000 0.000000
# 4 0.000000 0.000000 0.000000 0.053020 0.000000 0.000000
# 5 0.000000 0.000000 0.000000 0.000000 0.042893 0.000000
# 6 0.000000 0.000000 0.000000 0.000000 0.000000 0.042043
#
#
# Mechanical properties :
#
#
# Convention : Reuss Voigt Hill
#
# Bulk Modulus (GPa) = 45.96649 53.79439 49.88044
# Shear Modulus (GPa) = 21.88170 25.42859 23.65515
#
# Velocity S-wave (km/s) = 3.26818 3.52312 3.39804
# Velocity P-wave (km/s) = 6.05630 6.54280 6.30425
#
# Compressibility (1/GPa) = 0.02175498
#
# Stress axis : x y z
#
# Youngs Moduli (GPa) = 33.89756 105.71317 73.72386
#
# Poissons Ratio (x) = 0.34111 0.79701
# Poissons Ratio (y) = 0.10938 0.09932
# Poissons Ratio (z) = 0.36646 0.14242
#
# Static dielectric constant tensor:
#      x y z
#    x 3.540100 0.000000 0.000000 
#    y 0.000000 3.725720 0.000000 
#    z 0.000000 0.000000 3.835110 
# 
# 
# High freq. dielectric constant tensor:
#      x y z
#    x 1.793710 0.000000 0.000000 
#    y 0.000000 1.808770 0.000000 
#    z 0.000000 0.000000 1.815350 
# 
# From -- ./inp_files/3030.got.cif
#   From: 2010.03.12/outbox.cif.g09.slc.cpg/sg26_2_cif.got.tgz:3030.got - 2010.04.14 03:33:09.
