data_PCOD8167411
_publ_section_title
;
Structure prediction by ZEFSAII (Michael W. Deem and Ramdas Pophale) SiO2 
 PCOD8167411
Probable space group: P M C 21
;
_chemical_formula_sum "Si O2"
_cell_formula_units_Z 32
_cell_length_a 8.868149
_cell_length_b 15.272167
_cell_length_c 11.896431
_cell_angle_alpha 90.000000
_cell_angle_beta 90.000000
_cell_angle_gamma 90.000000
_cell_volume 1611.203274
_symmetry_space_group_name_H-M "P M C 21"
_symmetry_group_IT_number 26
_symmetry_cell_setting 'orthorhombic'
loop_
_space_group_symop_operation_xyz
x,y,z
-x,-y,1/2+z
-x,y,z
x,-y,1/2+z
loop_
_atom_site_type_symbol
_atom_site_label
_atom_site_fract_x
_atom_site_fract_y
_atom_site_fract_z
Si Si1 0.673920 0.593238 0.628420
Si Si2 0.672553 0.910505 0.645922
Si Si3 0.824764 0.349785 0.918340
Si Si4 0.821552 0.748584 0.767950
Si Si5 0.328137 0.604344 0.192300
Si Si6 0.323217 0.745978 0.010235
Si Si7 0.321083 0.104300 0.679493
Si Si8 0.328166 0.174884 0.916343
O O1 0.500000 0.621056 0.624954
O O2 0.737223 0.585021 0.501826
O O3 0.761043 0.664905 0.700880
O O4 0.697517 0.498475 0.681417
O O5 0.500000 0.905006 0.688742
O O6 0.765811 0.839050 0.714329
O O7 0.680283 0.898210 0.511989
O O8 0.743967 0.006605 0.664393
O O9 0.780139 0.362790 0.789867
O O10 0.779244 0.252713 0.957153
O O11 0.000000 0.365499 0.934252
O O12 0.000000 0.746246 0.762815
O O13 0.769248 0.742240 0.896124
O O14 0.500000 0.625931 0.226212
O O15 0.288471 0.656741 0.078682
O O16 0.500000 0.753657 0.982184
O O17 0.265567 0.829556 0.082411
O O18 0.500000 0.100511 0.677081
O O19 0.263634 0.137532 0.800042
O O20 0.500000 0.208899 0.901045
#
# Coordination Sequence:
#
# PCOD8167411 Si02
#       8
#     4   4   4   4   4   4   4   4
#     4  11  24  43  67  92 119 161 213 259 299 358
#     4  10  21  37  64  94 119 159 207 256 303 360
#     4  12  24  39  63  93 128 162 199 252 313 369
#     4  12  26  42  59  88 128 166 200 251 315 375
#     4  10  23  43  68  93 119 158 209 255 302 360
#     4  10  21  41  66  91 120 160 205 254 303 363
#     4   9  19  36  64  96 120 152 208 260 301 352
#     4  10  19  37  63  89 121 160 207 257 300 355
#
# _framework density 19.860931999999998
#
# number of rings (size 3 to 8) (size 9 to 14) (size 15 to 20)
#    0.000    1.500    2.500    2.625    3.500    1.500 
#    0.000    1.250    0.000    0.000    0.000    0.000 
#    0.000    0.000    0.000    0.000    0.000    0.000 
#
# Total GULP energy -396872.944625 kJ/mol
# GULP energy per Si atom -12402.279520 kJ/mol
# Density = 1.981573 g / cm^3
# Si number density = 19.860932 Si / 1000 Ang^3
#
#
#
# Elastic Constant Matrix: (Units=GPa)
#
#
# Indices 1 2 3 4 5 6 
#
# 1 101.3053 49.1045 47.4470 0.0000 0.0000 0.0000
# 2 49.1045 114.4823 39.9933 0.0000 0.0000 0.0000
# 3 47.4470 39.9933 114.3287 0.0000 0.0000 0.0000
# 4 0.0000 0.0000 0.0000 27.9277 0.0000 0.0000
# 5 0.0000 0.0000 0.0000 0.0000 20.1845 0.0000
# 6 0.0000 0.0000 0.0000 0.0000 0.0000 1.3309
#
#
#
# Elastic Compliance Matrix: (Units=1/GPa)
#
#
# Indices 1 2 3 4 5 6 
#
# 1 0.014065 -0.004550 -0.004245 0.000000 0.000000 0.000000
# 2 -0.004550 0.011423 -0.002108 0.000000 0.000000 0.000000
# 3 -0.004245 -0.002108 0.011246 0.000000 0.000000 0.000000
# 4 0.000000 0.000000 0.000000 0.035807 0.000000 0.000000
# 5 0.000000 0.000000 0.000000 0.000000 0.049543 0.000000
# 6 0.000000 0.000000 0.000000 0.000000 0.000000 0.751347
#
#
# Mechanical properties :
#
#
# Convention : Reuss Voigt Hill
#
# Bulk Modulus (GPa) = 66.98870 67.02288 67.00579
# Shear Modulus (GPa) = 5.55425 22.79339 14.17382
#
# Velocity S-wave (km/s) = 1.67411 3.39137 2.67433
# Velocity P-wave (km/s) = 6.12690 7.01103 6.58383
#
# Compressibility (1/GPa) = 0.01492789
#
# Stress axis : x y z
#
# Youngs Moduli (GPa) = 71.09927 87.54462 88.92152
#
# Poissons Ratio (x) = 0.39830 0.37751
# Poissons Ratio (y) = 0.32348 0.18742
# Poissons Ratio (z) = 0.30185 0.18451
#
# Static dielectric constant tensor:
#      x y z
#    x 3.403070 0.000000 0.000000 
#    y 0.000000 3.773010 0.000000 
#    z 0.000000 0.000000 3.717010 
# 
# 
# High freq. dielectric constant tensor:
#      x y z
#    x 1.749410 0.000000 0.000000 
#    y 0.000000 1.783500 0.000000 
#    z 0.000000 0.000000 1.788810 
# 
# From -- ./inp_files/2980.got.cif
#   From: 2010.03.12/outbox.cif.g09.slc.cpg/sg26_2_cif.got.tgz:2980.got - 2010.04.14 03:33:09.
