data_PCOD8167520
_publ_section_title
;
Structure prediction by ZEFSAII (Michael W. Deem and Ramdas Pophale) SiO2 
 PCOD8167520
Probable space group: P M C 21
;
_chemical_formula_sum "Si O2"
_cell_formula_units_Z 32
_cell_length_a 13.266095
_cell_length_b 7.914912
_cell_length_c 15.225816
_cell_angle_alpha 90.000000
_cell_angle_beta 90.000000
_cell_angle_gamma 90.000000
_cell_volume 1598.710292
_symmetry_space_group_name_H-M "P M C 21"
_symmetry_group_IT_number 26
_symmetry_cell_setting 'orthorhombic'
loop_
_space_group_symop_operation_xyz
x,y,z
-x,-y,1/2+z
-x,y,z
x,-y,1/2+z
loop_
_atom_site_type_symbol
_atom_site_label
_atom_site_fract_x
_atom_site_fract_y
_atom_site_fract_z
Si Si1 0.116504 0.540576 0.771150
Si Si2 0.802837 0.017109 0.553495
Si Si3 0.383495 0.040576 0.821067
Si Si4 0.609926 0.170048 0.013352
Si Si5 0.697163 0.517109 0.038722
Si Si6 0.251434 0.736070 0.195424
Si Si7 0.890074 0.329952 0.078864
Si Si8 0.248566 0.236070 0.396793
O O1 0.177018 0.363705 0.761437
O O2 0.125413 0.647023 0.682295
O O3 0.167333 0.653497 0.845703
O O4 0.000000 0.502495 0.795531
O O5 0.691137 0.937526 0.567080
O O6 0.884246 0.868934 0.557692
O O7 0.819442 0.148362 0.632909
O O8 0.813305 0.107262 0.459123
O O9 0.500000 0.002495 0.796686
O O10 0.374587 0.147023 0.909922
O O11 0.332667 0.153496 0.746513
O O12 0.322982 0.863704 0.830780
O O13 0.500000 0.105195 0.042895
O O14 0.615754 0.368935 0.034525
O O15 0.686695 0.607262 0.133094
O O16 0.808863 0.437527 0.025137
O O17 0.680558 0.648363 0.959307
O O18 0.000000 0.394806 0.049322
#
# Coordination Sequence:
#
# PCOD8167520 Si02
#       8
#     4   4   4   4   4   4   4   4
#     4  10  21  36  55  78 107 144 180 221 273 322
#     4   9  19  34  55  79 104 140 177 220 270 314
#     4  10  21  36  55  78 107 144 180 221 273 322
#     4   9  18  34  54  77 105 136 174 219 270 323
#     4   9  19  34  55  79 104 140 177 220 270 314
#     4  10  20  36  54  77 110 141 181 225 265 320
#     4   9  18  34  54  77 105 136 174 219 270 323
#     4  10  20  36  54  77 110 141 181 225 265 320
#
# _framework density 20.016134000000001
#
# number of rings (size 3 to 8) (size 9 to 14) (size 15 to 20)
#    0.000    2.500    0.000    1.500    0.000    3.000 
#    0.000    6.250    0.000    0.000    0.000    0.000 
#    0.000    0.000    0.000    0.000    0.000    0.000 
#
# Total GULP energy -396779.394807 kJ/mol
# GULP energy per Si atom -12399.356088 kJ/mol
# Density = 1.997058 g / cm^3
# Si number density = 20.016134 Si / 1000 Ang^3
#
#
#
# Elastic Constant Matrix: (Units=GPa)
#
#
# Indices 1 2 3 4 5 6 
#
# 1 100.8561 29.9015 40.6241 0.0000 0.0000 0.0000
# 2 29.9015 98.5239 38.5377 0.0000 0.0000 0.0000
# 3 40.6241 38.5377 56.3195 0.0000 0.0000 0.0000
# 4 0.0000 0.0000 0.0000 44.6603 0.0000 0.0000
# 5 0.0000 0.0000 0.0000 0.0000 20.2692 0.0000
# 6 0.0000 0.0000 0.0000 0.0000 0.0000 23.2298
#
#
#
# Elastic Compliance Matrix: (Units=1/GPa)
#
#
# Indices 1 2 3 4 5 6 
#
# 1 0.013988 -0.000408 -0.009810 0.000000 0.000000 0.000000
# 2 -0.000408 0.013871 -0.009197 0.000000 0.000000 0.000000
# 3 -0.009810 -0.009197 0.031126 0.000000 0.000000 0.000000
# 4 0.000000 0.000000 0.000000 0.022391 0.000000 0.000000
# 5 0.000000 0.000000 0.000000 0.000000 0.049336 0.000000
# 6 0.000000 0.000000 0.000000 0.000000 0.000000 0.043048
#
#
# Mechanical properties :
#
#
# Convention : Reuss Voigt Hill
#
# Bulk Modulus (GPa) = 49.61996 52.64735 51.13365
# Shear Modulus (GPa) = 22.79889 27.40761 25.10325
#
# Velocity S-wave (km/s) = 3.37861 3.70439 3.54524
# Velocity P-wave (km/s) = 6.32960 6.68253 6.50846
#
# Compressibility (1/GPa) = 0.02015318
#
# Stress axis : x y z
#
# Youngs Moduli (GPa) = 71.49203 72.09190 32.12775
#
# Poissons Ratio (x) = 0.02940 0.31519
# Poissons Ratio (y) = 0.02916 0.29549
# Poissons Ratio (z) = 0.70136 0.66306
#
# Static dielectric constant tensor:
#      x y z
#    x 3.494530 0.000000 0.000000 
#    y 0.000000 3.800810 0.000000 
#    z 0.000000 0.000000 3.515890 
# 
# 
# High freq. dielectric constant tensor:
#      x y z
#    x 1.762530 0.000000 0.000000 
#    y 0.000000 1.790840 0.000000 
#    z 0.000000 0.000000 1.775710 
# 
# From -- ./inp_files/4668.got.cif
#   From: 2010.03.12/outbox.cif.g09.slc.cpg/sg26_3_cif.got.tgz:4668.got - 2010.04.14 03:33:09.
