data_PCOD8167627
_publ_section_title
;
Structure prediction by ZEFSAII (Michael W. Deem and Ramdas Pophale) SiO2 
 PCOD8167627
Probable space group: P M C 21
;
_chemical_formula_sum "Si O2"
_cell_formula_units_Z 32
_cell_length_a 8.940232
_cell_length_b 14.353237
_cell_length_c 12.403931
_cell_angle_alpha 90.000000
_cell_angle_beta 90.000000
_cell_angle_gamma 90.000000
_cell_volume 1591.688163
_symmetry_space_group_name_H-M "P M C 21"
_symmetry_group_IT_number 26
_symmetry_cell_setting 'orthorhombic'
loop_
_space_group_symop_operation_xyz
x,y,z
-x,-y,1/2+z
-x,y,z
x,-y,1/2+z
loop_
_atom_site_type_symbol
_atom_site_label
_atom_site_fract_x
_atom_site_fract_y
_atom_site_fract_z
Si Si1 0.173833 0.134955 0.696940
Si Si2 0.677870 0.951676 0.765529
Si Si3 0.329018 0.363406 0.408197
Si Si4 0.667520 0.176909 0.077600
Si Si5 0.335910 0.376405 0.164667
Si Si6 0.822958 0.169273 0.451197
Si Si7 0.172851 0.542849 0.478985
Si Si8 0.172933 0.266927 0.884077
O O1 0.225894 0.146487 0.573843
O O2 0.202470 0.231870 0.762188
O O3 0.000000 0.106996 0.703724
O O4 0.271124 0.058088 0.758689
O O5 0.500000 0.943081 0.776239
O O6 0.734801 0.904324 0.653722
O O7 0.748455 0.904921 0.871400
O O8 0.500000 0.340313 0.439375
O O9 0.313659 0.401724 0.287949
O O10 0.229310 0.273027 0.425619
O O11 0.267986 0.449241 0.476288
O O12 0.500000 0.150978 0.041421
O O13 0.670704 0.265567 0.155267
O O14 0.758194 0.193055 0.968119
O O15 0.500000 0.411113 0.123504
O O16 0.199299 0.421996 0.100440
O O17 0.000000 0.164033 0.437276
O O18 0.233410 0.626730 0.400234
O O19 0.000000 0.519982 0.458132
O O20 0.000000 0.269870 0.913473
#
# Coordination Sequence:
#
# PCOD8167627 Si02
#       8
#     4   4   4   4   4   4   4   4
#     4  10  24  43  61  88 126 166 205 253 308 366
#     4  11  23  40  62  90 122 158 202 255 308 368
#     4  11  22  39  62  89 123 162 205 255 310 369
#     4   9  18  35  58  84 113 147 193 249 301 354
#     4   9  18  36  57  80 113 154 198 250 303 356
#     4  11  24  42  64  91 125 164 208 257 310 369
#     4  10  21  36  58  90 121 159 207 256 309 368
#     4   9  20  39  60  84 119 158 202 253 305 358
#
# _framework density 20.104441999999999
#
# number of rings (size 3 to 8) (size 9 to 14) (size 15 to 20)
#    0.000    2.000    1.250    1.500    1.750    5.000 
#    0.000    1.250    0.000    0.000    0.000    0.000 
#    0.000    0.000    0.000    0.000    0.000    0.000 
#
# Total GULP energy -396726.596956 kJ/mol
# GULP energy per Si atom -12397.706155 kJ/mol
# Density = 2.005868 g / cm^3
# Si number density = 20.104442 Si / 1000 Ang^3
#
#
#
# Elastic Constant Matrix: (Units=GPa)
#
#
# Indices 1 2 3 4 5 6 
#
# 1 65.6430 31.4860 36.7996 0.0000 0.0000 0.0000
# 2 31.4860 85.9270 30.3351 0.0000 0.0000 0.0000
# 3 36.7996 30.3351 86.6398 0.0000 0.0000 0.0000
# 4 0.0000 0.0000 0.0000 25.6022 0.0000 0.0000
# 5 0.0000 0.0000 0.0000 0.0000 31.5420 0.0000
# 6 0.0000 0.0000 0.0000 0.0000 0.0000 29.8536
#
#
#
# Elastic Compliance Matrix: (Units=1/GPa)
#
#
# Indices 1 2 3 4 5 6 
#
# 1 0.022018 -0.005439 -0.007448 0.000000 0.000000 0.000000
# 2 -0.005439 0.014623 -0.002810 0.000000 0.000000 0.000000
# 3 -0.007448 -0.002810 0.015689 0.000000 0.000000 0.000000
# 4 0.000000 0.000000 0.000000 0.039059 0.000000 0.000000
# 5 0.000000 0.000000 0.000000 0.000000 0.031704 0.000000
# 6 0.000000 0.000000 0.000000 0.000000 0.000000 0.033497
#
#
# Mechanical properties :
#
#
# Convention : Reuss Voigt Hill
#
# Bulk Modulus (GPa) = 47.76146 48.38346 48.07246
# Shear Modulus (GPa) = 25.64622 26.70550 26.17586
#
# Velocity S-wave (km/s) = 3.57550 3.64859 3.61223
# Velocity P-wave (km/s) = 6.39170 6.47054 6.43124
#
# Compressibility (1/GPa) = 0.02093739
#
# Stress axis : x y z
#
# Youngs Moduli (GPa) = 45.41784 68.38734 63.73830
#
# Poissons Ratio (x) = 0.37194 0.47470
# Poissons Ratio (y) = 0.24701 0.17909
# Poissons Ratio (z) = 0.33826 0.19215
#
# Static dielectric constant tensor:
#      x y z
#    x 3.629260 0.000000 0.000000 
#    y 0.000000 3.616480 0.000000 
#    z 0.000000 0.000000 3.624720 
# 
# 
# High freq. dielectric constant tensor:
#      x y z
#    x 1.782850 0.000000 0.000000 
#    y 0.000000 1.783720 0.000000 
#    z 0.000000 0.000000 1.784060 
# 
# From -- ./inp_files/2969.got.cif
#   From: 2010.03.12/outbox.cif.g09.slc.cpg/sg26_2_cif.got.tgz:2969.got - 2010.04.14 03:33:09.
