data_PCOD8167332
_publ_section_title
;
Structure prediction by ZEFSAII (Michael W. Deem and Ramdas Pophale) SiO2 
 PCOD8167332
Probable space group: P M C 21
;
_chemical_formula_sum "Si O2"
_cell_formula_units_Z 32
_cell_length_a 9.228060
_cell_length_b 12.351204
_cell_length_c 14.213151
_cell_angle_alpha 90.000000
_cell_angle_beta 90.000000
_cell_angle_gamma 90.000000
_cell_volume 1619.981573
_symmetry_space_group_name_H-M "P M C 21"
_symmetry_group_IT_number 26
_symmetry_cell_setting 'orthorhombic'
loop_
_space_group_symop_operation_xyz
x,y,z
-x,-y,1/2+z
-x,y,z
x,-y,1/2+z
loop_
_atom_site_type_symbol
_atom_site_label
_atom_site_fract_x
_atom_site_fract_y
_atom_site_fract_z
Si Si1 0.667604 0.124661 0.301800
Si Si2 0.161799 0.361965 0.007577
Si Si3 0.827275 0.399426 0.547168
Si Si4 0.337516 0.464886 0.727491
Si Si5 0.834865 0.327579 0.226369
Si Si6 0.671710 0.096751 0.706304
Si Si7 0.668054 0.186886 0.508002
Si Si8 0.339907 0.733852 0.354016
O O1 0.500000 0.149417 0.277743
O O2 0.769335 0.218938 0.266379
O O3 0.687031 0.112440 0.415029
O O4 0.722763 0.018708 0.246258
O O5 0.253330 0.273476 0.950898
O O6 0.000000 0.352910 0.968999
O O7 0.213086 0.487172 0.995962
O O8 0.173524 0.325665 0.114588
O O9 0.755661 0.402065 0.649738
O O10 0.760312 0.296976 0.492169
O O11 0.000000 0.387210 0.557585
O O12 0.500000 0.491637 0.689750
O O13 0.258595 0.572365 0.764512
O O14 0.347729 0.387504 0.816265
O O15 0.000000 0.340446 0.261680
O O16 0.500000 0.104896 0.706338
O O17 0.726366 0.120223 0.599462
O O18 0.735161 0.186925 0.777827
O O19 0.500000 0.219588 0.522239
O O20 0.500000 0.778279 0.378084
#
# Coordination Sequence:
#
# PCOD8167332 Si02
#       8
#     4   4   4   4   4   4   4   4
#     4  10  22  38  62  89 112 152 203 244 296 353
#     4   9  21  37  53  80 118 158 193 232 289 350
#     4  10  20  35  55  83 117 157 197 237 292 350
#     4  10  19  34  57  86 117 150 191 241 292 346
#     4  10  22  40  57  80 120 159 192 240 297 349
#     4   9  19  39  60  85 119 151 193 247 297 346
#     4  10  20  37  59  84 116 153 193 247 297 347
#     4  10  20  34  57  87 115 150 192 238 290 343
#
# _framework density 19.753312000000001
#
# number of rings (size 3 to 8) (size 9 to 14) (size 15 to 20)
#    0.000    2.250    1.250    1.875    1.750    5.500 
#    0.000    3.750    0.000    0.000    0.000    0.000 
#    0.000    0.000    0.000    0.000    0.000    0.000 
#
# Total GULP energy -396706.333489 kJ/mol
# GULP energy per Si atom -12397.072922 kJ/mol
# Density = 1.970835 g / cm^3
# Si number density = 19.753312 Si / 1000 Ang^3
#
#
#
# Elastic Constant Matrix: (Units=GPa)
#
#
# Indices 1 2 3 4 5 6 
#
# 1 81.3377 35.7251 28.3335 0.0000 0.0000 0.0000
# 2 35.7251 102.0433 43.3071 0.0000 0.0000 0.0000
# 3 28.3335 43.3071 67.6243 0.0000 0.0000 0.0000
# 4 0.0000 0.0000 0.0000 28.6550 0.0000 0.0000
# 5 0.0000 0.0000 0.0000 0.0000 20.7593 0.0000
# 6 0.0000 0.0000 0.0000 0.0000 0.0000 17.1031
#
#
#
# Elastic Compliance Matrix: (Units=1/GPa)
#
#
# Indices 1 2 3 4 5 6 
#
# 1 0.015312 -0.003623 -0.004096 0.000000 0.000000 0.000000
# 2 -0.003623 0.014314 -0.007649 0.000000 0.000000 0.000000
# 3 -0.004096 -0.007649 0.021402 0.000000 0.000000 0.000000
# 4 0.000000 0.000000 0.000000 0.034898 0.000000 0.000000
# 5 0.000000 0.000000 0.000000 0.000000 0.048171 0.000000
# 6 0.000000 0.000000 0.000000 0.000000 0.000000 0.058469
#
#
# Mechanical properties :
#
#
# Convention : Reuss Voigt Hill
#
# Bulk Modulus (GPa) = 49.27592 51.74854 50.51223
# Shear Modulus (GPa) = 21.73285 22.87944 22.30615
#
# Velocity S-wave (km/s) = 3.32054 3.40701 3.36406
# Velocity P-wave (km/s) = 6.30089 6.45997 6.38092
#
# Compressibility (1/GPa) = 0.02029389
#
# Stress axis : x y z
#
# Youngs Moduli (GPa) = 65.30725 69.85995 46.72412
#
# Poissons Ratio (x) = 0.25307 0.19137
# Poissons Ratio (y) = 0.23658 0.35740
# Poissons Ratio (z) = 0.26748 0.53437
#
# Static dielectric constant tensor:
#      x y z
#    x 3.627730 0.000000 0.000000 
#    y 0.000000 3.585740 0.000000 
#    z 0.000000 0.000000 3.581320 
# 
# 
# High freq. dielectric constant tensor:
#      x y z
#    x 1.755500 0.000000 0.000000 
#    y 0.000000 1.761180 0.000000 
#    z 0.000000 0.000000 1.770290 
# 
# From -- ./inp_files/4270.got.cif
#   From: 2010.03.12/outbox.cif.g09.slc.cpg/sg26_3_cif.got.tgz:4270.got - 2010.04.14 03:33:09.
