data_PCOD8167104
_publ_section_title
;
Structure prediction by ZEFSAII (Michael W. Deem and Ramdas Pophale) SiO2 
 PCOD8167104
Probable space group: P M C 21
;
_chemical_formula_sum "Si O2"
_cell_formula_units_Z 24
_cell_length_a 14.742598
_cell_length_b 16.423689
_cell_length_c 4.994571
_cell_angle_alpha 90.000000
_cell_angle_beta 90.000000
_cell_angle_gamma 90.000000
_cell_volume 1209.324711
_symmetry_space_group_name_H-M "P M C 21"
_symmetry_group_IT_number 26
_symmetry_cell_setting 'orthorhombic'
loop_
_space_group_symop_operation_xyz
x,y,z
-x,-y,1/2+z
-x,y,z
x,-y,1/2+z
loop_
_atom_site_type_symbol
_atom_site_label
_atom_site_fract_x
_atom_site_fract_y
_atom_site_fract_z
Si Si1 0.394740 0.553774 0.170030
Si Si2 0.898218 0.446404 0.817583
Si Si3 0.807693 0.775835 0.723543
Si Si4 0.195921 0.043394 0.445623
Si Si5 0.000000 0.918528 0.012171
Si Si6 0.000000 0.188319 0.026221
Si Si7 0.753254 0.316188 0.748729
O O1 0.500000 0.577112 0.189088
O O2 0.368186 0.486430 0.389138
O O3 0.341664 0.638091 0.206444
O O4 0.881820 0.479352 0.519770
O O5 0.827002 0.376217 0.878007
O O6 0.000000 0.410910 0.850313
O O7 0.908878 0.762420 0.603351
O O8 0.740834 0.755012 0.473201
O O9 0.788110 0.865987 0.837075
O O10 0.790558 0.715430 0.967500
O O11 0.090508 0.027732 0.534619
O O12 0.239542 0.979160 0.233326
O O13 0.000000 0.840503 0.215079
O O14 0.000000 0.891260 0.705566
#
# Coordination Sequence:
#
# PCOD8167104 Si02
#       7
#     4   4   4   4   2   2   4
#     4  10  21  39  64  90 114 144 183 228 288 354
#     4  10  21  35  51  71  99 141 189 220 254 312
#     4  11  24  34  52  79 110 149 191 233 282 340
#     4  11  20  34  51  70 102 142 191 237 279 324
#     4  10  18  31  50  68  90 135 191 242 279 315
#     4  10  20  35  46  68 106 143 187 230 275 321
#     4  12  22  36  56  80 115 144 182 234 286 337
#
# _framework density 19.845787000000001
#
# number of rings (size 3 to 8) (size 9 to 14) (size 15 to 20)
#    0.000    1.333    0.000    8.500    2.333    0.000 
#    0.000    0.000    0.000    0.000    0.000    0.000 
#    0.000   13.333    0.000    0.000    0.000    0.000 
#
# Total GULP energy -297439.259978 kJ/mol
# GULP energy per Si atom -12393.302499 kJ/mol
# Density = 1.980062 g / cm^3
# Si number density = 19.845787 Si / 1000 Ang^3
#
#
#
# Elastic Constant Matrix: (Units=GPa)
#
#
# Indices 1 2 3 4 5 6 
#
# 1 51.1240 41.2108 23.7845 0.0000 0.0000 0.0000
# 2 41.2108 76.8670 30.0682 0.0000 0.0000 0.0000
# 3 23.7845 30.0682 102.1367 0.0000 0.0000 0.0000
# 4 0.0000 0.0000 0.0000 40.5085 0.0000 0.0000
# 5 0.0000 0.0000 0.0000 0.0000 16.4894 0.0000
# 6 0.0000 0.0000 0.0000 0.0000 0.0000 26.1595
#
#
#
# Elastic Compliance Matrix: (Units=1/GPa)
#
#
# Indices 1 2 3 4 5 6 
#
# 1 0.035236 -0.017723 -0.002988 0.000000 0.000000 0.000000
# 2 -0.017723 0.023616 -0.002825 0.000000 0.000000 0.000000
# 3 -0.002988 -0.002825 0.011318 0.000000 0.000000 0.000000
# 4 0.000000 0.000000 0.000000 0.024686 0.000000 0.000000
# 5 0.000000 0.000000 0.000000 0.000000 0.060645 0.000000
# 6 0.000000 0.000000 0.000000 0.000000 0.000000 0.038227
#
#
# Mechanical properties :
#
#
# Convention : Reuss Voigt Hill
#
# Bulk Modulus (GPa) = 43.29174 46.69497 44.99335
# Shear Modulus (GPa) = 20.12061 25.63576 22.87819
#
# Velocity S-wave (km/s) = 3.18755 3.59799 3.39897
# Velocity P-wave (km/s) = 5.95052 6.39067 6.17452
#
# Compressibility (1/GPa) = 0.02309910
#
# Stress axis : x y z
#
# Youngs Moduli (GPa) = 28.37967 42.34363 88.35151
#
# Poissons Ratio (x) = 0.75044 0.26400
# Poissons Ratio (y) = 0.50296 0.24963
# Poissons Ratio (z) = 0.08480 0.11964
#
# Static dielectric constant tensor:
#      x y z
#    x 3.300250 0.000000 0.000000 
#    y 0.000000 3.444930 0.000000 
#    z 0.000000 0.000000 3.933810 
# 
# 
# High freq. dielectric constant tensor:
#      x y z
#    x 1.710480 0.000000 0.000000 
#    y 0.000000 1.768990 0.000000 
#    z 0.000000 0.000000 1.810230 
# 
# From -- ./inp_files/609.got.cif
#   From: 2010.03.12/outbox.cif.g09.slc.cpg/sg26_1_cif.got.tgz:609.got - 2010.04.14 03:33:09.
