data_PCOD8167518
_publ_section_title
;
Structure prediction by ZEFSAII (Michael W. Deem and Ramdas Pophale) SiO2 
 PCOD8167518
Probable space group: P M C 21
;
_chemical_formula_sum "Si O2"
_cell_formula_units_Z 32
_cell_length_a 9.076597
_cell_length_b 11.666172
_cell_length_c 14.338975
_cell_angle_alpha 90.000000
_cell_angle_beta 90.000000
_cell_angle_gamma 90.000000
_cell_volume 1518.341757
_symmetry_space_group_name_H-M "P M C 21"
_symmetry_group_IT_number 26
_symmetry_cell_setting 'orthorhombic'
loop_
_space_group_symop_operation_xyz
x,y,z
-x,-y,1/2+z
-x,y,z
x,-y,1/2+z
loop_
_atom_site_type_symbol
_atom_site_label
_atom_site_fract_x
_atom_site_fract_y
_atom_site_fract_z
Si Si1 0.664947 0.689352 0.309840
Si Si2 0.171835 0.617755 0.624013
Si Si3 0.326571 0.084432 0.703968
Si Si4 0.830245 0.216363 0.969603
Si Si5 0.826866 0.175363 0.535607
Si Si6 0.828349 0.988581 0.874605
Si Si7 0.324598 0.413192 0.513189
Si Si8 0.666624 0.565560 0.798536
O O1 0.500000 0.713220 0.344141
O O2 0.713995 0.787923 0.239101
O O3 0.761786 0.688088 0.402430
O O4 0.678078 0.565635 0.261902
O O5 0.201940 0.741116 0.574771
O O6 0.259604 0.517936 0.571500
O O7 0.227957 0.636652 0.729705
O O8 0.000000 0.585961 0.623654
O O9 0.500000 0.063290 0.689986
O O10 0.241041 0.079090 0.605579
O O11 0.263839 0.991650 0.778184
O O12 0.770345 0.089971 0.944067
O O13 0.000000 0.217546 0.947762
O O14 0.743254 0.294692 0.549996
O O15 0.000000 0.189447 0.556187
O O16 0.800500 0.129737 0.429917
O O17 0.000000 0.003190 0.849740
O O18 0.500000 0.411065 0.527170
O O19 0.279953 0.425707 0.404817
O O20 0.500000 0.611354 0.789226
#
# Coordination Sequence:
#
# PCOD8167518 Si02
#       8
#     4   4   4   4   4   4   4   4
#     4   9  17  32  54  80 108 145 188 231 281 336
#     4  11  22  35  57  88 119 152 193 240 293 357
#     4  10  20  35  61  92 119 151 197 248 296 354
#     4   9  18  34  56  81 108 140 183 235 286 338
#     4  11  23  40  62  87 119 160 204 248 299 353
#     4   9  20  40  62  84 115 154 197 246 296 350
#     4  11  23  40  61  85 121 161 199 246 297 353
#     4  10  21  36  55  81 117 159 193 232 292 355
#
# _framework density 21.075623
#
# number of rings (size 3 to 8) (size 9 to 14) (size 15 to 20)
#    0.000    2.000    1.250    2.250    0.000    4.500 
#    2.250    0.000    0.000    0.000    0.000    0.000 
#    0.000    0.000    0.000    0.000    0.000    0.000 
#
# Total GULP energy -396704.260009 kJ/mol
# GULP energy per Si atom -12397.008125 kJ/mol
# Density = 2.102765 g / cm^3
# Si number density = 21.075623 Si / 1000 Ang^3
#
#
#
# Elastic Constant Matrix: (Units=GPa)
#
#
# Indices 1 2 3 4 5 6 
#
# 1 59.7471 16.2420 29.3833 0.0000 0.0000 0.0000
# 2 16.2420 27.3242 -1.4326 0.0000 0.0000 0.0000
# 3 29.3833 -1.4326 81.3157 0.0000 0.0000 0.0000
# 4 0.0000 0.0000 0.0000 23.1930 0.0000 0.0000
# 5 0.0000 0.0000 0.0000 0.0000 39.7056 0.0000
# 6 0.0000 0.0000 0.0000 0.0000 0.0000 21.9384
#
#
#
# Elastic Compliance Matrix: (Units=1/GPa)
#
#
# Indices 1 2 3 4 5 6 
#
# 1 0.025747 -0.015807 -0.009582 0.000000 0.000000 0.000000
# 2 -0.015807 0.046336 0.006528 0.000000 0.000000 0.000000
# 3 -0.009582 0.006528 0.015875 0.000000 0.000000 0.000000
# 4 0.000000 0.000000 0.000000 0.043116 0.000000 0.000000
# 5 0.000000 0.000000 0.000000 0.000000 0.025185 0.000000
# 6 0.000000 0.000000 0.000000 0.000000 0.000000 0.045582
#
#
# Mechanical properties :
#
#
# Convention : Reuss Voigt Hill
#
# Bulk Modulus (GPa) = 19.90594 28.53027 24.21810
# Shear Modulus (GPa) = 19.50780 25.24702 22.37741
#
# Velocity S-wave (km/s) = 3.04568 3.46486 3.26201
# Velocity P-wave (km/s) = 4.67266 5.43815 5.06987
#
# Compressibility (1/GPa) = 0.05023627
#
# Stress axis : x y z
#
# Youngs Moduli (GPa) = 38.84016 21.58167 62.99138
#
# Poissons Ratio (x) = 0.34113 0.60358
# Poissons Ratio (y) = 0.61393 -0.41121
# Poissons Ratio (z) = 0.37216 -0.14089
#
# Static dielectric constant tensor:
#      x y z
#    x 3.734700 0.000000 0.000000 
#    y 0.000000 3.700200 0.000000 
#    z 0.000000 0.000000 3.902860 
# 
# 
# High freq. dielectric constant tensor:
#      x y z
#    x 1.823790 0.000000 0.000000 
#    y 0.000000 1.807620 0.000000 
#    z 0.000000 0.000000 1.830210 
# 
# From -- ./inp_files/4183.got.cif
#   From: 2010.03.12/outbox.cif.g09.slc.cpg/sg26_3_cif.got.tgz:4183.got - 2010.04.14 03:33:09.
