data_PCOD8167952
_publ_section_title
;
Structure prediction by ZEFSAII (Michael W. Deem and Ramdas Pophale) SiO2 
 PCOD8167952
Probable space group: P C C 2
;
_chemical_formula_sum "Si O2"
_cell_formula_units_Z 24
_cell_length_a 8.282616
_cell_length_b 8.571055
_cell_length_c 14.011909
_cell_angle_alpha 90.000000
_cell_angle_beta 90.000000
_cell_angle_gamma 90.000000
_cell_volume 994.716031
_symmetry_space_group_name_H-M "P C C 2"
_symmetry_group_IT_number 27
_symmetry_cell_setting 'orthorhombic'
loop_
_space_group_symop_operation_xyz
x,y,z
-x,-y,z
-x,y,1/2+z
x,-y,1/2+z
loop_
_atom_site_type_symbol
_atom_site_label
_atom_site_fract_x
_atom_site_fract_y
_atom_site_fract_z
Si Si1 0.254657 0.239766 0.972700
Si Si2 0.000000 0.000000 0.050402
Si Si3 0.817048 0.483966 0.852708
Si Si4 0.817983 0.522484 0.132550
Si Si5 0.729035 0.821487 0.616391
Si Si6 0.385831 0.194477 0.419414
Si Si7 0.500000 0.000000 0.756341
O O1 0.241107 0.341109 0.875049
O O2 0.432254 0.174987 0.957813
O O3 0.262205 0.344248 0.068740
O O4 0.113171 0.110510 0.982927
O O5 0.092619 0.892203 0.129285
O O6 0.813205 0.431940 0.743256
O O7 0.698434 0.364444 0.907772
O O8 0.000000 0.500000 0.892374
O O9 0.717176 0.364162 0.120893
O O10 0.000000 0.500000 0.096323
O O11 0.705440 0.884822 0.507716
O O12 0.601740 0.884322 0.691545
O O13 0.373442 0.098317 0.320971
#
# Coordination Sequence:
#
# PCOD8167952 Si02
#       7
#     4   2   4   4   4   4   2
#     4  12  24  48  75 113 152 201 266 320 398 484
#     4  12  26  44  82 104 146 210 252 320 412 462
#     4  11  25  44  75 111 152 198 260 318 386 477
#     4  11  24  46  76 111 150 200 259 322 389 474
#     4  12  26  47  74 105 150 200 250 324 391 477
#     4  12  27  48  73 114 151 207 253 326 403 472
#     4  12  28  48  72 112 164 192 268 324 408 486
#
# _framework density 24.127488
#
# number of rings (size 3 to 8) (size 9 to 14) (size 15 to 20)
#    0.000    0.333    3.333    5.500    4.667    0.000 
#    0.000    4.167    0.000    0.000    0.000    0.000 
#    0.000    0.000    0.000    0.000    0.000    0.000 
#
# Total GULP energy -297323.722902 kJ/mol
# GULP energy per Si atom -12388.488454 kJ/mol
# Density = 2.407257 g / cm^3
# Si number density = 24.127488 Si / 1000 Ang^3
#
#
#
# Elastic Constant Matrix: (Units=GPa)
#
#
# Indices 1 2 3 4 5 6 
#
# 1 98.5052 44.4612 29.1497 0.0000 0.0000 0.0000
# 2 44.4612 124.8005 35.1238 0.0000 0.0000 0.0000
# 3 29.1497 35.1238 120.6468 0.0000 0.0000 0.0000
# 4 0.0000 0.0000 0.0000 31.8057 0.0000 0.0000
# 5 0.0000 0.0000 0.0000 0.0000 31.2628 0.0000
# 6 0.0000 0.0000 0.0000 0.0000 0.0000 55.6659
#
#
#
# Elastic Compliance Matrix: (Units=1/GPa)
#
#
# Indices 1 2 3 4 5 6 
#
# 1 0.012474 -0.003917 -0.001874 0.000000 0.000000 0.000000
# 2 -0.003917 0.009958 -0.001953 0.000000 0.000000 0.000000
# 3 -0.001874 -0.001953 0.009310 0.000000 0.000000 0.000000
# 4 0.000000 0.000000 0.000000 0.031441 0.000000 0.000000
# 5 0.000000 0.000000 0.000000 0.000000 0.031987 0.000000
# 6 0.000000 0.000000 0.000000 0.000000 0.000000 0.017964
#
#
# Mechanical properties :
#
#
# Convention : Reuss Voigt Hill
#
# Bulk Modulus (GPa) = 61.51711 62.38023 61.94867
# Shear Modulus (GPa) = 37.30283 39.42807 38.36545
#
# Velocity S-wave (km/s) = 3.93628 4.04685 3.99195
# Velocity P-wave (km/s) = 6.79787 6.90989 6.85411
#
# Compressibility (1/GPa) = 0.01625564
#
# Stress axis : x y z
#
# Youngs Moduli (GPa) = 80.16664 100.42490 107.41343
#
# Poissons Ratio (x) = 0.39333 0.20125
# Poissons Ratio (y) = 0.31399 0.20974
# Poissons Ratio (z) = 0.15020 0.19610
#
# Static dielectric constant tensor:
#      x y z
#    x 4.790650 0.000000 0.000000 
#    y 0.000000 4.469410 0.000000 
#    z 0.000000 0.000000 4.433440 
# 
# 
# High freq. dielectric constant tensor:
#      x y z
#    x 1.963920 0.000000 0.000000 
#    y 0.000000 1.970300 0.000000 
#    z 0.000000 0.000000 1.961560 
# 
# From -- ./inp_files/3331.got.cif
#   From: 2010.03.12/outbox.cif.g09.slc.cpg/sg27_2_cif.got.tgz:3331.got - 2010.04.14 03:36:05.
