data_PCOD8167443
_publ_section_title
;
Structure prediction by ZEFSAII (Michael W. Deem and Ramdas Pophale) SiO2 
 PCOD8167443
Probable space group: P M C 21
;
_chemical_formula_sum "Si O2"
_cell_formula_units_Z 24
_cell_length_a 8.876415
_cell_length_b 9.177387
_cell_length_c 16.457185
_cell_angle_alpha 90.000000
_cell_angle_beta 90.000000
_cell_angle_gamma 90.000000
_cell_volume 1340.640070
_symmetry_space_group_name_H-M "P M C 21"
_symmetry_group_IT_number 26
_symmetry_cell_setting 'orthorhombic'
loop_
_space_group_symop_operation_xyz
x,y,z
-x,-y,1/2+z
-x,y,z
x,-y,1/2+z
loop_
_atom_site_type_symbol
_atom_site_label
_atom_site_fract_x
_atom_site_fract_y
_atom_site_fract_z
Si Si1 0.174655 0.081277 0.000000
Si Si2 0.678630 0.336465 0.930317
Si Si3 0.675159 0.828802 0.270455
Si Si4 0.170678 0.821401 0.105158
Si Si5 0.674890 0.898986 0.863754
Si Si6 0.823338 0.353150 0.443773
O O1 0.000000 0.073627 0.971044
O O2 0.190715 0.994153 0.085065
O O3 0.235278 0.247619 0.002982
O O4 0.287515 0.003027 0.938574
O O5 0.500000 0.321943 0.941557
O O6 0.737190 0.271940 0.843953
O O7 0.726672 0.502436 0.936654
O O8 0.500000 0.802304 0.267021
O O9 0.738541 0.776295 0.184654
O O10 0.711928 0.001223 0.284661
O O11 0.000000 0.784670 0.125735
O O12 0.221953 0.724812 0.028158
O O13 0.500000 0.854331 0.866479
O O14 0.775993 0.753137 0.868906
O O15 0.000000 0.386291 0.437720
#
# Coordination Sequence:
#
# PCOD8167443 Si02
#       6
#     4   4   4   4   4   4
#     4   9  17  31  50  73  98 127 164 204 241 290
#     4  10  20  34  52  76 102 133 170 208 250 301
#     4   9  19  33  51  75 101 128 165 208 251 297
#     4   9  19  33  51  75 101 128 165 208 251 297
#     4   9  17  31  50  73  98 127 164 204 241 290
#     4  10  20  34  52  76 102 133 170 208 250 301
#
# _framework density 17.901897999999999
#
# number of rings (size 3 to 8) (size 9 to 14) (size 15 to 20)
#    0.000    2.667    0.000    4.000    0.000    8.000 
#    0.000    1.667    0.000    0.000    0.000    0.000 
#    0.000    0.000    0.000    0.000    0.000    0.000 
#
# Total GULP energy -297392.430469 kJ/mol
# GULP energy per Si atom -12391.351270 kJ/mol
# Density = 1.786115 g / cm^3
# Si number density = 17.901898 Si / 1000 Ang^3
#
#
#
# Elastic Constant Matrix: (Units=GPa)
#
#
# Indices 1 2 3 4 5 6 
#
# 1 54.5393 29.3783 32.8413 0.0000 0.0000 0.0000
# 2 29.3783 107.0101 33.0308 0.0000 0.0000 0.0000
# 3 32.8413 33.0308 71.4796 0.0000 0.0000 0.0000
# 4 0.0000 0.0000 0.0000 16.7318 0.0000 0.0000
# 5 0.0000 0.0000 0.0000 0.0000 28.8245 0.0000
# 6 0.0000 0.0000 0.0000 0.0000 0.0000 34.4437
#
#
#
# Elastic Compliance Matrix: (Units=1/GPa)
#
#
# Indices 1 2 3 4 5 6 
#
# 1 0.026844 -0.004155 -0.010413 0.000000 0.000000 0.000000
# 2 -0.004155 0.011543 -0.003425 0.000000 0.000000 0.000000
# 3 -0.010413 -0.003425 0.020357 0.000000 0.000000 0.000000
# 4 0.000000 0.000000 0.000000 0.059766 0.000000 0.000000
# 5 0.000000 0.000000 0.000000 0.000000 0.034693 0.000000
# 6 0.000000 0.000000 0.000000 0.000000 0.000000 0.029033
#
#
# Mechanical properties :
#
#
# Convention : Reuss Voigt Hill
#
# Bulk Modulus (GPa) = 43.94251 47.05886 45.50068
# Shear Modulus (GPa) = 22.14262 25.18525 23.66394
#
# Velocity S-wave (km/s) = 3.52076 3.75487 3.63969
# Velocity P-wave (km/s) = 6.41305 6.71884 6.56773
#
# Compressibility (1/GPa) = 0.02275701
#
# Stress axis : x y z
#
# Youngs Moduli (GPa) = 37.25189 86.63368 49.12319
#
# Poissons Ratio (x) = 0.36001 0.51154
# Poissons Ratio (y) = 0.15480 0.16823
# Poissons Ratio (z) = 0.38792 0.29670
#
# Static dielectric constant tensor:
#      x y z
#    x 3.336270 0.000000 0.000000 
#    y 0.000000 3.474170 0.000000 
#    z 0.000000 0.000000 3.228780 
# 
# 
# High freq. dielectric constant tensor:
#      x y z
#    x 1.701880 0.000000 0.000000 
#    y 0.000000 1.690610 0.000000 
#    z 0.000000 0.000000 1.659830 
# 
# From -- ./inp_files/3941.got.cif
#   From: 2010.03.12/outbox.cif.g09.slc.cpg/sg26_2_cif.got.tgz:3941.got - 2010.04.14 03:33:09.
