data_PCOD8167732
_publ_section_title
;
Structure prediction by ZEFSAII (Michael W. Deem and Ramdas Pophale) SiO2 
 PCOD8167732
Probable space group: P M C 21
;
_chemical_formula_sum "Si O2"
_cell_formula_units_Z 20
_cell_length_a 14.813607
_cell_length_b 7.057641
_cell_length_c 9.326194
_cell_angle_alpha 90.000000
_cell_angle_beta 90.000000
_cell_angle_gamma 90.000000
_cell_volume 975.045377
_symmetry_space_group_name_H-M "P M C 21"
_symmetry_group_IT_number 26
_symmetry_cell_setting 'orthorhombic'
loop_
_space_group_symop_operation_xyz
x,y,z
-x,-y,1/2+z
-x,y,z
x,-y,1/2+z
loop_
_atom_site_type_symbol
_atom_site_label
_atom_site_fract_x
_atom_site_fract_y
_atom_site_fract_z
Si Si1 0.398425 0.146303 0.298120
Si Si2 0.143293 0.533319 0.187274
Si Si3 0.267484 0.438795 0.434446
Si Si4 0.000000 0.769819 0.593512
Si Si5 0.000000 0.838643 0.261153
Si Si6 0.398935 0.775488 0.473970
O O1 0.500000 0.227519 0.321043
O O2 0.326111 0.259643 0.390357
O O3 0.393572 0.933672 0.352943
O O4 0.371736 0.146725 0.130774
O O5 0.177685 0.460049 0.339926
O O6 0.086990 0.725521 0.205149
O O7 0.087422 0.360669 0.118227
O O8 0.231688 0.585846 0.095438
O O9 0.330170 0.619963 0.420613
O O10 0.000000 0.850590 0.433021
O O11 0.000000 0.947939 0.701462
O O12 0.500000 0.690263 0.480137
#
# Coordination Sequence:
#
# PCOD8167732 Si02
#       6
#     4   4   4   2   2   4
#     4  10  23  41  62  91 129 172 214 259 312 369
#     4  11  26  44  65  95 130 159 212 259 310 381
#     4  12  23  43  64  95 127 168 209 264 310 364
#     4  11  26  46  69  95 125 167 203 253 322 382
#     4  11  26  46  69  93 127 167 201 255 322 384
#     4  10  23  41  62  92 129 171 215 258 311 370
#
# _framework density 20.511863999999999
#
# number of rings (size 3 to 8) (size 9 to 14) (size 15 to 20)
#    0.000    1.200    4.000    0.600    5.600    3.200 
#    0.000    0.000    0.000    0.000    0.000    0.000 
#    0.000    0.000    0.000    0.000    0.000    0.000 
#
# Total GULP energy -248058.050400 kJ/mol
# GULP energy per Si atom -12402.902520 kJ/mol
# Density = 2.046518 g / cm^3
# Si number density = 20.511864 Si / 1000 Ang^3
#
#
#
# Elastic Constant Matrix: (Units=GPa)
#
#
# Indices 1 2 3 4 5 6 
#
# 1 89.2830 37.4054 17.2066 0.0000 0.0000 0.0000
# 2 37.4054 70.6454 33.7572 0.0000 0.0000 0.0000
# 3 17.2066 33.7572 82.2565 0.0000 0.0000 0.0000
# 4 0.0000 0.0000 0.0000 35.6544 0.0000 0.0000
# 5 0.0000 0.0000 0.0000 0.0000 24.4453 0.0000
# 6 0.0000 0.0000 0.0000 0.0000 0.0000 30.4986
#
#
#
# Elastic Compliance Matrix: (Units=1/GPa)
#
#
# Indices 1 2 3 4 5 6 
#
# 1 0.014395 -0.007691 0.000145 0.000000 0.000000 0.000000
# 2 -0.007691 0.021718 -0.007304 0.000000 0.000000 0.000000
# 3 0.000145 -0.007304 0.015124 0.000000 0.000000 0.000000
# 4 0.000000 0.000000 0.000000 0.028047 0.000000 0.000000
# 5 0.000000 0.000000 0.000000 0.000000 0.040908 0.000000
# 6 0.000000 0.000000 0.000000 0.000000 0.000000 0.032788
#
#
# Mechanical properties :
#
#
# Convention : Reuss Voigt Hill
#
# Bulk Modulus (GPa) = 46.43182 46.54704 46.48943
# Shear Modulus (GPa) = 26.33553 28.37402 27.35477
#
# Velocity S-wave (km/s) = 3.58707 3.72331 3.65582
# Velocity P-wave (km/s) = 6.31203 6.42075 6.36662
#
# Compressibility (1/GPa) = 0.02153695
#
# Stress axis : x y z
#
# Youngs Moduli (GPa) = 69.47079 46.04576 66.11956
#
# Poissons Ratio (x) = 0.35414 -0.00960
# Poissons Ratio (y) = 0.53430 0.48292
# Poissons Ratio (z) = -0.01009 0.33631
#
# Static dielectric constant tensor:
#      x y z
#    x 3.894330 0.000000 0.000000 
#    y 0.000000 3.522160 0.000000 
#    z 0.000000 0.000000 3.773070 
# 
# 
# High freq. dielectric constant tensor:
#      x y z
#    x 1.814090 0.000000 0.000000 
#    y 0.000000 1.793110 0.000000 
#    z 0.000000 0.000000 1.817660 
# 
# From -- ./inp_files/2327.got.cif
#   From: 2010.03.12/outbox.cif.g09.slc.cpg/sg26_2_cif.got.tgz:2327.got - 2010.04.14 03:33:09.
