data_PCOD8167926
_publ_section_title
;
Structure prediction by ZEFSAII (Michael W. Deem and Ramdas Pophale) SiO2 
 PCOD8167926
Probable space group: P C C 2
;
_chemical_formula_sum "Si O2"
_cell_formula_units_Z 16
_cell_length_a 8.575075
_cell_length_b 7.886353
_cell_length_c 9.119096
_cell_angle_alpha 90.000000
_cell_angle_beta 90.000000
_cell_angle_gamma 90.000000
_cell_volume 616.688610
_symmetry_space_group_name_H-M "P C C 2"
_symmetry_group_IT_number 27
_symmetry_cell_setting 'orthorhombic'
loop_
_space_group_symop_operation_xyz
x,y,z
-x,-y,z
-x,y,1/2+z
x,-y,1/2+z
loop_
_atom_site_type_symbol
_atom_site_label
_atom_site_fract_x
_atom_site_fract_y
_atom_site_fract_z
Si Si1 0.181190 0.489982 0.610560
Si Si2 0.372833 0.641851 0.835731
Si Si3 0.000000 0.000000 0.975409
Si Si4 0.500000 0.000000 0.781808
Si Si5 0.807000 0.847965 0.720773
O O1 0.257290 0.656157 0.690427
O O2 0.277098 0.419314 0.474875
O O3 0.208020 0.352782 0.742105
O O4 0.000000 0.500000 0.568227
O O5 0.500000 0.500000 0.796501
O O6 0.447111 0.828647 0.870686
O O7 0.870112 0.913986 0.875311
O O8 0.078702 0.863223 0.081356
O O9 0.354351 0.057328 0.682404
#
# Coordination Sequence:
#
# PCOD8167926 Si02
#       5
#     4   4   2   2   4
#     4  12  29  49  82 117 161 208 265 332 404 473
#     4  12  28  55  79 120 161 211 267 331 403 483
#     4  10  26  46  74 118 158 204 276 320 404 478
#     4  12  28  52  82 116 162 216 268 328 406 480
#     4  11  26  48  78 115 158 213 263 336 396 481
#
# _framework density 25.945021000000001
#
# number of rings (size 3 to 8) (size 9 to 14) (size 15 to 20)
#    0.000    0.500    2.500    3.000   14.000    4.000 
#    0.000    0.000    0.000    0.000    0.000    0.000 
#    0.000    0.000    0.000    0.000    0.000    0.000 
#
# Total GULP energy -198252.644756 kJ/mol
# GULP energy per Si atom -12390.790297 kJ/mol
# Density = 2.588597 g / cm^3
# Si number density = 25.945021 Si / 1000 Ang^3
#
#
#
# Elastic Constant Matrix: (Units=GPa)
#
#
# Indices 1 2 3 4 5 6 
#
# 1 161.6781 46.4800 49.0758 0.0000 0.0000 0.0000
# 2 46.4800 127.2560 37.5038 0.0000 0.0000 0.0000
# 3 49.0758 37.5038 116.5683 0.0000 0.0000 0.0000
# 4 0.0000 0.0000 0.0000 17.3751 0.0000 0.0000
# 5 0.0000 0.0000 0.0000 0.0000 29.9871 0.0000
# 6 0.0000 0.0000 0.0000 0.0000 0.0000 41.8888
#
#
#
# Elastic Compliance Matrix: (Units=1/GPa)
#
#
# Indices 1 2 3 4 5 6 
#
# 1 0.007528 -0.002006 -0.002524 0.000000 0.000000 0.000000
# 2 -0.002006 0.009216 -0.002121 0.000000 0.000000 0.000000
# 3 -0.002524 -0.002121 0.010324 0.000000 0.000000 0.000000
# 4 0.000000 0.000000 0.000000 0.057554 0.000000 0.000000
# 5 0.000000 0.000000 0.000000 0.000000 0.033348 0.000000
# 6 0.000000 0.000000 0.000000 0.000000 0.000000 0.023873
#
#
# Mechanical properties :
#
#
# Convention : Reuss Voigt Hill
#
# Bulk Modulus (GPa) = 72.63958 74.62463 73.63211
# Shear Modulus (GPa) = 31.30270 36.01304 33.65787
#
# Velocity S-wave (km/s) = 3.47724 3.72970 3.60568
# Velocity P-wave (km/s) = 6.64680 6.88277 6.76581
#
# Compressibility (1/GPa) = 0.01376660
#
# Stress axis : x y z
#
# Youngs Moduli (GPa) = 132.83981 108.51028 96.86610
#
# Poissons Ratio (x) = 0.21764 0.24449
# Poissons Ratio (y) = 0.26644 0.20541
# Poissons Ratio (z) = 0.33528 0.23011
#
# Static dielectric constant tensor:
#      x y z
#    x 5.496250 0.000000 0.000000 
#    y 0.000000 5.129290 0.000000 
#    z 0.000000 0.000000 4.253870 
# 
# 
# High freq. dielectric constant tensor:
#      x y z
#    x 2.062470 0.000000 0.000000 
#    y 0.000000 2.051440 0.000000 
#    z 0.000000 0.000000 2.023390 
# 
# From -- ./inp_files/934.got.cif
#   From: 2010.03.12/outbox.cif.g09.slc.cpg/sg27_1_cif.got.tgz:934.got - 2010.04.14 03:36:05.
