data_PCOD8167656
_publ_section_title
;
Structure prediction by ZEFSAII (Michael W. Deem and Ramdas Pophale) SiO2 
 PCOD8167656
Probable space group: P M C 21
;
_chemical_formula_sum "Si O2"
_cell_formula_units_Z 26
_cell_length_a 7.440238
_cell_length_b 11.430317
_cell_length_c 14.586485
_cell_angle_alpha 90.000000
_cell_angle_beta 90.000000
_cell_angle_gamma 90.000000
_cell_volume 1240.497098
_symmetry_space_group_name_H-M "P M C 21"
_symmetry_group_IT_number 26
_symmetry_cell_setting 'orthorhombic'
loop_
_space_group_symop_operation_xyz
x,y,z
-x,-y,1/2+z
-x,y,z
x,-y,1/2+z
loop_
_atom_site_type_symbol
_atom_site_label
_atom_site_fract_x
_atom_site_fract_y
_atom_site_fract_z
Si Si1 0.200091 0.675215 0.969620
Si Si2 0.500000 0.625885 0.224598
Si Si3 0.212523 0.124685 0.344092
Si Si4 0.500000 0.492486 0.539563
Si Si5 0.500000 0.299117 0.916714
Si Si6 0.787332 0.951270 0.650725
Si Si7 0.785789 0.890723 0.449203
Si Si8 0.198930 0.791555 0.159191
O O1 0.285451 0.754127 0.887760
O O2 0.324221 0.566519 0.995492
O O3 0.000000 0.626780 0.945478
O O4 0.186159 0.766473 0.051974
O O5 0.500000 0.602439 0.334172
O O6 0.320662 0.698456 0.209083
O O7 0.500000 0.517865 0.151648
O O8 0.275251 0.126019 0.237714
O O9 0.000000 0.126776 0.352997
O O10 0.278665 0.007681 0.396259
O O11 0.500000 0.628522 0.512042
O O12 0.321300 0.219528 0.907869
O O13 0.719435 0.898555 0.555015
O O14 0.000000 0.962629 0.644879
O O15 0.711574 0.081073 0.668927
O O16 0.000000 0.869550 0.439811
O O17 0.000000 0.786310 0.204332
#
# Coordination Sequence:
#
# PCOD8167656 Si02
#       8
#     4   2   4   2   2   4   4   4
#     4   9  17  34  59  82 108 141 185 235 280 325
#     4  10  22  39  60  81 107 142 198 246 273 322
#     4   9  16  30  56  89 118 147 182 222 277 345
#     4  10  24  43  58  79 107 145 194 247 278 318
#     4  12  26  42  58  82 112 153 196 233 283 340
#     4   9  16  29  52  85 122 150 175 215 277 347
#     4  10  21  38  58  86 124 153 179 228 284 340
#     4   9  16  31  57  85 114 147 179 224 278 329
#
# _framework density 20.959339
#
# number of rings (size 3 to 8) (size 9 to 14) (size 15 to 20)
#    0.000    2.462    1.538    0.923    0.000    3.692 
#    2.769    1.538    0.000    0.000    0.000    0.000 
#    0.000    0.000    0.000    0.000    0.000    0.000 
#
# Total GULP energy -322181.986671 kJ/mol
# GULP energy per Si atom -12391.614872 kJ/mol
# Density = 2.091163 g / cm^3
# Si number density = 20.959339 Si / 1000 Ang^3
#
#
#
# Elastic Constant Matrix: (Units=GPa)
#
#
# Indices 1 2 3 4 5 6 
#
# 1 78.5128 15.7472 5.2538 0.0000 0.0000 0.0000
# 2 15.7472 41.9483 4.3804 0.0000 0.0000 0.0000
# 3 5.2538 4.3804 113.8897 0.0000 0.0000 0.0000
# 4 0.0000 0.0000 0.0000 24.8210 0.0000 0.0000
# 5 0.0000 0.0000 0.0000 0.0000 22.6874 0.0000
# 6 0.0000 0.0000 0.0000 0.0000 0.0000 12.6667
#
#
#
# Elastic Compliance Matrix: (Units=1/GPa)
#
#
# Indices 1 2 3 4 5 6 
#
# 1 0.013796 -0.005133 -0.000439 0.000000 0.000000 0.000000
# 2 -0.005133 0.025845 -0.000757 0.000000 0.000000 0.000000
# 3 -0.000439 -0.000757 0.008830 0.000000 0.000000 0.000000
# 4 0.000000 0.000000 0.000000 0.040288 0.000000 0.000000
# 5 0.000000 0.000000 0.000000 0.000000 0.044077 0.000000
# 6 0.000000 0.000000 0.000000 0.000000 0.000000 0.078947
#
#
# Mechanical properties :
#
#
# Convention : Reuss Voigt Hill
#
# Bulk Modulus (GPa) = 27.92371 31.67929 29.80150
# Shear Modulus (GPa) = 21.15246 25.96631 23.55939
#
# Velocity S-wave (km/s) = 3.18026 3.52360 3.35633
# Velocity P-wave (km/s) = 5.18046 5.63044 5.41013
#
# Compressibility (1/GPa) = 0.03581186
#
# Stress axis : x y z
#
# Youngs Moduli (GPa) = 72.48650 38.69247 113.25287
#
# Poissons Ratio (x) = 0.19861 0.04972
# Poissons Ratio (y) = 0.37207 0.08576
# Poissons Ratio (z) = 0.03182 0.02930
#
# Static dielectric constant tensor:
#      x y z
#    x 3.604170 0.000000 0.000000 
#    y 0.000000 3.328690 0.000000 
#    z 0.000000 0.000000 4.107780 
# 
# 
# High freq. dielectric constant tensor:
#      x y z
#    x 1.815980 0.000000 0.000000 
#    y 0.000000 1.777750 0.000000 
#    z 0.000000 0.000000 1.828360 
# 
# From -- ./inp_files/4066.got.cif
#   From: 2010.03.12/outbox.cif.g09.slc.cpg/sg26_3_cif.got.tgz:4066.got - 2010.04.14 03:33:09.
