data_PCOD8167345
_publ_section_title
;
Structure prediction by ZEFSAII (Michael W. Deem and Ramdas Pophale) SiO2 
 PCOD8167345
Probable space group: P M C 21
;
_chemical_formula_sum "Si O2"
_cell_formula_units_Z 32
_cell_length_a 8.802804
_cell_length_b 14.582949
_cell_length_c 12.395935
_cell_angle_alpha 90.000000
_cell_angle_beta 90.000000
_cell_angle_gamma 90.000000
_cell_volume 1591.276611
_symmetry_space_group_name_H-M "P M C 21"
_symmetry_group_IT_number 26
_symmetry_cell_setting 'orthorhombic'
loop_
_space_group_symop_operation_xyz
x,y,z
-x,-y,1/2+z
-x,y,z
x,-y,1/2+z
loop_
_atom_site_type_symbol
_atom_site_label
_atom_site_fract_x
_atom_site_fract_y
_atom_site_fract_z
Si Si1 0.331884 0.336238 0.125000
Si Si2 0.673025 0.359689 0.370640
Si Si3 0.176389 0.171593 0.031950
Si Si4 0.673985 0.864192 0.134224
Si Si5 0.325383 0.938814 0.711346
Si Si6 0.679589 0.256480 0.828458
Si Si7 0.674088 0.445203 0.921858
Si Si8 0.821474 0.167847 0.411436
O O1 0.500000 0.293641 0.101039
O O2 0.321833 0.372863 0.243769
O O3 0.203128 0.260833 0.105966
O O4 0.305010 0.422124 0.047200
O O5 0.500000 0.346588 0.412957
O O6 0.751638 0.454934 0.409634
O O7 0.768982 0.273103 0.408945
O O8 0.254501 0.088838 0.096116
O O9 0.000000 0.150366 0.019645
O O10 0.246799 0.186166 0.913839
O O11 0.500000 0.855765 0.095560
O O12 0.721152 0.776154 0.207432
O O13 0.693855 0.951537 0.213403
O O14 0.776325 0.872590 0.027857
O O15 0.500000 0.907852 0.715071
O O16 0.247732 0.892385 0.814831
O O17 0.500000 0.253327 0.848288
O O18 0.741170 0.360607 0.849507
O O19 0.500000 0.458460 0.886859
O O20 0.000000 0.162837 0.397656
#
# Coordination Sequence:
#
# PCOD8167345 Si02
#       8
#     4   4   4   4   4   4   4   4
#     4   9  17  32  54  81 114 155 202 254 302 353
#     4  10  19  34  59  86 117 161 206 253 301 358
#     4  11  21  34  57  87 118 154 195 248 308 360
#     4  10  24  43  66  91 120 161 204 251 306 365
#     4  11  23  41  64  89 117 156 207 254 297 357
#     4   9  19  39  63  89 120 156 203 256 303 358
#     4   8  16  31  56  89 118 151 206 259 303 351
#     4  12  26  42  61  90 128 162 199 251 310 368
#
# _framework density 20.109639999999999
#
# number of rings (size 3 to 8) (size 9 to 14) (size 15 to 20)
#    0.000    2.000    1.250    3.375    1.750    2.500 
#    0.000    6.250    0.000    1.500    0.000    0.000 
#    0.000    0.000    0.000    0.000    0.000    0.000 
#
# Total GULP energy -396643.058587 kJ/mol
# GULP energy per Si atom -12395.095581 kJ/mol
# Density = 2.006387 g / cm^3
# Si number density = 20.109640 Si / 1000 Ang^3
#
#
#
# Elastic Constant Matrix: (Units=GPa)
#
#
# Indices 1 2 3 4 5 6 
#
# 1 99.7584 33.7676 37.4609 0.0000 0.0000 0.0000
# 2 33.7676 106.2780 41.7826 0.0000 0.0000 0.0000
# 3 37.4609 41.7826 89.7155 0.0000 0.0000 0.0000
# 4 0.0000 0.0000 0.0000 27.8261 0.0000 0.0000
# 5 0.0000 0.0000 0.0000 0.0000 20.8892 0.0000
# 6 0.0000 0.0000 0.0000 0.0000 0.0000 0.3469
#
#
#
# Elastic Compliance Matrix: (Units=1/GPa)
#
#
# Indices 1 2 3 4 5 6 
#
# 1 0.012338 -0.002319 -0.004072 0.000000 0.000000 0.000000
# 2 -0.002319 0.011954 -0.004599 0.000000 0.000000 0.000000
# 3 -0.004072 -0.004599 0.014988 0.000000 0.000000 0.000000
# 4 0.000000 0.000000 0.000000 0.035937 0.000000 0.000000
# 5 0.000000 0.000000 0.000000 0.000000 0.047872 0.000000
# 6 0.000000 0.000000 0.000000 0.000000 0.000000 2.882903
#
#
# Mechanical properties :
#
#
# Convention : Reuss Voigt Hill
#
# Bulk Modulus (GPa) = 57.80071 57.97493 57.88782
# Shear Modulus (GPa) = 1.64813 21.99515 11.82164
#
# Velocity S-wave (km/s) = 0.90628 3.31079 2.42721
# Velocity P-wave (km/s) = 5.46812 6.59600 6.05836
#
# Compressibility (1/GPa) = 0.01730083
#
# Stress axis : x y z
#
# Youngs Moduli (GPa) = 81.04826 83.65206 66.71874
#
# Poissons Ratio (x) = 0.19403 0.27166
# Poissons Ratio (y) = 0.18799 0.30683
# Poissons Ratio (z) = 0.33000 0.38471
#
# Static dielectric constant tensor:
#      x y z
#    x 3.428930 0.000000 0.000000 
#    y 0.000000 3.808710 0.000000 
#    z 0.000000 0.000000 3.652200 
# 
# 
# High freq. dielectric constant tensor:
#      x y z
#    x 1.755250 0.000000 0.000000 
#    y 0.000000 1.789500 0.000000 
#    z 0.000000 0.000000 1.788320 
# 
# From -- ./inp_files/3092.got.cif
#   From: 2010.03.12/outbox.cif.g09.slc.cpg/sg26_2_cif.got.tgz:3092.got - 2010.04.14 03:33:09.
