data_PCOD8167772
_publ_section_title
;
Structure prediction by ZEFSAII (Michael W. Deem and Ramdas Pophale) SiO2 
 PCOD8167772
Probable space group: P M C 21
;
_chemical_formula_sum "Si O2"
_cell_formula_units_Z 24
_cell_length_a 17.061913
_cell_length_b 5.060582
_cell_length_c 12.545466
_cell_angle_alpha 90.000000
_cell_angle_beta 90.000000
_cell_angle_gamma 90.000000
_cell_volume 1083.215803
_symmetry_space_group_name_H-M "P M C 21"
_symmetry_group_IT_number 26
_symmetry_cell_setting 'orthorhombic'
loop_
_space_group_symop_operation_xyz
x,y,z
-x,-y,1/2+z
-x,y,z
x,-y,1/2+z
loop_
_atom_site_type_symbol
_atom_site_label
_atom_site_fract_x
_atom_site_fract_y
_atom_site_fract_z
Si Si1 0.909497 0.540853 0.483680
Si Si2 0.658698 0.294898 0.926048
Si Si3 0.843594 0.042049 0.596308
Si Si4 0.706009 0.731260 0.648114
Si Si5 0.590267 0.192561 0.328068
Si Si6 0.190801 0.658682 0.291118
O O1 0.858239 0.309332 0.533466
O O2 0.881179 0.553390 0.361626
O O3 0.000000 0.461575 0.485101
O O4 0.899396 0.808648 0.553098
O O5 0.609838 0.511398 0.862155
O O6 0.743654 0.238961 0.873191
O O7 0.610538 0.021070 0.919048
O O8 0.663821 0.407773 0.047257
O O9 0.850133 0.104870 0.723537
O O10 0.752503 0.962594 0.584657
O O11 0.642274 0.868576 0.723530
O O12 0.769540 0.553479 0.711055
O O13 0.500000 0.174045 0.295899
#
# Coordination Sequence:
#
# PCOD8167772 Si02
#       6
#     4   4   4   4   4   4
#     4  12  29  46  70 105 146 180 228 297 358 411
#     4  11  24  42  72  99 136 181 232 282 341 409
#     4  12  24  47  72 103 135 182 238 284 341 421
#     4  11  25  44  75 102 134 186 238 288 335 418
#     4  11  26  44  67 105 143 179 226 286 351 410
#     4  11  24  45  74 104 136 182 242 281 346 417
#
# _framework density 22.156251000000001
#
# number of rings (size 3 to 8) (size 9 to 14) (size 15 to 20)
#    0.000    0.667    5.000    1.000    9.333    2.667 
#    0.000    0.000    0.000    0.000    0.000    0.000 
#    0.000    0.000    0.000    0.000    0.000    0.000 
#
# Total GULP energy -297466.696882 kJ/mol
# GULP energy per Si atom -12394.445703 kJ/mol
# Density = 2.210582 g / cm^3
# Si number density = 22.156251 Si / 1000 Ang^3
#
#
#
# Elastic Constant Matrix: (Units=GPa)
#
#
# Indices 1 2 3 4 5 6 
#
# 1 108.8820 20.5240 51.3627 0.0000 0.0000 0.0000
# 2 20.5240 97.6086 36.4547 0.0000 0.0000 0.0000
# 3 51.3627 36.4547 134.6369 0.0000 0.0000 0.0000
# 4 0.0000 0.0000 0.0000 33.1288 0.0000 0.0000
# 5 0.0000 0.0000 0.0000 0.0000 23.8061 0.0000
# 6 0.0000 0.0000 0.0000 0.0000 0.0000 29.5214
#
#
#
# Elastic Compliance Matrix: (Units=1/GPa)
#
#
# Indices 1 2 3 4 5 6 
#
# 1 0.011263 -0.000849 -0.004067 0.000000 0.000000 0.000000
# 2 -0.000849 0.011462 -0.002779 0.000000 0.000000 0.000000
# 3 -0.004067 -0.002779 0.009731 0.000000 0.000000 0.000000
# 4 0.000000 0.000000 0.000000 0.030185 0.000000 0.000000
# 5 0.000000 0.000000 0.000000 0.000000 0.042006 0.000000
# 6 0.000000 0.000000 0.000000 0.000000 0.000000 0.033874
#
#
# Mechanical properties :
#
#
# Convention : Reuss Voigt Hill
#
# Bulk Modulus (GPa) = 58.59981 61.97891 60.28936
# Shear Modulus (GPa) = 31.32839 32.81034 32.06937
#
# Velocity S-wave (km/s) = 3.76437 3.85237 3.80862
# Velocity P-wave (km/s) = 6.73794 6.91534 6.82722
#
# Compressibility (1/GPa) = 0.01706490
#
# Stress axis : x y z
#
# Youngs Moduli (GPa) = 88.78858 87.24765 102.76105
#
# Poissons Ratio (x) = 0.07411 0.41789
# Poissons Ratio (y) = 0.07542 0.28561
# Poissons Ratio (z) = 0.36107 0.24249
#
# Static dielectric constant tensor:
#      x y z
#    x 3.927580 0.000000 0.000000 
#    y 0.000000 3.996650 0.000000 
#    z 0.000000 0.000000 4.268800 
# 
# 
# High freq. dielectric constant tensor:
#      x y z
#    x 1.858650 0.000000 0.000000 
#    y 0.000000 1.872910 0.000000 
#    z 0.000000 0.000000 1.884400 
# 
# From -- ./inp_files/3637.got.cif
#   From: 2010.03.12/outbox.cif.g09.slc.cpg/sg26_2_cif.got.tgz:3637.got - 2010.04.14 03:33:09.
