data_PCOD8167610
_publ_section_title
;
Structure prediction by ZEFSAII (Michael W. Deem and Ramdas Pophale) SiO2 
 PCOD8167610
Probable space group: P M C 21
;
_chemical_formula_sum "Si O2"
_cell_formula_units_Z 24
_cell_length_a 8.786976
_cell_length_b 11.989720
_cell_length_c 12.000820
_cell_angle_alpha 90.000000
_cell_angle_beta 90.000000
_cell_angle_gamma 90.000000
_cell_volume 1264.326972
_symmetry_space_group_name_H-M "P M C 21"
_symmetry_group_IT_number 26
_symmetry_cell_setting 'orthorhombic'
loop_
_space_group_symop_operation_xyz
x,y,z
-x,-y,1/2+z
-x,y,z
x,-y,1/2+z
loop_
_atom_site_type_symbol
_atom_site_label
_atom_site_fract_x
_atom_site_fract_y
_atom_site_fract_z
Si Si1 0.822758 0.205149 0.408910
Si Si2 0.321284 0.919335 0.710332
Si Si3 0.178305 0.418277 0.276794
Si Si4 0.819242 0.659371 0.333274
Si Si5 0.181168 0.272109 0.074979
Si Si6 0.821114 0.152964 0.660605
O O1 0.728863 0.120477 0.332596
O O2 0.783761 0.332930 0.377021
O O3 0.776165 0.187169 0.535919
O O4 0.000000 0.180649 0.387440
O O5 0.500000 0.907902 0.698736
O O6 0.244494 0.847469 0.612341
O O7 0.272661 0.046240 0.696849
O O8 0.252731 0.538502 0.302868
O O9 0.240293 0.367255 0.160618
O O10 0.000000 0.436062 0.264491
O O11 0.755386 0.698615 0.452916
O O12 0.768293 0.746378 0.239638
O O13 0.000000 0.650898 0.340538
O O14 0.000000 0.263467 0.077297
O O15 0.000000 0.128606 0.672384
#
# Coordination Sequence:
#
# PCOD8167610 Si02
#       6
#     4   4   4   4   4   4
#     4   9  19  36  58  82 110 142 179 224 273 326
#     4  11  23  38  56  77 107 145 188 228 272 324
#     4   8  15  29  52  83 112 138 173 218 269 319
#     4   9  18  30  53  87 115 139 172 220 271 319
#     4   9  18  34  56  82 112 144 179 220 271 325
#     4  10  21  35  55  83 112 142 181 224 270 319
#
# _framework density 18.982433
#
# number of rings (size 3 to 8) (size 9 to 14) (size 15 to 20)
#    0.000    2.667    0.000    2.500    4.667    0.667 
#    0.000    0.000    0.000    8.000    0.000    0.000 
#    0.000    0.000    0.000    0.000    0.000    0.000 
#
# Total GULP energy -297588.572607 kJ/mol
# GULP energy per Si atom -12399.523859 kJ/mol
# Density = 1.893923 g / cm^3
# Si number density = 18.982433 Si / 1000 Ang^3
#
#
#
# Elastic Constant Matrix: (Units=GPa)
#
#
# Indices 1 2 3 4 5 6 
#
# 1 37.7209 28.5544 24.2236 0.0000 0.0000 0.0000
# 2 28.5544 150.4212 70.0132 0.0000 0.0000 0.0000
# 3 24.2236 70.0132 139.0922 0.0000 0.0000 0.0000
# 4 0.0000 0.0000 0.0000 24.4090 0.0000 0.0000
# 5 0.0000 0.0000 0.0000 0.0000 6.8795 0.0000
# 6 0.0000 0.0000 0.0000 0.0000 0.0000 -1.6581
#
#
#
# Elastic Compliance Matrix: (Units=1/GPa)
#
#
# Indices 1 2 3 4 5 6 
#
# 1 0.032074 -0.004556 -0.003292 0.000000 0.000000 0.000000
# 2 -0.004556 0.009329 -0.003903 0.000000 0.000000 0.000000
# 3 -0.003292 -0.003903 0.009727 0.000000 0.000000 0.000000
# 4 0.000000 0.000000 0.000000 0.040969 0.000000 0.000000
# 5 0.000000 0.000000 0.000000 0.000000 0.145360 0.000000
# 6 0.000000 0.000000 0.000000 0.000000 0.000000 -0.603104
#
#
# Mechanical properties :
#
#
# Convention : Reuss Voigt Hill
#
# Bulk Modulus (GPa) = 36.19490 63.64630 49.92060
# Shear Modulus (GPa) = -15.01805 19.55560 2.26878
#
# Velocity S-wave (km/s) = -2.81580 3.21315 1.09444
# Velocity P-wave (km/s) = 2.92187 6.88241 5.28701
#
# Compressibility (1/GPa) = 0.02762820
#
# Stress axis : x y z
#
# Youngs Moduli (GPa) = 31.17805 107.18927 102.80410
#
# Poissons Ratio (x) = 0.48836 0.33848
# Poissons Ratio (y) = 0.14205 0.40119
# Poissons Ratio (z) = 0.10265 0.41831
#
# Static dielectric constant tensor:
#      x y z
#    x 2.976810 0.000000 0.000000 
#    y 0.000000 3.674490 0.000000 
#    z 0.000000 0.000000 3.750110 
# 
# 
# High freq. dielectric constant tensor:
#      x y z
#    x 1.687080 0.000000 0.000000 
#    y 0.000000 1.748520 0.000000 
#    z 0.000000 0.000000 1.748280 
# 
# From -- ./inp_files/2793.got.cif
#   From: 2010.03.12/outbox.cif.g09.slc.cpg/sg26_2_cif.got.tgz:2793.got - 2010.04.14 03:33:09.
