data_PCOD8167686
_publ_section_title
;
Structure prediction by ZEFSAII (Michael W. Deem and Ramdas Pophale) SiO2 
 PCOD8167686
Probable space group: P M C 21
;
_chemical_formula_sum "Si O2"
_cell_formula_units_Z 24
_cell_length_a 17.201125
_cell_length_b 7.038200
_cell_length_c 9.366290
_cell_angle_alpha 90.000000
_cell_angle_beta 90.000000
_cell_angle_gamma 90.000000
_cell_volume 1133.929505
_symmetry_space_group_name_H-M "P M C 21"
_symmetry_group_IT_number 26
_symmetry_cell_setting 'orthorhombic'
loop_
_space_group_symop_operation_xyz
x,y,z
-x,-y,1/2+z
-x,y,z
x,-y,1/2+z
loop_
_atom_site_type_symbol
_atom_site_label
_atom_site_fract_x
_atom_site_fract_y
_atom_site_fract_z
Si Si1 0.228725 0.927933 0.574520
Si Si2 0.876255 0.053556 0.328612
Si Si3 0.334377 0.600552 0.461614
Si Si4 0.500000 0.901246 0.199969
Si Si5 0.000000 0.338960 0.447222
Si Si6 0.664181 0.735993 0.150457
Si Si7 0.500000 0.239565 0.006341
Si Si8 0.000000 0.730981 0.279997
O O1 0.155567 0.877662 0.675325
O O2 0.279837 0.744054 0.546737
O O3 0.197237 0.012042 0.427467
O O4 0.282251 0.080180 0.654609
O O5 0.924566 0.227586 0.392743
O O6 0.924832 0.859955 0.309616
O O7 0.312747 0.389535 0.513258
O O8 0.320717 0.613985 0.293114
O O9 0.424073 0.630882 0.503381
O O10 0.574717 0.794616 0.138403
O O11 0.500000 0.904543 0.371805
O O12 0.500000 0.119319 0.151461
O O13 0.000000 0.346918 0.618671
O O14 0.000000 0.553466 0.388195
#
# Coordination Sequence:
#
# PCOD8167686 Si02
#       8
#     4   4   4   2   2   4   2   2
#     4  12  24  44  66  97 135 173 216 265 328 384
#     4  11  26  46  68  98 138 169 211 266 319 388
#     4  11  25  41  64  95 131 174 224 274 330 384
#     4  10  21  40  64  91 127 171 227 273 327 384
#     4  11  26  46  73 101 131 171 213 261 318 386
#     4  11  25  41  64  96 130 175 224 273 329 386
#     4  10  21  40  64  91 125 173 225 277 325 382
#     4  11  26  46  73 103 129 171 217 255 320 388
#
# _framework density 21.165337000000001
#
# number of rings (size 3 to 8) (size 9 to 14) (size 15 to 20)
#    0.000    1.000    5.000    0.500    4.667    4.000 
#    0.000    0.000    0.000    0.000    0.000    0.000 
#    0.000    0.000    0.000    0.000    0.000    0.000 
#
# Total GULP energy -297725.375776 kJ/mol
# GULP energy per Si atom -12405.223991 kJ/mol
# Density = 2.111716 g / cm^3
# Si number density = 21.165337 Si / 1000 Ang^3
#
#
#
# Elastic Constant Matrix: (Units=GPa)
#
#
# Indices 1 2 3 4 5 6 
#
# 1 99.9582 25.1394 21.2274 0.0000 0.0000 0.0000
# 2 25.1394 61.9339 17.7833 0.0000 0.0000 0.0000
# 3 21.2274 17.7833 80.3225 0.0000 0.0000 0.0000
# 4 0.0000 0.0000 0.0000 43.2488 0.0000 0.0000
# 5 0.0000 0.0000 0.0000 0.0000 34.2570 0.0000
# 6 0.0000 0.0000 0.0000 0.0000 0.0000 23.4895
#
#
#
# Elastic Compliance Matrix: (Units=1/GPa)
#
#
# Indices 1 2 3 4 5 6 
#
# 1 0.011475 -0.004044 -0.002137 0.000000 0.000000 0.000000
# 2 -0.004044 0.018668 -0.003064 0.000000 0.000000 0.000000
# 3 -0.002137 -0.003064 0.013693 0.000000 0.000000 0.000000
# 4 0.000000 0.000000 0.000000 0.023122 0.000000 0.000000
# 5 0.000000 0.000000 0.000000 0.000000 0.029191 0.000000
# 6 0.000000 0.000000 0.000000 0.000000 0.000000 0.042572
#
#
# Mechanical properties :
#
#
# Convention : Reuss Voigt Hill
#
# Bulk Modulus (GPa) = 39.45613 41.16830 40.31221
# Shear Modulus (GPa) = 30.18220 32.07004 31.12612
#
# Velocity S-wave (km/s) = 3.78036 3.89680 3.83902
# Velocity P-wave (km/s) = 6.14306 6.30395 6.22403
#
# Compressibility (1/GPa) = 0.02534460
#
# Stress axis : x y z
#
# Youngs Moduli (GPa) = 87.14476 53.56865 73.02971
#
# Poissons Ratio (x) = 0.21664 0.15608
# Poissons Ratio (y) = 0.35243 0.22378
# Poissons Ratio (z) = 0.18625 0.16415
#
# Static dielectric constant tensor:
#      x y z
#    x 3.964500 0.000000 0.000000 
#    y 0.000000 3.603370 0.000000 
#    z 0.000000 0.000000 3.868770 
# 
# 
# High freq. dielectric constant tensor:
#      x y z
#    x 1.841770 0.000000 0.000000 
#    y 0.000000 1.821430 0.000000 
#    z 0.000000 0.000000 1.841450 
# 
# From -- ./inp_files/3661.got.cif
#   From: 2010.03.12/outbox.cif.g09.slc.cpg/sg26_2_cif.got.tgz:3661.got - 2010.04.14 03:33:09.
