data_PCOD8167169
_publ_section_title
;
Structure prediction by ZEFSAII (Michael W. Deem and Ramdas Pophale) SiO2 
 PCOD8167169
Probable space group: P M C 21
;
_chemical_formula_sum "Si O2"
_cell_formula_units_Z 32
_cell_length_a 8.866634
_cell_length_b 12.052587
_cell_length_c 14.431798
_cell_angle_alpha 90.000000
_cell_angle_beta 90.000000
_cell_angle_gamma 90.000000
_cell_volume 1542.266760
_symmetry_space_group_name_H-M "P M C 21"
_symmetry_group_IT_number 26
_symmetry_cell_setting 'orthorhombic'
loop_
_space_group_symop_operation_xyz
x,y,z
-x,-y,1/2+z
-x,y,z
x,-y,1/2+z
loop_
_atom_site_type_symbol
_atom_site_label
_atom_site_fract_x
_atom_site_fract_y
_atom_site_fract_z
Si Si1 0.179718 0.617556 0.168690
Si Si2 0.832664 0.212831 0.812242
Si Si3 0.169254 0.678809 0.501876
Si Si4 0.176985 0.998875 0.414345
Si Si5 0.174002 0.160803 0.257593
Si Si6 0.823750 0.411366 0.294565
Si Si7 0.322204 0.896692 0.579251
Si Si8 0.677449 0.453340 0.490838
O O1 0.244506 0.724690 0.225346
O O2 0.228603 0.503785 0.220767
O O3 0.253117 0.629083 0.067616
O O4 0.000000 0.622479 0.160956
O O5 0.000000 0.177481 0.781799
O O6 0.753244 0.100890 0.849929
O O7 0.838597 0.306240 0.891794
O O8 0.241230 0.784586 0.549133
O O9 0.272277 0.574529 0.524223
O O10 0.000000 0.659618 0.542228
O O11 0.206014 0.114559 0.361588
O O12 0.000000 0.976454 0.433366
O O13 0.262439 0.996941 0.513454
O O14 0.216378 0.290518 0.252823
O O15 0.273884 0.087741 0.186217
O O16 0.000000 0.141138 0.232127
O O17 0.735726 0.423838 0.389923
O O18 0.000000 0.421271 0.317670
O O19 0.500000 0.887720 0.569790
O O20 0.500000 0.443505 0.491683
#
# Coordination Sequence:
#
# PCOD8167169 Si02
#       8
#     4   4   4   4   4   4   4   4
#     4  10  19  35  58  82 111 151 198 240 288 352
#     4   8  15  31  57  82 102 134 184 242 290 327
#     4  10  18  35  60  83 111 149 197 244 280 336
#     4   9  19  38  62  87 114 149 201 254 294 342
#     4  10  21  39  63  88 116 156 206 253 292 344
#     4  10  21  39  61  85 113 154 200 245 294 344
#     4  11  22  36  59  92 123 155 194 243 307 362
#     4  12  24  35  52  85 124 158 188 233 299 361
#
# _framework density 20.748681000000001
#
# number of rings (size 3 to 8) (size 9 to 14) (size 15 to 20)
#    0.000    2.000    1.250    4.125    0.000    2.500 
#    2.250    0.625    0.000    0.000    0.000    0.000 
#    0.000    0.000    0.000    0.000    0.000    0.000 
#
# Total GULP energy -396699.878340 kJ/mol
# GULP energy per Si atom -12396.871198 kJ/mol
# Density = 2.070146 g / cm^3
# Si number density = 20.748681 Si / 1000 Ang^3
#
#
#
# Elastic Constant Matrix: (Units=GPa)
#
#
# Indices 1 2 3 4 5 6 
#
# 1 74.0780 11.3014 43.6410 0.0000 0.0000 0.0000
# 2 11.3014 35.8543 0.5109 0.0000 0.0000 0.0000
# 3 43.6410 0.5109 93.5901 0.0000 0.0000 0.0000
# 4 0.0000 0.0000 0.0000 24.2378 0.0000 0.0000
# 5 0.0000 0.0000 0.0000 0.0000 19.5054 0.0000
# 6 0.0000 0.0000 0.0000 0.0000 0.0000 16.4307
#
#
#
# Elastic Compliance Matrix: (Units=1/GPa)
#
#
# Indices 1 2 3 4 5 6 
#
# 1 0.019875 -0.006133 -0.009234 0.000000 0.000000 0.000000
# 2 -0.006133 0.029785 0.002697 0.000000 0.000000 0.000000
# 3 -0.009234 0.002697 0.014976 0.000000 0.000000 0.000000
# 4 0.000000 0.000000 0.000000 0.041258 0.000000 0.000000
# 5 0.000000 0.000000 0.000000 0.000000 0.051268 0.000000
# 6 0.000000 0.000000 0.000000 0.000000 0.000000 0.060862
#
#
# Mechanical properties :
#
#
# Convention : Reuss Voigt Hill
#
# Bulk Modulus (GPa) = 25.44765 34.93657 30.19211
# Shear Modulus (GPa) = 19.49600 21.90605 20.70103
#
# Velocity S-wave (km/s) = 3.06866 3.25280 3.16207
# Velocity P-wave (km/s) = 4.98466 5.56616 5.28342
#
# Compressibility (1/GPa) = 0.03929636
#
# Stress axis : x y z
#
# Youngs Moduli (GPa) = 50.31431 33.57350 66.77314
#
# Poissons Ratio (x) = 0.20591 0.61660
# Poissons Ratio (y) = 0.30858 -0.18010
# Poissons Ratio (z) = 0.46461 -0.09056
#
# Static dielectric constant tensor:
#      x y z
#    x 3.426050 0.000000 0.000000 
#    y 0.000000 3.716250 0.000000 
#    z 0.000000 0.000000 3.968380 
# 
# 
# High freq. dielectric constant tensor:
#      x y z
#    x 1.777920 0.000000 0.000000 
#    y 0.000000 1.799420 0.000000 
#    z 0.000000 0.000000 1.821070 
# 
# From -- ./inp_files/4278.got.cif
#   From: 2010.03.12/outbox.cif.g09.slc.cpg/sg26_3_cif.got.tgz:4278.got - 2010.04.14 03:33:09.
