data_PCOD8167925
_publ_section_title
;
Structure prediction by ZEFSAII (Michael W. Deem and Ramdas Pophale) SiO2 
 PCOD8167925
Probable space group: P C C 2
;
_chemical_formula_sum "Si O2"
_cell_formula_units_Z 20
_cell_length_a 8.370690
_cell_length_b 8.578719
_cell_length_c 11.741657
_cell_angle_alpha 90.000000
_cell_angle_beta 90.000000
_cell_angle_gamma 90.000000
_cell_volume 843.166010
_symmetry_space_group_name_H-M "P C C 2"
_symmetry_group_IT_number 27
_symmetry_cell_setting 'orthorhombic'
loop_
_space_group_symop_operation_xyz
x,y,z
-x,-y,z
-x,y,1/2+z
x,-y,1/2+z
loop_
_atom_site_type_symbol
_atom_site_label
_atom_site_fract_x
_atom_site_fract_y
_atom_site_fract_z
Si Si1 0.721597 0.876531 0.000000
Si Si2 0.093473 0.337567 0.840152
Si Si3 0.795063 0.250966 0.721111
Si Si4 0.636105 0.785100 0.450511
Si Si5 0.320612 0.557597 0.153966
O O1 0.859595 0.765695 0.949162
O O2 0.550155 0.804190 0.971797
O O3 0.732979 0.052597 0.956024
O O4 0.745209 0.889612 0.137268
O O5 0.255682 0.356894 0.767354
O O6 0.000000 0.500000 0.871211
O O7 0.972720 0.229318 0.768230
O O8 0.667300 0.276344 0.823172
O O9 0.788040 0.403922 0.639420
O O10 0.704181 0.662595 0.541939
O O11 0.500000 0.500000 0.171537
#
# Coordination Sequence:
#
# PCOD8167925 Si02
#       5
#     4   4   4   4   4
#     4  11  26  48  74 105 155 194 253 317 379 457
#     4  10  26  45  75 107 152 196 253 309 379 455
#     4  11  26  46  72 107 149 196 245 309 380 447
#     4  11  27  46  75 110 145 197 260 312 383 448
#     4  11  23  45  75 102 142 194 258 307 370 444
#
# _framework density 23.720120999999999
#
# number of rings (size 3 to 8) (size 9 to 14) (size 15 to 20)
#    0.000    1.200    2.000    1.200   11.200    4.000 
#    0.000    0.000    0.000    0.000    0.000    0.000 
#    0.000    0.000    0.000    0.000    0.000    0.000 
#
# Total GULP energy -247935.252881 kJ/mol
# GULP energy per Si atom -12396.762644 kJ/mol
# Density = 2.366613 g / cm^3
# Si number density = 23.720121 Si / 1000 Ang^3
#
#
#
# Elastic Constant Matrix: (Units=GPa)
#
#
# Indices 1 2 3 4 5 6 
#
# 1 120.4328 35.2601 63.8444 0.0000 0.0000 0.0000
# 2 35.2601 101.6589 64.5453 0.0000 0.0000 0.0000
# 3 63.8444 64.5453 142.3630 0.0000 0.0000 0.0000
# 4 0.0000 0.0000 0.0000 34.6139 0.0000 0.0000
# 5 0.0000 0.0000 0.0000 0.0000 33.3432 0.0000
# 6 0.0000 0.0000 0.0000 0.0000 0.0000 35.5179
#
#
#
# Elastic Compliance Matrix: (Units=1/GPa)
#
#
# Indices 1 2 3 4 5 6 
#
# 1 0.010959 -0.000956 -0.004481 0.000000 0.000000 0.000000
# 2 -0.000956 0.013896 -0.005872 0.000000 0.000000 0.000000
# 3 -0.004481 -0.005872 0.011696 0.000000 0.000000 0.000000
# 4 0.000000 0.000000 0.000000 0.028890 0.000000 0.000000
# 5 0.000000 0.000000 0.000000 0.000000 0.029991 0.000000
# 6 0.000000 0.000000 0.000000 0.000000 0.000000 0.028155
#
#
# Mechanical properties :
#
#
# Convention : Reuss Voigt Hill
#
# Bulk Modulus (GPa) = 71.76837 76.86157 74.31497
# Shear Modulus (GPa) = 33.14553 34.08200 33.61376
#
# Velocity S-wave (km/s) = 3.74218 3.79468 3.76852
# Velocity P-wave (km/s) = 6.99957 7.18842 7.09462
#
# Compressibility (1/GPa) = 0.01393372
#
# Stress axis : x y z
#
# Youngs Moduli (GPa) = 91.25035 71.96079 85.49805
#
# Poissons Ratio (x) = 0.06878 0.38314
# Poissons Ratio (y) = 0.08722 0.50203
# Poissons Ratio (z) = 0.40892 0.42254
#
# Static dielectric constant tensor:
#      x y z
#    x 4.175850 0.000000 0.000000 
#    y 0.000000 4.327140 0.000000 
#    z 0.000000 0.000000 4.249080 
# 
# 
# High freq. dielectric constant tensor:
#      x y z
#    x 1.941330 0.000000 0.000000 
#    y 0.000000 1.936290 0.000000 
#    z 0.000000 0.000000 1.945220 
# 
# From -- ./inp_files/2244.got.cif
#   From: 2010.03.12/outbox.cif.g09.slc.cpg/sg27_2_cif.got.tgz:2244.got - 2010.04.14 03:36:05.
