data_PCOD8167836
_publ_section_title
;
Structure prediction by ZEFSAII (Michael W. Deem and Ramdas Pophale) SiO2 
 PCOD8167836
Probable space group: P C C 2
;
_chemical_formula_sum "Si O2"
_cell_formula_units_Z 26
_cell_length_a 8.784618
_cell_length_b 15.134450
_cell_length_c 9.410638
_cell_angle_alpha 90.000000
_cell_angle_beta 90.000000
_cell_angle_gamma 90.000000
_cell_volume 1251.147728
_symmetry_space_group_name_H-M "P C C 2"
_symmetry_group_IT_number 27
_symmetry_cell_setting 'orthorhombic'
loop_
_space_group_symop_operation_xyz
x,y,z
-x,-y,z
-x,y,1/2+z
x,-y,1/2+z
loop_
_atom_site_type_symbol
_atom_site_label
_atom_site_fract_x
_atom_site_fract_y
_atom_site_fract_z
Si Si1 0.858388 0.745843 0.891630
Si Si2 0.443814 0.322533 0.767836
Si Si3 0.000000 0.000000 0.073312
Si Si4 0.907158 0.115837 0.822642
Si Si5 0.913106 0.411219 0.841550
Si Si6 0.743839 0.262807 0.692890
Si Si7 0.386720 0.422283 0.501132
O O1 0.705968 0.731196 0.803028
O O2 0.933692 0.830678 0.818497
O O3 0.962766 0.658336 0.898119
O O4 0.821046 0.773540 0.051335
O O5 0.562065 0.266303 0.672051
O O6 0.392562 0.405200 0.670177
O O7 0.543319 0.342995 0.907885
O O8 0.105724 0.056680 0.180145
O O9 0.893864 0.059250 0.968156
O O10 0.778102 0.191899 0.818487
O O11 0.814131 0.361540 0.720233
O O12 0.000000 0.500000 0.787352
O O13 0.790768 0.439976 0.963161
O O14 0.500000 0.500000 0.460430
#
# Coordination Sequence:
#
# PCOD8167836 Si02
#       7
#     4   4   2   4   4   4   4
#     4  11  22  41  61  95 125 165 216 265 317 374
#     4  11  23  40  63  83 124 169 212 265 323 385
#     4  10  20  38  66 106 126 160 198 248 322 376
#     4  10  21  38  70  97 129 160 201 258 305 385
#     4  10  24  38  61  89 123 171 218 276 311 372
#     4  10  22  41  61  91 127 165 217 255 322 380
#     4  11  23  40  57  86 120 169 219 273 327 375
#
# _framework density 20.780918
#
# number of rings (size 3 to 8) (size 9 to 14) (size 15 to 20)
#    0.000    1.538    3.077    1.385    4.308    3.077 
#    0.000    0.000    0.000    5.538    0.000    0.000 
#    0.000    0.000    0.000    0.000    0.000    0.000 
#
# Total GULP energy -322161.548288 kJ/mol
# GULP energy per Si atom -12390.828780 kJ/mol
# Density = 2.073362 g / cm^3
# Si number density = 20.780918 Si / 1000 Ang^3
#
#
#
# Elastic Constant Matrix: (Units=GPa)
#
#
# Indices 1 2 3 4 5 6 
#
# 1 133.6027 41.4656 25.8819 0.0000 0.0000 0.0000
# 2 41.4656 103.4989 29.5835 0.0000 0.0000 0.0000
# 3 25.8819 29.5835 94.4713 0.0000 0.0000 0.0000
# 4 0.0000 0.0000 0.0000 31.3842 0.0000 0.0000
# 5 0.0000 0.0000 0.0000 0.0000 21.1242 0.0000
# 6 0.0000 0.0000 0.0000 0.0000 0.0000 13.6914
#
#
#
# Elastic Compliance Matrix: (Units=1/GPa)
#
#
# Indices 1 2 3 4 5 6 
#
# 1 0.008718 -0.003086 -0.001422 0.000000 0.000000 0.000000
# 2 -0.003086 0.011704 -0.002820 0.000000 0.000000 0.000000
# 3 -0.001422 -0.002820 0.011858 0.000000 0.000000 0.000000
# 4 0.000000 0.000000 0.000000 0.031863 0.000000 0.000000
# 5 0.000000 0.000000 0.000000 0.000000 0.047339 0.000000
# 6 0.000000 0.000000 0.000000 0.000000 0.000000 0.073039
#
#
# Mechanical properties :
#
#
# Convention : Reuss Voigt Hill
#
# Bulk Modulus (GPa) = 56.73974 58.38167 57.56070
# Shear Modulus (GPa) = 24.38401 28.88274 26.63338
#
# Velocity S-wave (km/s) = 3.42919 3.73214 3.58386
# Velocity P-wave (km/s) = 6.56065 6.83569 6.69958
#
# Compressibility (1/GPa) = 0.01762433
#
# Stress axis : x y z
#
# Youngs Moduli (GPa) = 114.70176 85.43784 84.33290
#
# Poissons Ratio (x) = 0.26370 0.11992
# Poissons Ratio (y) = 0.35402 0.23779
# Poissons Ratio (z) = 0.16311 0.24090
#
# Static dielectric constant tensor:
#      x y z
#    x 3.852750 0.000000 0.000000 
#    y 0.000000 3.738700 0.000000 
#    z 0.000000 0.000000 3.757460 
# 
# 
# High freq. dielectric constant tensor:
#      x y z
#    x 1.804430 0.000000 0.000000 
#    y 0.000000 1.798540 0.000000 
#    z 0.000000 0.000000 1.817080 
# 
# From -- ./inp_files/1197.got.cif
#   From: 2010.03.12/outbox.cif.g09.slc.cpg/sg27_1_cif.got.tgz:1197.got - 2010.04.14 03:36:05.
