data_PCOD8167658
_publ_section_title
;
Structure prediction by ZEFSAII (Michael W. Deem and Ramdas Pophale) SiO2 
 PCOD8167658
Probable space group: P M C 21
;
_chemical_formula_sum "Si O2"
_cell_formula_units_Z 24
_cell_length_a 8.532371
_cell_length_b 15.285139
_cell_length_c 9.231612
_cell_angle_alpha 90.000000
_cell_angle_beta 90.000000
_cell_angle_gamma 90.000000
_cell_volume 1203.972775
_symmetry_space_group_name_H-M "P M C 21"
_symmetry_group_IT_number 26
_symmetry_cell_setting 'orthorhombic'
loop_
_space_group_symop_operation_xyz
x,y,z
-x,-y,1/2+z
-x,y,z
x,-y,1/2+z
loop_
_atom_site_type_symbol
_atom_site_label
_atom_site_fract_x
_atom_site_fract_y
_atom_site_fract_z
Si Si1 0.184048 0.416998 0.388230
Si Si2 0.682125 0.071236 0.559471
Si Si3 0.181875 0.752172 0.554588
Si Si4 0.683993 0.235180 0.366759
Si Si5 0.315526 0.428226 0.071314
Si Si6 0.819435 0.080041 0.874744
O O1 0.224505 0.317910 0.434268
O O2 0.264880 0.483191 0.496546
O O3 0.000000 0.432628 0.388256
O O4 0.255442 0.435304 0.233023
O O5 0.500000 0.076593 0.599365
O O6 0.735866 0.151784 0.459730
O O7 0.779940 0.072104 0.706471
O O8 0.713230 0.983214 0.470901
O O9 0.272281 0.781407 0.699552
O O10 0.241161 0.658050 0.496644
O O11 0.213967 0.821217 0.427243
O O12 0.000000 0.745338 0.595432
O O13 0.500000 0.253017 0.377278
O O14 0.500000 0.417813 0.067650
O O15 0.000000 0.054225 0.898180
#
# Coordination Sequence:
#
# PCOD8167658 Si02
#       6
#     4   4   4   4   4   4
#     4  11  22  38  60  86 117 154 194 239 288 343
#     4  11  24  40  61  87 118 153 193 238 287 342
#     4  10  21  38  59  85 115 151 193 239 289 343
#     4  10  21  38  59  85 115 151 193 239 289 343
#     4  11  22  38  60  86 117 154 194 239 288 343
#     4  11  24  40  61  87 118 153 193 238 287 342
#
# _framework density 19.934004999999999
#
# number of rings (size 3 to 8) (size 9 to 14) (size 15 to 20)
#    0.000    1.333    0.000    8.000    0.000    9.333 
#    0.000    3.333    0.000    0.000    0.000    0.000 
#    0.000    0.000    0.000    0.000    0.000    0.000 
#
# Total GULP energy -297715.324256 kJ/mol
# GULP energy per Si atom -12404.805177 kJ/mol
# Density = 1.988863 g / cm^3
# Si number density = 19.934005 Si / 1000 Ang^3
#
#
#
# Elastic Constant Matrix: (Units=GPa)
#
#
# Indices 1 2 3 4 5 6 
#
# 1 71.5899 30.7435 21.2172 0.0000 0.0000 0.0000
# 2 30.7435 73.3193 16.7941 0.0000 0.0000 0.0000
# 3 21.2172 16.7941 53.1803 0.0000 0.0000 0.0000
# 4 0.0000 0.0000 0.0000 42.0857 0.0000 0.0000
# 5 0.0000 0.0000 0.0000 0.0000 36.1929 0.0000
# 6 0.0000 0.0000 0.0000 0.0000 0.0000 35.9246
#
#
#
# Elastic Compliance Matrix: (Units=1/GPa)
#
#
# Indices 1 2 3 4 5 6 
#
# 1 0.018306 -0.006471 -0.005260 0.000000 0.000000 0.000000
# 2 -0.006471 0.016990 -0.002784 0.000000 0.000000 0.000000
# 3 -0.005260 -0.002784 0.021782 0.000000 0.000000 0.000000
# 4 0.000000 0.000000 0.000000 0.023761 0.000000 0.000000
# 5 0.000000 0.000000 0.000000 0.000000 0.027630 0.000000
# 6 0.000000 0.000000 0.000000 0.000000 0.000000 0.027836
#
#
# Mechanical properties :
#
#
# Convention : Reuss Voigt Hill
#
# Bulk Modulus (GPa) = 35.65280 37.28879 36.47080
# Shear Modulus (GPa) = 28.62313 31.46297 30.04305
#
# Velocity S-wave (km/s) = 3.79343 3.97716 3.88638
# Velocity P-wave (km/s) = 6.09189 6.31167 6.20275
#
# Compressibility (1/GPa) = 0.02804828
#
# Stress axis : x y z
#
# Youngs Moduli (GPa) = 54.62576 58.85810 45.91033
#
# Poissons Ratio (x) = 0.38088 0.24149
# Poissons Ratio (y) = 0.35349 0.12779
# Poissons Ratio (z) = 0.28734 0.16384
#
# Static dielectric constant tensor:
#      x y z
#    x 3.765570 0.000000 0.000000 
#    y 0.000000 4.049120 0.000000 
#    z 0.000000 0.000000 3.569240 
# 
# 
# High freq. dielectric constant tensor:
#      x y z
#    x 1.795790 0.000000 0.000000 
#    y 0.000000 1.794020 0.000000 
#    z 0.000000 0.000000 1.770410 
# 
# From -- ./inp_files/1502.got.cif
#   From: 2010.03.12/outbox.cif.g09.slc.cpg/sg26_1_cif.got.tgz:1502.got - 2010.04.14 03:33:09.
