data_PCOD8167157
_publ_section_title
;
Structure prediction by ZEFSAII (Michael W. Deem and Ramdas Pophale) SiO2 
 PCOD8167157
Probable space group: P M C 21
;
_chemical_formula_sum "Si O2"
_cell_formula_units_Z 28
_cell_length_a 13.403759
_cell_length_b 9.216585
_cell_length_c 13.571774
_cell_angle_alpha 90.000000
_cell_angle_beta 90.000000
_cell_angle_gamma 90.000000
_cell_volume 1676.614672
_symmetry_space_group_name_H-M "P M C 21"
_symmetry_group_IT_number 26
_symmetry_cell_setting 'orthorhombic'
loop_
_space_group_symop_operation_xyz
x,y,z
-x,-y,1/2+z
-x,y,z
x,-y,1/2+z
loop_
_atom_site_type_symbol
_atom_site_label
_atom_site_fract_x
_atom_site_fract_y
_atom_site_fract_z
Si Si1 0.274668 0.205551 0.466220
Si Si2 0.887073 0.669822 0.846584
Si Si3 0.276820 0.943414 0.605801
Si Si4 0.613705 0.770027 0.445418
Si Si5 0.764375 0.478389 0.970493
Si Si6 0.386252 0.964274 0.809168
Si Si7 0.885104 0.285906 0.116869
O O1 0.172841 0.199382 0.400730
O O2 0.291204 0.371472 0.503793
O O3 0.363468 0.154211 0.393963
O O4 0.266084 0.104372 0.561875
O O5 0.840890 0.515530 0.881702
O O6 0.877052 0.675321 0.730467
O O7 0.000000 0.682759 0.882111
O O8 0.358300 0.851592 0.546045
O O9 0.312091 0.948304 0.717997
O O10 0.168690 0.867635 0.597327
O O11 0.500000 0.718325 0.453686
O O12 0.681898 0.630218 0.428689
O O13 0.630128 0.875484 0.352863
O O14 0.827785 0.413484 0.060142
O O15 0.500000 0.941887 0.774735
O O16 0.000000 0.273971 0.082163
#
# Coordination Sequence:
#
# PCOD8167157 Si02
#       7
#     4   4   4   4   4   4   4
#     4   9  20  34  53  78 103 140 171 220 259 315
#     4   9  18  34  53  75 104 137 172 213 265 310
#     4  10  18  34  53  77 106 132 180 216 265 310
#     4   9  19  33  52  75 104 140 174 216 261 309
#     4   9  19  34  52  77 105 139 173 218 258 314
#     4  10  19  34  54  76 105 139 175 218 266 311
#     4  10  19  33  55  76 103 141 177 215 264 317
#
# _framework density 16.700319
#
# number of rings (size 3 to 8) (size 9 to 14) (size 15 to 20)
#    0.857    1.714    1.429    0.857    0.000    2.857 
#    0.000    0.000    0.000    4.286    0.000    0.000 
#    0.000    0.000    0.000    0.000    0.000    0.000 
#
# Total GULP energy -347034.816943 kJ/mol
# GULP energy per Si atom -12394.100605 kJ/mol
# Density = 1.666231 g / cm^3
# Si number density = 16.700319 Si / 1000 Ang^3
#
#
#
# Elastic Constant Matrix: (Units=GPa)
#
#
# Indices 1 2 3 4 5 6 
#
# 1 92.7738 42.6347 26.2459 0.0000 0.0000 0.0000
# 2 42.6347 103.6789 28.9421 0.0000 0.0000 0.0000
# 3 26.2459 28.9421 61.9209 0.0000 0.0000 0.0000
# 4 0.0000 0.0000 0.0000 21.7401 0.0000 0.0000
# 5 0.0000 0.0000 0.0000 0.0000 23.8349 0.0000
# 6 0.0000 0.0000 0.0000 0.0000 0.0000 25.6512
#
#
#
# Elastic Compliance Matrix: (Units=1/GPa)
#
#
# Indices 1 2 3 4 5 6 
#
# 1 0.014002 -0.004716 -0.003730 0.000000 0.000000 0.000000
# 2 -0.004716 0.012681 -0.003928 0.000000 0.000000 0.000000
# 3 -0.003730 -0.003928 0.019567 0.000000 0.000000 0.000000
# 4 0.000000 0.000000 0.000000 0.045998 0.000000 0.000000
# 5 0.000000 0.000000 0.000000 0.000000 0.041955 0.000000
# 6 0.000000 0.000000 0.000000 0.000000 0.000000 0.038984
#
#
# Mechanical properties :
#
#
# Convention : Reuss Voigt Hill
#
# Bulk Modulus (GPa) = 46.51176 50.44656 48.47916
# Shear Modulus (GPa) = 24.37792 24.94865 24.66328
#
# Velocity S-wave (km/s) = 3.82478 3.86930 3.84710
# Velocity P-wave (km/s) = 6.88597 7.08763 6.98753
#
# Compressibility (1/GPa) = 0.02149994
#
# Stress axis : x y z
#
# Youngs Moduli (GPa) = 71.42006 78.85694 51.10703
#
# Poissons Ratio (x) = 0.37192 0.19064
# Poissons Ratio (y) = 0.33685 0.20076
# Poissons Ratio (z) = 0.26642 0.30976
#
# Static dielectric constant tensor:
#      x y z
#    x 3.212660 0.000000 0.000000 
#    y 0.000000 3.055960 0.000000 
#    z 0.000000 0.000000 2.994490 
# 
# 
# High freq. dielectric constant tensor:
#      x y z
#    x 1.647650 0.000000 0.000000 
#    y 0.000000 1.634860 0.000000 
#    z 0.000000 0.000000 1.640500 
# 
# From -- ./inp_files/4652.got.cif
#   From: 2010.03.12/outbox.cif.g09.slc.cpg/sg26_3_cif.got.tgz:4652.got - 2010.04.14 03:33:09.
