data_PCOD8167105
_publ_section_title
;
Structure prediction by ZEFSAII (Michael W. Deem and Ramdas Pophale) SiO2 
 PCOD8167105
Probable space group: P M C 21
;
_chemical_formula_sum "Si O2"
_cell_formula_units_Z 28
_cell_length_a 11.090413
_cell_length_b 14.764509
_cell_length_c 9.068014
_cell_angle_alpha 90.000000
_cell_angle_beta 90.000000
_cell_angle_gamma 90.000000
_cell_volume 1484.837442
_symmetry_space_group_name_H-M "P M C 21"
_symmetry_group_IT_number 26
_symmetry_cell_setting 'orthorhombic'
loop_
_space_group_symop_operation_xyz
x,y,z
-x,-y,1/2+z
-x,y,z
x,-y,1/2+z
loop_
_atom_site_type_symbol
_atom_site_label
_atom_site_fract_x
_atom_site_fract_y
_atom_site_fract_z
Si Si1 0.138909 0.038191 0.663270
Si Si2 0.500000 0.620936 0.956753
Si Si3 0.500000 0.560898 0.289248
Si Si4 0.242995 0.390705 0.879901
Si Si5 0.754890 0.705840 0.963649
Si Si6 0.860164 0.226420 0.761598
Si Si7 0.860210 0.466145 0.577303
Si Si8 0.855544 0.880874 0.859622
O O1 0.154255 0.118515 0.786734
O O2 0.194609 0.070449 0.508417
O O3 0.000000 0.018672 0.635206
O O4 0.193225 0.944162 0.726098
O O5 0.500000 0.545452 0.828796
O O6 0.614540 0.685985 0.938850
O O7 0.500000 0.568824 0.112643
O O8 0.614180 0.612105 0.358197
O O9 0.189982 0.288003 0.895923
O O10 0.211441 0.443735 0.029246
O O11 0.180651 0.439387 0.740355
O O12 0.829612 0.611987 0.956817
O O13 0.800013 0.779951 0.843582
O O14 0.777293 0.747729 0.123670
O O15 0.000000 0.250633 0.727799
O O16 0.000000 0.488138 0.575127
O O17 0.000000 0.872339 0.864588
#
# Coordination Sequence:
#
# PCOD8167105 Si02
#       8
#     4   2   2   4   4   4   4   4
#     4   8  15  27  48  74 100 129 160 203 251 312
#     4  12  22  36  58  71 105 133 193 218 254 305
#     4  12  20  38  52  79  97 143 187 220 250 301
#     4  11  20  33  51  71 105 135 173 219 248 309
#     4  10  18  31  50  74  96 135 170 217 245 305
#     4   9  16  29  49  75 102 132 168 206 257 311
#     4  11  20  32  49  75 103 135 167 211 269 310
#     4   9  16  30  52  76 101 128 166 207 258 312
#
# _framework density 18.857282999999999
#
# number of rings (size 3 to 8) (size 9 to 14) (size 15 to 20)
#    0.000    2.000    4.286    4.286    0.000    0.000 
#    0.000    1.429    0.000    7.714    0.000    0.000 
#    0.000    0.000    0.000    0.000    0.000    0.000 
#
# Total GULP energy -346970.554272 kJ/mol
# GULP energy per Si atom -12391.805510 kJ/mol
# Density = 1.881436 g / cm^3
# Si number density = 18.857283 Si / 1000 Ang^3
#
#
#
# Elastic Constant Matrix: (Units=GPa)
#
#
# Indices 1 2 3 4 5 6 
#
# 1 96.6486 24.5619 12.8425 0.0000 0.0000 0.0000
# 2 24.5619 45.3459 -3.2868 0.0000 0.0000 0.0000
# 3 12.8425 -3.2868 21.8623 0.0000 0.0000 0.0000
# 4 0.0000 0.0000 0.0000 29.9576 0.0000 0.0000
# 5 0.0000 0.0000 0.0000 0.0000 15.6569 0.0000
# 6 0.0000 0.0000 0.0000 0.0000 0.0000 12.6639
#
#
#
# Elastic Compliance Matrix: (Units=1/GPa)
#
#
# Indices 1 2 3 4 5 6 
#
# 1 0.013614 -0.008041 -0.009206 0.000000 0.000000 0.000000
# 2 -0.008041 0.027045 0.008790 0.000000 0.000000 0.000000
# 3 -0.009206 0.008790 0.052470 0.000000 0.000000 0.000000
# 4 0.000000 0.000000 0.000000 0.033380 0.000000 0.000000
# 5 0.000000 0.000000 0.000000 0.000000 0.063870 0.000000
# 6 0.000000 0.000000 0.000000 0.000000 0.000000 0.078965
#
#
# Mechanical properties :
#
#
# Convention : Reuss Voigt Hill
#
# Bulk Modulus (GPa) = 13.12092 25.78799 19.45446
# Shear Modulus (GPa) = 16.04294 20.30495 18.17395
#
# Velocity S-wave (km/s) = 2.91994 3.28498 3.10782
# Velocity P-wave (km/s) = 4.28266 5.30030 4.81842
#
# Compressibility (1/GPa) = 0.07621416
#
# Stress axis : x y z
#
# Youngs Moduli (GPa) = 73.45608 36.97491 19.05847
#
# Poissons Ratio (x) = 0.29732 0.17545
# Poissons Ratio (y) = 0.59067 -0.16752
# Poissons Ratio (z) = 0.67623 -0.32500
#
# Static dielectric constant tensor:
#      x y z
#    x 3.336340 0.000000 0.000000 
#    y 0.000000 3.997330 0.000000 
#    z 0.000000 0.000000 3.299980 
# 
# 
# High freq. dielectric constant tensor:
#      x y z
#    x 1.707850 0.000000 0.000000 
#    y 0.000000 1.738720 0.000000 
#    z 0.000000 0.000000 1.699270 
# 
# From -- ./inp_files/1996.got.cif
#   From: 2010.03.12/outbox.cif.g09.slc.cpg/sg26_1_cif.got.tgz:1996.got - 2010.04.14 03:33:09.
