data_PCOD8167087
_publ_section_title
;
Structure prediction by ZEFSAII (Michael W. Deem and Ramdas Pophale) SiO2 
 PCOD8167087
Probable space group: P M C 21
;
_chemical_formula_sum "Si O2"
_cell_formula_units_Z 32
_cell_length_a 13.389039
_cell_length_b 25.224791
_cell_length_c 5.316293
_cell_angle_alpha 90.000000
_cell_angle_beta 90.000000
_cell_angle_gamma 90.000000
_cell_volume 1795.501993
_symmetry_space_group_name_H-M "P M C 21"
_symmetry_group_IT_number 26
_symmetry_cell_setting 'orthorhombic'
loop_
_space_group_symop_operation_xyz
x,y,z
-x,-y,1/2+z
-x,y,z
x,-y,1/2+z
loop_
_atom_site_type_symbol
_atom_site_label
_atom_site_fract_x
_atom_site_fract_y
_atom_site_fract_z
Si Si1 0.387204 0.033741 0.246810
Si Si2 0.799506 0.779125 0.250614
Si Si3 0.115425 0.894662 0.250689
Si Si4 0.380785 0.470630 0.248443
Si Si5 0.382660 0.289154 0.747297
Si Si6 0.196363 0.097080 0.250694
Si Si7 0.116268 0.785962 0.750633
Si Si8 0.382578 0.648000 0.747879
O O1 0.500000 0.055908 0.248472
O O2 0.313705 0.084012 0.249785
O O3 0.366682 0.999234 0.494471
O O4 0.815341 0.842261 0.251561
O O5 0.681753 0.765023 0.249425
O O6 0.852533 0.754003 0.499224
O O7 0.853276 0.754085 0.002827
O O8 0.142978 0.927740 0.501868
O O9 0.000000 0.877807 0.249559
O O10 0.143592 0.927819 0.000169
O O11 0.500000 0.470289 0.248140
O O12 0.340831 0.499973 0.498500
O O13 0.336479 0.411023 0.248336
O O14 0.500000 0.274471 0.746510
O O15 0.349548 0.321434 0.499695
O O16 0.350564 0.322045 0.993761
O O17 0.180305 0.159997 0.251609
O O18 0.000000 0.800075 0.749225
O O19 0.500000 0.642093 0.750845
#
# Coordination Sequence:
#
# PCOD8167087 Si02
#       8
#     4   4   4   4   4   4   4   4
#     4  10  21  37  55  74  98 128 159 189 224 268
#     4  10  18  30  47  69  90 122 160 186 223 272
#     4  10  19  33  53  74  97 122 152 189 234 280
#     4   9  15  23  37  56  75 100 147 203 237 263
#     4  10  19  30  42  59  90 127 160 189 218 265
#     4  10  18  32  54  75  94 123 155 188 226 272
#     4  10  19  33  52  72  94 118 150 189 234 280
#     4   9  17  28  40  55  81 120 157 191 233 270
#
# _framework density 17.822315
#
# number of rings (size 3 to 8) (size 9 to 14) (size 15 to 20)
#    0.000    2.250    0.000    6.000    0.000    3.000 
#    0.000    5.000    0.000   12.750    0.000    0.000 
#    0.000    0.000    0.000    0.000    0.000  257.500 
#
# Total GULP energy -396509.189169 kJ/mol
# GULP energy per Si atom -12390.912162 kJ/mol
# Density = 1.778175 g / cm^3
# Si number density = 17.822315 Si / 1000 Ang^3
#
#
#
# Elastic Constant Matrix: (Units=GPa)
#
#
# Indices 1 2 3 4 5 6 
#
# 1 112.9259 59.3688 54.4455 0.0000 0.0000 0.0000
# 2 59.3688 52.7969 29.8499 0.0000 0.0000 0.0000
# 3 54.4455 29.8499 208.9060 0.0000 0.0000 0.0000
# 4 0.0000 0.0000 0.0000 9.4264 0.0000 0.0000
# 5 0.0000 0.0000 0.0000 0.0000 32.4953 0.0000
# 6 0.0000 0.0000 0.0000 0.0000 0.0000 3.6913
#
#
#
# Elastic Compliance Matrix: (Units=1/GPa)
#
#
# Indices 1 2 3 4 5 6 
#
# 1 0.022781 -0.024216 -0.002477 0.000000 0.000000 0.000000
# 2 -0.024216 0.046347 -0.000311 0.000000 0.000000 0.000000
# 3 -0.002477 -0.000311 0.005477 0.000000 0.000000 0.000000
# 4 0.000000 0.000000 0.000000 0.106085 0.000000 0.000000
# 5 0.000000 0.000000 0.000000 0.000000 0.030774 0.000000
# 6 0.000000 0.000000 0.000000 0.000000 0.000000 0.270910
#
#
# Mechanical properties :
#
#
# Convention : Reuss Voigt Hill
#
# Bulk Modulus (GPa) = 48.55290 73.55079 61.05185
# Shear Modulus (GPa) = 9.20392 24.52024 16.86208
#
# Velocity S-wave (km/s) = 2.27497 3.71322 3.07925
# Velocity P-wave (km/s) = 5.84829 7.72933 6.85365
#
# Compressibility (1/GPa) = 0.02059609
#
# Stress axis : x y z
#
# Youngs Moduli (GPa) = 43.89677 21.57653 182.58632
#
# Poissons Ratio (x) = 0.52250 0.45227
# Poissons Ratio (y) = 1.06300 0.05681
# Poissons Ratio (z) = 0.10873 0.00671
#
# Static dielectric constant tensor:
#      x y z
#    x 3.024380 0.000000 0.000000 
#    y 0.000000 2.918760 0.000000 
#    z 0.000000 0.000000 4.703580 
# 
# 
# High freq. dielectric constant tensor:
#      x y z
#    x 1.653980 0.000000 0.000000 
#    y 0.000000 1.637190 0.000000 
#    z 0.000000 0.000000 1.736630 
# 
# From -- ./inp_files/502.got.cif
#   From: 2010.03.12/outbox.cif.g09.slc.cpg/sg26_1_cif.got.tgz:502.got - 2010.04.14 03:33:09.
