data_PCOD8167812
_publ_section_title
;
Structure prediction by ZEFSAII (Michael W. Deem and Ramdas Pophale) SiO2 
 PCOD8167812
Probable space group: P C C 2
;
_chemical_formula_sum "Si O2"
_cell_formula_units_Z 32
_cell_length_a 17.896780
_cell_length_b 8.357595
_cell_length_c 9.250465
_cell_angle_alpha 90.000000
_cell_angle_beta 90.000000
_cell_angle_gamma 90.000000
_cell_volume 1383.629413
_symmetry_space_group_name_H-M "P C C 2"
_symmetry_group_IT_number 27
_symmetry_cell_setting 'orthorhombic'
loop_
_space_group_symop_operation_xyz
x,y,z
-x,-y,z
-x,y,1/2+z
x,-y,1/2+z
loop_
_atom_site_type_symbol
_atom_site_label
_atom_site_fract_x
_atom_site_fract_y
_atom_site_fract_z
Si Si1 0.669234 0.933513 0.573950
Si Si2 0.471674 0.821468 0.919341
Si Si3 0.405738 0.268132 0.128983
Si Si4 0.242136 0.105434 0.852887
Si Si5 0.742136 0.605433 0.071826
Si Si6 0.971674 0.678533 0.505372
Si Si7 0.094261 0.231868 0.795731
Si Si8 0.830766 0.433512 0.850764
O O1 0.599099 0.826718 0.526602
O O2 0.710628 0.852512 0.709231
O O3 0.640390 0.104099 0.628752
O O4 0.726088 0.949503 0.436695
O O5 0.451764 0.721460 0.777063
O O6 0.500000 0.000000 0.877827
O O7 0.537440 0.722830 0.995504
O O8 0.345633 0.413340 0.114369
O O9 0.154367 0.086660 0.810344
O O10 0.249999 0.250000 0.962357
O O11 0.789373 0.647487 0.215481
O O12 0.773912 0.449503 0.988018
O O13 0.951764 0.778539 0.647651
O O14 0.900900 0.673284 0.398113
O O15 0.000000 0.500000 0.546884
O O16 0.037440 0.777172 0.429210
O O17 0.140389 0.395901 0.795964
#
# Coordination Sequence:
#
# PCOD8167812 Si02
#       8
#     4   4   4   4   4   4   4   4
#     4  10  19  38  59  86 121 154 200 255 297 354
#     4  10  19  33  60  88 119 151 197 259 301 338
#     4  10  21  34  57  92 118 151 195 249 304 357
#     4  10  22  37  58  91 122 156 200 251 305 360
#     4  10  22  37  58  91 122 156 200 251 305 360
#     4  10  19  33  60  88 119 151 197 259 301 338
#     4  10  21  34  57  92 118 151 195 249 304 357
#     4  10  19  38  59  86 121 154 200 255 297 354
#
# _framework density 23.127579999999998
#
# number of rings (size 3 to 8) (size 9 to 14) (size 15 to 20)
#    0.000    2.000    2.500    2.250    7.000    1.000 
#    0.000    0.000    0.000    4.500    0.000    0.000 
#    0.000    0.000    0.000    0.000    0.000    0.000 
#
# Total GULP energy -396759.373842 kJ/mol
# GULP energy per Si atom -12398.730433 kJ/mol
# Density = 2.307494 g / cm^3
# Si number density = 23.127580 Si / 1000 Ang^3
#
#
#
# Elastic Constant Matrix: (Units=GPa)
#
#
# Indices 1 2 3 4 5 6 
#
# 1 176.6308 21.0431 77.4904 0.0000 0.0000 0.0000
# 2 21.0431 6.0132 6.9531 0.0000 0.0000 0.0000
# 3 77.4904 6.9531 150.4970 0.0000 0.0000 0.0000
# 4 0.0000 0.0000 0.0000 21.5664 0.0000 0.0000
# 5 0.0000 0.0000 0.0000 0.0000 62.5416 0.0000
# 6 0.0000 0.0000 0.0000 0.0000 0.0000 24.4750
#
#
#
# Elastic Compliance Matrix: (Units=1/GPa)
#
#
# Indices 1 2 3 4 5 6 
#
# 1 0.012026 -0.036896 -0.004487 0.000000 0.000000 0.000000
# 2 -0.036896 0.288884 0.005651 0.000000 0.000000 0.000000
# 3 -0.004487 0.005651 0.008694 0.000000 0.000000 0.000000
# 4 0.000000 0.000000 0.000000 0.046368 0.000000 0.000000
# 5 0.000000 0.000000 0.000000 0.000000 0.015989 0.000000
# 6 0.000000 0.000000 0.000000 0.000000 0.000000 0.040858
#
#
# Mechanical properties :
#
#
# Convention : Reuss Voigt Hill
#
# Bulk Modulus (GPa) = 4.19922 60.45710 32.32816
# Shear Modulus (GPa) = 8.87052 36.89356 22.88204
#
# Velocity S-wave (km/s) = 1.96056 3.99835 3.14886
# Velocity P-wave (km/s) = 2.63528 6.89298 5.21814
#
# Compressibility (1/GPa) = 0.23813975
#
# Stress axis : x y z
#
# Youngs Moduli (GPa) = 83.15426 3.46159 115.01973
#
# Poissons Ratio (x) = 0.12772 0.51615
# Poissons Ratio (y) = 3.06803 -0.64995
# Poissons Ratio (z) = 0.37315 -0.01956
#
# Static dielectric constant tensor:
#      x y z
#    x 5.045530 0.000000 0.000000 
#    y 0.000000 3.579310 0.000000 
#    z 0.000000 0.000000 4.341550 
# 
# 
# High freq. dielectric constant tensor:
#      x y z
#    x 1.935970 0.000000 0.000000 
#    y 0.000000 1.840660 0.000000 
#    z 0.000000 0.000000 1.930920 
# 
# From -- ./inp_files/1714.got.cif
#   From: 2010.03.12/outbox.cif.g09.slc.cpg/sg27_1_cif.got.tgz:1714.got - 2010.04.14 03:36:05.
