data_PCOD8167857
_publ_section_title
;
Structure prediction by ZEFSAII (Michael W. Deem and Ramdas Pophale) SiO2 
 PCOD8167857
Probable space group: P C C 2
;
_chemical_formula_sum "Si O2"
_cell_formula_units_Z 32
_cell_length_a 11.795059
_cell_length_b 15.023923
_cell_length_c 9.387798
_cell_angle_alpha 90.000000
_cell_angle_beta 90.000000
_cell_angle_gamma 90.000000
_cell_volume 1663.593454
_symmetry_space_group_name_H-M "P C C 2"
_symmetry_group_IT_number 27
_symmetry_cell_setting 'orthorhombic'
loop_
_space_group_symop_operation_xyz
x,y,z
-x,-y,z
-x,y,1/2+z
x,-y,1/2+z
loop_
_atom_site_type_symbol
_atom_site_label
_atom_site_fract_x
_atom_site_fract_y
_atom_site_fract_z
Si Si1 0.120932 0.271050 0.967220
Si Si2 0.417443 0.724876 0.790037
Si Si3 0.620932 0.228950 0.467220
Si Si4 0.082557 0.775124 0.790037
Si Si5 0.720096 0.896273 0.341526
Si Si6 0.123663 0.465405 0.053907
Si Si7 0.220097 0.396273 0.341525
Si Si8 0.623663 0.034595 0.553907
O O1 0.250000 0.250001 0.932287
O O2 0.045895 0.222269 0.846907
O O3 0.084619 0.232445 0.119914
O O4 0.105862 0.377354 0.958734
O O5 0.415380 0.732446 0.619914
O O6 0.545895 0.722269 0.846907
O O7 0.358905 0.810443 0.860913
O O8 0.351118 0.635644 0.838126
O O9 0.605863 0.122646 0.458733
O O10 0.148882 0.864355 0.838126
O O11 0.141095 0.689556 0.860911
O O12 0.693625 0.945707 0.194927
O O13 0.698430 0.962402 0.471144
O O14 0.193626 0.445707 0.194926
O O15 0.000000 0.500000 0.096752
O O16 0.198429 0.537599 0.971143
O O17 0.500000 0.000000 0.596750
#
# Coordination Sequence:
#
# PCOD8167857 Si02
#       8
#     4   4   4   4   4   4   4   4
#     4  11  22  42  64  89 124 162 206 254 305 366
#     4  10  21  42  61  88 127 162 196 254 310 364
#     4  11  22  42  64  89 124 162 206 254 305 366
#     4  10  21  42  61  88 127 162 196 254 310 364
#     4  10  21  38  60  90 125 152 200 258 301 355
#     4  11  20  35  65  94 117 155 208 257 299 353
#     4  10  21  38  60  90 125 152 200 258 301 355
#     4  11  20  35  65  94 117 155 208 257 299 353
#
# _framework density 19.235469999999999
#
# number of rings (size 3 to 8) (size 9 to 14) (size 15 to 20)
#    0.000    1.500    7.500    0.750    3.500    0.000 
#    9.000    1.250    0.000    0.000    0.000    0.000 
#    0.000    0.000    0.000    0.000    0.000    0.000 
#
# Total GULP energy -396855.653429 kJ/mol
# GULP energy per Si atom -12401.739170 kJ/mol
# Density = 1.919169 g / cm^3
# Si number density = 19.235470 Si / 1000 Ang^3
#
#
#
# Elastic Constant Matrix: (Units=GPa)
#
#
# Indices 1 2 3 4 5 6 
#
# 1 166.4701 55.6909 70.7042 0.0000 0.0000 0.0000
# 2 55.6909 98.5732 50.5859 0.0000 0.0000 0.0000
# 3 70.7042 50.5859 75.9694 0.0000 0.0000 0.0000
# 4 0.0000 0.0000 0.0000 17.9293 0.0000 0.0000
# 5 0.0000 0.0000 0.0000 0.0000 23.5416 0.0000
# 6 0.0000 0.0000 0.0000 0.0000 0.0000 33.3848
#
#
#
# Elastic Compliance Matrix: (Units=1/GPa)
#
#
# Indices 1 2 3 4 5 6 
#
# 1 0.010048 -0.001333 -0.008464 0.000000 0.000000 0.000000
# 2 -0.001333 0.015588 -0.009139 0.000000 0.000000 0.000000
# 3 -0.008464 -0.009139 0.027125 0.000000 0.000000 0.000000
# 4 0.000000 0.000000 0.000000 0.055775 0.000000 0.000000
# 5 0.000000 0.000000 0.000000 0.000000 0.042478 0.000000
# 6 0.000000 0.000000 0.000000 0.000000 0.000000 0.029954
#
#
# Mechanical properties :
#
#
# Convention : Reuss Voigt Hill
#
# Bulk Modulus (GPa) = 67.15942 77.21941 72.18942
# Shear Modulus (GPa) = 22.34121 25.90660 24.12390
#
# Velocity S-wave (km/s) = 3.41172 3.67388 3.54522
# Velocity P-wave (km/s) = 7.10703 7.63072 7.37353
#
# Compressibility (1/GPa) = 0.01488994
#
# Stress axis : x y z
#
# Youngs Moduli (GPa) = 99.52353 64.15285 36.86589
#
# Poissons Ratio (x) = 0.08554 0.31202
# Poissons Ratio (y) = 0.13270 0.33690
# Poissons Ratio (z) = 0.84233 0.58626
#
# Static dielectric constant tensor:
#      x y z
#    x 3.501460 0.000000 0.000000 
#    y 0.000000 3.721720 0.000000 
#    z 0.000000 0.000000 3.320400 
# 
# 
# High freq. dielectric constant tensor:
#      x y z
#    x 1.744780 0.000000 0.000000 
#    y 0.000000 1.745260 0.000000 
#    z 0.000000 0.000000 1.740940 
# 
# From -- ./inp_files/1484.got.cif
#   From: 2010.03.12/outbox.cif.g09.slc.cpg/sg27_1_cif.got.tgz:1484.got - 2010.04.14 03:36:05.
