data_PCOD8167153
_publ_section_title
;
Structure prediction by ZEFSAII (Michael W. Deem and Ramdas Pophale) SiO2 
 PCOD8167153
Probable space group: P M C 21
;
_chemical_formula_sum "Si O2"
_cell_formula_units_Z 32
_cell_length_a 9.034837
_cell_length_b 11.991391
_cell_length_c 15.309231
_cell_angle_alpha 90.000000
_cell_angle_beta 90.000000
_cell_angle_gamma 90.000000
_cell_volume 1658.606114
_symmetry_space_group_name_H-M "P M C 21"
_symmetry_group_IT_number 26
_symmetry_cell_setting 'orthorhombic'
loop_
_space_group_symop_operation_xyz
x,y,z
-x,-y,1/2+z
-x,y,z
x,-y,1/2+z
loop_
_atom_site_type_symbol
_atom_site_label
_atom_site_fract_x
_atom_site_fract_y
_atom_site_fract_z
Si Si1 0.175846 0.647047 0.726770
Si Si2 0.168191 0.983580 0.121804
Si Si3 0.175371 0.608020 0.214676
Si Si4 0.824817 0.219630 0.061183
Si Si5 0.328954 0.780945 0.877714
Si Si6 0.823987 0.239849 0.870093
Si Si7 0.670566 0.758699 0.077641
Si Si8 0.831099 0.996033 0.823299
O O1 0.226275 0.519344 0.720024
O O2 0.242051 0.709587 0.641380
O O3 0.242786 0.698541 0.813968
O O4 0.000000 0.659062 0.733075
O O5 0.220670 0.089210 0.064305
O O6 0.178629 0.026640 0.220658
O O7 0.000000 0.947263 0.099952
O O8 0.273861 0.880730 0.104028
O O9 0.237499 0.669883 0.301407
O O10 0.242037 0.662876 0.128303
O O11 0.000000 0.619557 0.208059
O O12 0.000000 0.228483 0.067879
O O13 0.768877 0.269065 0.968311
O O14 0.500000 0.783802 0.850977
O O15 0.265730 0.905811 0.874072
O O16 0.305783 0.735751 0.975387
O O17 0.000000 0.239083 0.865908
O O18 0.765177 0.117953 0.843408
O O19 0.500000 0.752187 0.104133
O O20 0.000000 0.985616 0.856604
#
# Coordination Sequence:
#
# PCOD8167153 Si02
#       8
#     4   4   4   4   4   4   4   4
#     4  10  21  38  60  84 110 145 192 241 284 330
#     4  10  18  33  59  85 110 144 185 232 287 340
#     4  10  21  38  60  84 110 145 192 241 284 330
#     4   9  17  31  53  82 112 139 174 227 287 339
#     4  11  24  39  56  82 118 156 191 230 280 340
#     4   9  17  31  53  82 112 139 174 227 287 339
#     4  11  24  39  56  82 118 156 191 230 280 340
#     4  10  18  33  59  85 110 144 185 232 287 340
#
# _framework density 19.293308
#
# number of rings (size 3 to 8) (size 9 to 14) (size 15 to 20)
#    0.000    2.000    2.500    1.500    0.000    5.000 
#    0.000    2.500    0.000    0.750    0.000    0.000 
#    0.000    0.000    0.000    0.000    0.000    0.000 
#
# Total GULP energy -396829.059276 kJ/mol
# GULP energy per Si atom -12400.908102 kJ/mol
# Density = 1.924940 g / cm^3
# Si number density = 19.293308 Si / 1000 Ang^3
#
#
#
# Elastic Constant Matrix: (Units=GPa)
#
#
# Indices 1 2 3 4 5 6 
#
# 1 34.9093 36.5708 25.1438 0.0000 0.0000 0.0000
# 2 36.5708 129.1165 51.5071 0.0000 0.0000 0.0000
# 3 25.1438 51.5071 104.5732 0.0000 0.0000 0.0000
# 4 0.0000 0.0000 0.0000 18.2367 0.0000 0.0000
# 5 0.0000 0.0000 0.0000 0.0000 22.8807 0.0000
# 6 0.0000 0.0000 0.0000 0.0000 0.0000 6.2274
#
#
#
# Elastic Compliance Matrix: (Units=1/GPa)
#
#
# Indices 1 2 3 4 5 6 
#
# 1 0.043057 -0.010038 -0.005409 0.000000 0.000000 0.000000
# 2 -0.010038 0.011979 -0.003487 0.000000 0.000000 0.000000
# 3 -0.005409 -0.003487 0.012580 0.000000 0.000000 0.000000
# 4 0.000000 0.000000 0.000000 0.054834 0.000000 0.000000
# 5 0.000000 0.000000 0.000000 0.000000 0.043705 0.000000
# 6 0.000000 0.000000 0.000000 0.000000 0.000000 0.160581
#
#
# Mechanical properties :
#
#
# Convention : Reuss Voigt Hill
#
# Bulk Modulus (GPa) = 33.61335 55.00470 44.30902
# Shear Modulus (GPa) = 13.35044 19.82745 16.58895
#
# Velocity S-wave (km/s) = 2.63339 3.20923 2.93547
# Velocity P-wave (km/s) = 5.16783 6.50414 5.87411
#
# Compressibility (1/GPa) = 0.02975009
#
# Stress axis : x y z
#
# Youngs Moduli (GPa) = 23.22521 83.47997 79.48821
#
# Poissons Ratio (x) = 0.83795 0.42992
# Poissons Ratio (y) = 0.23313 0.27715
# Poissons Ratio (z) = 0.12562 0.29107
#
# Static dielectric constant tensor:
#      x y z
#    x 3.204740 0.000000 0.000000 
#    y 0.000000 3.554710 0.000000 
#    z 0.000000 0.000000 3.769280 
# 
# 
# High freq. dielectric constant tensor:
#      x y z
#    x 1.711540 0.000000 0.000000 
#    y 0.000000 1.750680 0.000000 
#    z 0.000000 0.000000 1.767670 
# 
# From -- ./inp_files/4304.got.cif
#   From: 2010.03.12/outbox.cif.g09.slc.cpg/sg26_3_cif.got.tgz:4304.got - 2010.04.14 03:33:09.
