data_PCOD8167691
_publ_section_title
;
Structure prediction by ZEFSAII (Michael W. Deem and Ramdas Pophale) SiO2 
 PCOD8167691
Probable space group: P M C 21
;
_chemical_formula_sum "Si O2"
_cell_formula_units_Z 32
_cell_length_a 8.442590
_cell_length_b 11.778466
_cell_length_c 15.398327
_cell_angle_alpha 90.000000
_cell_angle_beta 90.000000
_cell_angle_gamma 90.000000
_cell_volume 1531.221328
_symmetry_space_group_name_H-M "P M C 21"
_symmetry_group_IT_number 26
_symmetry_cell_setting 'orthorhombic'
loop_
_space_group_symop_operation_xyz
x,y,z
-x,-y,1/2+z
-x,y,z
x,-y,1/2+z
loop_
_atom_site_type_symbol
_atom_site_label
_atom_site_fract_x
_atom_site_fract_y
_atom_site_fract_z
Si Si1 0.316756 0.371929 0.543000
Si Si2 0.315537 0.222044 0.705787
Si Si3 0.185117 0.241677 0.384425
Si Si4 0.812877 0.764362 0.385349
Si Si5 0.317463 0.241561 0.203189
Si Si6 0.816151 0.616130 0.549595
Si Si7 0.187930 0.996234 0.955805
Si Si8 0.814914 0.989907 0.651439
O O1 0.500000 0.349058 0.523210
O O2 0.261692 0.307032 0.629863
O O3 0.213725 0.329237 0.462263
O O4 0.288569 0.504304 0.558105
O O5 0.500000 0.194009 0.699048
O O6 0.273642 0.279292 0.798296
O O7 0.214194 0.107289 0.700764
O O8 0.275571 0.286541 0.299326
O O9 0.252978 0.117281 0.410013
O O10 0.000000 0.235600 0.363647
O O11 0.761020 0.683354 0.463917
O O12 0.000000 0.761013 0.372120
O O13 0.753204 0.892364 0.405286
O O14 0.500000 0.265802 0.182951
O O15 0.210607 0.305320 0.132916
O O16 0.279653 0.108043 0.200975
O O17 0.000000 0.583356 0.544303
O O18 0.000000 0.991952 0.959705
O O19 0.252708 0.000234 0.053955
O O20 0.000000 0.959766 0.653971
#
# Coordination Sequence:
#
# PCOD8167691 Si02
#       8
#     4   4   4   4   4   4   4   4
#     4  11  25  44  63  89 129 169 209 264 321 372
#     4  11  24  40  61  94 130 165 204 250 313 379
#     4  11  22  40  67  96 124 165 213 257 308 375
#     4  10  21  40  65  93 123 159 205 257 310 367
#     4  12  25  41  63  96 132 166 203 256 323 381
#     4  11  24  44  68  92 120 163 220 268 309 371
#     4   9  18  35  62  93 123 156 199 253 308 360
#     4  11  20  38  65  93 127 165 207 255 306 371
#
# _framework density 20.898350000000001
#
# number of rings (size 3 to 8) (size 9 to 14) (size 15 to 20)
#    0.000    1.250    2.500    3.750    0.000    4.500 
#    0.000    3.125    0.000    0.000    0.000    0.000 
#    0.000    0.000    0.000    0.000    0.000    0.000 
#
# Total GULP energy -397016.319286 kJ/mol
# GULP energy per Si atom -12406.759978 kJ/mol
# Density = 2.085078 g / cm^3
# Si number density = 20.898350 Si / 1000 Ang^3
#
#
#
# Elastic Constant Matrix: (Units=GPa)
#
#
# Indices 1 2 3 4 5 6 
#
# 1 51.3915 12.1435 21.8104 0.0000 0.0000 0.0000
# 2 12.1435 107.1787 38.8032 0.0000 0.0000 0.0000
# 3 21.8104 38.8032 157.8565 0.0000 0.0000 0.0000
# 4 0.0000 0.0000 0.0000 9.4837 0.0000 0.0000
# 5 0.0000 0.0000 0.0000 0.0000 30.5566 0.0000
# 6 0.0000 0.0000 0.0000 0.0000 0.0000 28.9262
#
#
#
# Elastic Compliance Matrix: (Units=1/GPa)
#
#
# Indices 1 2 3 4 5 6 
#
# 1 0.020874 -0.001450 -0.002528 0.000000 0.000000 0.000000
# 2 -0.001450 0.010342 -0.002342 0.000000 0.000000 0.000000
# 3 -0.002528 -0.002342 0.007260 0.000000 0.000000 0.000000
# 4 0.000000 0.000000 0.000000 0.105444 0.000000 0.000000
# 5 0.000000 0.000000 0.000000 0.000000 0.032726 0.000000
# 6 0.000000 0.000000 0.000000 0.000000 0.000000 0.034571
#
#
# Mechanical properties :
#
#
# Convention : Reuss Voigt Hill
#
# Bulk Modulus (GPa) = 38.70430 51.32677 45.01554
# Shear Modulus (GPa) = 21.50833 30.03796 25.77314
#
# Velocity S-wave (km/s) = 3.21158 3.79533 3.51559
# Velocity P-wave (km/s) = 5.68443 6.61964 6.16978
#
# Compressibility (1/GPa) = 0.02583692
#
# Stress axis : x y z
#
# Youngs Moduli (GPa) = 47.90700 96.68953 137.74511
#
# Poissons Ratio (x) = 0.14019 0.34817
# Poissons Ratio (y) = 0.06946 0.32259
# Poissons Ratio (z) = 0.12109 0.22644
#
# Static dielectric constant tensor:
#      x y z
#    x 3.504860 0.000000 0.000000 
#    y 0.000000 3.677880 0.000000 
#    z 0.000000 0.000000 3.937200 
# 
# 
# High freq. dielectric constant tensor:
#      x y z
#    x 1.805770 0.000000 0.000000 
#    y 0.000000 1.811140 0.000000 
#    z 0.000000 0.000000 1.835370 
# 
# From -- ./inp_files/4244.got.cif
#   From: 2010.03.12/outbox.cif.g09.slc.cpg/sg26_3_cif.got.tgz:4244.got - 2010.04.14 03:33:09.
