data_PCOD8167526
_publ_section_title
;
Structure prediction by ZEFSAII (Michael W. Deem and Ramdas Pophale) SiO2 
 PCOD8167526
Probable space group: P M C 21
;
_chemical_formula_sum "Si O2"
_cell_formula_units_Z 24
_cell_length_a 8.450848
_cell_length_b 15.463519
_cell_length_c 9.407649
_cell_angle_alpha 90.000000
_cell_angle_beta 90.000000
_cell_angle_gamma 90.000000
_cell_volume 1229.390147
_symmetry_space_group_name_H-M "P M C 21"
_symmetry_group_IT_number 26
_symmetry_cell_setting 'orthorhombic'
loop_
_space_group_symop_operation_xyz
x,y,z
-x,-y,1/2+z
-x,y,z
x,-y,1/2+z
loop_
_atom_site_type_symbol
_atom_site_label
_atom_site_fract_x
_atom_site_fract_y
_atom_site_fract_z
Si Si1 0.688124 0.751524 0.270890
Si Si2 0.688173 0.915012 0.095056
Si Si3 0.689215 0.922592 0.774679
Si Si4 0.315437 0.232964 0.089402
Si Si5 0.817780 0.567337 0.282077
Si Si6 0.682472 0.425214 0.085576
O O1 0.500000 0.740022 0.269800
O O2 0.746593 0.824505 0.161509
O O3 0.749023 0.777321 0.428467
O O4 0.765103 0.660967 0.224526
O O5 0.500000 0.917792 0.093945
O O6 0.752875 0.993307 0.191601
O O7 0.755676 0.923763 0.935453
O O8 0.500000 0.921487 0.778585
O O9 0.760296 0.838086 0.694660
O O10 0.500000 0.213619 0.085723
O O11 0.278220 0.329429 0.146616
O O12 0.714440 0.494422 0.206286
O O13 0.790439 0.556728 0.449436
O O14 0.000000 0.552056 0.245856
O O15 0.500000 0.428463 0.036775
#
# Coordination Sequence:
#
# PCOD8167526 Si02
#       6
#     4   4   4   4   4   4
#     4   9  17  31  48  69  97 134 173 210 254 310
#     4   9  16  24  40  66  99 132 164 205 257 310
#     4   9  15  24  39  67 101 130 160 205 260 310
#     4   8  15  27  44  65  94 128 166 209 255 304
#     4  11  22  36  54  79 108 140 176 222 273 321
#     4  10  20  36  56  78 105 142 181 221 267 323
#
# _framework density 19.521875000000001
#
# number of rings (size 3 to 8) (size 9 to 14) (size 15 to 20)
#    0.000    2.667    0.000    4.000    0.000    5.333 
#    0.000    3.333    0.000    0.000    0.000   11.667 
#    0.000    0.000    0.000    0.000    0.000    0.000 
#
# Total GULP energy -297555.565410 kJ/mol
# GULP energy per Si atom -12398.148559 kJ/mol
# Density = 1.947744 g / cm^3
# Si number density = 19.521875 Si / 1000 Ang^3
#
#
#
# Elastic Constant Matrix: (Units=GPa)
#
#
# Indices 1 2 3 4 5 6 
#
# 1 28.5405 17.5308 11.5005 0.0000 0.0000 0.0000
# 2 17.5308 146.6140 74.4626 0.0000 0.0000 0.0000
# 3 11.5005 74.4626 113.2655 0.0000 0.0000 0.0000
# 4 0.0000 0.0000 0.0000 45.9072 0.0000 0.0000
# 5 0.0000 0.0000 0.0000 0.0000 13.1340 0.0000
# 6 0.0000 0.0000 0.0000 0.0000 0.0000 4.7481
#
#
#
# Elastic Compliance Matrix: (Units=1/GPa)
#
#
# Indices 1 2 3 4 5 6 
#
# 1 0.037943 -0.003874 -0.001306 0.000000 0.000000 0.000000
# 2 -0.003874 0.010635 -0.006598 0.000000 0.000000 0.000000
# 3 -0.001306 -0.006598 0.013299 0.000000 0.000000 0.000000
# 4 0.000000 0.000000 0.000000 0.021783 0.000000 0.000000
# 5 0.000000 0.000000 0.000000 0.000000 0.076138 0.000000
# 6 0.000000 0.000000 0.000000 0.000000 0.000000 0.210609
#
#
# Mechanical properties :
#
#
# Convention : Reuss Voigt Hill
#
# Bulk Modulus (GPa) = 26.09482 55.04533 40.57008
# Shear Modulus (GPa) = 12.29293 25.08628 18.68961
#
# Velocity S-wave (km/s) = 2.51211 3.58863 3.09749
# Velocity P-wave (km/s) = 4.67014 6.74010 5.79824
#
# Compressibility (1/GPa) = 0.03832178
#
# Stress axis : x y z
#
# Youngs Moduli (GPa) = 26.35498 94.02956 75.19224
#
# Poissons Ratio (x) = 0.36424 0.09820
# Poissons Ratio (y) = 0.10209 0.49614
# Poissons Ratio (z) = 0.03442 0.62043
#
# Static dielectric constant tensor:
#      x y z
#    x 2.952170 0.000000 0.000000 
#    y 0.000000 3.776400 0.000000 
#    z 0.000000 0.000000 3.622800 
# 
# 
# High freq. dielectric constant tensor:
#      x y z
#    x 1.704750 0.000000 0.000000 
#    y 0.000000 1.776400 0.000000 
#    z 0.000000 0.000000 1.757480 
# 
# From -- ./inp_files/1432.got.cif
#   From: 2010.03.12/outbox.cif.g09.slc.cpg/sg26_1_cif.got.tgz:1432.got - 2010.04.14 03:33:09.
