data_PCOD8167939
_publ_section_title
;
Structure prediction by ZEFSAII (Michael W. Deem and Ramdas Pophale) SiO2 
 PCOD8167939
Probable space group: P C C 2
;
_chemical_formula_sum "Si O2"
_cell_formula_units_Z 24
_cell_length_a 10.649026
_cell_length_b 12.291352
_cell_length_c 7.765186
_cell_angle_alpha 90.000000
_cell_angle_beta 90.000000
_cell_angle_gamma 90.000000
_cell_volume 1016.392394
_symmetry_space_group_name_H-M "P C C 2"
_symmetry_group_IT_number 27
_symmetry_cell_setting 'orthorhombic'
loop_
_space_group_symop_operation_xyz
x,y,z
-x,-y,z
-x,y,1/2+z
x,-y,1/2+z
loop_
_atom_site_type_symbol
_atom_site_label
_atom_site_fract_x
_atom_site_fract_y
_atom_site_fract_z
Si Si1 0.020805 0.624373 0.087320
Si Si2 0.641700 0.462860 0.988787
Si Si3 0.801190 0.303433 0.789757
Si Si4 0.649826 0.891888 0.376717
Si Si5 0.752938 0.647993 0.817335
Si Si6 0.634846 0.130522 0.275446
O O1 0.100206 0.634772 0.267627
O O2 0.000000 0.500000 0.034584
O O3 0.882367 0.676673 0.115366
O O4 0.101619 0.688596 0.948263
O O5 0.500000 0.500000 0.961856
O O6 0.686805 0.388049 0.825534
O O7 0.726276 0.572704 0.984273
O O8 0.663147 0.397008 0.163768
O O9 0.748643 0.181614 0.773374
O O10 0.513009 0.863032 0.306302
O O11 0.660264 0.861481 0.574524
O O12 0.686299 0.017618 0.351996
O O13 0.710178 0.770574 0.863713
#
# Coordination Sequence:
#
# PCOD8167939 Si02
#       6
#     4   4   4   4   4   4
#     4  11  22  42  65  93 135 181 223 268 333 410
#     4  11  22  40  62  99 138 168 217 288 345 404
#     4  11  24  43  65  97 134 179 231 275 339 406
#     4  11  23  46  71  99 135 176 227 283 349 408
#     4  11  24  40  65  95 135 175 227 272 340 403
#     4  11  23  46  69 100 134 177 224 289 347 416
#
# _framework density 23.612929000000001
#
# number of rings (size 3 to 8) (size 9 to 14) (size 15 to 20)
#    0.000    1.000    5.000    4.000    2.333    0.000 
#    9.000    0.833    0.000    0.000    0.000    0.000 
#    0.000    0.000    0.000    0.000    0.000    0.000 
#
# Total GULP energy -297656.770590 kJ/mol
# GULP energy per Si atom -12402.365441 kJ/mol
# Density = 2.355918 g / cm^3
# Si number density = 23.612929 Si / 1000 Ang^3
#
#
#
# Elastic Constant Matrix: (Units=GPa)
#
#
# Indices 1 2 3 4 5 6 
#
# 1 128.5307 68.5639 1.8595 0.0000 0.0000 0.0000
# 2 68.5639 190.9690 4.4572 0.0000 0.0000 0.0000
# 3 1.8595 4.4572 17.5150 0.0000 0.0000 0.0000
# 4 0.0000 0.0000 0.0000 30.2789 0.0000 0.0000
# 5 0.0000 0.0000 0.0000 0.0000 38.7701 0.0000
# 6 0.0000 0.0000 0.0000 0.0000 0.0000 47.4031
#
#
#
# Elastic Compliance Matrix: (Units=1/GPa)
#
#
# Indices 1 2 3 4 5 6 
#
# 1 0.009624 -0.003452 -0.000143 0.000000 0.000000 0.000000
# 2 -0.003452 0.006506 -0.001289 0.000000 0.000000 0.000000
# 3 -0.000143 -0.001289 0.057437 0.000000 0.000000 0.000000
# 4 0.000000 0.000000 0.000000 0.033026 0.000000 0.000000
# 5 0.000000 0.000000 0.000000 0.000000 0.025793 0.000000
# 6 0.000000 0.000000 0.000000 0.000000 0.000000 0.021096
#
#
# Mechanical properties :
#
#
# Convention : Reuss Voigt Hill
#
# Bulk Modulus (GPa) = 15.67447 54.08621 34.88034
# Shear Modulus (GPa) = 27.09790 40.76604 33.93197
#
# Velocity S-wave (km/s) = 3.39128 4.15954 3.79490
# Velocity P-wave (km/s) = 4.68902 6.78411 5.83142
#
# Compressibility (1/GPa) = 0.06379802
#
# Stress axis : x y z
#
# Youngs Moduli (GPa) = 103.91023 153.70738 17.41037
#
# Poissons Ratio (x) = 0.53058 0.00250
# Poissons Ratio (y) = 0.35868 0.02244
# Poissons Ratio (z) = 0.01489 0.19815
#
# Static dielectric constant tensor:
#      x y z
#    x 4.316760 0.000000 0.000000 
#    y 0.000000 4.389530 0.000000 
#    z 0.000000 0.000000 4.434990 
# 
# 
# High freq. dielectric constant tensor:
#      x y z
#    x 1.940180 0.000000 0.000000 
#    y 0.000000 1.925180 0.000000 
#    z 0.000000 0.000000 1.954970 
# 
# From -- ./inp_files/1401.got.cif
#   From: 2010.03.12/outbox.cif.g09.slc.cpg/sg27_1_cif.got.tgz:1401.got - 2010.04.14 03:36:05.
