data_PCOD8167115
_publ_section_title
;
Structure prediction by ZEFSAII (Michael W. Deem and Ramdas Pophale) SiO2 
 PCOD8167115
Probable space group: P M C 21
;
_chemical_formula_sum "Si O2"
_cell_formula_units_Z 32
_cell_length_a 9.142267
_cell_length_b 11.849475
_cell_length_c 14.723386
_cell_angle_alpha 90.000000
_cell_angle_beta 90.000000
_cell_angle_gamma 90.000000
_cell_volume 1595.000075
_symmetry_space_group_name_H-M "P M C 21"
_symmetry_group_IT_number 26
_symmetry_cell_setting 'orthorhombic'
loop_
_space_group_symop_operation_xyz
x,y,z
-x,-y,1/2+z
-x,y,z
x,-y,1/2+z
loop_
_atom_site_type_symbol
_atom_site_label
_atom_site_fract_x
_atom_site_fract_y
_atom_site_fract_z
Si Si1 0.174786 0.372055 0.562170
Si Si2 0.167868 0.084105 0.170615
Si Si3 0.670047 0.777700 0.930364
Si Si4 0.327914 0.989274 0.337026
Si Si5 0.827948 0.158506 0.976915
Si Si6 0.162628 0.689983 0.771435
Si Si7 0.827108 0.588681 0.451139
Si Si8 0.166256 0.439200 0.751913
O O1 0.241289 0.257664 0.520054
O O2 0.234663 0.484617 0.510726
O O3 0.234554 0.372889 0.666142
O O4 0.000000 0.367133 0.558860
O O5 0.264508 0.003085 0.234791
O O6 0.217762 0.082975 0.064900
O O7 0.189700 0.214096 0.197684
O O8 0.000000 0.045673 0.180845
O O9 0.500000 0.765420 0.949915
O O10 0.713302 0.903157 0.898884
O O11 0.717797 0.692993 0.850697
O O12 0.500000 0.971982 0.327930
O O13 0.256810 0.882723 0.387209
O O14 0.000000 0.146285 0.958658
O O15 0.786767 0.289801 0.994017
O O16 0.175927 0.570318 0.722346
O O17 0.000000 0.703245 0.815261
O O18 0.757114 0.583612 0.349061
O O19 0.000000 0.571942 0.444373
O O20 0.000000 0.399325 0.761715
#
# Coordination Sequence:
#
# PCOD8167115 Si02
#       8
#     4   4   4   4   4   4   4   4
#     4  10  18  31  54  80 107 141 176 212 263 325
#     4   9  18  33  57  86 107 136 186 236 277 318
#     4  10  20  34  51  73 103 137 177 223 266 308
#     4  10  22  39  57  77 107 147 185 228 277 329
#     4  10  20  36  58  83 113 145 181 231 279 324
#     4   9  15  29  54  80 106 136 174 218 262 317
#     4   9  17  31  52  82 114 139 170 220 272 317
#     4   9  16  27  49  81 109 137 171 208 260 322
#
# _framework density 20.062695000000001
#
# number of rings (size 3 to 8) (size 9 to 14) (size 15 to 20)
#    0.000    2.500    1.250    1.500    0.000    5.000 
#    2.250    1.250    0.000    1.500    0.000    0.000 
#    0.000    0.000    0.000    0.000    0.000    0.000 
#
# Total GULP energy -396603.498538 kJ/mol
# GULP energy per Si atom -12393.859329 kJ/mol
# Density = 2.001703 g / cm^3
# Si number density = 20.062695 Si / 1000 Ang^3
#
#
#
# Elastic Constant Matrix: (Units=GPa)
#
#
# Indices 1 2 3 4 5 6 
#
# 1 40.3387 12.8028 18.3507 0.0000 0.0000 0.0000
# 2 12.8028 31.3670 4.4808 0.0000 0.0000 0.0000
# 3 18.3507 4.4808 92.3606 0.0000 0.0000 0.0000
# 4 0.0000 0.0000 0.0000 27.5497 0.0000 0.0000
# 5 0.0000 0.0000 0.0000 0.0000 13.3525 0.0000
# 6 0.0000 0.0000 0.0000 0.0000 0.0000 17.7006
#
#
#
# Elastic Compliance Matrix: (Units=1/GPa)
#
#
# Indices 1 2 3 4 5 6 
#
# 1 0.031117 -0.011900 -0.005605 0.000000 0.000000 0.000000
# 2 -0.011900 0.036654 0.000586 0.000000 0.000000 0.000000
# 3 -0.005605 0.000586 0.011912 0.000000 0.000000 0.000000
# 4 0.000000 0.000000 0.000000 0.036298 0.000000 0.000000
# 5 0.000000 0.000000 0.000000 0.000000 0.074893 0.000000
# 6 0.000000 0.000000 0.000000 0.000000 0.000000 0.056495
#
#
# Mechanical properties :
#
#
# Convention : Reuss Voigt Hill
#
# Bulk Modulus (GPa) = 21.81255 26.14831 23.98043
# Shear Modulus (GPa) = 16.86406 20.28269 18.57338
#
# Velocity S-wave (km/s) = 2.90240 3.18302 3.04594
# Velocity P-wave (km/s) = 4.70401 5.15465 4.93448
#
# Compressibility (1/GPa) = 0.04584517
#
# Stress axis : x y z
#
# Youngs Moduli (GPa) = 32.13704 27.28218 83.94652
#
# Poissons Ratio (x) = 0.32466 0.47053
# Poissons Ratio (y) = 0.38243 -0.04920
# Poissons Ratio (z) = 0.18013 -0.01599
#
# Static dielectric constant tensor:
#      x y z
#    x 3.211730 0.000000 0.000000 
#    y 0.000000 3.508710 0.000000 
#    z 0.000000 0.000000 3.828810 
# 
# 
# High freq. dielectric constant tensor:
#      x y z
#    x 1.734120 0.000000 0.000000 
#    y 0.000000 1.771530 0.000000 
#    z 0.000000 0.000000 1.790810 
# 
# From -- ./inp_files/4293.got.cif
#   From: 2010.03.12/outbox.cif.g09.slc.cpg/sg26_3_cif.got.tgz:4293.got - 2010.04.14 03:33:09.
