data_PCOD8167183
_publ_section_title
;
Structure prediction by ZEFSAII (Michael W. Deem and Ramdas Pophale) SiO2 
 PCOD8167183
Probable space group: P M C 21
;
_chemical_formula_sum "Si O2"
_cell_formula_units_Z 32
_cell_length_a 13.703111
_cell_length_b 15.054929
_cell_length_c 9.364253
_cell_angle_alpha 90.000000
_cell_angle_beta 90.000000
_cell_angle_gamma 90.000000
_cell_volume 1931.839431
_symmetry_space_group_name_H-M "P M C 21"
_symmetry_group_IT_number 26
_symmetry_cell_setting 'orthorhombic'
loop_
_space_group_symop_operation_xyz
x,y,z
-x,-y,1/2+z
-x,y,z
x,-y,1/2+z
loop_
_atom_site_type_symbol
_atom_site_label
_atom_site_fract_x
_atom_site_fract_y
_atom_site_fract_z
Si Si1 0.389995 0.931716 0.768580
Si Si2 0.388445 0.428202 0.445958
Si Si3 0.387883 0.092761 0.944141
Si Si4 0.703472 0.721903 0.476214
Si Si5 0.108161 0.473762 0.760264
Si Si6 0.614098 0.261624 0.272103
Si Si7 0.892463 0.381159 0.045639
Si Si8 0.311222 0.579565 0.253561
O O1 0.500000 0.930682 0.828831
O O2 0.387123 0.948387 0.600896
O O3 0.339100 0.835987 0.803978
O O4 0.340231 0.016592 0.843841
O O5 0.500000 0.449159 0.404788
O O6 0.359418 0.328425 0.399138
O O7 0.320470 0.496500 0.361704
O O8 0.378616 0.433682 0.616339
O O9 0.500000 0.120161 0.902374
O O10 0.314229 0.175979 0.934537
O O11 0.648342 0.697173 0.621980
O O12 0.816758 0.696692 0.504949
O O13 0.659219 0.666165 0.343988
O O14 0.125354 0.574727 0.702281
O O15 0.198095 0.414250 0.700841
O O16 0.000000 0.441303 0.707710
O O17 0.113658 0.463823 0.932739
O O18 0.500000 0.245591 0.253497
O O19 0.000000 0.337029 0.040281
#
# Coordination Sequence:
#
# PCOD8167183 Si02
#       8
#     4   4   4   4   4   4   4   4
#     4   8  15  28  45  64  86 110 140 182 227 264
#     4  11  22  32  43  61  90 128 160 183 212 257
#     4   9  17  29  46  67  89 114 144 182 226 268
#     4  10  19  30  46  67  92 118 147 184 226 271
#     4   9  17  30  47  64  83 110 147 192 234 262
#     4   9  18  32  47  64  89 120 151 186 225 263
#     4   9  17  29  46  67  89 115 149 188 229 270
#     4  11  21  32  45  64  90 121 157 189 220 267
#
# _framework density 16.564523999999999
#
# number of rings (size 3 to 8) (size 9 to 14) (size 15 to 20)
#    0.000    2.500    0.000    4.500    0.000    4.000 
#    0.000    2.500    0.000    0.000    0.000    3.500 
#    0.000    0.000    0.000    0.000    0.000    0.000 
#
# Total GULP energy -396438.483019 kJ/mol
# GULP energy per Si atom -12388.702594 kJ/mol
# Density = 1.652682 g / cm^3
# Si number density = 16.564524 Si / 1000 Ang^3
#
#
#
# Elastic Constant Matrix: (Units=GPa)
#
#
# Indices 1 2 3 4 5 6 
#
# 1 51.4042 44.2829 23.7495 0.0000 0.0000 0.0000
# 2 44.2829 105.6917 57.3058 0.0000 0.0000 0.0000
# 3 23.7495 57.3058 79.6086 0.0000 0.0000 0.0000
# 4 0.0000 0.0000 0.0000 33.6212 0.0000 0.0000
# 5 0.0000 0.0000 0.0000 0.0000 18.0134 0.0000
# 6 0.0000 0.0000 0.0000 0.0000 0.0000 17.1706
#
#
#
# Elastic Compliance Matrix: (Units=1/GPa)
#
#
# Indices 1 2 3 4 5 6 
#
# 1 0.030442 -0.012843 0.000163 0.000000 0.000000 0.000000
# 2 -0.012843 0.020937 -0.011240 0.000000 0.000000 0.000000
# 3 0.000163 -0.011240 0.020603 0.000000 0.000000 0.000000
# 4 0.000000 0.000000 0.000000 0.029743 0.000000 0.000000
# 5 0.000000 0.000000 0.000000 0.000000 0.055514 0.000000
# 6 0.000000 0.000000 0.000000 0.000000 0.000000 0.058239
#
#
# Mechanical properties :
#
#
# Convention : Reuss Voigt Hill
#
# Bulk Modulus (GPa) = 41.41932 54.15344 47.78638
# Shear Modulus (GPa) = 18.42530 21.18545 19.80538
#
# Velocity S-wave (km/s) = 3.33879 3.58014 3.46157
# Velocity P-wave (km/s) = 6.31842 7.06069 6.69984
#
# Compressibility (1/GPa) = 0.02414332
#
# Stress axis : x y z
#
# Youngs Moduli (GPa) = 32.84908 47.76303 48.53550
#
# Poissons Ratio (x) = 0.61344 -0.00793
# Poissons Ratio (y) = 0.42189 0.54552
# Poissons Ratio (z) = -0.00537 0.53684
#
# Static dielectric constant tensor:
#      x y z
#    x 3.081880 0.000000 0.000000 
#    y 0.000000 3.103190 0.000000 
#    z 0.000000 0.000000 3.159590 
# 
# 
# High freq. dielectric constant tensor:
#      x y z
#    x 1.615570 0.000000 0.000000 
#    y 0.000000 1.616500 0.000000 
#    z 0.000000 0.000000 1.641780 
# 
# From -- ./inp_files/2287.got.cif
#   From: 2010.03.12/outbox.cif.g09.slc.cpg/sg26_2_cif.got.tgz:2287.got - 2010.04.14 03:33:09.
