data_PCOD8167517
_publ_section_title
;
Structure prediction by ZEFSAII (Michael W. Deem and Ramdas Pophale) SiO2 
 PCOD8167517
Probable space group: P M C 21
;
_chemical_formula_sum "Si O2"
_cell_formula_units_Z 32
_cell_length_a 15.209919
_cell_length_b 11.458470
_cell_length_c 8.814624
_cell_angle_alpha 90.000000
_cell_angle_beta 90.000000
_cell_angle_gamma 90.000000
_cell_volume 1536.233831
_symmetry_space_group_name_H-M "P M C 21"
_symmetry_group_IT_number 26
_symmetry_cell_setting 'orthorhombic'
loop_
_space_group_symop_operation_xyz
x,y,z
-x,-y,1/2+z
-x,y,z
x,-y,1/2+z
loop_
_atom_site_type_symbol
_atom_site_label
_atom_site_fract_x
_atom_site_fract_y
_atom_site_fract_z
Si Si1 0.733143 0.648069 0.451390
Si Si2 0.312151 0.015277 0.699444
Si Si3 0.899927 0.649106 0.967583
Si Si4 0.594175 0.336014 0.419871
Si Si5 0.753669 0.839032 0.936050
Si Si6 0.900364 0.594355 0.318218
Si Si7 0.344774 0.488152 0.680107
Si Si8 0.397891 0.146361 0.966732
O O1 0.835824 0.678996 0.417927
O O2 0.700613 0.603410 0.289320
O O3 0.731107 0.548054 0.578673
O O4 0.670424 0.751142 0.507527
O O5 0.246547 0.092493 0.596015
O O6 0.372462 0.097267 0.802967
O O7 0.249190 0.930294 0.797000
O O8 0.383219 0.949387 0.595845
O O9 0.839151 0.758321 0.921974
O O10 0.876813 0.540101 0.858838
O O11 0.000000 0.689327 0.941161
O O12 0.884908 0.612461 0.140866
O O13 0.500000 0.271546 0.411062
O O14 0.667355 0.238901 0.426547
O O15 0.601062 0.415241 0.270466
O O16 0.591891 0.417868 0.567843
O O17 0.000000 0.623973 0.367058
O O18 0.500000 0.187842 0.966912
#
# Coordination Sequence:
#
# PCOD8167517 Si02
#       8
#     4   4   4   4   4   4   4   4
#     4  11  21  36  56  82 116 154 189 227 280 342
#     4  10  24  41  59  81 111 148 198 256 299 335
#     4  10  21  39  64  92 122 154 187 229 286 351
#     4  11  22  36  56  82 115 154 191 234 292 356
#     4  11  23  41  60  82 114 153 198 245 294 343
#     4  10  20  35  59  92 125 154 186 226 278 347
#     4  10  22  35  52  81 119 151 186 231 281 350
#     4  11  23  39  60  84 112 150 197 246 294 340
#
# _framework density 20.830162999999999
#
# number of rings (size 3 to 8) (size 9 to 14) (size 15 to 20)
#    0.000    1.500    0.000    6.000    0.000    9.000 
#    0.000    0.625    0.000    3.000    0.000    0.000 
#    0.000    0.000    0.000    0.000    0.000    0.000 
#
# Total GULP energy -396755.859301 kJ/mol
# GULP energy per Si atom -12398.620603 kJ/mol
# Density = 2.078275 g / cm^3
# Si number density = 20.830163 Si / 1000 Ang^3
#
#
#
# Elastic Constant Matrix: (Units=GPa)
#
#
# Indices 1 2 3 4 5 6 
#
# 1 125.3348 36.9202 5.5752 0.0000 0.0000 0.0000
# 2 36.9202 70.1506 -0.0117 0.0000 0.0000 0.0000
# 3 5.5752 -0.0117 53.7378 0.0000 0.0000 0.0000
# 4 0.0000 0.0000 0.0000 402.1936 0.0000 0.0000
# 5 0.0000 0.0000 0.0000 0.0000 12.5633 0.0000
# 6 0.0000 0.0000 0.0000 0.0000 0.0000 6.0178
#
#
#
# Elastic Compliance Matrix: (Units=1/GPa)
#
#
# Indices 1 2 3 4 5 6 
#
# 1 0.009495 -0.004997 -0.000986 0.000000 0.000000 0.000000
# 2 -0.004997 0.016885 0.000522 0.000000 0.000000 0.000000
# 3 -0.000986 0.000522 0.018711 0.000000 0.000000 0.000000
# 4 0.000000 0.000000 0.000000 0.002486 0.000000 0.000000
# 5 0.000000 0.000000 0.000000 0.000000 0.079597 0.000000
# 6 0.000000 0.000000 0.000000 0.000000 0.000000 0.166173
#
#
# Mechanical properties :
#
#
# Convention : Reuss Voigt Hill
#
# Bulk Modulus (GPa) = 29.26658 37.13229 33.19943
# Shear Modulus (GPa) = 15.83987 97.93758 56.88873
#
# Velocity S-wave (km/s) = 2.76058 6.86435 5.23164
# Velocity P-wave (km/s) = 4.92358 8.98279 7.24335
#
# Compressibility (1/GPa) = 0.03416867
#
# Stress axis : x y z
#
# Youngs Moduli (GPa) = 105.32403 59.22380 53.44361
#
# Poissons Ratio (x) = 0.29595 0.05270
# Poissons Ratio (y) = 0.52632 -0.02790
# Poissons Ratio (z) = 0.10386 -0.03092
#
# Static dielectric constant tensor:
#      x y z
#    x 3.830540 0.000000 0.000000 
#    y 0.000000 3.699590 0.000000 
#    z 0.000000 0.000000 4.053420 
# 
# 
# High freq. dielectric constant tensor:
#      x y z
#    x 1.808460 0.000000 0.000000 
#    y 0.000000 1.799050 0.000000 
#    z 0.000000 0.000000 1.837770 
# 
# From -- ./inp_files/2248.got.cif
#   From: 2010.03.12/outbox.cif.g09.slc.cpg/sg26_2_cif.got.tgz:2248.got - 2010.04.14 03:33:09.
