data_PCOD8167341
_publ_section_title
;
Structure prediction by ZEFSAII (Michael W. Deem and Ramdas Pophale) SiO2 
 PCOD8167341
Probable space group: P M C 21
;
_chemical_formula_sum "Si O2"
_cell_formula_units_Z 32
_cell_length_a 9.227855
_cell_length_b 14.449621
_cell_length_c 12.114686
_cell_angle_alpha 90.000000
_cell_angle_beta 90.000000
_cell_angle_gamma 90.000000
_cell_volume 1615.360206
_symmetry_space_group_name_H-M "P M C 21"
_symmetry_group_IT_number 26
_symmetry_cell_setting 'orthorhombic'
loop_
_space_group_symop_operation_xyz
x,y,z
-x,-y,1/2+z
-x,y,z
x,-y,1/2+z
loop_
_atom_site_type_symbol
_atom_site_label
_atom_site_fract_x
_atom_site_fract_y
_atom_site_fract_z
Si Si1 0.340302 0.874988 0.415060
Si Si2 0.163741 0.309759 0.229792
Si Si3 0.167257 0.762689 0.964924
Si Si4 0.669543 0.333835 0.876510
Si Si5 0.669780 0.362131 0.621612
Si Si6 0.832121 0.457745 0.054994
Si Si7 0.659025 0.856402 0.666155
Si Si8 0.169545 0.949866 0.846609
O O1 0.500000 0.889294 0.360319
O O2 0.281777 0.772833 0.387231
O O3 0.355576 0.892359 0.543738
O O4 0.225663 0.949430 0.375579
O O5 0.197590 0.305949 0.360579
O O6 0.274759 0.246008 0.163483
O O7 0.000000 0.272462 0.211335
O O8 0.182084 0.410948 0.176434
O O9 0.210721 0.868211 0.933075
O O10 0.000000 0.757380 0.001013
O O11 0.266367 0.731690 0.067493
O O12 0.500000 0.344524 0.907153
O O13 0.701448 0.365226 0.751635
O O14 0.764651 0.395255 0.958615
O O15 0.500000 0.366787 0.596942
O O16 0.747975 0.446357 0.560241
O O17 0.000000 0.475990 0.025668
O O18 0.500000 0.852966 0.722429
O O19 0.763121 0.926189 0.729004
O O20 0.000000 0.955788 0.831862
#
# Coordination Sequence:
#
# PCOD8167341 Si02
#       8
#     4   4   4   4   4   4   4   4
#     4  10  21  38  61  88 120 158 202 252 305 361
#     4   9  19  36  59  86 115 149 194 250 302 356
#     4   9  20  40  60  84 121 159 201 251 301 359
#     4  10  23  44  63  89 126 160 204 254 304 365
#     4  11  25  41  61  89 124 164 204 253 306 365
#     4  11  23  39  63  91 120 156 201 250 304 368
#     4  10  19  34  58  85 115 153 198 250 303 357
#     4  10  22  38  59  88 123 161 206 254 303 365
#
# _framework density 19.809823000000002
#
# number of rings (size 3 to 8) (size 9 to 14) (size 15 to 20)
#    0.000    2.000    1.250    2.250    1.750    6.500 
#    0.000    3.750    0.000    0.000    0.000    0.000 
#    0.000    0.000    0.000    0.000    0.000    0.000 
#
# Total GULP energy -396772.135796 kJ/mol
# GULP energy per Si atom -12399.129244 kJ/mol
# Density = 1.976473 g / cm^3
# Si number density = 19.809823 Si / 1000 Ang^3
#
#
#
# Elastic Constant Matrix: (Units=GPa)
#
#
# Indices 1 2 3 4 5 6 
#
# 1 112.3300 62.6537 43.0565 0.0000 0.0000 0.0000
# 2 62.6537 112.8960 38.0782 0.0000 0.0000 0.0000
# 3 43.0565 38.0782 68.3747 0.0000 0.0000 0.0000
# 4 0.0000 0.0000 0.0000 26.0953 0.0000 0.0000
# 5 0.0000 0.0000 0.0000 0.0000 29.3206 0.0000
# 6 0.0000 0.0000 0.0000 0.0000 0.0000 42.0985
#
#
#
# Elastic Compliance Matrix: (Units=1/GPa)
#
#
# Indices 1 2 3 4 5 6 
#
# 1 0.014513 -0.006122 -0.005730 0.000000 0.000000 0.000000
# 2 -0.006122 0.013488 -0.003657 0.000000 0.000000 0.000000
# 3 -0.005730 -0.003657 0.020270 0.000000 0.000000 0.000000
# 4 0.000000 0.000000 0.000000 0.038321 0.000000 0.000000
# 5 0.000000 0.000000 0.000000 0.000000 0.034106 0.000000
# 6 0.000000 0.000000 0.000000 0.000000 0.000000 0.023754
#
#
# Mechanical properties :
#
#
# Convention : Reuss Voigt Hill
#
# Bulk Modulus (GPa) = 57.95540 64.57528 61.26534
# Shear Modulus (GPa) = 27.59068 29.49039 28.54054
#
# Velocity S-wave (km/s) = 3.73604 3.86252 3.79981
# Velocity P-wave (km/s) = 6.92316 7.24986 7.08839
#
# Compressibility (1/GPa) = 0.01725465
#
# Stress axis : x y z
#
# Youngs Moduli (GPa) = 68.90329 74.13737 49.33394
#
# Poissons Ratio (x) = 0.45385 0.28268
# Poissons Ratio (y) = 0.42181 0.18041
# Poissons Ratio (z) = 0.39481 0.27111
#
# Static dielectric constant tensor:
#      x y z
#    x 3.794930 0.000000 0.000000 
#    y 0.000000 3.555860 0.000000 
#    z 0.000000 0.000000 3.537680 
# 
# 
# High freq. dielectric constant tensor:
#      x y z
#    x 1.780560 0.000000 0.000000 
#    y 0.000000 1.768750 0.000000 
#    z 0.000000 0.000000 1.766790 
# 
# From -- ./inp_files/2970.got.cif
#   From: 2010.03.12/outbox.cif.g09.slc.cpg/sg26_2_cif.got.tgz:2970.got - 2010.04.14 03:33:09.
