data_PCOD8167607
_publ_section_title
;
Structure prediction by ZEFSAII (Michael W. Deem and Ramdas Pophale) SiO2 
 PCOD8167607
Probable space group: P M C 21
;
_chemical_formula_sum "Si O2"
_cell_formula_units_Z 32
_cell_length_a 9.139017
_cell_length_b 14.419969
_cell_length_c 12.767678
_cell_angle_alpha 90.000000
_cell_angle_beta 90.000000
_cell_angle_gamma 90.000000
_cell_volume 1682.580042
_symmetry_space_group_name_H-M "P M C 21"
_symmetry_group_IT_number 26
_symmetry_cell_setting 'orthorhombic'
loop_
_space_group_symop_operation_xyz
x,y,z
-x,-y,1/2+z
-x,y,z
x,-y,1/2+z
loop_
_atom_site_type_symbol
_atom_site_label
_atom_site_fract_x
_atom_site_fract_y
_atom_site_fract_z
Si Si1 0.828176 0.644325 0.902770
Si Si2 0.667567 0.158658 0.856440
Si Si3 0.673732 0.154425 0.087342
Si Si4 0.168872 0.190135 0.542245
Si Si5 0.663987 0.693864 0.202090
Si Si6 0.327280 0.043446 0.658957
Si Si7 0.327447 0.656443 0.687218
Si Si8 0.333831 0.474292 0.573636
O O1 0.753956 0.627832 0.792225
O O2 0.000000 0.627291 0.894120
O O3 0.794179 0.751033 0.937457
O O4 0.767901 0.568715 0.984572
O O5 0.500000 0.129577 0.869343
O O6 0.683485 0.267365 0.820649
O O7 0.733795 0.089519 0.766937
O O8 0.743243 0.147505 0.969958
O O9 0.500000 0.163684 0.078107
O O10 0.734284 0.245313 0.145823
O O11 0.720579 0.064042 0.153778
O O12 0.209111 0.258161 0.636490
O O13 0.261458 0.095685 0.556367
O O14 0.000000 0.163141 0.547696
O O15 0.500000 0.725373 0.164082
O O16 0.679878 0.583628 0.184145
O O17 0.500000 0.053834 0.650784
O O18 0.500000 0.659472 0.709943
O O19 0.289183 0.579510 0.599386
O O20 0.500000 0.469795 0.532042
#
# Coordination Sequence:
#
# PCOD8167607 Si02
#       8
#     4   4   4   4   4   4   4   4
#     4  10  21  36  54  76 106 143 175 210 263 321
#     4   8  14  26  45  69  96 125 160 204 251 298
#     4   9  18  31  48  74 105 134 168 212 261 311
#     4   9  17  30  49  73  99 128 167 213 255 298
#     4   8  14  27  49  74  98 125 159 202 252 304
#     4   9  17  30  50  74  99 134 177 215 256 308
#     4  10  21  35  53  79 108 137 173 219 265 310
#     4   9  18  33  54  79 103 132 175 221 261 306
#
# _framework density 19.018412000000001
#
# number of rings (size 3 to 8) (size 9 to 14) (size 15 to 20)
#    0.000    3.000    0.000    1.500    0.000    4.000 
#    0.000    6.875    0.000    7.500    0.000    0.000 
#    0.000    0.000    0.000    0.000    0.000    0.000 
#
# Total GULP energy -396431.468978 kJ/mol
# GULP energy per Si atom -12388.483406 kJ/mol
# Density = 1.897512 g / cm^3
# Si number density = 19.018412 Si / 1000 Ang^3
#
#
#
# Elastic Constant Matrix: (Units=GPa)
#
#
# Indices 1 2 3 4 5 6 
#
# 1 44.3742 36.4987 35.6647 0.0000 0.0000 0.0000
# 2 36.4987 136.8523 47.7741 0.0000 0.0000 0.0000
# 3 35.6647 47.7741 102.8544 0.0000 0.0000 0.0000
# 4 0.0000 0.0000 0.0000 22.6349 0.0000 0.0000
# 5 0.0000 0.0000 0.0000 0.0000 12.7416 0.0000
# 6 0.0000 0.0000 0.0000 0.0000 0.0000 14.9906
#
#
#
# Elastic Compliance Matrix: (Units=1/GPa)
#
#
# Indices 1 2 3 4 5 6 
#
# 1 0.035036 -0.006091 -0.009320 0.000000 0.000000 0.000000
# 2 -0.006091 0.009780 -0.002431 0.000000 0.000000 0.000000
# 3 -0.009320 -0.002431 0.014083 0.000000 0.000000 0.000000
# 4 0.000000 0.000000 0.000000 0.044180 0.000000 0.000000
# 5 0.000000 0.000000 0.000000 0.000000 0.078483 0.000000
# 6 0.000000 0.000000 0.000000 0.000000 0.000000 0.066709
#
#
# Mechanical properties :
#
#
# Convention : Reuss Voigt Hill
#
# Bulk Modulus (GPa) = 43.07213 58.21730 50.64471
# Shear Modulus (GPa) = 17.14142 21.01631 19.07887
#
# Velocity S-wave (km/s) = 3.00543 3.32784 3.17074
# Velocity P-wave (km/s) = 5.89409 6.74118 6.33181
#
# Compressibility (1/GPa) = 0.02321687
#
# Stress axis : x y z
#
# Youngs Moduli (GPa) = 28.54230 102.24851 71.00720
#
# Poissons Ratio (x) = 0.62276 0.66176
# Poissons Ratio (y) = 0.17384 0.17260
# Poissons Ratio (z) = 0.26600 0.24854
#
# Static dielectric constant tensor:
#      x y z
#    x 3.130790 0.000000 0.000000 
#    y 0.000000 3.707480 0.000000 
#    z 0.000000 0.000000 3.453010 
# 
# 
# High freq. dielectric constant tensor:
#      x y z
#    x 1.701300 0.000000 0.000000 
#    y 0.000000 1.743110 0.000000 
#    z 0.000000 0.000000 1.722760 
# 
# From -- ./inp_files/2976.got.cif
#   From: 2010.03.12/outbox.cif.g09.slc.cpg/sg26_2_cif.got.tgz:2976.got - 2010.04.14 03:33:09.
