data_PCOD8167160
_publ_section_title
;
Structure prediction by ZEFSAII (Michael W. Deem and Ramdas Pophale) SiO2 
 PCOD8167160
Probable space group: P M C 21
;
_chemical_formula_sum "Si O2"
_cell_formula_units_Z 32
_cell_length_a 8.950708
_cell_length_b 11.852371
_cell_length_c 14.401432
_cell_angle_alpha 90.000000
_cell_angle_beta 90.000000
_cell_angle_gamma 90.000000
_cell_volume 1527.806329
_symmetry_space_group_name_H-M "P M C 21"
_symmetry_group_IT_number 26
_symmetry_cell_setting 'orthorhombic'
loop_
_space_group_symop_operation_xyz
x,y,z
-x,-y,1/2+z
-x,y,z
x,-y,1/2+z
loop_
_atom_site_type_symbol
_atom_site_label
_atom_site_fract_x
_atom_site_fract_y
_atom_site_fract_z
Si Si1 0.832133 0.675503 0.225430
Si Si2 0.175248 0.618841 0.558688
Si Si3 0.325575 0.111978 0.643308
Si Si4 0.832954 0.201877 0.911222
Si Si5 0.827145 0.155303 0.464249
Si Si6 0.672891 0.993353 0.828139
Si Si7 0.173238 0.411605 0.431210
Si Si8 0.324366 0.552173 0.736173
O O1 0.772430 0.781255 0.169932
O O2 0.833157 0.699601 0.334672
O O3 0.724033 0.572304 0.205497
O O4 0.000000 0.647658 0.189802
O O5 0.214431 0.734431 0.504939
O O6 0.230933 0.507838 0.501860
O O7 0.260846 0.633377 0.655921
O O8 0.000000 0.607939 0.577476
O O9 0.500000 0.142417 0.641581
O O10 0.265737 0.081863 0.540601
O O11 0.294613 0.012799 0.718301
O O12 0.716130 0.104804 0.886541
O O13 0.000000 0.149365 0.918579
O O14 0.798921 0.288781 0.476561
O O15 0.000000 0.124922 0.473895
O O16 0.768456 0.113352 0.363538
O O17 0.500000 0.968316 0.845546
O O18 0.261782 0.414604 0.335603
O O19 0.000000 0.430805 0.407127
O O20 0.500000 0.562666 0.739833
#
# Coordination Sequence:
#
# PCOD8167160 Si02
#       8
#     4   4   4   4   4   4   4   4
#     4  10  18  34  59  85 116 154 198 248 291 347
#     4  10  20  38  62  87 118 157 200 247 300 359
#     4  10  21  38  62  93 122 157 202 252 311 363
#     4   9  18  35  61  86 109 146 197 247 292 346
#     4  11  23  40  65  92 120 161 210 254 298 359
#     4  10  22  40  62  88 123 159 194 249 308 360
#     4  10  22  42  63  87 119 160 204 251 301 352
#     4  12  24  35  54  88 125 162 197 240 301 368
#
# _framework density 20.945063000000001
#
# number of rings (size 3 to 8) (size 9 to 14) (size 15 to 20)
#    0.000    1.750    1.250    3.375    0.000    5.000 
#    2.250    0.000    0.000    0.000    0.000    0.000 
#    0.000    0.000    0.000    0.000    0.000    0.000 
#
# Total GULP energy -396835.964034 kJ/mol
# GULP energy per Si atom -12401.123876 kJ/mol
# Density = 2.089739 g / cm^3
# Si number density = 20.945063 Si / 1000 Ang^3
#
#
#
# Elastic Constant Matrix: (Units=GPa)
#
#
# Indices 1 2 3 4 5 6 
#
# 1 92.4981 12.3661 46.3842 0.0000 0.0000 0.0000
# 2 12.3661 33.8603 -1.1104 0.0000 0.0000 0.0000
# 3 46.3842 -1.1104 97.1977 0.0000 0.0000 0.0000
# 4 0.0000 0.0000 0.0000 23.0031 0.0000 0.0000
# 5 0.0000 0.0000 0.0000 0.0000 30.6799 0.0000
# 6 0.0000 0.0000 0.0000 0.0000 0.0000 29.5079
#
#
#
# Elastic Compliance Matrix: (Units=1/GPa)
#
#
# Indices 1 2 3 4 5 6 
#
# 1 0.015279 -0.005821 -0.007358 0.000000 0.000000 0.000000
# 2 -0.005821 0.031762 0.003141 0.000000 0.000000 0.000000
# 3 -0.007358 0.003141 0.013835 0.000000 0.000000 0.000000
# 4 0.000000 0.000000 0.000000 0.043472 0.000000 0.000000
# 5 0.000000 0.000000 0.000000 0.000000 0.032595 0.000000
# 6 0.000000 0.000000 0.000000 0.000000 0.000000 0.033889
#
#
# Mechanical properties :
#
#
# Convention : Reuss Voigt Hill
#
# Bulk Modulus (GPa) = 24.50987 37.64845 31.07916
# Shear Modulus (GPa) = 24.44878 27.69927 26.07403
#
# Velocity S-wave (km/s) = 3.42026 3.64053 3.53211
# Velocity P-wave (km/s) = 5.22732 5.97370 5.61293
#
# Compressibility (1/GPa) = 0.04079989
#
# Stress axis : x y z
#
# Youngs Moduli (GPa) = 65.44945 31.48411 72.27802
#
# Poissons Ratio (x) = 0.18328 0.53181
# Poissons Ratio (y) = 0.38100 -0.22701
# Poissons Ratio (z) = 0.48157 -0.09889
#
# Static dielectric constant tensor:
#      x y z
#    x 3.674390 0.000000 0.000000 
#    y 0.000000 3.576470 0.000000 
#    z 0.000000 0.000000 3.998050 
# 
# 
# High freq. dielectric constant tensor:
#      x y z
#    x 1.815880 0.000000 0.000000 
#    y 0.000000 1.803410 0.000000 
#    z 0.000000 0.000000 1.830220 
# 
# From -- ./inp_files/4160.got.cif
#   From: 2010.03.12/outbox.cif.g09.slc.cpg/sg26_3_cif.got.tgz:4160.got - 2010.04.14 03:33:09.
