data_PCOD8167515
_publ_section_title
;
Structure prediction by ZEFSAII (Michael W. Deem and Ramdas Pophale) SiO2 
 PCOD8167515
Probable space group: P M C 21
;
_chemical_formula_sum "Si O2"
_cell_formula_units_Z 32
_cell_length_a 9.124043
_cell_length_b 11.215352
_cell_length_c 16.123032
_cell_angle_alpha 90.000000
_cell_angle_beta 90.000000
_cell_angle_gamma 90.000000
_cell_volume 1649.859448
_symmetry_space_group_name_H-M "P M C 21"
_symmetry_group_IT_number 26
_symmetry_cell_setting 'orthorhombic'
loop_
_space_group_symop_operation_xyz
x,y,z
-x,-y,1/2+z
-x,y,z
x,-y,1/2+z
loop_
_atom_site_type_symbol
_atom_site_label
_atom_site_fract_x
_atom_site_fract_y
_atom_site_fract_z
Si Si1 0.664023 0.658949 0.944700
Si Si2 0.165538 0.270485 0.751703
Si Si3 0.339364 0.585355 0.370567
Si Si4 0.333322 0.221479 0.999161
Si Si5 0.172204 0.303358 0.154457
Si Si6 0.672893 0.930019 0.339970
Si Si7 0.832818 0.565331 0.100291
Si Si8 0.826183 0.179427 0.324330
O O1 0.500000 0.708139 0.962241
O O2 0.658634 0.556054 0.876050
O O3 0.765374 0.763021 0.909023
O O4 0.728082 0.598538 0.025864
O O5 0.208194 0.381622 0.809694
O O6 0.276980 0.162640 0.768732
O O7 0.178829 0.319857 0.659339
O O8 0.000000 0.229862 0.771888
O O9 0.500000 0.630992 0.338349
O O10 0.311639 0.647412 0.459639
O O11 0.500000 0.197863 0.025495
O O12 0.238251 0.217918 0.082795
O O13 0.284424 0.122348 0.930892
O O14 0.220551 0.441903 0.143744
O O15 0.225393 0.254668 0.243817
O O16 0.000000 0.289847 0.147597
O O17 0.500000 0.951960 0.332646
O O18 0.759881 0.048717 0.319933
O O19 0.000000 0.548817 0.069380
O O20 0.000000 0.171933 0.330614
#
# Coordination Sequence:
#
# PCOD8167515 Si02
#       8
#     4   4   4   4   4   4   4   4
#     4  11  22  37  58  85 119 157 195 239 294 352
#     4  10  20  35  59  87 115 152 194 239 291 347
#     4   9  18  33  54  84 118 150 188 235 288 347
#     4   9  18  35  59  86 116 149 191 241 289 345
#     4  10  21  37  60  90 121 152 194 243 295 354
#     4  10  22  42  62  84 116 154 202 248 294 353
#     4  10  21  37  57  88 124 154 190 240 296 356
#     4  11  24  42  61  86 119 158 202 249 299 354
#
# _framework density 19.395589999999999
#
# number of rings (size 3 to 8) (size 9 to 14) (size 15 to 20)
#    0.000    2.000    1.250    3.000    0.000    6.500 
#    2.250    0.000    0.000    0.000    0.000    0.000 
#    0.000    0.000    0.000    0.000    0.000    0.000 
#
# Total GULP energy -396713.799641 kJ/mol
# GULP energy per Si atom -12397.306239 kJ/mol
# Density = 1.935145 g / cm^3
# Si number density = 19.395590 Si / 1000 Ang^3
#
#
#
# Elastic Constant Matrix: (Units=GPa)
#
#
# Indices 1 2 3 4 5 6 
#
# 1 87.9024 44.6630 48.3115 0.0000 0.0000 0.0000
# 2 44.6630 94.5718 42.6785 0.0000 0.0000 0.0000
# 3 48.3115 42.6785 78.3153 0.0000 0.0000 0.0000
# 4 0.0000 0.0000 0.0000 25.3151 0.0000 0.0000
# 5 0.0000 0.0000 0.0000 0.0000 24.2793 0.0000
# 6 0.0000 0.0000 0.0000 0.0000 0.0000 33.3385
#
#
#
# Elastic Compliance Matrix: (Units=1/GPa)
#
#
# Indices 1 2 3 4 5 6 
#
# 1 0.018732 -0.004816 -0.008931 0.000000 0.000000 0.000000
# 2 -0.004816 0.015261 -0.005346 0.000000 0.000000 0.000000
# 3 -0.008931 -0.005346 0.021191 0.000000 0.000000 0.000000
# 4 0.000000 0.000000 0.000000 0.039502 0.000000 0.000000
# 5 0.000000 0.000000 0.000000 0.000000 0.041187 0.000000
# 6 0.000000 0.000000 0.000000 0.000000 0.000000 0.029995
#
#
# Mechanical properties :
#
#
# Convention : Reuss Voigt Hill
#
# Bulk Modulus (GPa) = 58.82689 59.12174 58.97432
# Shear Modulus (GPa) = 23.84138 24.92900 24.38519
#
# Velocity S-wave (km/s) = 3.50982 3.58899 3.54962
# Velocity P-wave (km/s) = 6.84259 6.90816 6.87545
#
# Compressibility (1/GPa) = 0.01699903
#
# Stress axis : x y z
#
# Youngs Moduli (GPa) = 53.38563 65.52747 47.18938
#
# Poissons Ratio (x) = 0.31558 0.42143
# Poissons Ratio (y) = 0.25711 0.25225
# Poissons Ratio (z) = 0.47677 0.35028
#
# Static dielectric constant tensor:
#      x y z
#    x 3.604430 0.000000 0.000000 
#    y 0.000000 3.500650 0.000000 
#    z 0.000000 0.000000 3.414430 
# 
# 
# High freq. dielectric constant tensor:
#      x y z
#    x 1.761050 0.000000 0.000000 
#    y 0.000000 1.748130 0.000000 
#    z 0.000000 0.000000 1.743530 
# 
# From -- ./inp_files/4287.got.cif
#   From: 2010.03.12/outbox.cif.g09.slc.cpg/sg26_3_cif.got.tgz:4287.got - 2010.04.14 03:33:09.
