data_PCOD8167843
_publ_section_title
;
Structure prediction by ZEFSAII (Michael W. Deem and Ramdas Pophale) SiO2 
 PCOD8167843
Probable space group: P C C 2
;
_chemical_formula_sum "Si O2"
_cell_formula_units_Z 32
_cell_length_a 8.857918
_cell_length_b 12.905395
_cell_length_c 13.487484
_cell_angle_alpha 90.000000
_cell_angle_beta 90.000000
_cell_angle_gamma 90.000000
_cell_volume 1541.820798
_symmetry_space_group_name_H-M "P C C 2"
_symmetry_group_IT_number 27
_symmetry_cell_setting 'orthorhombic'
loop_
_space_group_symop_operation_xyz
x,y,z
-x,-y,z
-x,y,1/2+z
x,-y,1/2+z
loop_
_atom_site_type_symbol
_atom_site_label
_atom_site_fract_x
_atom_site_fract_y
_atom_site_fract_z
Si Si1 0.766779 0.850772 0.636070
Si Si2 0.892922 0.905993 0.427067
Si Si3 0.333011 0.039532 0.258149
Si Si4 0.290011 0.422891 0.820036
Si Si5 0.599979 0.371122 0.906901
Si Si6 0.429106 0.337929 0.632510
Si Si7 0.708149 0.732547 0.233017
Si Si8 0.969920 0.733362 0.788745
O O1 0.819958 0.855672 0.523593
O O2 0.615443 0.782279 0.643280
O O3 0.888371 0.794489 0.702767
O O4 0.738420 0.964022 0.677432
O O5 0.764998 0.956469 0.357786
O O6 0.986747 0.813854 0.374932
O O7 0.000000 0.000000 0.459587
O O8 0.319592 0.149145 0.201426
O O9 0.500000 0.000000 0.286381
O O10 0.421607 0.373995 0.886961
O O11 0.290662 0.542227 0.855013
O O12 0.336711 0.414110 0.704695
O O13 0.130803 0.361525 0.834244
O O14 0.656060 0.268329 0.850370
O O15 0.615855 0.377172 0.024074
O O16 0.606838 0.342000 0.662286
O O17 0.880291 0.692128 0.231912
#
# Coordination Sequence:
#
# PCOD8167843 Si02
#       8
#     4   4   4   4   4   4   4   4
#     4  11  23  41  59  89 128 170 216 259 320 392
#     4  11  24  37  62  93 130 177 217 269 324 393
#     4  11  22  42  60  88 130 171 213 270 324 387
#     4   9  22  40  66  89 124 166 204 262 334 387
#     4  10  21  40  65  95 122 161 214 268 319 389
#     4  10  20  41  63  90 123 160 213 269 313 386
#     4  10  22  37  63  92 124 166 211 264 325 378
#     4  10  22  43  61  91 132 169 209 269 325 395
#
# _framework density 20.754681000000001
#
# number of rings (size 3 to 8) (size 9 to 14) (size 15 to 20)
#    0.000    1.750    2.500    1.500    3.500    6.000 
#    2.250    0.000    0.000    3.000    0.000    0.000 
#    0.000    0.000    0.000    0.000    0.000    0.000 
#
# Total GULP energy -396511.820176 kJ/mol
# GULP energy per Si atom -12390.994381 kJ/mol
# Density = 2.070744 g / cm^3
# Si number density = 20.754681 Si / 1000 Ang^3
#
#
#
# Elastic Constant Matrix: (Units=GPa)
#
#
# Indices 1 2 3 4 5 6 
#
# 1 122.9821 45.0737 27.2736 0.0000 0.0000 0.0000
# 2 45.0737 88.0094 39.6518 0.0000 0.0000 0.0000
# 3 27.2736 39.6518 139.2243 0.0000 0.0000 0.0000
# 4 0.0000 0.0000 0.0000 25.1274 0.0000 0.0000
# 5 0.0000 0.0000 0.0000 0.0000 18.6773 0.0000
# 6 0.0000 0.0000 0.0000 0.0000 0.0000 36.8419
#
#
#
# Elastic Compliance Matrix: (Units=1/GPa)
#
#
# Indices 1 2 3 4 5 6 
#
# 1 0.010050 -0.004887 -0.000577 0.000000 0.000000 0.000000
# 2 -0.004887 0.015412 -0.003432 0.000000 0.000000 0.000000
# 3 -0.000577 -0.003432 0.008273 0.000000 0.000000 0.000000
# 4 0.000000 0.000000 0.000000 0.039797 0.000000 0.000000
# 5 0.000000 0.000000 0.000000 0.000000 0.053541 0.000000
# 6 0.000000 0.000000 0.000000 0.000000 0.000000 0.027143
#
#
# Mechanical properties :
#
#
# Convention : Reuss Voigt Hill
#
# Bulk Modulus (GPa) = 62.72403 63.80157 63.26280
# Shear Modulus (GPa) = 28.19712 32.01044 30.10378
#
# Velocity S-wave (km/s) = 3.68991 3.93150 3.81262
# Velocity P-wave (km/s) = 6.95997 7.17053 7.06603
#
# Compressibility (1/GPa) = 0.01594285
#
# Stress axis : x y z
#
# Youngs Moduli (GPa) = 99.49795 64.88585 120.87385
#
# Poissons Ratio (x) = 0.31712 0.06973
# Poissons Ratio (y) = 0.48628 0.41483
# Poissons Ratio (z) = 0.05740 0.22268
#
# Static dielectric constant tensor:
#      x y z
#    x 3.988530 0.000000 0.000000 
#    y 0.000000 4.090480 0.000000 
#    z 0.000000 0.000000 3.627960 
# 
# 
# High freq. dielectric constant tensor:
#      x y z
#    x 1.816900 0.000000 0.000000 
#    y 0.000000 1.817170 0.000000 
#    z 0.000000 0.000000 1.802340 
# 
# From -- ./inp_files/2436.got.cif
#   From: 2010.03.12/outbox.cif.g09.slc.cpg/sg27_2_cif.got.tgz:2436.got - 2010.04.14 03:36:05.
