data_PCOD8167618
_publ_section_title
;
Structure prediction by ZEFSAII (Michael W. Deem and Ramdas Pophale) SiO2 
 PCOD8167618
Probable space group: P M C 21
;
_chemical_formula_sum "Si O2"
_cell_formula_units_Z 24
_cell_length_a 9.216693
_cell_length_b 9.376130
_cell_length_c 15.058806
_cell_angle_alpha 90.000000
_cell_angle_beta 90.000000
_cell_angle_gamma 90.000000
_cell_volume 1301.335509
_symmetry_space_group_name_H-M "P M C 21"
_symmetry_group_IT_number 26
_symmetry_cell_setting 'orthorhombic'
loop_
_space_group_symop_operation_xyz
x,y,z
-x,-y,1/2+z
-x,y,z
x,-y,1/2+z
loop_
_atom_site_type_symbol
_atom_site_label
_atom_site_fract_x
_atom_site_fract_y
_atom_site_fract_z
Si Si1 0.666843 0.855087 0.185450
Si Si2 0.830298 0.341213 0.029430
Si Si3 0.668461 0.835901 0.871307
Si Si4 0.330627 0.637451 0.035185
Si Si5 0.170142 0.856892 0.693967
Si Si6 0.665043 0.159840 0.888929
O O1 0.500000 0.898233 0.167584
O O2 0.715788 0.728413 0.120949
O O3 0.688431 0.801700 0.285797
O O4 0.763026 0.992683 0.164762
O O5 0.759832 0.494784 0.036279
O O6 0.791985 0.256474 0.118434
O O7 0.000000 0.360299 0.016172
O O8 0.771470 0.258097 0.944333
O O9 0.500000 0.827962 0.844302
O O10 0.761454 0.797857 0.784809
O O11 0.704798 0.994628 0.905912
O O12 0.710118 0.725090 0.947253
O O13 0.500000 0.599933 0.037232
O O14 0.000000 0.877210 0.707608
O O15 0.500000 0.191211 0.918065
#
# Coordination Sequence:
#
# PCOD8167618 Si02
#       6
#     4   4   4   4   4   4
#     4   9  19  37  60  83 105 134 177 225 268 312
#     4  11  24  37  50  76 113 148 179 213 260 318
#     4   9  19  36  59  84 105 132 177 226 267 311
#     4  10  21  37  57  80 107 141 179 220 267 315
#     4  10  21  36  55  80 109 142 178 216 263 317
#     4   9  18  35  59  83 105 133 174 222 267 313
#
# _framework density 18.442592999999999
#
# number of rings (size 3 to 8) (size 9 to 14) (size 15 to 20)
#    0.000    2.333    0.000    3.000    0.000    9.333 
#    0.000    5.000    0.000    0.000    0.000    0.000 
#    0.000    0.000    0.000    0.000    0.000    0.000 
#
# Total GULP energy -297689.288220 kJ/mol
# GULP energy per Si atom -12403.720342 kJ/mol
# Density = 1.840062 g / cm^3
# Si number density = 18.442593 Si / 1000 Ang^3
#
#
#
# Elastic Constant Matrix: (Units=GPa)
#
#
# Indices 1 2 3 4 5 6 
#
# 1 86.0026 77.9577 77.4652 0.0000 0.0000 0.0000
# 2 77.9577 147.5505 99.0522 0.0000 0.0000 0.0000
# 3 77.4652 99.0522 127.0542 0.0000 0.0000 0.0000
# 4 0.0000 0.0000 0.0000 -4.8344 0.0000 0.0000
# 5 0.0000 0.0000 0.0000 0.0000 27.3809 0.0000
# 6 0.0000 0.0000 0.0000 0.0000 0.0000 17.9478
#
#
#
# Elastic Compliance Matrix: (Units=1/GPa)
#
#
# Indices 1 2 3 4 5 6 
#
# 1 0.029083 -0.007264 -0.012069 0.000000 0.000000 0.000000
# 2 -0.007264 0.016033 -0.008071 0.000000 0.000000 0.000000
# 3 -0.012069 -0.008071 0.021521 0.000000 0.000000 0.000000
# 4 0.000000 0.000000 0.000000 -0.206851 0.000000 0.000000
# 5 0.000000 0.000000 0.000000 0.000000 0.036522 0.000000
# 6 0.000000 0.000000 0.000000 0.000000 0.000000 0.055717
#
#
# Mechanical properties :
#
#
# Convention : Reuss Voigt Hill
#
# Bulk Modulus (GPa) = 84.53060 96.61753 90.57406
# Shear Modulus (GPa) = 464.03450 15.17434 239.60442
#
# Velocity S-wave (km/s) = 15.87943 2.87154 11.41057
# Velocity P-wave (km/s) = 19.54847 7.96846 14.92714
#
# Compressibility (1/GPa) = 0.01183004
#
# Stress axis : x y z
#
# Youngs Moduli (GPa) = 34.38474 62.37094 46.46590
#
# Poissons Ratio (x) = 0.45304 0.56079
# Poissons Ratio (y) = 0.24976 0.37502
# Poissons Ratio (z) = 0.41499 0.50338
#
# Static dielectric constant tensor:
#      x y z
#    x 3.359580 0.000000 0.000000 
#    y 0.000000 3.359150 0.000000 
#    z 0.000000 0.000000 3.543460 
# 
# 
# High freq. dielectric constant tensor:
#      x y z
#    x 1.712900 0.000000 0.000000 
#    y 0.000000 1.712520 0.000000 
#    z 0.000000 0.000000 1.727800 
# 
# From -- ./inp_files/3911.got.cif
#   From: 2010.03.12/outbox.cif.g09.slc.cpg/sg26_2_cif.got.tgz:3911.got - 2010.04.14 03:33:09.
