data_PCOD8167869
_publ_section_title
;
Structure prediction by ZEFSAII (Michael W. Deem and Ramdas Pophale) SiO2 
 PCOD8167869
Probable space group: P C C 2
;
_chemical_formula_sum "Si O2"
_cell_formula_units_Z 20
_cell_length_a 5.718331
_cell_length_b 11.844118
_cell_length_c 13.184620
_cell_angle_alpha 90.000000
_cell_angle_beta 90.000000
_cell_angle_gamma 90.000000
_cell_volume 892.975684
_symmetry_space_group_name_H-M "P C C 2"
_symmetry_group_IT_number 27
_symmetry_cell_setting 'orthorhombic'
loop_
_space_group_symop_operation_xyz
x,y,z
-x,-y,z
-x,y,1/2+z
x,-y,1/2+z
loop_
_atom_site_type_symbol
_atom_site_label
_atom_site_fract_x
_atom_site_fract_y
_atom_site_fract_z
Si Si1 0.226653 0.719386 0.973320
Si Si2 0.611498 0.881615 0.924817
Si Si3 0.932824 0.251998 0.291506
Si Si4 0.745880 0.563852 0.655759
Si Si5 0.075847 0.123037 0.109106
O O1 0.450264 0.771497 0.918271
O O2 0.060040 0.679248 0.881337
O O3 0.279893 0.610510 0.041464
O O4 0.122962 0.821274 0.039582
O O5 0.810584 0.857463 0.841762
O O6 0.500000 0.000000 0.892049
O O7 0.692559 0.887564 0.041867
O O8 0.750537 0.335655 0.237419
O O9 0.115078 0.202151 0.207781
O O10 0.500000 0.500000 0.678606
O O11 0.000000 0.500000 0.664136
O O12 0.000000 0.000000 0.145470
#
# Coordination Sequence:
#
# PCOD8167869 Si02
#       5
#     4   4   4   4   4
#     4  10  24  45  69 101 141 181 238 295 352 435
#     4  11  23  42  70 103 145 189 228 286 366 435
#     4  10  26  43  70 106 139 181 247 297 347 444
#     4  11  28  52  76 104 143 192 245 311 372 416
#     4  10  21  40  63  98 146 186 225 282 353 425
#
# _framework density 22.397027999999999
#
# number of rings (size 3 to 8) (size 9 to 14) (size 15 to 20)
#    0.000    1.600    2.000    0.000   14.000    2.400 
#    0.000    0.000    0.000    0.000    0.000    0.000 
#    0.000    0.000    0.000    0.000    0.000    0.000 
#
# Total GULP energy -247852.717991 kJ/mol
# GULP energy per Si atom -12392.635900 kJ/mol
# Density = 2.234605 g / cm^3
# Si number density = 22.397028 Si / 1000 Ang^3
#
#
#
# Elastic Constant Matrix: (Units=GPa)
#
#
# Indices 1 2 3 4 5 6 
#
# 1 95.1716 35.3223 33.5456 0.0000 0.0000 0.0000
# 2 35.3223 92.6700 50.4937 0.0000 0.0000 0.0000
# 3 33.5456 50.4937 143.5210 0.0000 0.0000 0.0000
# 4 0.0000 0.0000 0.0000 2.0374 0.0000 0.0000
# 5 0.0000 0.0000 0.0000 0.0000 25.5539 0.0000
# 6 0.0000 0.0000 0.0000 0.0000 0.0000 39.1076
#
#
#
# Elastic Compliance Matrix: (Units=1/GPa)
#
#
# Indices 1 2 3 4 5 6 
#
# 1 0.012509 -0.003928 -0.001542 0.000000 0.000000 0.000000
# 2 -0.003928 0.014584 -0.004213 0.000000 0.000000 0.000000
# 3 -0.001542 -0.004213 0.008810 0.000000 0.000000 0.000000
# 4 0.000000 0.000000 0.000000 0.490829 0.000000 0.000000
# 5 0.000000 0.000000 0.000000 0.000000 0.039133 0.000000
# 6 0.000000 0.000000 0.000000 0.000000 0.000000 0.025570
#
#
# Mechanical properties :
#
#
# Convention : Reuss Voigt Hill
#
# Bulk Modulus (GPa) = 60.46808 63.34288 61.90548
# Shear Modulus (GPa) = 8.11278 27.47316 17.79297
#
# Velocity S-wave (km/s) = 1.90529 3.50615 2.82163
# Velocity P-wave (km/s) = 5.64775 6.68835 6.18995
#
# Compressibility (1/GPa) = 0.01653765
#
# Stress axis : x y z
#
# Youngs Moduli (GPa) = 79.94550 68.57064 113.50570
#
# Poissons Ratio (x) = 0.26932 0.17500
# Poissons Ratio (y) = 0.31400 0.47817
# Poissons Ratio (z) = 0.12326 0.28887
#
# Static dielectric constant tensor:
#      x y z
#    x 4.037260 0.000000 0.000000 
#    y 0.000000 3.857560 0.000000 
#    z 0.000000 0.000000 4.190230 
# 
# 
# High freq. dielectric constant tensor:
#      x y z
#    x 1.871110 0.000000 0.000000 
#    y 0.000000 1.874330 0.000000 
#    z 0.000000 0.000000 1.897050 
# 
# From -- ./inp_files/2946.got.cif
#   From: 2010.03.12/outbox.cif.g09.slc.cpg/sg27_2_cif.got.tgz:2946.got - 2010.04.14 03:36:05.
