data_PCOD8167528
_publ_section_title
;
Structure prediction by ZEFSAII (Michael W. Deem and Ramdas Pophale) SiO2 
 PCOD8167528
Probable space group: P M C 21
;
_chemical_formula_sum "Si O2"
_cell_formula_units_Z 32
_cell_length_a 9.482815
_cell_length_b 12.207361
_cell_length_c 14.422662
_cell_angle_alpha 90.000000
_cell_angle_beta 90.000000
_cell_angle_gamma 90.000000
_cell_volume 1669.569459
_symmetry_space_group_name_H-M "P M C 21"
_symmetry_group_IT_number 26
_symmetry_cell_setting 'orthorhombic'
loop_
_space_group_symop_operation_xyz
x,y,z
-x,-y,1/2+z
-x,y,z
x,-y,1/2+z
loop_
_atom_site_type_symbol
_atom_site_label
_atom_site_fract_x
_atom_site_fract_y
_atom_site_fract_z
Si Si1 0.167018 0.596656 0.417740
Si Si2 0.344988 0.048564 0.957277
Si Si3 0.334981 0.148038 0.218623
Si Si4 0.834901 0.619101 0.019538
Si Si5 0.659777 0.097731 0.742474
Si Si6 0.165252 0.313296 0.721595
Si Si7 0.833809 0.214173 0.055245
Si Si8 0.658329 0.197387 0.425829
O O1 0.227414 0.484701 0.462640
O O2 0.221877 0.620692 0.312767
O O3 0.218856 0.692533 0.485323
O O4 0.000000 0.591054 0.417052
O O5 0.500000 0.090298 0.991418
O O6 0.325663 0.080923 0.851395
O O7 0.337639 0.919676 0.975286
O O8 0.217084 0.099107 0.014343
O O9 0.500000 0.168759 0.203776
O O10 0.243744 0.228159 0.153496
O O11 0.289189 0.182936 0.321039
O O12 0.299582 0.019787 0.197153
O O13 0.804896 0.612027 0.130548
O O14 0.000000 0.629217 0.001577
O O15 0.763730 0.726662 0.980660
O O16 0.500000 0.129558 0.715297
O O17 0.760168 0.195738 0.709232
O O18 0.000000 0.288639 0.733239
O O19 0.000000 0.215155 0.070459
O O20 0.500000 0.245873 0.429156
#
# Coordination Sequence:
#
# PCOD8167528 Si02
#       8
#     4   4   4   4   4   4   4   4
#     4   9  20  39  57  79 115 154 189 232 286 338
#     4   9  18  34  55  79 111 150 184 225 284 340
#     4   9  20  37  55  80 117 157 188 226 285 342
#     4  10  22  38  59  84 110 148 194 235 287 340
#     4   9  18  34  56  80 109 149 190 225 276 340
#     4  10  20  36  57  81 111 146 185 237 285 329
#     4  11  21  33  55  86 114 149 193 233 276 331
#     4   9  20  39  58  79 113 151 187 231 285 338
#
# _framework density 19.166618
#
# number of rings (size 3 to 8) (size 9 to 14) (size 15 to 20)
#    0.000    2.500    1.250    1.875    1.750    3.000 
#    0.000    6.875    0.000    0.000    0.000    0.000 
#    0.000    0.000    0.000    0.000    0.000    0.000 
#
# Total GULP energy -396658.656673 kJ/mol
# GULP energy per Si atom -12395.583021 kJ/mol
# Density = 1.912299 g / cm^3
# Si number density = 19.166618 Si / 1000 Ang^3
#
#
#
# Elastic Constant Matrix: (Units=GPa)
#
#
# Indices 1 2 3 4 5 6 
#
# 1 51.6968 37.3366 35.0930 0.0000 0.0000 0.0000
# 2 37.3366 82.1320 57.5040 0.0000 0.0000 0.0000
# 3 35.0930 57.5040 94.7481 0.0000 0.0000 0.0000
# 4 0.0000 0.0000 0.0000 27.7210 0.0000 0.0000
# 5 0.0000 0.0000 0.0000 0.0000 31.0457 0.0000
# 6 0.0000 0.0000 0.0000 0.0000 0.0000 16.2402
#
#
#
# Elastic Compliance Matrix: (Units=1/GPa)
#
#
# Indices 1 2 3 4 5 6 
#
# 1 0.030072 -0.010211 -0.004941 0.000000 0.000000 0.000000
# 2 -0.010211 0.024640 -0.011172 0.000000 0.000000 0.000000
# 3 -0.004941 -0.011172 0.019165 0.000000 0.000000 0.000000
# 4 0.000000 0.000000 0.000000 0.036074 0.000000 0.000000
# 5 0.000000 0.000000 0.000000 0.000000 0.032211 0.000000
# 6 0.000000 0.000000 0.000000 0.000000 0.000000 0.061575
#
#
# Mechanical properties :
#
#
# Convention : Reuss Voigt Hill
#
# Bulk Modulus (GPa) = 47.10704 54.27157 50.68931
# Shear Modulus (GPa) = 18.97815 21.57761 20.27788
#
# Velocity S-wave (km/s) = 3.15011 3.35892 3.25619
# Velocity P-wave (km/s) = 6.15320 6.58941 6.37504
#
# Compressibility (1/GPa) = 0.02122825
#
# Stress axis : x y z
#
# Youngs Moduli (GPa) = 33.25306 40.58524 52.17928
#
# Poissons Ratio (x) = 0.41443 0.25781
# Poissons Ratio (y) = 0.33956 0.58294
# Poissons Ratio (z) = 0.16430 0.45342
#
# Static dielectric constant tensor:
#      x y z
#    x 3.293750 0.000000 0.000000 
#    y 0.000000 3.490830 0.000000 
#    z 0.000000 0.000000 3.764750 
# 
# 
# High freq. dielectric constant tensor:
#      x y z
#    x 1.725020 0.000000 0.000000 
#    y 0.000000 1.730710 0.000000 
#    z 0.000000 0.000000 1.762370 
# 
# From -- ./inp_files/4176.got.cif
#   From: 2010.03.12/outbox.cif.g09.slc.cpg/sg26_3_cif.got.tgz:4176.got - 2010.04.14 03:33:09.
