data_PCOD8167380
_publ_section_title
;
Structure prediction by ZEFSAII (Michael W. Deem and Ramdas Pophale) SiO2 
 PCOD8167380
Probable space group: P M C 21
;
_chemical_formula_sum "Si O2"
_cell_formula_units_Z 32
_cell_length_a 8.556444
_cell_length_b 16.298773
_cell_length_c 10.738275
_cell_angle_alpha 90.000000
_cell_angle_beta 90.000000
_cell_angle_gamma 90.000000
_cell_volume 1497.554875
_symmetry_space_group_name_H-M "P M C 21"
_symmetry_group_IT_number 26
_symmetry_cell_setting 'orthorhombic'
loop_
_space_group_symop_operation_xyz
x,y,z
-x,-y,1/2+z
-x,y,z
x,-y,1/2+z
loop_
_atom_site_type_symbol
_atom_site_label
_atom_site_fract_x
_atom_site_fract_y
_atom_site_fract_z
Si Si1 0.681281 0.762964 0.245210
Si Si2 0.320566 0.150667 0.404299
Si Si3 0.185400 0.578416 0.608574
Si Si4 0.185694 0.924878 0.136505
Si Si5 0.178792 0.696942 0.017299
Si Si6 0.819415 0.527908 0.880453
Si Si7 0.820362 0.109024 0.157004
Si Si8 0.321193 0.256340 0.028781
O O1 0.500000 0.762908 0.207446
O O2 0.743793 0.856259 0.228328
O O3 0.707061 0.730463 0.383458
O O4 0.779922 0.696710 0.164360
O O5 0.500000 0.132596 0.369066
O O6 0.254606 0.083184 0.498368
O O7 0.304241 0.239742 0.463905
O O8 0.208689 0.153495 0.286410
O O9 0.254294 0.538133 0.479458
O O10 0.251222 0.535798 0.738536
O O11 0.227199 0.674953 0.607194
O O12 0.000000 0.568353 0.611968
O O13 0.000000 0.915512 0.136259
O O14 0.240813 0.016023 0.174235
O O15 0.208785 0.611780 0.952659
O O16 0.000000 0.726291 0.999008
O O17 0.000000 0.506809 0.865272
O O18 0.000000 0.109069 0.118211
O O19 0.730875 0.162999 0.054925
O O20 0.500000 0.266588 0.067550
#
# Coordination Sequence:
#
# PCOD8167380 Si02
#       8
#     4   4   4   4   4   4   4   4
#     4  10  22  39  59  87 124 161 202 251 309 374
#     4  11  22  37  59  85 118 155 194 243 305 369
#     4  10  21  40  64  92 126 164 208 260 317 376
#     4  10  22  39  60  88 118 153 203 252 300 363
#     4  10  19  35  61  90 119 156 206 252 301 363
#     4   9  20  36  62  95 124 156 205 260 309 370
#     4  11  24  40  61  86 116 156 203 255 304 362
#     4  11  25  42  60  89 125 163 207 255 315 383
#
# _framework density 21.368167
#
# number of rings (size 3 to 8) (size 9 to 14) (size 15 to 20)
#    0.000    1.750    0.000    5.250    3.500    5.000 
#    0.000    2.500    0.000    0.000    0.000    0.000 
#    0.000    0.000    0.000    0.000    0.000    0.000 
#
# Total GULP energy -396579.496039 kJ/mol
# GULP energy per Si atom -12393.109251 kJ/mol
# Density = 2.131953 g / cm^3
# Si number density = 21.368167 Si / 1000 Ang^3
#
#
#
# Elastic Constant Matrix: (Units=GPa)
#
#
# Indices 1 2 3 4 5 6 
#
# 1 50.8336 28.0744 35.0673 0.0000 0.0000 0.0000
# 2 28.0744 72.3898 39.8645 0.0000 0.0000 0.0000
# 3 35.0673 39.8645 90.3031 0.0000 0.0000 0.0000
# 4 0.0000 0.0000 0.0000 11.8635 0.0000 0.0000
# 5 0.0000 0.0000 0.0000 0.0000 26.7768 0.0000
# 6 0.0000 0.0000 0.0000 0.0000 0.0000 9.5443
#
#
#
# Elastic Compliance Matrix: (Units=1/GPa)
#
#
# Indices 1 2 3 4 5 6 
#
# 1 0.029136 -0.006697 -0.008358 0.000000 0.000000 0.000000
# 2 -0.006697 0.019790 -0.006136 0.000000 0.000000 0.000000
# 3 -0.008358 -0.006136 0.017028 0.000000 0.000000 0.000000
# 4 0.000000 0.000000 0.000000 0.084292 0.000000 0.000000
# 5 0.000000 0.000000 0.000000 0.000000 0.037346 0.000000
# 6 0.000000 0.000000 0.000000 0.000000 0.000000 0.104774
#
#
# Mechanical properties :
#
#
# Convention : Reuss Voigt Hill
#
# Bulk Modulus (GPa) = 42.42137 46.61542 44.51840
# Shear Modulus (GPa) = 14.59401 17.00496 15.79949
#
# Velocity S-wave (km/s) = 2.61622 2.82407 2.72213
# Velocity P-wave (km/s) = 5.38719 5.70057 5.54610
#
# Compressibility (1/GPa) = 0.02357302
#
# Stress axis : x y z
#
# Youngs Moduli (GPa) = 34.32127 50.52979 58.72625
#
# Poissons Ratio (x) = 0.33840 0.49084
# Poissons Ratio (y) = 0.22985 0.36033
# Poissons Ratio (z) = 0.28686 0.31004
#
# Static dielectric constant tensor:
#      x y z
#    x 3.656640 0.000000 0.000000 
#    y 0.000000 3.893560 0.000000 
#    z 0.000000 0.000000 4.272820 
# 
# 
# High freq. dielectric constant tensor:
#      x y z
#    x 1.821670 0.000000 0.000000 
#    y 0.000000 1.837230 0.000000 
#    z 0.000000 0.000000 1.850790 
# 
# From -- ./inp_files/3091.got.cif
#   From: 2010.03.12/outbox.cif.g09.slc.cpg/sg26_2_cif.got.tgz:3091.got - 2010.04.14 03:33:09.
