data_PCOD8167141
_publ_section_title
;
Structure prediction by ZEFSAII (Michael W. Deem and Ramdas Pophale) SiO2 
 PCOD8167141
Probable space group: P M C 21
;
_chemical_formula_sum "Si O2"
_cell_formula_units_Z 32
_cell_length_a 8.590849
_cell_length_b 11.348078
_cell_length_c 16.535756
_cell_angle_alpha 90.000000
_cell_angle_beta 90.000000
_cell_angle_gamma 90.000000
_cell_volume 1612.064644
_symmetry_space_group_name_H-M "P M C 21"
_symmetry_group_IT_number 26
_symmetry_cell_setting 'orthorhombic'
loop_
_space_group_symop_operation_xyz
x,y,z
-x,-y,1/2+z
-x,y,z
x,-y,1/2+z
loop_
_atom_site_type_symbol
_atom_site_label
_atom_site_fract_x
_atom_site_fract_y
_atom_site_fract_z
Si Si1 0.815531 0.299423 0.062250
Si Si2 0.825355 0.347891 0.349279
Si Si3 0.682392 0.812173 0.723333
Si Si4 0.826808 0.403111 0.789128
Si Si5 0.181666 0.440779 0.516925
Si Si6 0.683790 0.927448 0.254006
Si Si7 0.677994 0.715776 0.147728
Si Si8 0.684799 0.769209 0.402023
O O1 0.767607 0.253204 0.150124
O O2 0.750623 0.433714 0.048723
O O3 0.000000 0.295108 0.055563
O O4 0.741042 0.211778 0.994460
O O5 0.715435 0.251063 0.308618
O O6 0.834946 0.456998 0.288328
O O7 0.747187 0.395158 0.432200
O O8 0.000000 0.296580 0.363104
O O9 0.500000 0.813831 0.705072
O O10 0.752013 0.943722 0.735409
O O11 0.696225 0.368154 0.724921
O O12 0.770483 0.351947 0.875443
O O13 0.000000 0.353829 0.767935
O O14 0.212455 0.333640 0.578041
O O15 0.000000 0.458833 0.503808
O O16 0.500000 0.934667 0.260120
O O17 0.731655 0.845440 0.177586
O O18 0.742112 0.872958 0.340258
O O19 0.500000 0.714268 0.118195
O O20 0.500000 0.755405 0.398892
#
# Coordination Sequence:
#
# PCOD8167141 Si02
#       8
#     4   4   4   4   4   4   4   4
#     4  11  22  39  60  87 120 154 189 233 294 354
#     4  10  21  38  56  79 117 156 185 228 290 348
#     4  11  23  40  60  84 114 155 198 241 288 339
#     4  10  18  33  56  82 114 151 181 221 288 346
#     4  10  21  38  57  82 119 154 183 226 294 356
#     4   8  19  40  59  79 114 151 189 235 292 339
#     4  10  20  35  57  85 111 144 191 239 278 331
#     4  10  19  35  61  88 113 147 192 241 280 335
#
# _framework density 19.850318000000001
#
# number of rings (size 3 to 8) (size 9 to 14) (size 15 to 20)
#    0.000    2.000    1.250    3.375    0.000    5.500 
#    2.250    7.500    0.000    0.000    0.000    0.000 
#    0.000    0.000    0.000    0.000    0.000    0.000 
#
# Total GULP energy -396635.071799 kJ/mol
# GULP energy per Si atom -12394.845994 kJ/mol
# Density = 1.980514 g / cm^3
# Si number density = 19.850318 Si / 1000 Ang^3
#
#
#
# Elastic Constant Matrix: (Units=GPa)
#
#
# Indices 1 2 3 4 5 6 
#
# 1 50.4758 27.4917 14.7799 0.0000 0.0000 0.0000
# 2 27.4917 128.2770 65.8371 0.0000 0.0000 0.0000
# 3 14.7799 65.8371 105.6760 0.0000 0.0000 0.0000
# 4 0.0000 0.0000 0.0000 27.4156 0.0000 0.0000
# 5 0.0000 0.0000 0.0000 0.0000 34.5317 0.0000
# 6 0.0000 0.0000 0.0000 0.0000 0.0000 18.4377
#
#
#
# Elastic Compliance Matrix: (Units=1/GPa)
#
#
# Indices 1 2 3 4 5 6 
#
# 1 0.022433 -0.004700 -0.000209 0.000000 0.000000 0.000000
# 2 -0.004700 0.012445 -0.007096 0.000000 0.000000 0.000000
# 3 -0.000209 -0.007096 0.013913 0.000000 0.000000 0.000000
# 4 0.000000 0.000000 0.000000 0.036476 0.000000 0.000000
# 5 0.000000 0.000000 0.000000 0.000000 0.028959 0.000000
# 6 0.000000 0.000000 0.000000 0.000000 0.000000 0.054237
#
#
# Mechanical properties :
#
#
# Convention : Reuss Voigt Hill
#
# Bulk Modulus (GPa) = 40.35531 55.62735 47.99133
# Shear Modulus (GPa) = 24.90880 27.83169 26.37024
#
# Velocity S-wave (km/s) = 3.54620 3.74849 3.64875
# Velocity P-wave (km/s) = 6.09437 6.84246 6.47922
#
# Compressibility (1/GPa) = 0.02477989
#
# Stress axis : x y z
#
# Youngs Moduli (GPa) = 44.57772 80.35434 71.87559
#
# Poissons Ratio (x) = 0.37769 0.01503
# Poissons Ratio (y) = 0.20953 0.51002
# Poissons Ratio (z) = 0.00932 0.57018
#
# Static dielectric constant tensor:
#      x y z
#    x 3.418430 0.000000 0.000000 
#    y 0.000000 3.816390 0.000000 
#    z 0.000000 0.000000 3.691400 
# 
# 
# High freq. dielectric constant tensor:
#      x y z
#    x 1.761040 0.000000 0.000000 
#    y 0.000000 1.759950 0.000000 
#    z 0.000000 0.000000 1.777980 
# 
# From -- ./inp_files/4218.got.cif
#   From: 2010.03.12/outbox.cif.g09.slc.cpg/sg26_3_cif.got.tgz:4218.got - 2010.04.14 03:33:09.
