data_PCOD8167382
_publ_section_title
;
Structure prediction by ZEFSAII (Michael W. Deem and Ramdas Pophale) SiO2 
 PCOD8167382
Probable space group: P M C 21
;
_chemical_formula_sum "Si O2"
_cell_formula_units_Z 18
_cell_length_a 10.971064
_cell_length_b 11.149242
_cell_length_c 5.231431
_cell_angle_alpha 90.000000
_cell_angle_beta 90.000000
_cell_angle_gamma 90.000000
_cell_volume 639.903657
_symmetry_space_group_name_H-M "P M C 21"
_symmetry_group_IT_number 26
_symmetry_cell_setting 'orthorhombic'
loop_
_space_group_symop_operation_xyz
x,y,z
-x,-y,1/2+z
-x,y,z
x,-y,1/2+z
loop_
_atom_site_type_symbol
_atom_site_label
_atom_site_fract_x
_atom_site_fract_y
_atom_site_fract_z
Si Si1 0.258578 0.425469 0.760370
Si Si2 0.500000 0.137456 0.256695
Si Si3 0.000000 0.577818 0.378126
Si Si4 0.140623 0.849486 0.373463
Si Si5 0.500000 0.281489 0.757934
Si Si6 0.239050 0.890609 0.870351
O O1 0.253173 0.465965 0.465928
O O2 0.380690 0.356887 0.825102
O O3 0.129612 0.350247 0.824973
O O4 0.500000 0.248407 0.458133
O O5 0.622354 0.062879 0.321793
O O6 0.500000 0.172580 0.959289
O O7 0.000000 0.529661 0.668332
O O8 0.196787 0.802109 0.641553
O O9 0.000000 0.810775 0.342771
O O10 0.151751 0.994908 0.405584
O O11 0.226200 0.811514 0.130323
#
# Coordination Sequence:
#
# PCOD8167382 Si02
#       6
#     4   2   2   4   2   4
#     4  10  19  36  63  90 109 142 191 250 290 322
#     4  12  26  39  53  78 122 172 182 226 284 354
#     4   8  16  30  56  86 110 130 168 234 296 328
#     4  10  19  35  64  89 106 137 195 263 294 323
#     4  12  24  39  57  80 126 154 204 222 282 358
#     4  10  20  35  56  82 114 143 195 228 296 336
#
# _framework density 28.129235000000001
#
# number of rings (size 3 to 8) (size 9 to 14) (size 15 to 20)
#    0.000    1.778    0.000    6.667    0.000    3.556 
#    0.000    0.000   19.556    0.000    0.000    0.000 
#    0.000    0.000    0.000    0.000    0.000    0.000 
#
# Total GULP energy -223107.336632 kJ/mol
# GULP energy per Si atom -12394.852035 kJ/mol
# Density = 2.806521 g / cm^3
# Si number density = 28.129235 Si / 1000 Ang^3
#
#
#
# Elastic Constant Matrix: (Units=GPa)
#
#
# Indices 1 2 3 4 5 6 
#
# 1 207.4480 35.5254 28.0482 0.0000 0.0000 0.0000
# 2 35.5254 42.2408 11.2572 0.0000 0.0000 0.0000
# 3 28.0482 11.2572 221.8998 0.0000 0.0000 0.0000
# 4 0.0000 0.0000 0.0000 35.0167 0.0000 0.0000
# 5 0.0000 0.0000 0.0000 0.0000 34.5871 0.0000
# 6 0.0000 0.0000 0.0000 0.0000 0.0000 44.1851
#
#
#
# Elastic Compliance Matrix: (Units=1/GPa)
#
#
# Indices 1 2 3 4 5 6 
#
# 1 0.005682 -0.004650 -0.000482 0.000000 0.000000 0.000000
# 2 -0.004650 0.027804 -0.000823 0.000000 0.000000 0.000000
# 3 -0.000482 -0.000823 0.004609 0.000000 0.000000 0.000000
# 4 0.000000 0.000000 0.000000 0.028558 0.000000 0.000000
# 5 0.000000 0.000000 0.000000 0.000000 0.028913 0.000000
# 6 0.000000 0.000000 0.000000 0.000000 0.000000 0.022632
#
#
# Mechanical properties :
#
#
# Convention : Reuss Voigt Hill
#
# Bulk Modulus (GPa) = 38.19009 69.02782 53.60896
# Shear Modulus (GPa) = 36.01361 49.20829 42.61095
#
# Velocity S-wave (km/s) = 3.58200 4.18708 3.89630
# Velocity P-wave (km/s) = 5.54200 6.92592 6.27224
#
# Compressibility (1/GPa) = 0.02618480
#
# Stress axis : x y z
#
# Youngs Moduli (GPa) = 175.99316 35.96606 216.95553
#
# Poissons Ratio (x) = 0.16725 0.10464
# Poissons Ratio (y) = 0.81840 0.17850
# Poissons Ratio (z) = 0.08488 0.02959
#
# Static dielectric constant tensor:
#      x y z
#    x 5.713030 0.000000 0.000000 
#    y 0.000000 4.774480 0.000000 
#    z 0.000000 0.000000 6.439620 
# 
# 
# High freq. dielectric constant tensor:
#      x y z
#    x 2.165090 0.000000 0.000000 
#    y 0.000000 2.130430 0.000000 
#    z 0.000000 0.000000 2.171750 
# 
# From -- ./inp_files/313.got.cif
#   From: 2010.03.12/outbox.cif.g09.slc.cpg/sg26_1_cif.got.tgz:313.got - 2010.04.14 03:33:09.
