data_PCOD8167685
_publ_section_title
;
Structure prediction by ZEFSAII (Michael W. Deem and Ramdas Pophale) SiO2 
 PCOD8167685
Probable space group: P M C 21
;
_chemical_formula_sum "Si O2"
_cell_formula_units_Z 26
_cell_length_a 7.338883
_cell_length_b 13.172455
_cell_length_c 13.961776
_cell_angle_alpha 90.000000
_cell_angle_beta 90.000000
_cell_angle_gamma 90.000000
_cell_volume 1349.700329
_symmetry_space_group_name_H-M "P M C 21"
_symmetry_group_IT_number 26
_symmetry_cell_setting 'orthorhombic'
loop_
_space_group_symop_operation_xyz
x,y,z
-x,-y,1/2+z
-x,y,z
x,-y,1/2+z
loop_
_atom_site_type_symbol
_atom_site_label
_atom_site_fract_x
_atom_site_fract_y
_atom_site_fract_z
Si Si1 0.708055 0.982545 0.789360
Si Si2 0.714776 0.173671 0.136148
Si Si3 0.500000 0.323722 0.638518
Si Si4 0.207998 0.597366 0.634396
Si Si5 0.201117 0.841565 0.153087
Si Si6 0.500000 0.496796 0.000626
Si Si7 0.500000 0.492597 0.270924
Si Si8 0.715637 0.001522 0.499104
O O1 0.500000 0.954759 0.805458
O O2 0.720890 0.091355 0.739204
O O3 0.800828 0.990708 0.893087
O O4 0.794006 0.892324 0.725540
O O5 0.500000 0.190977 0.145924
O O6 0.812247 0.281322 0.132368
O O7 0.763419 0.109615 0.040936
O O8 0.680220 0.257431 0.637825
O O9 0.500000 0.389574 0.541754
O O10 0.500000 0.392218 0.733681
O O11 0.318343 0.560185 0.539888
O O12 0.318166 0.562826 0.729885
O O13 0.000000 0.553650 0.634903
O O14 0.000000 0.803305 0.178869
O O15 0.192040 0.908656 0.057775
O O16 0.500000 0.504335 0.885862
O O17 0.500000 0.018079 0.504932
#
# Coordination Sequence:
#
# PCOD8167685 Si02
#       8
#     4   4   2   4   4   2   2   4
#     4   9  18  33  55  82 117 156 193 230 270 324
#     4   9  16  32  55  81 115 153 188 233 280 335
#     4  10  22  42  58  80 114 146 194 242 294 342
#     4  10  21  40  64  90 118 150 194 243 298 353
#     4  11  21  36  56  81 117 154 188 226 281 335
#     4  10  24  44  65  86 114 150 193 248 305 358
#     4  10  24  44  65  86 114 150 193 248 305 358
#     4   9  18  33  55  82 117 156 193 230 270 324
#
# _framework density 19.263535999999998
#
# number of rings (size 3 to 8) (size 9 to 14) (size 15 to 20)
#    0.000    2.462    3.077    0.923    0.000    8.615 
#    0.000    3.077    0.000    0.000    0.000    0.000 
#    0.000    0.000    0.000    0.000    0.000    0.000 
#
# Total GULP energy -322266.953793 kJ/mol
# GULP energy per Si atom -12394.882838 kJ/mol
# Density = 1.921969 g / cm^3
# Si number density = 19.263536 Si / 1000 Ang^3
#
#
#
# Elastic Constant Matrix: (Units=GPa)
#
#
# Indices 1 2 3 4 5 6 
#
# 1 87.0590 28.3124 19.7200 0.0000 0.0000 0.0000
# 2 28.3124 116.8702 31.7340 0.0000 0.0000 0.0000
# 3 19.7200 31.7340 147.8368 0.0000 0.0000 0.0000
# 4 0.0000 0.0000 0.0000 11.9768 0.0000 0.0000
# 5 0.0000 0.0000 0.0000 0.0000 26.7044 0.0000
# 6 0.0000 0.0000 0.0000 0.0000 0.0000 -2.9904
#
#
#
# Elastic Compliance Matrix: (Units=1/GPa)
#
#
# Indices 1 2 3 4 5 6 
#
# 1 0.012633 -0.002764 -0.001092 0.000000 0.000000 0.000000
# 2 -0.002764 0.009691 -0.001712 0.000000 0.000000 0.000000
# 3 -0.001092 -0.001712 0.007277 0.000000 0.000000 0.000000
# 4 0.000000 0.000000 0.000000 0.083494 0.000000 0.000000
# 5 0.000000 0.000000 0.000000 0.000000 0.037447 0.000000
# 6 0.000000 0.000000 0.000000 0.000000 0.000000 -0.334401
#
#
# Mechanical properties :
#
#
# Convention : Reuss Voigt Hill
#
# Bulk Modulus (GPa) = 54.15265 56.81097 55.48181
# Shear Modulus (GPa) = -30.01747 25.27148 -2.37299
#
# Velocity S-wave (km/s) = -3.95175 3.62592 -1.11109
# Velocity P-wave (km/s) = 2.71122 6.86187 5.21708
#
# Compressibility (1/GPa) = 0.01846632
#
# Stress axis : x y z
#
# Youngs Moduli (GPa) = 79.16028 103.19077 137.41485
#
# Poissons Ratio (x) = 0.28520 0.15003
# Poissons Ratio (y) = 0.21879 0.23519
# Poissons Ratio (z) = 0.08643 0.17661
#
# Static dielectric constant tensor:
#      x y z
#    x 3.414660 0.000000 0.000000 
#    y 0.000000 3.490920 0.000000 
#    z 0.000000 0.000000 3.654030 
# 
# 
# High freq. dielectric constant tensor:
#      x y z
#    x 1.750910 0.000000 0.000000 
#    y 0.000000 1.744760 0.000000 
#    z 0.000000 0.000000 1.740980 
# 
# From -- ./inp_files/4078.got.cif
#   From: 2010.03.12/outbox.cif.g09.slc.cpg/sg26_3_cif.got.tgz:4078.got - 2010.04.14 03:33:09.
