data_PCOD8167796
_publ_section_title
;
Structure prediction by ZEFSAII (Michael W. Deem and Ramdas Pophale) SiO2 
 PCOD8167796
Probable space group: P C C 2
;
_chemical_formula_sum "Si O2"
_cell_formula_units_Z 26
_cell_length_a 13.861183
_cell_length_b 9.892116
_cell_length_c 8.854296
_cell_angle_alpha 90.000000
_cell_angle_beta 90.000000
_cell_angle_gamma 90.000000
_cell_volume 1214.069459
_symmetry_space_group_name_H-M "P C C 2"
_symmetry_group_IT_number 27
_symmetry_cell_setting 'orthorhombic'
loop_
_space_group_symop_operation_xyz
x,y,z
-x,-y,z
-x,y,1/2+z
x,-y,1/2+z
loop_
_atom_site_type_symbol
_atom_site_label
_atom_site_fract_x
_atom_site_fract_y
_atom_site_fract_z
Si Si1 0.368801 0.752920 0.692450
Si Si2 0.044263 0.686380 0.179669
Si Si3 0.515310 0.214517 0.425734
Si Si4 0.383187 0.073244 0.656372
Si Si5 0.000000 0.500000 0.426189
Si Si6 0.826931 0.088495 0.063598
Si Si7 0.158316 0.814516 0.725667
O O1 0.416610 0.694204 0.537193
O O2 0.434399 0.699235 0.833180
O O3 0.255302 0.721597 0.711335
O O4 0.378256 0.915212 0.688939
O O5 0.071310 0.592542 0.323173
O O6 0.930235 0.715835 0.195117
O O7 0.104638 0.823369 0.173191
O O8 0.064777 0.599532 0.028745
O O9 0.461156 0.105095 0.529130
O O10 0.589356 0.141453 0.314063
O O11 0.281506 0.132089 0.601046
O O12 0.844406 0.930999 0.098237
O O13 0.849576 0.114094 0.888546
#
# Coordination Sequence:
#
# PCOD8167796 Si02
#       7
#     4   4   4   4   2   4   4
#     4  10  18  28  46  72 110 153 197 225 268 333
#     4  11  23  44  64  82 117 141 194 238 298 335
#     4  10  17  28  44  68 108 159 194 229 266 316
#     4  10  18  28  46  72 110 153 197 225 268 333
#     4  10  24  42  66  86 100 148 192 252 284 346
#     4  11  24  37  56  86 122 158 190 231 285 354
#     4  11  24  37  56  86 122 158 190 231 285 354
#
# _framework density 21.415579999999999
#
# number of rings (size 3 to 8) (size 9 to 14) (size 15 to 20)
#    0.000    1.538    3.077    4.154    8.615    1.231 
#    0.000    0.000    0.000    0.000    0.000    0.000 
#    0.000   86.154    0.000    0.000    0.000    0.000 
#
# Total GULP energy -322227.867140 kJ/mol
# GULP energy per Si atom -12393.379505 kJ/mol
# Density = 2.136684 g / cm^3
# Si number density = 21.415580 Si / 1000 Ang^3
#
#
#
# Elastic Constant Matrix: (Units=GPa)
#
#
# Indices 1 2 3 4 5 6 
#
# 1 124.5254 23.1455 31.4171 0.0000 0.0000 0.0000
# 2 23.1455 31.5770 14.5503 0.0000 0.0000 0.0000
# 3 31.4171 14.5503 128.2009 0.0000 0.0000 0.0000
# 4 0.0000 0.0000 0.0000 18.6860 0.0000 0.0000
# 5 0.0000 0.0000 0.0000 0.0000 26.7813 0.0000
# 6 0.0000 0.0000 0.0000 0.0000 0.0000 4.9894
#
#
#
# Elastic Compliance Matrix: (Units=1/GPa)
#
#
# Indices 1 2 3 4 5 6 
#
# 1 0.009614 -0.006290 -0.001642 0.000000 0.000000 0.000000
# 2 -0.006290 0.037532 -0.002718 0.000000 0.000000 0.000000
# 3 -0.001642 -0.002718 0.008511 0.000000 0.000000 0.000000
# 4 0.000000 0.000000 0.000000 0.053516 0.000000 0.000000
# 5 0.000000 0.000000 0.000000 0.000000 0.037339 0.000000
# 6 0.000000 0.000000 0.000000 0.000000 0.000000 0.200424
#
#
# Mechanical properties :
#
#
# Convention : Reuss Voigt Hill
#
# Bulk Modulus (GPa) = 29.10710 46.94766 38.02738
# Shear Modulus (GPa) = 13.16865 24.43739 18.80302
#
# Velocity S-wave (km/s) = 2.48243 3.38169 2.96633
# Velocity P-wave (km/s) = 4.67308 6.10062 5.43393
#
# Compressibility (1/GPa) = 0.03435588
#
# Stress axis : x y z
#
# Youngs Moduli (GPa) = 104.01559 26.64404 117.49255
#
# Poissons Ratio (x) = 0.16760 0.19293
# Poissons Ratio (y) = 0.65428 0.31937
# Poissons Ratio (z) = 0.17080 0.07242
#
# Static dielectric constant tensor:
#      x y z
#    x 4.382640 0.000000 0.000000 
#    y 0.000000 3.237960 0.000000 
#    z 0.000000 0.000000 4.365570 
# 
# 
# High freq. dielectric constant tensor:
#      x y z
#    x 1.842280 0.000000 0.000000 
#    y 0.000000 1.773630 0.000000 
#    z 0.000000 0.000000 1.866970 
# 
# From -- ./inp_files/1596.got.cif
#   From: 2010.03.12/outbox.cif.g09.slc.cpg/sg27_1_cif.got.tgz:1596.got - 2010.04.14 03:36:05.
