data_PCOD8167076
_publ_section_title
;
Structure prediction by ZEFSAII (Michael W. Deem and Ramdas Pophale) SiO2 
 PCOD8167076
Probable space group: P M C 21
;
_chemical_formula_sum "Si O2"
_cell_formula_units_Z 32
_cell_length_a 8.996569
_cell_length_b 11.508468
_cell_length_c 17.751151
_cell_angle_alpha 90.000000
_cell_angle_beta 90.000000
_cell_angle_gamma 90.000000
_cell_volume 1837.896065
_symmetry_space_group_name_H-M "P M C 21"
_symmetry_group_IT_number 26
_symmetry_cell_setting 'orthorhombic'
loop_
_space_group_symop_operation_xyz
x,y,z
-x,-y,1/2+z
-x,y,z
x,-y,1/2+z
loop_
_atom_site_type_symbol
_atom_site_label
_atom_site_fract_x
_atom_site_fract_y
_atom_site_fract_z
Si Si1 0.671534 0.813607 0.054960
Si Si2 0.169112 0.976449 0.617868
Si Si3 0.830846 0.423991 0.589008
Si Si4 0.674811 0.613985 0.671084
Si Si5 0.671259 0.079788 0.392008
Si Si6 0.168633 0.342584 0.029297
Si Si7 0.175549 0.809101 0.751907
Si Si8 0.832655 0.873833 0.453233
O O1 0.500000 0.796552 0.072409
O O2 0.734813 0.905764 0.114741
O O3 0.749682 0.690954 0.064059
O O4 0.700986 0.856297 0.970484
O O5 0.000000 0.014460 0.631723
O O6 0.226832 0.899317 0.687411
O O7 0.186351 0.906956 0.540487
O O8 0.750441 0.485913 0.661134
O O9 0.823789 0.516826 0.518335
O O10 0.000000 0.395029 0.611120
O O11 0.500000 0.599721 0.681616
O O12 0.716883 0.689923 0.596627
O O13 0.743698 0.684409 0.741323
O O14 0.500000 0.083846 0.367315
O O15 0.774113 0.141724 0.331753
O O16 0.720323 0.944611 0.400326
O O17 0.205356 0.265760 0.954317
O O18 0.000000 0.308695 0.055634
O O19 0.000000 0.789205 0.751439
O O20 0.000000 0.898061 0.424266
#
# Coordination Sequence:
#
# PCOD8167076 Si02
#       8
#     4   4   4   4   4   4   4   4
#     4  10  20  33  49  74 105 134 168 210 257 305
#     4   9  17  30  50  71  94 126 165 206 244 293
#     4   9  17  31  50  73  98 126 163 204 242 292
#     4  10  18  28  48  76 102 127 159 208 259 294
#     4  10  22  34  46  72 107 137 166 207 260 313
#     4   8  15  28  47  73  98 124 160 205 243 287
#     4  11  20  34  52  74 101 134 174 211 253 307
#     4   9  15  30  50  71  97 126 163 203 246 295
#
# _framework density 17.411211000000002
#
# number of rings (size 3 to 8) (size 9 to 14) (size 15 to 20)
#    0.750    1.750    1.250    2.250    0.000    3.000 
#    0.000    0.000    0.000    1.500    0.000    1.750 
#    0.000    0.000    0.000    0.000    0.000    0.000 
#
# Total GULP energy -396454.407922 kJ/mol
# GULP energy per Si atom -12389.200248 kJ/mol
# Density = 1.737158 g / cm^3
# Si number density = 17.411211 Si / 1000 Ang^3
#
#
#
# Elastic Constant Matrix: (Units=GPa)
#
#
# Indices 1 2 3 4 5 6 
#
# 1 101.4434 45.5573 24.1621 0.0000 0.0000 0.0000
# 2 45.5573 93.8960 10.9229 0.0000 0.0000 0.0000
# 3 24.1621 10.9229 28.2762 0.0000 0.0000 0.0000
# 4 0.0000 0.0000 0.0000 15.0484 0.0000 0.0000
# 5 0.0000 0.0000 0.0000 0.0000 23.3791 0.0000
# 6 0.0000 0.0000 0.0000 0.0000 0.0000 27.7736
#
#
#
# Elastic Compliance Matrix: (Units=1/GPa)
#
#
# Indices 1 2 3 4 5 6 
#
# 1 0.015114 -0.006105 -0.010556 0.000000 0.000000 0.000000
# 2 -0.006105 0.013617 -0.000043 0.000000 0.000000 0.000000
# 3 -0.010556 -0.000043 0.044403 0.000000 0.000000 0.000000
# 4 0.000000 0.000000 0.000000 0.066452 0.000000 0.000000
# 5 0.000000 0.000000 0.000000 0.000000 0.042773 0.000000
# 6 0.000000 0.000000 0.000000 0.000000 0.000000 0.036005
#
#
# Mechanical properties :
#
#
# Convention : Reuss Voigt Hill
#
# Bulk Modulus (GPa) = 25.17376 42.76667 33.97022
# Shear Modulus (GPa) = 18.86679 22.77177 20.81928
#
# Velocity S-wave (km/s) = 3.29538 3.62039 3.46170
# Velocity P-wave (km/s) = 5.38230 6.48786 5.96076
#
# Compressibility (1/GPa) = 0.03972390
#
# Stress axis : x y z
#
# Youngs Moduli (GPa) = 66.16472 73.43638 22.52107
#
# Poissons Ratio (x) = 0.44833 0.23774
# Poissons Ratio (y) = 0.40394 0.00098
# Poissons Ratio (z) = 0.69847 0.00319
#
# Static dielectric constant tensor:
#      x y z
#    x 3.248890 0.000000 0.000000 
#    y 0.000000 3.340410 0.000000 
#    z 0.000000 0.000000 2.846580 
# 
# 
# High freq. dielectric constant tensor:
#      x y z
#    x 1.679950 0.000000 0.000000 
#    y 0.000000 1.675890 0.000000 
#    z 0.000000 0.000000 1.620960 
# 
# From -- ./inp_files/5069.got.cif
#   From: 2010.03.12/outbox.cif.g09.slc.cpg/sg26_3_cif.got.tgz:5069.got - 2010.04.14 03:33:09.
