data_PCOD8167731
_publ_section_title
;
Structure prediction by ZEFSAII (Michael W. Deem and Ramdas Pophale) SiO2 
 PCOD8167731
Probable space group: P M C 21
;
_chemical_formula_sum "Si O2"
_cell_formula_units_Z 16
_cell_length_a 10.355879
_cell_length_b 8.638244
_cell_length_c 8.209909
_cell_angle_alpha 90.000000
_cell_angle_beta 90.000000
_cell_angle_gamma 90.000000
_cell_volume 734.430625
_symmetry_space_group_name_H-M "P M C 21"
_symmetry_group_IT_number 26
_symmetry_cell_setting 'orthorhombic'
loop_
_space_group_symop_operation_xyz
x,y,z
-x,-y,1/2+z
-x,y,z
x,-y,1/2+z
loop_
_atom_site_type_symbol
_atom_site_label
_atom_site_fract_x
_atom_site_fract_y
_atom_site_fract_z
Si Si1 0.000000 0.887271 0.773571
Si Si2 0.500000 0.783928 0.325729
Si Si3 0.000000 0.782877 0.403449
Si Si4 0.500000 0.113529 0.456570
Si Si5 0.754776 0.283426 0.403073
Si Si6 0.755078 0.385352 0.774726
O O1 0.000000 0.841135 0.586867
O O2 0.874542 0.825793 0.865297
O O3 0.000000 0.072936 0.780271
O O4 0.374547 0.679590 0.358239
O O5 0.500000 0.928257 0.447587
O O6 0.500000 0.848988 0.145115
O O7 0.875288 0.678201 0.375643
O O8 0.625896 0.184700 0.370361
O O9 0.765296 0.339697 0.587586
O O10 0.753980 0.429311 0.282672
#
# Coordination Sequence:
#
# PCOD8167731 Si02
#       6
#     2   2   2   2   4   4
#     4  12  25  42  63  90 122 160 202 250 301 358
#     4  10  23  40  62  90 122 158 201 248 301 358
#     4  12  25  42  63  90 122 160 202 250 301 358
#     4  10  23  40  62  90 122 158 201 248 301 358
#     4  11  23  41  63  91 123 160 202 249 301 358
#     4  11  23  41  63  91 123 160 202 249 301 358
#
# _framework density 21.785585000000001
#
# number of rings (size 3 to 8) (size 9 to 14) (size 15 to 20)
#    0.000    1.000    0.000    6.750    0.000    8.000 
#    0.000    0.000    0.000    0.000    0.000    0.000 
#    0.000    0.000    0.000    0.000    0.000    0.000 
#
# Total GULP energy -198542.990387 kJ/mol
# GULP energy per Si atom -12408.936899 kJ/mol
# Density = 2.173600 g / cm^3
# Si number density = 21.785585 Si / 1000 Ang^3
#
#
#
# Elastic Constant Matrix: (Units=GPa)
#
#
# Indices 1 2 3 4 5 6 
#
# 1 181.5880 32.2825 14.2678 0.0000 0.0000 0.0000
# 2 32.2825 87.4044 -16.1237 0.0000 0.0000 0.0000
# 3 14.2678 -16.1237 46.9236 0.0000 0.0000 0.0000
# 4 0.0000 0.0000 0.0000 38.2201 0.0000 0.0000
# 5 0.0000 0.0000 0.0000 0.0000 -54.6140 0.0000
# 6 0.0000 0.0000 0.0000 0.0000 0.0000 32.9662
#
#
#
# Elastic Compliance Matrix: (Units=1/GPa)
#
#
# Indices 1 2 3 4 5 6 
#
# 1 0.006236 -0.002833 -0.002869 0.000000 0.000000 0.000000
# 2 -0.002833 0.013502 0.005501 0.000000 0.000000 0.000000
# 3 -0.002869 0.005501 0.024074 0.000000 0.000000 0.000000
# 4 0.000000 0.000000 0.000000 0.026164 0.000000 0.000000
# 5 0.000000 0.000000 0.000000 0.000000 -0.018310 0.000000
# 6 0.000000 0.000000 0.000000 0.000000 0.000000 0.030334
#
#
# Mechanical properties :
#
#
# Convention : Reuss Voigt Hill
#
# Bulk Modulus (GPa) = 23.03645 41.86322 32.44984
# Shear Modulus (GPa) = 51.61432 22.34708 36.98070
#
# Velocity S-wave (km/s) = 4.87272 3.20624 4.12452
# Velocity P-wave (km/s) = 6.50038 5.74146 6.13267
#
# Compressibility (1/GPa) = 0.04340946
#
# Stress axis : x y z
#
# Youngs Moduli (GPa) = 160.35901 74.06295 41.53871
#
# Poissons Ratio (x) = 0.20979 0.11919
# Poissons Ratio (y) = 0.45423 -0.22850
# Poissons Ratio (z) = 0.46015 -0.40741
#
# Static dielectric constant tensor:
#      x y z
#    x 4.483640 0.000000 0.000000 
#    y 0.000000 4.126620 0.000000 
#    z 0.000000 0.000000 3.759840 
# 
# 
# High freq. dielectric constant tensor:
#      x y z
#    x 1.876390 0.000000 0.000000 
#    y 0.000000 1.869250 0.000000 
#    z 0.000000 0.000000 1.857190 
# 
# From -- ./inp_files/1190.got.cif
#   From: 2010.03.12/outbox.cif.g09.slc.cpg/sg26_1_cif.got.tgz:1190.got - 2010.04.14 03:33:09.
