data_PCOD8167726
_publ_section_title
;
Structure prediction by ZEFSAII (Michael W. Deem and Ramdas Pophale) SiO2 
 PCOD8167726
Probable space group: P M C 21
;
_chemical_formula_sum "Si O2"
_cell_formula_units_Z 32
_cell_length_a 8.446338
_cell_length_b 12.019827
_cell_length_c 15.163471
_cell_angle_alpha 90.000000
_cell_angle_beta 90.000000
_cell_angle_gamma 90.000000
_cell_volume 1539.448975
_symmetry_space_group_name_H-M "P M C 21"
_symmetry_group_IT_number 26
_symmetry_cell_setting 'orthorhombic'
loop_
_space_group_symop_operation_xyz
x,y,z
-x,-y,1/2+z
-x,y,z
x,-y,1/2+z
loop_
_atom_site_type_symbol
_atom_site_label
_atom_site_fract_x
_atom_site_fract_y
_atom_site_fract_z
Si Si1 0.186595 0.394798 0.591830
Si Si2 0.312256 0.526293 0.752311
Si Si3 0.678945 0.753771 0.677845
Si Si4 0.817184 0.994422 0.419166
Si Si5 0.688239 0.008902 0.225957
Si Si6 0.677618 0.226278 0.975663
Si Si7 0.313018 0.850366 0.067988
Si Si8 0.183949 0.450335 0.931636
O O1 0.271756 0.430277 0.682120
O O2 0.229721 0.268506 0.568873
O O3 0.246720 0.474687 0.512802
O O4 0.000000 0.404587 0.604531
O O5 0.500000 0.526066 0.768101
O O6 0.242949 0.645073 0.720352
O O7 0.217618 0.513857 0.842060
O O8 0.500000 0.761170 0.711902
O O9 0.762933 0.869505 0.704748
O O10 0.687147 0.733240 0.574877
O O11 0.797727 0.875222 0.464894
O O12 0.000000 0.027017 0.412397
O O13 0.743364 0.976521 0.322824
O O14 0.728910 0.088357 0.476208
O O15 0.500000 0.011557 0.219562
O O16 0.749781 0.921756 0.152048
O O17 0.500000 0.187736 0.949584
O O18 0.725858 0.333482 0.919663
O O19 0.500000 0.833759 0.072298
O O20 0.000000 0.425674 0.943970
#
# Coordination Sequence:
#
# PCOD8167726 Si02
#       8
#     4   4   4   4   4   4   4   4
#     4  11  25  44  64  92 134 172 209 265 328 385
#     4  11  23  41  67  97 125 167 216 263 315 380
#     4   9  19  39  67  95 121 154 210 269 315 364
#     4  12  26  42  63  97 134 170 208 259 326 388
#     4  10  22  43  67  94 124 165 217 267 314 373
#     4  11  21  42  70  94 122 163 216 269 313 377
#     4  11  24  44  69  93 125 171 221 268 314 376
#     4  11  25  43  63  94 131 170 209 262 327 383
#
# _framework density 20.786659
#
# number of rings (size 3 to 8) (size 9 to 14) (size 15 to 20)
#    0.000    1.250    2.500    3.000    3.500    2.500 
#    0.000    0.625    0.000    0.000    0.000    0.000 
#    0.000    0.000    0.000    0.000    0.000    0.000 
#
# Total GULP energy -396847.917578 kJ/mol
# GULP energy per Si atom -12401.497424 kJ/mol
# Density = 2.073935 g / cm^3
# Si number density = 20.786659 Si / 1000 Ang^3
#
#
#
# Elastic Constant Matrix: (Units=GPa)
#
#
# Indices 1 2 3 4 5 6 
#
# 1 35.5644 13.6489 21.6293 0.0000 0.0000 0.0000
# 2 13.6489 119.8094 19.0472 0.0000 0.0000 0.0000
# 3 21.6293 19.0472 89.7766 0.0000 0.0000 0.0000
# 4 0.0000 0.0000 0.0000 31.2559 0.0000 0.0000
# 5 0.0000 0.0000 0.0000 0.0000 24.8383 0.0000
# 6 0.0000 0.0000 0.0000 0.0000 0.0000 30.1405
#
#
#
# Elastic Compliance Matrix: (Units=1/GPa)
#
#
# Indices 1 2 3 4 5 6 
#
# 1 0.033733 -0.002640 -0.007567 0.000000 0.000000 0.000000
# 2 -0.002640 0.008845 -0.001240 0.000000 0.000000 0.000000
# 3 -0.007567 -0.001240 0.013225 0.000000 0.000000 0.000000
# 4 0.000000 0.000000 0.000000 0.031994 0.000000 0.000000
# 5 0.000000 0.000000 0.000000 0.000000 0.040260 0.000000
# 6 0.000000 0.000000 0.000000 0.000000 0.000000 0.033178
#
#
# Mechanical properties :
#
#
# Convention : Reuss Voigt Hill
#
# Bulk Modulus (GPa) = 30.38783 39.31124 34.84953
# Shear Modulus (GPa) = 25.62800 29.96862 27.79831
#
# Velocity S-wave (km/s) = 3.51509 3.80112 3.66090
# Velocity P-wave (km/s) = 5.57899 6.18203 5.88823
#
# Compressibility (1/GPa) = 0.03290791
#
# Stress axis : x y z
#
# Youngs Moduli (GPa) = 29.64440 113.06404 75.61437
#
# Poissons Ratio (x) = 0.29848 0.57217
# Poissons Ratio (y) = 0.07826 0.09380
# Poissons Ratio (z) = 0.22432 0.14025
#
# Static dielectric constant tensor:
#      x y z
#    x 3.596990 0.000000 0.000000 
#    y 0.000000 3.948970 0.000000 
#    z 0.000000 0.000000 3.793400 
# 
# 
# High freq. dielectric constant tensor:
#      x y z
#    x 1.800600 0.000000 0.000000 
#    y 0.000000 1.829500 0.000000 
#    z 0.000000 0.000000 1.820240 
# 
# From -- ./inp_files/4258.got.cif
#   From: 2010.03.12/outbox.cif.g09.slc.cpg/sg26_3_cif.got.tgz:4258.got - 2010.04.14 03:33:09.
