data_PCOD8167767
_publ_section_title
;
Structure prediction by ZEFSAII (Michael W. Deem and Ramdas Pophale) SiO2 
 PCOD8167767
Probable space group: P M C 21
;
_chemical_formula_sum "Si O2"
_cell_formula_units_Z 24
_cell_length_a 8.379915
_cell_length_b 9.916603
_cell_length_c 13.945185
_cell_angle_alpha 90.000000
_cell_angle_beta 90.000000
_cell_angle_gamma 90.000000
_cell_volume 1158.848921
_symmetry_space_group_name_H-M "P M C 21"
_symmetry_group_IT_number 26
_symmetry_cell_setting 'orthorhombic'
loop_
_space_group_symop_operation_xyz
x,y,z
-x,-y,1/2+z
-x,y,z
x,-y,1/2+z
loop_
_atom_site_type_symbol
_atom_site_label
_atom_site_fract_x
_atom_site_fract_y
_atom_site_fract_z
Si Si1 0.811520 0.777696 0.833510
Si Si2 0.313037 0.475743 0.834707
Si Si3 0.683414 0.651361 0.135607
Si Si4 0.182747 0.588588 0.527439
Si Si5 0.816184 0.098959 0.535784
Si Si6 0.314786 0.842751 0.634298
O O1 0.728335 0.633030 0.833332
O O2 0.752113 0.863358 0.741934
O O3 0.000000 0.755823 0.830555
O O4 0.761155 0.859474 0.928789
O O5 0.500000 0.458062 0.850898
O O6 0.257511 0.407147 0.736410
O O7 0.217790 0.391950 0.915098
O O8 0.500000 0.697737 0.137472
O O9 0.703708 0.533695 0.058111
O O10 0.792783 0.777348 0.108348
O O11 0.218459 0.722773 0.585462
O O12 0.000000 0.547772 0.544672
O O13 0.000000 0.054189 0.537128
O O14 0.708413 0.976101 0.571544
O O15 0.500000 0.804564 0.638394
#
# Coordination Sequence:
#
# PCOD8167767 Si02
#       6
#     4   4   4   4   4   4
#     4  11  23  41  67  96 129 170 216 265 330 393
#     4  11  23  39  65  98 133 171 218 268 324 383
#     4  11  23  40  65  96 129 168 214 266 320 382
#     4  12  24  40  65  95 129 169 217 270 321 380
#     4  11  25  44  67  96 131 172 215 267 327 390
#     4  12  26  44  67  95 131 174 218 270 328 390
#
# _framework density 20.710205999999999
#
# number of rings (size 3 to 8) (size 9 to 14) (size 15 to 20)
#    0.000    0.667    3.333    5.000    0.000    5.333 
#    0.000    0.000    0.000    0.000    0.000    0.000 
#    0.000    0.000    0.000    0.000    0.000    0.000 
#
# Total GULP energy -297770.113076 kJ/mol
# GULP energy per Si atom -12407.088045 kJ/mol
# Density = 2.066307 g / cm^3
# Si number density = 20.710206 Si / 1000 Ang^3
#
#
#
# Elastic Constant Matrix: (Units=GPa)
#
#
# Indices 1 2 3 4 5 6 
#
# 1 63.2067 14.2898 42.1099 0.0000 0.0000 0.0000
# 2 14.2898 69.3706 14.3236 0.0000 0.0000 0.0000
# 3 42.1099 14.3236 97.0433 0.0000 0.0000 0.0000
# 4 0.0000 0.0000 0.0000 35.0238 0.0000 0.0000
# 5 0.0000 0.0000 0.0000 0.0000 95.8607 0.0000
# 6 0.0000 0.0000 0.0000 0.0000 0.0000 36.5016
#
#
#
# Elastic Compliance Matrix: (Units=1/GPa)
#
#
# Indices 1 2 3 4 5 6 
#
# 1 0.022746 -0.002731 -0.009467 0.000000 0.000000 0.000000
# 2 -0.002731 0.015196 -0.001058 0.000000 0.000000 0.000000
# 3 -0.009467 -0.001058 0.014569 0.000000 0.000000 0.000000
# 4 0.000000 0.000000 0.000000 0.028552 0.000000 0.000000
# 5 0.000000 0.000000 0.000000 0.000000 0.010432 0.000000
# 6 0.000000 0.000000 0.000000 0.000000 0.000000 0.027396
#
#
# Mechanical properties :
#
#
# Convention : Reuss Voigt Hill
#
# Bulk Modulus (GPa) = 38.46248 41.22971 39.84610
# Shear Modulus (GPa) = 32.45314 44.07037 38.26176
#
# Velocity S-wave (km/s) = 3.96284 4.61798 4.30290
# Velocity P-wave (km/s) = 6.28895 6.95597 6.63085
#
# Compressibility (1/GPa) = 0.02599936
#
# Stress axis : x y z
#
# Youngs Moduli (GPa) = 43.96463 65.80552 68.63972
#
# Poissons Ratio (x) = 0.17969 0.64981
# Poissons Ratio (y) = 0.12005 0.07262
# Poissons Ratio (z) = 0.41621 0.06963
#
# Static dielectric constant tensor:
#      x y z
#    x 3.567250 0.000000 0.000000 
#    y 0.000000 3.810070 0.000000 
#    z 0.000000 0.000000 4.133960 
# 
# 
# High freq. dielectric constant tensor:
#      x y z
#    x 1.820630 0.000000 0.000000 
#    y 0.000000 1.799250 0.000000 
#    z 0.000000 0.000000 1.829290 
# 
# From -- ./inp_files/3952.got.cif
#   From: 2010.03.12/outbox.cif.g09.slc.cpg/sg26_2_cif.got.tgz:3952.got - 2010.04.14 03:33:09.
