data_PCOD8167343
_publ_section_title
;
Structure prediction by ZEFSAII (Michael W. Deem and Ramdas Pophale) SiO2 
 PCOD8167343
Probable space group: P M C 21
;
_chemical_formula_sum "Si O2"
_cell_formula_units_Z 32
_cell_length_a 8.917883
_cell_length_b 14.626723
_cell_length_c 12.199794
_cell_angle_alpha 90.000000
_cell_angle_beta 90.000000
_cell_angle_gamma 90.000000
_cell_volume 1591.333863
_symmetry_space_group_name_H-M "P M C 21"
_symmetry_group_IT_number 26
_symmetry_cell_setting 'orthorhombic'
loop_
_space_group_symop_operation_xyz
x,y,z
-x,-y,1/2+z
-x,y,z
x,-y,1/2+z
loop_
_atom_site_type_symbol
_atom_site_label
_atom_site_fract_x
_atom_site_fract_y
_atom_site_fract_z
Si Si1 0.822980 0.052600 0.009750
Si Si2 0.674090 0.271575 0.625230
Si Si3 0.676403 0.170626 0.203403
Si Si4 0.674013 0.126601 0.450606
Si Si5 0.166205 0.332905 0.927223
Si Si6 0.830484 0.360860 0.172528
Si Si7 0.826005 0.558450 0.216929
Si Si8 0.326062 0.828754 0.342081
O O1 0.757074 0.111037 0.110438
O O2 0.000000 0.061089 0.016532
O O3 0.765013 0.085342 0.889896
O O4 0.771602 0.947665 0.016706
O O5 0.500000 0.290067 0.644848
O O6 0.707311 0.224498 0.508306
O O7 0.753846 0.370107 0.630738
O O8 0.730483 0.202335 0.721692
O O9 0.500000 0.166321 0.181662
O O10 0.717861 0.130725 0.322930
O O11 0.727993 0.275577 0.203886
O O12 0.500000 0.101008 0.465966
O O13 0.207673 0.409390 0.839451
O O14 0.290802 0.253665 0.926040
O O15 0.000000 0.291245 0.901988
O O16 0.167635 0.379735 0.043651
O O17 0.759339 0.455698 0.216323
O O18 0.000000 0.343040 0.216158
O O19 0.000000 0.553333 0.186388
O O20 0.500000 0.854748 0.343130
#
# Coordination Sequence:
#
# PCOD8167343 Si02
#       8
#     4   4   4   4   4   4   4   4
#     4  12  25  40  61  90 121 154 197 248 303 364
#     4   9  20  39  61  86 118 155 200 250 299 352
#     4  11  24  42  64  89 121 159 204 251 302 362
#     4  10  24  44  63  87 122 163 202 248 306 362
#     4   9  17  32  52  78 113 154 197 245 298 349
#     4  10  20  35  57  85 120 160 201 250 303 356
#     4   9  19  34  55  85 120 160 205 248 300 359
#     4  10  19  34  59  86 111 147 196 246 297 350
#
# _framework density 20.108915
#
# number of rings (size 3 to 8) (size 9 to 14) (size 15 to 20)
#    0.000    2.000    1.250    1.875    1.750    3.500 
#    0.000    1.250    0.000    0.000    0.000    0.000 
#    0.000    0.000    0.000    0.000    0.000    0.000 
#
# Total GULP energy -396712.469126 kJ/mol
# GULP energy per Si atom -12397.264660 kJ/mol
# Density = 2.006315 g / cm^3
# Si number density = 20.108915 Si / 1000 Ang^3
#
#
#
# Elastic Constant Matrix: (Units=GPa)
#
#
# Indices 1 2 3 4 5 6 
#
# 1 84.9915 48.8698 35.9188 0.0000 0.0000 0.0000
# 2 48.8698 127.6238 37.1416 0.0000 0.0000 0.0000
# 3 35.9188 37.1416 70.3604 0.0000 0.0000 0.0000
# 4 0.0000 0.0000 0.0000 27.2604 0.0000 0.0000
# 5 0.0000 0.0000 0.0000 0.0000 21.9191 0.0000
# 6 0.0000 0.0000 0.0000 0.0000 0.0000 34.2192
#
#
#
# Elastic Compliance Matrix: (Units=1/GPa)
#
#
# Indices 1 2 3 4 5 6 
#
# 1 0.017131 -0.004743 -0.006241 0.000000 0.000000 0.000000
# 2 -0.004743 0.010571 -0.003159 0.000000 0.000000 0.000000
# 3 -0.006241 -0.003159 0.019066 0.000000 0.000000 0.000000
# 4 0.000000 0.000000 0.000000 0.036683 0.000000 0.000000
# 5 0.000000 0.000000 0.000000 0.000000 0.045622 0.000000
# 6 0.000000 0.000000 0.000000 0.000000 0.000000 0.029223
#
#
# Mechanical properties :
#
#
# Convention : Reuss Voigt Hill
#
# Bulk Modulus (GPa) = 54.10901 58.53734 56.32318
# Shear Modulus (GPa) = 25.94101 27.41610 26.67856
#
# Velocity S-wave (km/s) = 3.59559 3.69640 3.64634
# Velocity P-wave (km/s) = 6.64861 6.88413 6.76740
#
# Compressibility (1/GPa) = 0.01848121
#
# Stress axis : x y z
#
# Youngs Moduli (GPa) = 58.37352 94.59694 52.44885
#
# Poissons Ratio (x) = 0.44871 0.32735
# Poissons Ratio (y) = 0.27689 0.16567
# Poissons Ratio (z) = 0.36433 0.29881
#
# Static dielectric constant tensor:
#      x y z
#    x 3.624620 0.000000 0.000000 
#    y 0.000000 3.661040 0.000000 
#    z 0.000000 0.000000 3.704590 
# 
# 
# High freq. dielectric constant tensor:
#      x y z
#    x 1.775280 0.000000 0.000000 
#    y 0.000000 1.785480 0.000000 
#    z 0.000000 0.000000 1.784040 
# 
# From -- ./inp_files/3106.got.cif
#   From: 2010.03.12/outbox.cif.g09.slc.cpg/sg26_2_cif.got.tgz:3106.got - 2010.04.14 03:33:09.
