data_PCOD8167930
_publ_section_title
;
Structure prediction by ZEFSAII (Michael W. Deem and Ramdas Pophale) SiO2 
 PCOD8167930
Probable space group: P C C 2
;
_chemical_formula_sum "Si O2"
_cell_formula_units_Z 32
_cell_length_a 16.694628
_cell_length_b 5.251183
_cell_length_c 16.741243
_cell_angle_alpha 90.000000
_cell_angle_beta 90.000000
_cell_angle_gamma 90.000000
_cell_volume 1467.646962
_symmetry_space_group_name_H-M "P C C 2"
_symmetry_group_IT_number 27
_symmetry_cell_setting 'orthorhombic'
loop_
_space_group_symop_operation_xyz
x,y,z
-x,-y,z
-x,y,1/2+z
x,-y,1/2+z
loop_
_atom_site_type_symbol
_atom_site_label
_atom_site_fract_x
_atom_site_fract_y
_atom_site_fract_z
Si Si1 0.287770 0.717984 0.930630
Si Si2 0.712229 0.217984 0.325828
Si Si3 0.417916 0.388334 0.712361
Si Si4 0.311561 0.250002 0.128229
Si Si5 0.175102 0.432323 0.559751
Si Si6 0.417916 0.888339 0.044097
Si Si7 0.049586 0.250001 0.128230
Si Si8 0.824896 0.067678 0.196705
O O1 0.288983 0.486293 0.869936
O O2 0.288982 0.986293 0.886522
O O3 0.201469 0.705529 0.977890
O O4 0.368782 0.703060 0.984695
O O5 0.631216 0.203055 0.271765
O O6 0.798529 0.205530 0.278566
O O7 0.500000 0.500000 0.750153
O O8 0.363311 0.635501 0.699540
O O9 0.437111 0.249997 0.628229
O O10 0.260004 0.471612 0.090291
O O11 0.363315 0.135515 0.056919
O O12 0.260006 0.028380 0.166163
O O13 0.107657 0.657371 0.553941
O O14 0.138613 0.250001 0.628229
O O15 0.500000 0.000000 0.006304
O O16 0.000000 0.500000 0.157047
O O17 0.107660 0.157374 0.202516
O O18 0.000000 0.000000 0.099414
#
# Coordination Sequence:
#
# PCOD8167930 Si02
#       8
#     4   4   4   4   4   4   4   4
#     4  12  27  43  65  98 142 183 231 283 340 406
#     4  12  27  43  65  98 142 183 231 283 340 406
#     4  12  24  39  66  93 130 184 239 299 352 399
#     4  11  18  38  66  95 122 166 242 291 328 388
#     4  11  22  41  74  97 132 178 230 277 326 411
#     4  12  24  39  66  93 130 184 239 299 352 399
#     4  11  24  40  72 117 136 158 212 295 342 390
#     4  11  22  41  74  97 132 178 230 277 326 411
#
# _framework density 21.803607
#
# number of rings (size 3 to 8) (size 9 to 14) (size 15 to 20)
#    0.000    0.500    7.500    1.500    3.500    1.000 
#    0.000    0.000    0.000    4.500    0.000    0.000 
#    0.000    0.000    0.000    0.000    0.000    0.000 
#
# Total GULP energy -396451.044124 kJ/mol
# GULP energy per Si atom -12389.095129 kJ/mol
# Density = 2.175398 g / cm^3
# Si number density = 21.803607 Si / 1000 Ang^3
#
#
#
# Elastic Constant Matrix: (Units=GPa)
#
#
# Indices 1 2 3 4 5 6 
#
# 1 137.8286 43.9803 36.2637 0.0000 0.0000 0.0000
# 2 43.9803 93.3680 22.7739 0.0000 0.0000 0.0000
# 3 36.2637 22.7739 78.4768 0.0000 0.0000 0.0000
# 4 0.0000 0.0000 0.0000 44.2473 0.0000 0.0000
# 5 0.0000 0.0000 0.0000 0.0000 10.0086 0.0000
# 6 0.0000 0.0000 0.0000 0.0000 0.0000 102.3146
#
#
#
# Elastic Compliance Matrix: (Units=1/GPa)
#
#
# Indices 1 2 3 4 5 6 
#
# 1 0.009245 -0.003565 -0.003237 0.000000 0.000000 0.000000
# 2 -0.003565 0.012901 -0.002096 0.000000 0.000000 0.000000
# 3 -0.003237 -0.002096 0.014847 0.000000 0.000000 0.000000
# 4 0.000000 0.000000 0.000000 0.022600 0.000000 0.000000
# 5 0.000000 0.000000 0.000000 0.000000 0.099914 0.000000
# 6 0.000000 0.000000 0.000000 0.000000 0.000000 0.009774
#
#
# Mechanical properties :
#
#
# Convention : Reuss Voigt Hill
#
# Bulk Modulus (GPa) = 52.09705 57.30101 54.69903
# Shear Modulus (GPa) = 25.84285 45.09113 35.46699
#
# Velocity S-wave (km/s) = 3.44649 4.55252 4.03756
# Velocity P-wave (km/s) = 6.30741 7.34653 6.84671
#
# Compressibility (1/GPa) = 0.01919494
#
# Stress axis : x y z
#
# Youngs Moduli (GPa) = 108.16961 77.51370 67.35369
#
# Poissons Ratio (x) = 0.27634 0.21805
# Poissons Ratio (y) = 0.38563 0.14121
# Poissons Ratio (z) = 0.35019 0.16251
#
# Static dielectric constant tensor:
#      x y z
#    x 4.210830 0.000000 0.000000 
#    y 0.000000 4.158820 0.000000 
#    z 0.000000 0.000000 3.851760 
# 
# 
# High freq. dielectric constant tensor:
#      x y z
#    x 1.862870 0.000000 0.000000 
#    y 0.000000 1.881980 0.000000 
#    z 0.000000 0.000000 1.809540 
# 
# From -- ./inp_files/3778.got.cif
#   From: 2010.03.12/outbox.cif.g09.slc.cpg/sg27_2_cif.got.tgz:3778.got - 2010.04.14 03:36:05.
