data_PCOD8167499
_publ_section_title
;
Structure prediction by ZEFSAII (Michael W. Deem and Ramdas Pophale) SiO2 
 PCOD8167499
Probable space group: P M C 21
;
_chemical_formula_sum "Si O2"
_cell_formula_units_Z 32
_cell_length_a 9.212075
_cell_length_b 11.256667
_cell_length_c 16.054423
_cell_angle_alpha 90.000000
_cell_angle_beta 90.000000
_cell_angle_gamma 90.000000
_cell_volume 1664.799686
_symmetry_space_group_name_H-M "P M C 21"
_symmetry_group_IT_number 26
_symmetry_cell_setting 'orthorhombic'
loop_
_space_group_symop_operation_xyz
x,y,z
-x,-y,1/2+z
-x,y,z
x,-y,1/2+z
loop_
_atom_site_type_symbol
_atom_site_label
_atom_site_fract_x
_atom_site_fract_y
_atom_site_fract_z
Si Si1 0.665954 0.050971 0.252300
Si Si2 0.671196 0.412056 0.786610
Si Si3 0.670180 0.585512 0.940552
Si Si4 0.828752 0.825673 0.899694
Si Si5 0.156624 0.934589 0.471064
Si Si6 0.838319 0.832288 0.289180
Si Si7 0.662801 0.210471 0.092890
Si Si8 0.328542 0.469125 0.115997
O O1 0.500000 0.030801 0.282181
O O2 0.748052 0.136686 0.315741
O O3 0.671756 0.117525 0.165870
O O4 0.742748 0.924094 0.234704
O O5 0.500000 0.385645 0.783511
O O6 0.708510 0.497512 0.864397
O O7 0.756999 0.291201 0.799936
O O8 0.729934 0.466043 0.699159
O O9 0.500000 0.617091 0.938977
O O10 0.763784 0.703400 0.932031
O O11 0.717197 0.531470 0.029679
O O12 0.000000 0.812404 0.881743
O O13 0.799218 0.925973 0.970649
O O14 0.145065 0.896562 0.376342
O O15 0.270835 0.849305 0.512412
O O16 0.000000 0.919345 0.515334
O O17 0.000000 0.813558 0.250462
O O18 0.500000 0.240848 0.066570
O O19 0.738483 0.335859 0.115530
O O20 0.500000 0.464012 0.124970
#
# Coordination Sequence:
#
# PCOD8167499 Si02
#       8
#     4   4   4   4   4   4   4   4
#     4  10  20  35  57  83 108 138 180 227 275 327
#     4  10  20  36  58  81 109 146 186 229 275 325
#     4  10  20  35  57  81 109 147 185 228 278 323
#     4  10  21  37  55  78 110 145 182 223 271 327
#     4   9  20  36  53  76 107 141 175 220 273 325
#     4  10  21  37  55  79 111 144 181 222 271 330
#     4  10  20  35  57  82 106 136 178 227 275 324
#     4   9  19  35  54  80 110 139 181 230 274 329
#
# _framework density 19.221532
#
# number of rings (size 3 to 8) (size 9 to 14) (size 15 to 20)
#    0.000    2.250    0.000    3.375    0.000    8.500 
#    0.000    5.625    0.000    0.000    0.000    0.000 
#    0.000    0.000    0.000    0.000    0.000    0.000 
#
# Total GULP energy -396671.490488 kJ/mol
# GULP energy per Si atom -12395.984078 kJ/mol
# Density = 1.917778 g / cm^3
# Si number density = 19.221532 Si / 1000 Ang^3
#
#
#
# Elastic Constant Matrix: (Units=GPa)
#
#
# Indices 1 2 3 4 5 6 
#
# 1 76.6258 55.5986 21.0625 0.0000 0.0000 0.0000
# 2 55.5986 148.2955 29.8134 0.0000 0.0000 0.0000
# 3 21.0625 29.8134 74.0699 0.0000 0.0000 0.0000
# 4 0.0000 0.0000 0.0000 21.7501 0.0000 0.0000
# 5 0.0000 0.0000 0.0000 0.0000 8.5329 0.0000
# 6 0.0000 0.0000 0.0000 0.0000 0.0000 21.4872
#
#
#
# Elastic Compliance Matrix: (Units=1/GPa)
#
#
# Indices 1 2 3 4 5 6 
#
# 1 0.018401 -0.006362 -0.002672 0.000000 0.000000 0.000000
# 2 -0.006362 0.009536 -0.002029 0.000000 0.000000 0.000000
# 3 -0.002672 -0.002029 0.015077 0.000000 0.000000 0.000000
# 4 0.000000 0.000000 0.000000 0.045977 0.000000 0.000000
# 5 0.000000 0.000000 0.000000 0.000000 0.117194 0.000000
# 6 0.000000 0.000000 0.000000 0.000000 0.000000 0.046539
#
#
# Mechanical properties :
#
#
# Convention : Reuss Voigt Hill
#
# Bulk Modulus (GPa) = 47.87280 56.88224 52.37752
# Shear Modulus (GPa) = 17.74226 23.18849 20.46538
#
# Velocity S-wave (km/s) = 3.04146 3.47707 3.26653
# Velocity P-wave (km/s) = 6.10687 6.76589 6.44481
#
# Compressibility (1/GPa) = 0.02088869
#
# Stress axis : x y z
#
# Youngs Moduli (GPa) = 54.34564 104.86175 66.32444
#
# Poissons Ratio (x) = 0.66709 0.17721
# Poissons Ratio (y) = 0.34573 0.13460
# Poissons Ratio (z) = 0.14520 0.21281
#
# Static dielectric constant tensor:
#      x y z
#    x 3.635780 0.000000 0.000000 
#    y 0.000000 3.712160 0.000000 
#    z 0.000000 0.000000 3.461720 
# 
# 
# High freq. dielectric constant tensor:
#      x y z
#    x 1.737420 0.000000 0.000000 
#    y 0.000000 1.764320 0.000000 
#    z 0.000000 0.000000 1.739900 
# 
# From -- ./inp_files/4141.got.cif
#   From: 2010.03.12/outbox.cif.g09.slc.cpg/sg26_3_cif.got.tgz:4141.got - 2010.04.14 03:33:09.
