data_PCOD8167152
_publ_section_title
;
Structure prediction by ZEFSAII (Michael W. Deem and Ramdas Pophale) SiO2 
 PCOD8167152
Probable space group: P M C 21
;
_chemical_formula_sum "Si O2"
_cell_formula_units_Z 32
_cell_length_a 8.659835
_cell_length_b 7.802566
_cell_length_c 23.949181
_cell_angle_alpha 90.000000
_cell_angle_beta 90.000000
_cell_angle_gamma 90.000000
_cell_volume 1618.220634
_symmetry_space_group_name_H-M "P M C 21"
_symmetry_group_IT_number 26
_symmetry_cell_setting 'orthorhombic'
loop_
_space_group_symop_operation_xyz
x,y,z
-x,-y,1/2+z
-x,y,z
x,-y,1/2+z
loop_
_atom_site_type_symbol
_atom_site_label
_atom_site_fract_x
_atom_site_fract_y
_atom_site_fract_z
Si Si1 0.181545 0.750933 0.858880
Si Si2 0.815985 0.747555 0.986385
Si Si3 0.182288 0.434691 0.057742
Si Si4 0.679482 0.557713 0.293280
Si Si5 0.681888 0.951917 0.286076
Si Si6 0.180589 0.935069 0.554299
Si Si7 0.677469 0.558934 0.166590
Si Si8 0.820686 0.920851 0.171651
O O1 0.221546 0.567877 0.831897
O O2 0.000000 0.783973 0.853714
O O3 0.270187 0.912673 0.832925
O O4 0.237732 0.742347 0.922686
O O5 0.745800 0.583346 0.019050
O O6 0.000000 0.744888 0.991134
O O7 0.744121 0.915629 0.016543
O O8 0.246599 0.250814 0.036374
O O9 0.221917 0.453020 0.122939
O O10 0.000000 0.437720 0.052809
O O11 0.500000 0.533957 0.307686
O O12 0.729077 0.756734 0.303141
O O13 0.714126 0.500559 0.229747
O O14 0.500000 0.960789 0.275236
O O15 0.769131 0.009143 0.229467
O O16 0.000000 0.942490 0.542726
O O17 0.213168 0.953568 0.620249
O O18 0.500000 0.529798 0.151822
O O19 0.715594 0.757501 0.160690
O O20 0.000000 0.867192 0.174368
#
# Coordination Sequence:
#
# PCOD8167152 Si02
#       8
#     4   4   4   4   4   4   4   4
#     4  11  23  37  61  90 115 152 203 247 287 346
#     4   9  19  37  56  82 117 150 189 239 291 338
#     4  10  19  34  58  83 111 149 187 235 290 340
#     4   9  21  40  58  80 116 159 194 233 293 350
#     4  10  22  40  59  83 119 159 193 238 298 351
#     4   9  18  32  55  86 113 143 184 232 290 342
#     4  10  20  35  55  83 118 155 189 231 290 349
#     4  10  18  33  58  87 117 149 189 237 287 346
#
# _framework density 19.774806999999999
#
# number of rings (size 3 to 8) (size 9 to 14) (size 15 to 20)
#    0.000    2.250    1.250    2.250    1.750    4.000 
#    0.000    4.375    0.000    0.000    0.000    0.000 
#    0.000    0.000    0.000    0.000    0.000    0.000 
#
# Total GULP energy -396714.213905 kJ/mol
# GULP energy per Si atom -12397.319185 kJ/mol
# Density = 1.972980 g / cm^3
# Si number density = 19.774807 Si / 1000 Ang^3
#
#
#
# Elastic Constant Matrix: (Units=GPa)
#
#
# Indices 1 2 3 4 5 6 
#
# 1 12.7708 13.0514 22.7220 0.0000 0.0000 0.0000
# 2 13.0514 147.6010 82.2914 0.0000 0.0000 0.0000
# 3 22.7220 82.2914 132.7999 0.0000 0.0000 0.0000
# 4 0.0000 0.0000 0.0000 25.6623 0.0000 0.0000
# 5 0.0000 0.0000 0.0000 0.0000 10.2894 0.0000
# 6 0.0000 0.0000 0.0000 0.0000 0.0000 22.3435
#
#
#
# Elastic Compliance Matrix: (Units=1/GPa)
#
#
# Indices 1 2 3 4 5 6 
#
# 1 0.112712 0.001200 -0.020029 0.000000 0.000000 0.000000
# 2 0.001200 0.010364 -0.006627 0.000000 0.000000 0.000000
# 3 -0.020029 -0.006627 0.015064 0.000000 0.000000 0.000000
# 4 0.000000 0.000000 0.000000 0.038968 0.000000 0.000000
# 5 0.000000 0.000000 0.000000 0.000000 0.097188 0.000000
# 6 0.000000 0.000000 0.000000 0.000000 0.000000 0.044756
#
#
# Mechanical properties :
#
#
# Convention : Reuss Voigt Hill
#
# Bulk Modulus (GPa) = 11.46422 58.81124 35.13773
# Shear Modulus (GPa) = 12.53011 23.33284 17.93147
#
# Velocity S-wave (km/s) = 2.51995 3.43873 3.01455
# Velocity P-wave (km/s) = 3.77847 6.75067 5.47030
#
# Compressibility (1/GPa) = 0.08722793
#
# Stress axis : x y z
#
# Youngs Moduli (GPa) = 8.87215 96.48891 66.38427
#
# Poissons Ratio (x) = -0.11579 1.32959
# Poissons Ratio (y) = -0.01065 0.43996
# Poissons Ratio (z) = 0.17770 0.63948
#
# Static dielectric constant tensor:
#      x y z
#    x 3.344590 0.000000 0.000000 
#    y 0.000000 3.849950 0.000000 
#    z 0.000000 0.000000 3.785470 
# 
# 
# High freq. dielectric constant tensor:
#      x y z
#    x 1.744550 0.000000 0.000000 
#    y 0.000000 1.779520 0.000000 
#    z 0.000000 0.000000 1.768280 
# 
# From -- ./inp_files/5553.got.cif
#   From: 2010.03.12/outbox.cif.g09.slc.cpg/sg26_3_cif.got.tgz:5553.got - 2010.04.14 03:33:09.
