data_PCOD8167353
_publ_section_title
;
Structure prediction by ZEFSAII (Michael W. Deem and Ramdas Pophale) SiO2 
 PCOD8167353
Probable space group: P M C 21
;
_chemical_formula_sum "Si O2"
_cell_formula_units_Z 32
_cell_length_a 9.129012
_cell_length_b 12.364524
_cell_length_c 14.297280
_cell_angle_alpha 90.000000
_cell_angle_beta 90.000000
_cell_angle_gamma 90.000000
_cell_volume 1613.818176
_symmetry_space_group_name_H-M "P M C 21"
_symmetry_group_IT_number 26
_symmetry_cell_setting 'orthorhombic'
loop_
_space_group_symop_operation_xyz
x,y,z
-x,-y,1/2+z
-x,y,z
x,-y,1/2+z
loop_
_atom_site_type_symbol
_atom_site_label
_atom_site_fract_x
_atom_site_fract_y
_atom_site_fract_z
Si Si1 0.326160 0.911110 0.678740
Si Si2 0.664190 0.770393 0.363073
Si Si3 0.827115 0.612169 0.497970
Si Si4 0.660631 0.021545 0.976070
Si Si5 0.168877 0.179798 0.494487
Si Si6 0.171071 0.687559 0.702941
Si Si7 0.170948 0.128151 0.708040
Si Si8 0.827822 0.605759 0.902340
O O1 0.500000 0.911830 0.697447
O O2 0.282650 0.919021 0.569608
O O3 0.260509 0.798415 0.715439
O O4 0.252066 0.014479 0.728745
O O5 0.500000 0.724935 0.344722
O O6 0.743125 0.705730 0.444459
O O7 0.655915 0.894549 0.392842
O O8 0.761380 0.773732 0.269367
O O9 0.788266 0.621913 0.608315
O O10 0.765144 0.500722 0.453657
O O11 0.000000 0.625432 0.481433
O O12 0.500000 0.973494 0.997110
O O13 0.761107 0.922819 0.942638
O O14 0.199260 0.169767 0.603935
O O15 0.239965 0.289840 0.454717
O O16 0.000000 0.176939 0.468532
O O17 0.210269 0.610254 0.791477
O O18 0.000000 0.718127 0.703510
O O19 0.000000 0.114049 0.730628
O O20 0.000000 0.604539 0.918205
#
# Coordination Sequence:
#
# PCOD8167353 Si02
#       8
#     4   4   4   4   4   4   4   4
#     4  10  19  35  56  81 117 156 191 236 291 347
#     4  11  22  37  56  83 117 155 194 237 291 348
#     4  10  21  38  60  84 114 153 197 244 292 346
#     4   9  19  34  53  78 112 151 185 228 284 343
#     4   9  19  36  57  82 115 150 188 237 289 342
#     4  10  20  35  58  86 113 148 195 245 291 347
#     4  10  21  35  55  86 119 156 197 239 288 349
#     4   9  20  38  59  86 115 149 193 244 296 344
#
# _framework density 19.828751
#
# number of rings (size 3 to 8) (size 9 to 14) (size 15 to 20)
#    0.000    2.250    1.250    1.125    1.750    3.000 
#    0.000    5.000    0.000    1.500    0.000    0.000 
#    0.000    0.000    0.000    0.000    0.000    0.000 
#
# Total GULP energy -396706.846932 kJ/mol
# GULP energy per Si atom -12397.088967 kJ/mol
# Density = 1.978362 g / cm^3
# Si number density = 19.828751 Si / 1000 Ang^3
#
#
#
# Elastic Constant Matrix: (Units=GPa)
#
#
# Indices 1 2 3 4 5 6 
#
# 1 73.1376 43.8365 38.5590 0.0000 0.0000 0.0000
# 2 43.8365 110.5449 62.4909 0.0000 0.0000 0.0000
# 3 38.5590 62.4909 91.0528 0.0000 0.0000 0.0000
# 4 0.0000 0.0000 0.0000 31.2684 0.0000 0.0000
# 5 0.0000 0.0000 0.0000 0.0000 14.0522 0.0000
# 6 0.0000 0.0000 0.0000 0.0000 0.0000 0.5604
#
#
#
# Elastic Compliance Matrix: (Units=1/GPa)
#
#
# Indices 1 2 3 4 5 6 
#
# 1 0.019103 -0.004905 -0.004723 0.000000 0.000000 0.000000
# 2 -0.004905 0.016040 -0.008931 0.000000 0.000000 0.000000
# 3 -0.004723 -0.008931 0.019112 0.000000 0.000000 0.000000
# 4 0.000000 0.000000 0.000000 0.031981 0.000000 0.000000
# 5 0.000000 0.000000 0.000000 0.000000 0.071163 0.000000
# 6 0.000000 0.000000 0.000000 0.000000 0.000000 1.784391
#
#
# Mechanical properties :
#
#
# Convention : Reuss Voigt Hill
#
# Bulk Modulus (GPa) = 58.35619 62.72314 60.53966
# Shear Modulus (GPa) = 2.51937 17.83279 10.17608
#
# Velocity S-wave (km/s) = 1.12842 3.00215 2.26785
# Velocity P-wave (km/s) = 5.58496 6.61198 6.12005
#
# Compressibility (1/GPa) = 0.01713614
#
# Stress axis : x y z
#
# Youngs Moduli (GPa) = 52.34764 62.34364 52.32184
#
# Poissons Ratio (x) = 0.30581 0.24713
# Poissons Ratio (y) = 0.25678 0.46730
# Poissons Ratio (z) = 0.24725 0.55681
#
# Static dielectric constant tensor:
#      x y z
#    x 3.524330 0.000000 0.000000 
#    y 0.000000 3.658670 0.000000 
#    z 0.000000 0.000000 3.672100 
# 
# 
# High freq. dielectric constant tensor:
#      x y z
#    x 1.757430 0.000000 0.000000 
#    y 0.000000 1.761610 0.000000 
#    z 0.000000 0.000000 1.782360 
# 
# From -- ./inp_files/4127.got.cif
#   From: 2010.03.12/outbox.cif.g09.slc.cpg/sg26_3_cif.got.tgz:4127.got - 2010.04.14 03:33:09.
