data_PCOD8167474
_publ_section_title
;
Structure prediction by ZEFSAII (Michael W. Deem and Ramdas Pophale) SiO2 
 PCOD8167474
Probable space group: P M C 21
;
_chemical_formula_sum "Si O2"
_cell_formula_units_Z 32
_cell_length_a 9.534750
_cell_length_b 29.050075
_cell_length_c 5.362753
_cell_angle_alpha 90.000000
_cell_angle_beta 90.000000
_cell_angle_gamma 90.000000
_cell_volume 1485.403226
_symmetry_space_group_name_H-M "P M C 21"
_symmetry_group_IT_number 26
_symmetry_cell_setting 'orthorhombic'
loop_
_space_group_symop_operation_xyz
x,y,z
-x,-y,1/2+z
-x,y,z
x,-y,1/2+z
loop_
_atom_site_type_symbol
_atom_site_label
_atom_site_fract_x
_atom_site_fract_y
_atom_site_fract_z
Si Si1 0.654570 0.251389 0.684840
Si Si2 0.162111 0.619810 0.459772
Si Si3 0.152004 0.111975 0.735663
Si Si4 0.154035 0.203591 0.017097
Si Si5 0.837388 0.675827 0.958676
Si Si6 0.836521 0.977512 0.499983
Si Si7 0.347337 0.158446 0.415867
Si Si8 0.335862 0.472664 0.964080
O O1 0.500000 0.273178 0.745908
O O2 0.735379 0.279713 0.468399
O O3 0.627681 0.198739 0.614452
O O4 0.759456 0.248680 0.923548
O O5 0.199297 0.646319 0.205131
O O6 0.254292 0.574672 0.468904
O O7 0.000000 0.605319 0.463479
O O8 0.199565 0.649264 0.705212
O O9 0.192731 0.077219 0.960375
O O10 0.278113 0.112326 0.534781
O O11 0.000000 0.095429 0.623155
O O12 0.131658 0.165029 0.808010
O O13 0.238094 0.177566 0.224150
O O14 0.000000 0.221003 0.108117
O O15 0.000000 0.691130 0.962958
O O16 0.000000 0.988596 0.513906
O O17 0.769895 0.995089 0.760817
O O18 0.500000 0.145313 0.300456
O O19 0.500000 0.461579 0.965067
O O20 0.292714 0.500605 0.212192
#
# Coordination Sequence:
#
# PCOD8167474 Si02
#       8
#     4   4   4   4   4   4   4   4
#     4  10  22  38  55  80 111 148 196 241 289 348
#     4  10  22  39  59  86 118 153 196 240 289 348
#     4   9  19  34  54  81 108 141 185 231 285 340
#     4  10  20  34  56  82 110 145 188 239 288 344
#     4  10  22  39  58  84 118 155 195 241 290 347
#     4   9  18  31  52  82 114 143 179 232 287 340
#     4  10  21  36  55  80 111 146 187 237 286 342
#     4  10  21  37  59  87 118 151 192 241 292 347
#
# _framework density 21.542971999999999
#
# number of rings (size 3 to 8) (size 9 to 14) (size 15 to 20)
#    0.000    2.250    0.000    1.875    3.500    3.500 
#    0.000    0.000    0.000    0.750    0.000    0.000 
#    0.000    0.000    0.000    0.000    0.000    0.000 
#
# Total GULP energy -396479.085070 kJ/mol
# GULP energy per Si atom -12389.971408 kJ/mol
# Density = 2.149394 g / cm^3
# Si number density = 21.542972 Si / 1000 Ang^3
#
#
#
# Elastic Constant Matrix: (Units=GPa)
#
#
# Indices 1 2 3 4 5 6 
#
# 1 106.7306 8.1104 10.5418 0.0000 0.0000 0.0000
# 2 8.1104 60.0338 2.6710 0.0000 0.0000 0.0000
# 3 10.5418 2.6710 95.2914 0.0000 0.0000 0.0000
# 4 0.0000 0.0000 0.0000 30.4857 0.0000 0.0000
# 5 0.0000 0.0000 0.0000 0.0000 15.6953 0.0000
# 6 0.0000 0.0000 0.0000 0.0000 0.0000 47.1237
#
#
#
# Elastic Compliance Matrix: (Units=1/GPa)
#
#
# Indices 1 2 3 4 5 6 
#
# 1 0.009565 -0.001247 -0.001023 0.000000 0.000000 0.000000
# 2 -0.001247 0.016841 -0.000334 0.000000 0.000000 0.000000
# 3 -0.001023 -0.000334 0.010617 0.000000 0.000000 0.000000
# 4 0.000000 0.000000 0.000000 0.032802 0.000000 0.000000
# 5 0.000000 0.000000 0.000000 0.000000 0.063713 0.000000
# 6 0.000000 0.000000 0.000000 0.000000 0.000000 0.021221
#
#
# Mechanical properties :
#
#
# Convention : Reuss Voigt Hill
#
# Bulk Modulus (GPa) = 31.43235 33.85581 32.64408
# Shear Modulus (GPa) = 29.31317 34.70978 32.01147
#
# Velocity S-wave (km/s) = 3.69275 4.01832 3.85897
# Velocity P-wave (km/s) = 5.72748 6.10563 5.91958
#
# Compressibility (1/GPa) = 0.03181435
#
# Stress axis : x y z
#
# Youngs Moduli (GPa) = 104.54585 59.38038 94.19137
#
# Poissons Ratio (x) = 0.07403 0.09638
# Poissons Ratio (y) = 0.13034 0.03147
# Poissons Ratio (z) = 0.10697 0.01984
#
# Static dielectric constant tensor:
#      x y z
#    x 4.343830 0.000000 0.000000 
#    y 0.000000 3.905590 0.000000 
#    z 0.000000 0.000000 4.152690 
# 
# 
# High freq. dielectric constant tensor:
#      x y z
#    x 1.837060 0.000000 0.000000 
#    y 0.000000 1.832890 0.000000 
#    z 0.000000 0.000000 1.845680 
# 
# From -- ./inp_files/223.got.cif
#   From: 2010.03.12/outbox.cif.g09.slc.cpg/sg26_1_cif.got.tgz:223.got - 2010.04.14 03:33:09.
