data_PCOD8167493
_publ_section_title
;
Structure prediction by ZEFSAII (Michael W. Deem and Ramdas Pophale) SiO2 
 PCOD8167493
Probable space group: P M C 21
;
_chemical_formula_sum "Si O2"
_cell_formula_units_Z 32
_cell_length_a 11.318636
_cell_length_b 9.738768
_cell_length_c 15.192052
_cell_angle_alpha 90.000000
_cell_angle_beta 90.000000
_cell_angle_gamma 90.000000
_cell_volume 1674.613361
_symmetry_space_group_name_H-M "P M C 21"
_symmetry_group_IT_number 26
_symmetry_cell_setting 'orthorhombic'
loop_
_space_group_symop_operation_xyz
x,y,z
-x,-y,1/2+z
-x,y,z
x,-y,1/2+z
loop_
_atom_site_type_symbol
_atom_site_label
_atom_site_fract_x
_atom_site_fract_y
_atom_site_fract_z
Si Si1 0.131253 0.829111 0.723640
Si Si2 0.631540 0.980692 0.476468
Si Si3 0.365615 0.676252 0.438360
Si Si4 0.369127 0.503149 0.782018
Si Si5 0.298291 0.236756 0.375580
Si Si6 0.233065 0.414970 0.112768
Si Si7 0.867245 0.043335 0.584283
Si Si8 0.129662 0.335402 0.522982
O O1 0.205679 0.834607 0.811454
O O2 0.169752 0.717845 0.651404
O O3 0.000000 0.792404 0.753310
O O4 0.140125 0.980164 0.681310
O O5 0.500000 0.976544 0.525057
O O6 0.623550 0.113723 0.414056
O O7 0.751235 0.987892 0.533505
O O8 0.644468 0.839476 0.422016
O O9 0.500000 0.625119 0.441844
O O10 0.306832 0.598535 0.353932
O O11 0.313571 0.634507 0.532461
O O12 0.500000 0.449958 0.760829
O O13 0.377988 0.656847 0.821883
O O14 0.302385 0.504961 0.689524
O O15 0.230029 0.323780 0.449555
O O16 0.139352 0.523964 0.076721
O O17 0.857630 0.207477 0.590241
O O18 0.000000 0.004039 0.544185
O O19 0.000000 0.333851 0.478420
#
# Coordination Sequence:
#
# PCOD8167493 Si02
#       8
#     4   4   4   4   4   4   4   4
#     4  10  20  35  57  82 113 150 192 239 287 347
#     4  10  20  36  57  82 112 148 191 239 287 341
#     4  10  20  36  56  81 116 151 188 239 291 340
#     4  10  21  36  55  81 112 148 189 233 289 350
#     4  10  20  35  57  82 112 148 191 237 284 344
#     4  11  20  35  56  82 112 150 193 235 286 340
#     4   9  19  36  56  82 114 149 187 235 291 345
#     4  10  20  35  56  80 112 150 189 237 286 337
#
# _framework density 19.108886999999999
#
# number of rings (size 3 to 8) (size 9 to 14) (size 15 to 20)
#    0.000    2.000    2.500    1.500    0.000    1.500 
#    0.000    1.250    0.000    0.000    0.000    0.000 
#    0.000    0.000    0.000    0.000    0.000    0.000 
#
# Total GULP energy -396443.124803 kJ/mol
# GULP energy per Si atom -12388.847650 kJ/mol
# Density = 1.906539 g / cm^3
# Si number density = 19.108887 Si / 1000 Ang^3
#
#
#
# Elastic Constant Matrix: (Units=GPa)
#
#
# Indices 1 2 3 4 5 6 
#
# 1 91.7225 9.8409 14.8465 0.0000 0.0000 0.0000
# 2 9.8409 64.7782 10.5209 0.0000 0.0000 0.0000
# 3 14.8465 10.5209 59.5482 0.0000 0.0000 0.0000
# 4 0.0000 0.0000 0.0000 24.5870 0.0000 0.0000
# 5 0.0000 0.0000 0.0000 0.0000 14.8100 0.0000
# 6 0.0000 0.0000 0.0000 0.0000 0.0000 22.9868
#
#
#
# Elastic Compliance Matrix: (Units=1/GPa)
#
#
# Indices 1 2 3 4 5 6 
#
# 1 0.011469 -0.001316 -0.002627 0.000000 0.000000 0.000000
# 2 -0.001316 0.016044 -0.002507 0.000000 0.000000 0.000000
# 3 -0.002627 -0.002507 0.017891 0.000000 0.000000 0.000000
# 4 0.000000 0.000000 0.000000 0.040672 0.000000 0.000000
# 5 0.000000 0.000000 0.000000 0.000000 0.067522 0.000000
# 6 0.000000 0.000000 0.000000 0.000000 0.000000 0.043503
#
#
# Mechanical properties :
#
#
# Convention : Reuss Voigt Hill
#
# Bulk Modulus (GPa) = 30.76401 31.82950 31.29675
# Shear Modulus (GPa) = 22.64138 24.53281 23.58710
#
# Velocity S-wave (km/s) = 3.44592 3.58696 3.51715
# Velocity P-wave (km/s) = 5.65391 5.81792 5.73650
#
# Compressibility (1/GPa) = 0.03250551
#
# Stress axis : x y z
#
# Youngs Moduli (GPa) = 87.19304 62.32746 55.89425
#
# Poissons Ratio (x) = 0.08200 0.14683
# Poissons Ratio (y) = 0.11472 0.14011
# Poissons Ratio (z) = 0.22905 0.15623
#
# Static dielectric constant tensor:
#      x y z
#    x 3.634850 0.000000 0.000000 
#    y 0.000000 3.651170 0.000000 
#    z 0.000000 0.000000 3.345150 
# 
# 
# High freq. dielectric constant tensor:
#      x y z
#    x 1.749430 0.000000 0.000000 
#    y 0.000000 1.752820 0.000000 
#    z 0.000000 0.000000 1.720720 
# 
# From -- ./inp_files/4561.got.cif
#   From: 2010.03.12/outbox.cif.g09.slc.cpg/sg26_3_cif.got.tgz:4561.got - 2010.04.14 03:33:09.
