data_PCOD8167048
_publ_section_title
;
Structure prediction by ZEFSAII (Michael W. Deem and Ramdas Pophale) SiO2 
 PCOD8167048
Probable space group: P M C 21
;
_chemical_formula_sum "Si O2"
_cell_formula_units_Z 24
_cell_length_a 18.394081
_cell_length_b 13.061135
_cell_length_c 5.343498
_cell_angle_alpha 90.000000
_cell_angle_beta 90.000000
_cell_angle_gamma 90.000000
_cell_volume 1283.762437
_symmetry_space_group_name_H-M "P M C 21"
_symmetry_group_IT_number 26
_symmetry_cell_setting 'orthorhombic'
loop_
_space_group_symop_operation_xyz
x,y,z
-x,-y,1/2+z
-x,y,z
x,-y,1/2+z
loop_
_atom_site_type_symbol
_atom_site_label
_atom_site_fract_x
_atom_site_fract_y
_atom_site_fract_z
Si Si1 0.584448 0.619236 0.725290
Si Si2 0.919892 0.884555 0.725013
Si Si3 0.185855 0.439045 0.725031
Si Si4 0.355376 0.606406 0.225287
Si Si5 0.218699 0.966523 0.225018
Si Si6 0.127152 0.215583 0.725015
O O1 0.500000 0.645615 0.724993
O O2 0.597958 0.497783 0.725546
O O3 0.622160 0.668163 0.476962
O O4 0.622042 0.668195 0.973787
O O5 0.914546 0.813489 0.479082
O O6 0.000000 0.936002 0.725030
O O7 0.859981 0.974590 0.725009
O O8 0.914538 0.813481 0.970928
O O9 0.164162 0.500002 0.475034
O O10 0.271003 0.417305 0.724977
O O11 0.140605 0.335484 0.725032
O O12 0.204668 0.845247 0.225025
O O13 0.262464 0.000002 0.475017
#
# Coordination Sequence:
#
# PCOD8167048 Si02
#       6
#     4   4   4   4   4   4
#     4  10  16  25  41  63  88 108 147 198 236 265
#     4  10  19  34  55  77  95 108 134 185 250 313
#     4  12  21  35  49  61  91 129 174 202 202 247
#     4  10  16  27  39  60  81 117 156 190 214 256
#     4   8  16  29  47  73  98 109 131 171 235 299
#     4  10  21  32  49  74  91 119 153 186 233 270
#
# _framework density 18.695046999999999
#
# number of rings (size 3 to 8) (size 9 to 14) (size 15 to 20)
#    0.000    2.000    3.333    4.000    0.000    6.000 
#    0.000    0.000    0.000   10.000    0.000    0.000 
#    0.000    0.000    0.000    0.000    0.000  255.000 
#
# Total GULP energy -297357.176329 kJ/mol
# GULP energy per Si atom -12389.882347 kJ/mol
# Density = 1.865250 g / cm^3
# Si number density = 18.695047 Si / 1000 Ang^3
#
#
#
# Elastic Constant Matrix: (Units=GPa)
#
#
# Indices 1 2 3 4 5 6 
#
# 1 15.2030 12.9875 7.9647 0.0000 0.0000 0.0000
# 2 12.9875 67.3134 27.7640 0.0000 0.0000 0.0000
# 3 7.9647 27.7640 208.2884 0.0000 0.0000 0.0000
# 4 0.0000 0.0000 0.0000 18.5941 0.0000 0.0000
# 5 0.0000 0.0000 0.0000 0.0000 244.0103 0.0000
# 6 0.0000 0.0000 0.0000 0.0000 0.0000 -0.2199
#
#
#
# Elastic Compliance Matrix: (Units=1/GPa)
#
#
# Indices 1 2 3 4 5 6 
#
# 1 0.078973 -0.014805 -0.001046 0.000000 0.000000 0.000000
# 2 -0.014805 0.018496 -0.001899 0.000000 0.000000 0.000000
# 3 -0.001046 -0.001899 0.005094 0.000000 0.000000 0.000000
# 4 0.000000 0.000000 0.000000 0.053780 0.000000 0.000000
# 5 0.000000 0.000000 0.000000 0.000000 0.004098 0.000000
# 6 0.000000 0.000000 0.000000 0.000000 0.000000 -4.548379
#
#
# Mechanical properties :
#
#
# Convention : Reuss Voigt Hill
#
# Bulk Modulus (GPa) = 14.91189 43.13745 29.02467
# Shear Modulus (GPa) = -1.15471 68.61616 33.73072
#
# Velocity S-wave (km/s) = -0.78676 6.06486 4.25227
# Velocity P-wave (km/s) = 2.67738 8.49516 6.29826
#
# Compressibility (1/GPa) = 0.06706059
#
# Stress axis : x y z
#
# Youngs Moduli (GPa) = 12.66261 54.06622 196.30126
#
# Poissons Ratio (x) = 0.80048 0.20539
# Poissons Ratio (y) = 0.18748 0.37283
# Poissons Ratio (z) = 0.01325 0.10269
#
# Static dielectric constant tensor:
#      x y z
#    x 2.936300 0.000000 0.000000 
#    y 0.000000 2.992830 0.000000 
#    z 0.000000 0.000000 5.674470 
# 
# 
# High freq. dielectric constant tensor:
#      x y z
#    x 1.672140 0.000000 0.000000 
#    y 0.000000 1.665070 0.000000 
#    z 0.000000 0.000000 1.779410 
# 
# From -- ./inp_files/741.got.cif
#   From: 2010.03.12/outbox.cif.g09.slc.cpg/sg26_1_cif.got.tgz:741.got - 2010.04.14 03:33:09.
