data_PCOD8167758
_publ_section_title
;
Structure prediction by ZEFSAII (Michael W. Deem and Ramdas Pophale) SiO2 
 PCOD8167758
Probable space group: P M C 21
;
_chemical_formula_sum "Si O2"
_cell_formula_units_Z 24
_cell_length_a 8.193391
_cell_length_b 27.103108
_cell_length_c 5.182373
_cell_angle_alpha 90.000000
_cell_angle_beta 90.000000
_cell_angle_gamma 90.000000
_cell_volume 1150.830714
_symmetry_space_group_name_H-M "P M C 21"
_symmetry_group_IT_number 26
_symmetry_cell_setting 'orthorhombic'
loop_
_space_group_symop_operation_xyz
x,y,z
-x,-y,1/2+z
-x,y,z
x,-y,1/2+z
loop_
_atom_site_type_symbol
_atom_site_label
_atom_site_fract_x
_atom_site_fract_y
_atom_site_fract_z
Si Si1 0.305223 0.639791 0.297940
Si Si2 0.305350 0.471604 0.799666
Si Si3 0.689555 0.192045 0.299824
Si Si4 0.189535 0.139808 0.799793
Si Si5 0.805583 0.971932 0.297512
Si Si6 0.694316 0.696282 0.798791
O O1 0.500000 0.639399 0.297532
O O2 0.237421 0.584084 0.299243
O O3 0.238003 0.668325 0.547711
O O4 0.236234 0.667996 0.048165
O O5 0.500000 0.471113 0.799613
O O6 0.238044 0.500083 0.549912
O O7 0.500000 0.191001 0.226632
O O8 0.713416 0.170356 0.585132
O O9 0.758280 0.247720 0.298639
O O10 0.786444 0.161458 0.085147
O O11 0.257881 0.084108 0.798561
O O12 0.000000 0.140961 0.726588
O O13 0.000000 0.972777 0.302762
O O14 0.736076 0.000298 0.546760
O O15 0.500000 0.695660 0.804581
#
# Coordination Sequence:
#
# PCOD8167758 Si02
#       6
#     4   4   4   4   4   4
#     4   9  15  24  37  54  79 113 160 209 244 289
#     4   9  15  21  30  47  73 107 149 198 248 293
#     4  11  22  37  56  79 110 145 182 223 268 317
#     4  11  22  37  59  85 110 139 179 223 268 317
#     4   9  17  31  53  79 104 133 173 217 256 305
#     4   9  17  28  43  62  85 121 167 208 244 293
#
# _framework density 20.854499000000001
#
# number of rings (size 3 to 8) (size 9 to 14) (size 15 to 20)
#    0.000    2.333    0.000    4.000    0.000    9.333 
#    0.000    0.000    0.000   10.000    0.000    0.000 
#    0.000    0.000    0.000    0.000    0.000  210.000 
#
# Total GULP energy -297649.633045 kJ/mol
# GULP energy per Si atom -12402.068044 kJ/mol
# Density = 2.080703 g / cm^3
# Si number density = 20.854499 Si / 1000 Ang^3
#
#
#
# Elastic Constant Matrix: (Units=GPa)
#
#
# Indices 1 2 3 4 5 6 
#
# 1 16.3800 11.5029 3.1330 0.0000 0.0000 0.0000
# 2 11.5029 214.1568 96.6647 0.0000 0.0000 0.0000
# 3 3.1330 96.6647 189.0951 0.0000 0.0000 0.0000
# 4 0.0000 0.0000 0.0000 52.4691 0.0000 0.0000
# 5 0.0000 0.0000 0.0000 0.0000 14.7683 0.0000
# 6 0.0000 0.0000 0.0000 0.0000 0.0000 -232.8426
#
#
#
# Elastic Compliance Matrix: (Units=1/GPa)
#
#
# Indices 1 2 3 4 5 6 
#
# 1 0.063561 -0.003820 0.000900 0.000000 0.000000 0.000000
# 2 -0.003820 0.006300 -0.003157 0.000000 0.000000 0.000000
# 3 0.000900 -0.003157 0.006887 0.000000 0.000000 0.000000
# 4 0.000000 0.000000 0.000000 0.019059 0.000000 0.000000
# 5 0.000000 0.000000 0.000000 0.000000 0.067713 0.000000
# 6 0.000000 0.000000 0.000000 0.000000 0.000000 -0.004295
#
#
# Mechanical properties :
#
#
# Convention : Reuss Voigt Hill
#
# Bulk Modulus (GPa) = 15.48158 71.35923 43.42040
# Shear Modulus (GPa) = 25.91876 -12.56563 6.67656
#
# Velocity S-wave (km/s) = 3.52921 -2.45733 1.79121
# Velocity P-wave (km/s) = 4.90376 5.12256 5.01436
#
# Compressibility (1/GPa) = 0.06459290
#
# Stress axis : x y z
#
# Youngs Moduli (GPa) = 15.73296 158.73799 145.19416
#
# Poissons Ratio (x) = 0.60640 -0.13064
# Poissons Ratio (y) = 0.06010 0.45839
# Poissons Ratio (z) = -0.01416 0.50115
#
# Static dielectric constant tensor:
#      x y z
#    x 2.992580 0.000000 0.000000 
#    y 0.000000 4.038660 0.000000 
#    z 0.000000 0.000000 3.906440 
# 
# 
# High freq. dielectric constant tensor:
#      x y z
#    x 1.749270 0.000000 0.000000 
#    y 0.000000 1.836260 0.000000 
#    z 0.000000 0.000000 1.833740 
# 
# From -- ./inp_files/191.got.cif
#   From: 2010.03.12/outbox.cif.g09.slc.cpg/sg26_1_cif.got.tgz:191.got - 2010.04.14 03:33:09.
