data_PCOD8167991
_publ_section_title
;
Structure prediction by ZEFSAII (Michael W. Deem and Ramdas Pophale) SiO2 
 PCOD8167991
Probable space group: P M A 2
;
_chemical_formula_sum "Si O2"
_cell_formula_units_Z 24
_cell_length_a 8.553062
_cell_length_b 9.861972
_cell_length_c 15.584209
_cell_angle_alpha 90.000000
_cell_angle_beta 90.000000
_cell_angle_gamma 90.000000
_cell_volume 1314.528932
_symmetry_space_group_name_H-M "P M A 2"
_symmetry_group_IT_number 28
_symmetry_cell_setting 'orthorhombic'
loop_
_space_group_symop_operation_xyz
x,y,z
-x,-y,z
1/2-x,y,z
1/2+x,-y,z
loop_
_atom_site_type_symbol
_atom_site_label
_atom_site_fract_x
_atom_site_fract_y
_atom_site_fract_z
Si Si1 0.434302 0.349019 0.631940
Si Si2 0.432896 0.649235 0.801576
Si Si3 0.064919 0.146400 0.316540
Si Si4 0.064927 0.651695 0.456266
Si Si5 0.563982 0.145809 0.131979
Si Si6 0.432928 0.648650 0.989542
O O1 0.500000 0.500000 0.641006
O O2 0.250000 0.348057 0.618898
O O3 0.482943 0.273107 0.721262
O O4 0.514421 0.283052 0.548027
O O5 0.500000 0.500000 0.808874
O O6 0.250000 0.644784 0.781639
O O7 0.469886 0.713881 0.895115
O O8 0.250000 0.138443 0.313768
O O9 0.010013 0.258682 0.382750
O O10 0.001254 0.190705 0.223986
O O11 0.000000 0.000000 0.344296
O O12 0.250000 0.650704 0.447368
O O13 0.000000 0.500000 0.448091
O O14 0.750000 0.141231 0.135933
O O15 0.499121 0.251250 0.061604
O O16 0.500000 0.000000 0.104935
O O17 0.500000 0.500000 0.003293
O O18 0.250000 0.633629 0.001079
#
# Coordination Sequence:
#
# PCOD8167991 Si02
#       6
#     4   4   4   4   4   4
#     4  10  17  27  44  70 101 134 168 206 249 301
#     4   9  15  26  43  67  97 131 165 203 248 298
#     4  11  22  38  57  78 102 135 173 212 256 310
#     4  11  21  35  54  79 107 137 171 214 259 304
#     4  10  20  36  54  75 100 133 172 211 252 304
#     4   9  19  32  50  75 104 132 167 210 254 299
#
# _framework density 18.257491999999999
#
# number of rings (size 3 to 8) (size 9 to 14) (size 15 to 20)
#    0.000    2.000    0.000    8.500    0.000    2.667 
#    0.000    1.667    0.000    1.000    0.000    4.667 
#    0.000    0.000    0.000    0.000    0.000    0.000 
#
# Total GULP energy -297452.134794 kJ/mol
# GULP energy per Si atom -12393.838950 kJ/mol
# Density = 1.821594 g / cm^3
# Si number density = 18.257492 Si / 1000 Ang^3
#
#
#
# Elastic Constant Matrix: (Units=GPa)
#
#
# Indices 1 2 3 4 5 6 
#
# 1 90.4528 17.7963 36.6910 0.0000 0.0000 0.0000
# 2 17.7963 60.3999 69.8794 0.0000 0.0000 0.0000
# 3 36.6910 69.8794 163.2363 0.0000 0.0000 0.0000
# 4 0.0000 0.0000 0.0000 0.4079 0.0000 0.0000
# 5 0.0000 0.0000 0.0000 0.0000 28.4178 0.0000
# 6 0.0000 0.0000 0.0000 0.0000 0.0000 22.0867
#
#
#
# Elastic Compliance Matrix: (Units=1/GPa)
#
#
# Indices 1 2 3 4 5 6 
#
# 1 0.012186 -0.000835 -0.002382 0.000000 0.000000 0.000000
# 2 -0.000835 0.032860 -0.013879 0.000000 0.000000 0.000000
# 3 -0.002382 -0.013879 0.012603 0.000000 0.000000 0.000000
# 4 0.000000 0.000000 0.000000 2.451665 0.000000 0.000000
# 5 0.000000 0.000000 0.000000 0.000000 0.035189 0.000000
# 6 0.000000 0.000000 0.000000 0.000000 0.000000 0.045276
#
#
# Mechanical properties :
#
#
# Convention : Reuss Voigt Hill
#
# Bulk Modulus (GPa) = 42.63145 62.53583 52.58364
# Shear Modulus (GPa) = 1.89985 22.83063 12.36524
#
# Velocity S-wave (km/s) = 1.02120 3.54005 2.60526
# Velocity P-wave (km/s) = 4.97908 7.14393 6.15740
#
# Compressibility (1/GPa) = 0.02345686
#
# Stress axis : x y z
#
# Youngs Moduli (GPa) = 82.06254 30.43230 79.34691
#
# Poissons Ratio (x) = 0.02542 0.18897
# Poissons Ratio (y) = 0.06854 1.10127
# Poissons Ratio (z) = 0.19543 0.42237
#
# Static dielectric constant tensor:
#      x y z
#    x 3.496440 0.000000 0.000000 
#    y 0.000000 3.049750 0.000000 
#    z 0.000000 0.000000 4.442040 
# 
# 
# High freq. dielectric constant tensor:
#      x y z
#    x 1.726120 0.000000 0.000000 
#    y 0.000000 1.654110 0.000000 
#    z 0.000000 0.000000 1.736440 
# 
# From -- ./inp_files/6668.got.cif
#   From: 2010.03.12/outbox.cif.g09.slc.cpg/sg28_4_cif.got.tgz:6668.got - 2010.04.14 03:39:34.
