data_PCOD8167238
_publ_section_title
;
Structure prediction by ZEFSAII (Michael W. Deem and Ramdas Pophale) SiO2 
 PCOD8167238
Probable space group: P M C 21
;
_chemical_formula_sum "Si O2"
_cell_formula_units_Z 32
_cell_length_a 8.912008
_cell_length_b 11.444367
_cell_length_c 16.124414
_cell_angle_alpha 90.000000
_cell_angle_beta 90.000000
_cell_angle_gamma 90.000000
_cell_volume 1644.565913
_symmetry_space_group_name_H-M "P M C 21"
_symmetry_group_IT_number 26
_symmetry_cell_setting 'orthorhombic'
loop_
_space_group_symop_operation_xyz
x,y,z
-x,-y,1/2+z
-x,y,z
x,-y,1/2+z
loop_
_atom_site_type_symbol
_atom_site_label
_atom_site_fract_x
_atom_site_fract_y
_atom_site_fract_z
Si Si1 0.675823 0.053804 0.065800
Si Si2 0.677227 0.421983 0.283642
Si Si3 0.673085 0.686271 0.257393
Si Si4 0.166106 0.767209 0.682500
Si Si5 0.836744 0.907629 0.848110
Si Si6 0.324758 0.720725 0.943407
Si Si7 0.670053 0.119314 0.880190
Si Si8 0.822050 0.802489 0.100623
O O1 0.500000 0.031777 0.078728
O O2 0.728045 0.160525 0.122371
O O3 0.759133 0.932983 0.086281
O O4 0.715697 0.103588 0.975421
O O5 0.500000 0.404426 0.275121
O O6 0.728903 0.555081 0.273613
O O7 0.755497 0.354168 0.207887
O O8 0.727390 0.375549 0.375233
O O9 0.500000 0.688136 0.228703
O O10 0.694321 0.749861 0.346337
O O11 0.770408 0.751135 0.188339
O O12 0.144916 0.841240 0.763954
O O13 0.000000 0.743493 0.643949
O O14 0.713946 0.849066 0.908228
O O15 0.000000 0.911707 0.892858
O O16 0.777826 0.036319 0.826205
O O17 0.500000 0.711764 0.962605
O O18 0.235757 0.710902 0.030152
O O19 0.500000 0.079659 0.864986
O O20 0.000000 0.808650 0.098663
#
# Coordination Sequence:
#
# PCOD8167238 Si02
#       8
#     4   4   4   4   4   4   4   4
#     4  11  22  37  58  88 121 155 197 243 295 356
#     4   9  20  40  64  86 113 153 204 249 291 346
#     4  10  22  42  63  86 116 157 205 253 297 348
#     4  10  21  36  57  86 119 153 191 238 292 350
#     4  10  19  32  54  83 114 149 187 232 291 351
#     4  10  19  35  60  88 115 150 195 244 292 346
#     4  10  21  36  57  83 116 152 192 242 296 350
#     4  12  24  38  59  90 124 157 195 243 302 365
#
# _framework density 19.458020999999999
#
# number of rings (size 3 to 8) (size 9 to 14) (size 15 to 20)
#    0.000    1.750    1.250    3.375    0.000    5.500 
#    2.250    0.000    0.000    0.000    0.000    0.000 
#    0.000    0.000    0.000    0.000    0.000    0.000 
#
# Total GULP energy -396698.199965 kJ/mol
# GULP energy per Si atom -12396.818749 kJ/mol
# Density = 1.941373 g / cm^3
# Si number density = 19.458021 Si / 1000 Ang^3
#
#
#
# Elastic Constant Matrix: (Units=GPa)
#
#
# Indices 1 2 3 4 5 6 
#
# 1 102.1045 56.5205 45.7619 0.0000 0.0000 0.0000
# 2 56.5205 140.1295 60.5213 0.0000 0.0000 0.0000
# 3 45.7619 60.5213 85.9098 0.0000 0.0000 0.0000
# 4 0.0000 0.0000 0.0000 12.3124 0.0000 0.0000
# 5 0.0000 0.0000 0.0000 0.0000 21.2553 0.0000
# 6 0.0000 0.0000 0.0000 0.0000 0.0000 31.4698
#
#
#
# Elastic Compliance Matrix: (Units=1/GPa)
#
#
# Indices 1 2 3 4 5 6 
#
# 1 0.013951 -0.003475 -0.004983 0.000000 0.000000 0.000000
# 2 -0.003475 0.011123 -0.005985 0.000000 0.000000 0.000000
# 3 -0.004983 -0.005985 0.018511 0.000000 0.000000 0.000000
# 4 0.000000 0.000000 0.000000 0.081219 0.000000 0.000000
# 5 0.000000 0.000000 0.000000 0.000000 0.047047 0.000000
# 6 0.000000 0.000000 0.000000 0.000000 0.000000 0.031776
#
#
# Mechanical properties :
#
#
# Convention : Reuss Voigt Hill
#
# Bulk Modulus (GPa) = 68.03405 72.63902 70.33654
# Shear Modulus (GPa) = 21.06050 24.03019 22.54534
#
# Velocity S-wave (km/s) = 3.29349 3.51803 3.40761
# Velocity P-wave (km/s) = 7.03585 7.34263 7.19088
#
# Compressibility (1/GPa) = 0.01469852
#
# Stress axis : x y z
#
# Youngs Moduli (GPa) = 71.68042 89.90783 54.02287
#
# Poissons Ratio (x) = 0.31240 0.26922
# Poissons Ratio (y) = 0.24907 0.32331
# Poissons Ratio (z) = 0.35721 0.53807
#
# Static dielectric constant tensor:
#      x y z
#    x 3.729700 0.000000 0.000000 
#    y 0.000000 3.800250 0.000000 
#    z 0.000000 0.000000 3.732060 
# 
# 
# High freq. dielectric constant tensor:
#      x y z
#    x 1.764110 0.000000 0.000000 
#    y 0.000000 1.747270 0.000000 
#    z 0.000000 0.000000 1.755670 
# 
# From -- ./inp_files/4200.got.cif
#   From: 2010.03.12/outbox.cif.g09.slc.cpg/sg26_3_cif.got.tgz:4200.got - 2010.04.14 03:33:09.
