data_PCOD8167338
_publ_section_title
;
Structure prediction by ZEFSAII (Michael W. Deem and Ramdas Pophale) SiO2 
 PCOD8167338
Probable space group: P M C 21
;
_chemical_formula_sum "Si O2"
_cell_formula_units_Z 32
_cell_length_a 9.005074
_cell_length_b 11.432955
_cell_length_c 16.249474
_cell_angle_alpha 90.000000
_cell_angle_beta 90.000000
_cell_angle_gamma 90.000000
_cell_volume 1672.958190
_symmetry_space_group_name_H-M "P M C 21"
_symmetry_group_IT_number 26
_symmetry_cell_setting 'orthorhombic'
loop_
_space_group_symop_operation_xyz
x,y,z
-x,-y,1/2+z
-x,y,z
x,-y,1/2+z
loop_
_atom_site_type_symbol
_atom_site_label
_atom_site_fract_x
_atom_site_fract_y
_atom_site_fract_z
Si Si1 0.826086 0.427916 0.705340
Si Si2 0.339011 0.897680 0.265928
Si Si3 0.663740 0.247324 0.603410
Si Si4 0.669513 0.145334 0.300015
Si Si5 0.174449 0.304794 0.180654
Si Si6 0.676718 0.203043 0.018620
Si Si7 0.324790 0.939975 0.979642
Si Si8 0.173556 0.718235 0.361444
O O1 0.760015 0.360397 0.626371
O O2 0.779078 0.561158 0.693378
O O3 0.770595 0.379390 0.794816
O O4 0.000000 0.408037 0.701900
O O5 0.500000 0.890944 0.313874
O O6 0.353525 0.829823 0.183038
O O7 0.210461 0.845608 0.323565
O O8 0.310204 0.032262 0.241419
O O9 0.500000 0.289189 0.573546
O O10 0.743682 0.163529 0.536547
O O11 0.500000 0.192372 0.301065
O O12 0.778553 0.244472 0.266405
O O13 0.721183 0.097351 0.388380
O O14 0.000000 0.290557 0.165439
O O15 0.262911 0.247489 0.105757
O O16 0.500000 0.210922 0.019792
O O17 0.739445 0.290967 0.948000
O O18 0.734446 0.070028 0.002105
O O19 0.500000 0.940089 0.993645
O O20 0.000000 0.706542 0.379586
#
# Coordination Sequence:
#
# PCOD8167338 Si02
#       8
#     4   4   4   4   4   4   4   4
#     4   9  21  41  58  75 111 155 191 229 283 337
#     4   9  16  30  53  81 112 147 182 223 279 333
#     4   9  17  31  56  84 108 138 184 233 270 322
#     4  10  19  35  57  81 115 152 184 226 284 341
#     4  11  24  41  57  80 114 154 196 238 284 337
#     4  11  21  38  62  88 116 148 186 233 292 347
#     4   9  18  34  57  86 118 145 176 226 287 343
#     4  10  19  34  58  85 112 147 189 234 279 334
#
# _framework density 19.127796
#
# number of rings (size 3 to 8) (size 9 to 14) (size 15 to 20)
#    0.000    2.250    1.250    1.875    0.000    4.000 
#    2.250    4.375    0.000    0.000    0.000    0.000 
#    0.000    0.000    0.000    0.000    0.000    0.000 
#
# Total GULP energy -396590.426476 kJ/mol
# GULP energy per Si atom -12393.450827 kJ/mol
# Density = 1.908426 g / cm^3
# Si number density = 19.127796 Si / 1000 Ang^3
#
#
#
# Elastic Constant Matrix: (Units=GPa)
#
#
# Indices 1 2 3 4 5 6 
#
# 1 54.7980 45.5654 37.6917 0.0000 0.0000 0.0000
# 2 45.5654 135.2867 59.2255 0.0000 0.0000 0.0000
# 3 37.6917 59.2255 86.1906 0.0000 0.0000 0.0000
# 4 0.0000 0.0000 0.0000 27.2619 0.0000 0.0000
# 5 0.0000 0.0000 0.0000 0.0000 26.6319 0.0000
# 6 0.0000 0.0000 0.0000 0.0000 0.0000 29.5460
#
#
#
# Elastic Compliance Matrix: (Units=1/GPa)
#
#
# Indices 1 2 3 4 5 6 
#
# 1 0.029217 -0.006074 -0.008603 0.000000 0.000000 0.000000
# 2 -0.006074 0.011835 -0.005476 0.000000 0.000000 0.000000
# 3 -0.008603 -0.005476 0.019127 0.000000 0.000000 0.000000
# 4 0.000000 0.000000 0.000000 0.036681 0.000000 0.000000
# 5 0.000000 0.000000 0.000000 0.000000 0.037549 0.000000
# 6 0.000000 0.000000 0.000000 0.000000 0.000000 0.033846
#
#
# Mechanical properties :
#
#
# Convention : Reuss Voigt Hill
#
# Bulk Modulus (GPa) = 50.32024 62.36003 56.34014
# Shear Modulus (GPa) = 23.23582 25.60746 24.42164
#
# Velocity S-wave (km/s) = 3.48913 3.66287 3.57706
# Velocity P-wave (km/s) = 6.52660 7.11065 6.82488
#
# Compressibility (1/GPa) = 0.01987272
#
# Stress axis : x y z
#
# Youngs Moduli (GPa) = 34.22661 84.49649 52.28216
#
# Poissons Ratio (x) = 0.51326 0.44977
# Poissons Ratio (y) = 0.20790 0.28629
# Poissons Ratio (z) = 0.29445 0.46269
#
# Static dielectric constant tensor:
#      x y z
#    x 3.400070 0.000000 0.000000 
#    y 0.000000 3.745130 0.000000 
#    z 0.000000 0.000000 3.665030 
# 
# 
# High freq. dielectric constant tensor:
#      x y z
#    x 1.724030 0.000000 0.000000 
#    y 0.000000 1.736900 0.000000 
#    z 0.000000 0.000000 1.746510 
# 
# From -- ./inp_files/4224.got.cif
#   From: 2010.03.12/outbox.cif.g09.slc.cpg/sg26_3_cif.got.tgz:4224.got - 2010.04.14 03:33:09.
