data_PCOD8167759
_publ_section_title
;
Structure prediction by ZEFSAII (Michael W. Deem and Ramdas Pophale) SiO2 
 PCOD8167759
Probable space group: P M C 21
;
_chemical_formula_sum "Si O2"
_cell_formula_units_Z 24
_cell_length_a 8.331647
_cell_length_b 15.426315
_cell_length_c 9.389605
_cell_angle_alpha 90.000000
_cell_angle_beta 90.000000
_cell_angle_gamma 90.000000
_cell_volume 1206.814110
_symmetry_space_group_name_H-M "P M C 21"
_symmetry_group_IT_number 26
_symmetry_cell_setting 'orthorhombic'
loop_
_space_group_symop_operation_xyz
x,y,z
-x,-y,1/2+z
-x,y,z
x,-y,1/2+z
loop_
_atom_site_type_symbol
_atom_site_label
_atom_site_fract_x
_atom_site_fract_y
_atom_site_fract_z
Si Si1 0.689989 0.073389 0.250000
Si Si2 0.689371 0.266868 0.269966
Si Si3 0.309612 0.727409 0.445760
Si Si4 0.686617 0.425899 0.748882
Si Si5 0.815813 0.576266 0.934290
Si Si6 0.308595 0.918374 0.434572
O O1 0.500000 0.063305 0.247175
O O2 0.733549 0.167909 0.313000
O O3 0.767545 0.994161 0.338181
O O4 0.759258 0.065365 0.091826
O O5 0.500000 0.283143 0.282863
O O6 0.781723 0.326340 0.382435
O O7 0.749537 0.286660 0.108511
O O8 0.500000 0.721787 0.448500
O O9 0.240244 0.653839 0.341130
O O10 0.254475 0.821723 0.386200
O O11 0.500000 0.411583 0.715389
O O12 0.706607 0.512706 0.840528
O O13 0.778902 0.433101 0.600767
O O14 0.000000 0.551981 0.908880
O O15 0.500000 0.923181 0.433845
#
# Coordination Sequence:
#
# PCOD8167759 Si02
#       6
#     4   4   4   4   4   4
#     4   8  14  23  41  69 104 138 169 209 261 313
#     4   9  17  33  54  78 106 141 181 220 262 317
#     4   8  16  30  51  77 106 136 173 219 267 315
#     4  11  22  38  59  81 105 141 182 221 265 324
#     4  12  25  39  55  80 110 140 174 222 275 322
#     4   8  13  23  39  69 107 136 163 209 266 313
#
# _framework density 19.887072
#
# number of rings (size 3 to 8) (size 9 to 14) (size 15 to 20)
#    0.000    2.667    0.000    5.000    0.000    2.667 
#    0.000    5.833    0.000    0.000    0.000   11.667 
#    0.000    0.000    0.000    0.000    0.000    0.000 
#
# Total GULP energy -297494.997654 kJ/mol
# GULP energy per Si atom -12395.624902 kJ/mol
# Density = 1.984181 g / cm^3
# Si number density = 19.887072 Si / 1000 Ang^3
#
#
#
# Elastic Constant Matrix: (Units=GPa)
#
#
# Indices 1 2 3 4 5 6 
#
# 1 30.5799 9.5266 8.7734 0.0000 0.0000 0.0000
# 2 9.5266 137.8286 61.8332 0.0000 0.0000 0.0000
# 3 8.7734 61.8332 100.2209 0.0000 0.0000 0.0000
# 4 0.0000 0.0000 0.0000 46.7657 0.0000 0.0000
# 5 0.0000 0.0000 0.0000 0.0000 14.0089 0.0000
# 6 0.0000 0.0000 0.0000 0.0000 0.0000 3.7759
#
#
#
# Elastic Compliance Matrix: (Units=1/GPa)
#
#
# Indices 1 2 3 4 5 6 
#
# 1 0.033736 -0.001392 -0.002094 0.000000 0.000000 0.000000
# 2 -0.001392 0.010090 -0.006103 0.000000 0.000000 0.000000
# 3 -0.002094 -0.006103 0.013927 0.000000 0.000000 0.000000
# 4 0.000000 0.000000 0.000000 0.021383 0.000000 0.000000
# 5 0.000000 0.000000 0.000000 0.000000 0.071383 0.000000
# 6 0.000000 0.000000 0.000000 0.000000 0.000000 0.264841
#
#
# Mechanical properties :
#
#
# Convention : Reuss Voigt Hill
#
# Bulk Modulus (GPa) = 25.92496 47.65510 36.79003
# Shear Modulus (GPa) = 11.17578 25.47651 18.32614
#
# Velocity S-wave (km/s) = 2.37315 3.58307 3.03893
# Velocity P-wave (km/s) = 4.53580 6.41348 5.55456
#
# Compressibility (1/GPa) = 0.03857287
#
# Stress axis : x y z
#
# Youngs Moduli (GPa) = 29.64209 99.11175 71.80434
#
# Poissons Ratio (x) = 0.13799 0.15038
# Poissons Ratio (y) = 0.04127 0.43823
# Poissons Ratio (z) = 0.06208 0.60489
#
# Static dielectric constant tensor:
#      x y z
#    x 3.001990 0.000000 0.000000 
#    y 0.000000 4.017580 0.000000 
#    z 0.000000 0.000000 3.777500 
# 
# 
# High freq. dielectric constant tensor:
#      x y z
#    x 1.721550 0.000000 0.000000 
#    y 0.000000 1.793150 0.000000 
#    z 0.000000 0.000000 1.771630 
# 
# From -- ./inp_files/1416.got.cif
#   From: 2010.03.12/outbox.cif.g09.slc.cpg/sg26_1_cif.got.tgz:1416.got - 2010.04.14 03:33:09.
