data_PCOD8167978
_publ_section_title
;
Structure prediction by ZEFSAII (Michael W. Deem and Ramdas Pophale) SiO2 
 PCOD8167978
Probable space group: P M A 2
;
_chemical_formula_sum "Si O2"
_cell_formula_units_Z 24
_cell_length_a 8.657438
_cell_length_b 9.223638
_cell_length_c 15.872896
_cell_angle_alpha 90.000000
_cell_angle_beta 90.000000
_cell_angle_gamma 90.000000
_cell_volume 1267.499541
_symmetry_space_group_name_H-M "P M A 2"
_symmetry_group_IT_number 28
_symmetry_cell_setting 'orthorhombic'
loop_
_space_group_symop_operation_xyz
x,y,z
-x,-y,z
1/2-x,y,z
1/2+x,-y,z
loop_
_atom_site_type_symbol
_atom_site_label
_atom_site_fract_x
_atom_site_fract_y
_atom_site_fract_z
Si Si1 0.069617 0.158871 0.662420
Si Si2 0.568820 0.159214 0.829451
Si Si3 0.433021 0.160168 0.143190
Si Si4 0.067236 0.838969 0.314565
Si Si5 0.930856 0.840751 0.480062
Si Si6 0.433019 0.658932 0.991477
O O1 0.250000 0.147241 0.679441
O O2 0.037948 0.236703 0.571295
O O3 0.992035 0.237181 0.743122
O O4 0.000000 0.000000 0.659360
O O5 0.750000 0.144053 0.824005
O O6 0.517409 0.257826 0.907130
O O7 0.500000 0.000000 0.842438
O O8 0.250000 0.149856 0.145727
O O9 0.495083 0.231804 0.230511
O O10 0.500000 0.000000 0.129224
O O11 0.487368 0.263140 0.069343
O O12 0.250000 0.838894 0.307239
O O13 0.012904 0.757644 0.401171
O O14 0.000000 0.000000 0.320312
O O15 0.750000 0.851381 0.461056
O O16 0.000000 0.000000 0.487241
O O17 0.500000 0.500000 0.984092
O O18 0.250000 0.656236 0.004693
#
# Coordination Sequence:
#
# PCOD8167978 Si02
#       6
#     4   4   4   4   4   4
#     4   9  16  25  41  65  96 131 166 203 246 294
#     4  10  20  33  52  76 103 133 169 209 252 301
#     4  11  21  35  55  78 105 137 172 214 257 305
#     4  10  17  26  42  66  97 132 167 205 248 298
#     4   9  15  23  36  60  94 130 164 200 244 294
#     4  11  24  40  56  77 102 133 171 213 261 312
#
# _framework density 18.934919000000001
#
# number of rings (size 3 to 8) (size 9 to 14) (size 15 to 20)
#    0.000    2.000    0.000    8.500    0.000    6.000 
#    0.000    0.000    0.000    0.000    0.000    1.167 
#    0.000    5.333    0.000    0.000    0.000    0.000 
#
# Total GULP energy -297376.721606 kJ/mol
# GULP energy per Si atom -12390.696734 kJ/mol
# Density = 1.889182 g / cm^3
# Si number density = 18.934919 Si / 1000 Ang^3
#
#
#
# Elastic Constant Matrix: (Units=GPa)
#
#
# Indices 1 2 3 4 5 6 
#
# 1 137.7265 33.5091 89.7637 0.0000 0.0000 0.0000
# 2 33.5091 52.2149 55.0334 0.0000 0.0000 0.0000
# 3 89.7637 55.0334 228.6844 0.0000 0.0000 0.0000
# 4 0.0000 0.0000 0.0000 -4.2043 0.0000 0.0000
# 5 0.0000 0.0000 0.0000 0.0000 39.9813 0.0000
# 6 0.0000 0.0000 0.0000 0.0000 0.0000 16.5014
#
#
#
# Elastic Compliance Matrix: (Units=1/GPa)
#
#
# Indices 1 2 3 4 5 6 
#
# 1 0.010116 -0.003091 -0.003227 0.000000 0.000000 0.000000
# 2 -0.003091 0.026604 -0.005189 0.000000 0.000000 0.000000
# 3 -0.003227 -0.005189 0.006888 0.000000 0.000000 0.000000
# 4 0.000000 0.000000 0.000000 -0.237850 0.000000 0.000000
# 5 0.000000 0.000000 0.000000 0.000000 0.025012 0.000000
# 6 0.000000 0.000000 0.000000 0.000000 0.000000 0.060601
#
#
# Mechanical properties :
#
#
# Convention : Reuss Voigt Hill
#
# Bulk Modulus (GPa) = 48.55602 86.13760 67.34681
# Shear Modulus (GPa) = -63.49189 26.47697 -18.50746
#
# Velocity S-wave (km/s) = -5.79693 3.74346 -3.12977
# Velocity P-wave (km/s) = 4.37111 8.01716 4.75227
#
# Compressibility (1/GPa) = 0.02059477
#
# Stress axis : x y z
#
# Youngs Moduli (GPa) = 98.85405 37.58765 145.17443
#
# Poissons Ratio (x) = 0.11618 0.46846
# Poissons Ratio (y) = 0.30554 0.75334
# Poissons Ratio (z) = 0.31899 0.19505
#
# Static dielectric constant tensor:
#      x y z
#    x 3.631600 0.000000 0.000000 
#    y 0.000000 2.900570 0.000000 
#    z 0.000000 0.000000 5.032040 
# 
# 
# High freq. dielectric constant tensor:
#      x y z
#    x 1.757930 0.000000 0.000000 
#    y 0.000000 1.651050 0.000000 
#    z 0.000000 0.000000 1.778530 
# 
# From -- ./inp_files/6689.got.cif
#   From: 2010.03.12/outbox.cif.g09.slc.cpg/sg28_4_cif.got.tgz:6689.got - 2010.04.14 03:39:34.
