data_PCOD8167660
_publ_section_title
;
Structure prediction by ZEFSAII (Michael W. Deem and Ramdas Pophale) SiO2 
 PCOD8167660
Probable space group: P M C 21
;
_chemical_formula_sum "Si O2"
_cell_formula_units_Z 28
_cell_length_a 11.086137
_cell_length_b 14.013773
_cell_length_c 9.069098
_cell_angle_alpha 90.000000
_cell_angle_beta 90.000000
_cell_angle_gamma 90.000000
_cell_volume 1408.962435
_symmetry_space_group_name_H-M "P M C 21"
_symmetry_group_IT_number 26
_symmetry_cell_setting 'orthorhombic'
loop_
_space_group_symop_operation_xyz
x,y,z
-x,-y,1/2+z
-x,y,z
x,-y,1/2+z
loop_
_atom_site_type_symbol
_atom_site_label
_atom_site_fract_x
_atom_site_fract_y
_atom_site_fract_z
Si Si1 0.860161 0.425675 0.623090
Si Si2 0.500000 0.573313 0.833467
Si Si3 0.141228 0.723113 0.875300
Si Si4 0.137445 0.077349 0.476927
Si Si5 0.273670 0.301757 0.830329
Si Si6 0.500000 0.625973 0.178785
Si Si7 0.139025 0.106571 0.817639
Si Si8 0.723172 0.621735 0.643579
O O1 0.818089 0.359351 0.488111
O O2 0.836866 0.368444 0.774954
O O3 0.775123 0.516910 0.617392
O O4 0.000000 0.455904 0.615473
O O5 0.500000 0.461877 0.793404
O O6 0.615968 0.622810 0.761495
O O7 0.500000 0.587945 0.010327
O O8 0.200881 0.825579 0.916326
O O9 0.175150 0.691824 0.710330
O O10 0.000000 0.735368 0.891542
O O11 0.147189 0.073576 0.650679
O O12 0.000000 0.076684 0.421469
O O13 0.195144 0.980533 0.412543
O O14 0.382336 0.309768 0.711870
O O15 0.226357 0.194979 0.845753
O O16 0.320854 0.337028 0.988436
O O17 0.000000 0.132227 0.859934
#
# Coordination Sequence:
#
# PCOD8167660 Si02
#       8
#     4   2   4   4   4   2   4   4
#     4  11  22  38  58  88 130 172 205 247 308 370
#     4  12  26  44  66  89 118 167 223 261 306 368
#     4  10  21  38  59  89 130 168 204 247 310 374
#     4   9  19  36  59  89 125 164 203 251 310 373
#     4  12  24  40  64  91 125 164 211 262 313 369
#     4  12  26  46  66  87 120 165 217 267 314 366
#     4  10  21  38  64  95 128 163 207 260 316 378
#     4  12  25  38  60  92 124 168 211 260 300 369
#
# _framework density 19.872781
#
# number of rings (size 3 to 8) (size 9 to 14) (size 15 to 20)
#    0.000    1.143    2.857    3.857    2.000    3.429 
#    0.000    0.000    0.000    1.714    0.000    0.000 
#    0.000    0.000    0.000    0.000    0.000    0.000 
#
# Total GULP energy -347212.846172 kJ/mol
# GULP energy per Si atom -12400.458792 kJ/mol
# Density = 1.982755 g / cm^3
# Si number density = 19.872781 Si / 1000 Ang^3
#
#
#
# Elastic Constant Matrix: (Units=GPa)
#
#
# Indices 1 2 3 4 5 6 
#
# 1 61.8378 50.3823 39.7978 0.0000 0.0000 0.0000
# 2 50.3823 145.7005 55.4706 0.0000 0.0000 0.0000
# 3 39.7978 55.4706 113.1318 0.0000 0.0000 0.0000
# 4 0.0000 0.0000 0.0000 34.1715 0.0000 0.0000
# 5 0.0000 0.0000 0.0000 0.0000 27.4847 0.0000
# 6 0.0000 0.0000 0.0000 0.0000 0.0000 17.3776
#
#
#
# Elastic Compliance Matrix: (Units=1/GPa)
#
#
# Indices 1 2 3 4 5 6 
#
# 1 0.025128 -0.006546 -0.005630 0.000000 0.000000 0.000000
# 2 -0.006546 0.010144 -0.002671 0.000000 0.000000 0.000000
# 3 -0.005630 -0.002671 0.012129 0.000000 0.000000 0.000000
# 4 0.000000 0.000000 0.000000 0.029264 0.000000 0.000000
# 5 0.000000 0.000000 0.000000 0.000000 0.036384 0.000000
# 6 0.000000 0.000000 0.000000 0.000000 0.000000 0.057545
#
#
# Mechanical properties :
#
#
# Convention : Reuss Voigt Hill
#
# Bulk Modulus (GPa) = 56.47305 67.99684 62.23494
# Shear Modulus (GPa) = 24.24945 27.47472 25.86209
#
# Velocity S-wave (km/s) = 3.49698 3.72227 3.61138
# Velocity P-wave (km/s) = 6.69209 7.26389 6.98385
#
# Compressibility (1/GPa) = 0.01770756
#
# Stress axis : x y z
#
# Youngs Moduli (GPa) = 39.79667 98.58338 82.44373
#
# Poissons Ratio (x) = 0.64528 0.46417
# Poissons Ratio (y) = 0.26049 0.22021
# Poissons Ratio (z) = 0.22406 0.26332
#
# Static dielectric constant tensor:
#      x y z
#    x 3.544610 0.000000 0.000000 
#    y 0.000000 3.801790 0.000000 
#    z 0.000000 0.000000 3.665970 
# 
# 
# High freq. dielectric constant tensor:
#      x y z
#    x 1.748310 0.000000 0.000000 
#    y 0.000000 1.775320 0.000000 
#    z 0.000000 0.000000 1.786030 
# 
# From -- ./inp_files/1920.got.cif
#   From: 2010.03.12/outbox.cif.g09.slc.cpg/sg26_1_cif.got.tgz:1920.got - 2010.04.14 03:33:09.
