data_PCOD8167260
_publ_section_title
;
Structure prediction by ZEFSAII (Michael W. Deem and Ramdas Pophale) SiO2 
 PCOD8167260
Probable space group: P M C 21
;
_chemical_formula_sum "Si O2"
_cell_formula_units_Z 28
_cell_length_a 10.196278
_cell_length_b 7.682376
_cell_length_c 20.308436
_cell_angle_alpha 90.000000
_cell_angle_beta 90.000000
_cell_angle_gamma 90.000000
_cell_volume 1590.793126
_symmetry_space_group_name_H-M "P M C 21"
_symmetry_group_IT_number 26
_symmetry_cell_setting 'orthorhombic'
loop_
_space_group_symop_operation_xyz
x,y,z
-x,-y,1/2+z
-x,y,z
x,-y,1/2+z
loop_
_atom_site_type_symbol
_atom_site_label
_atom_site_fract_x
_atom_site_fract_y
_atom_site_fract_z
Si Si1 0.150258 0.542516 0.959300
Si Si2 0.647893 0.023142 0.803865
Si Si3 0.152214 0.623387 0.691863
Si Si4 0.356662 0.677013 0.401975
Si Si5 0.845593 0.327794 0.597877
Si Si6 0.153371 0.014793 0.686607
Si Si7 0.726590 0.644381 0.833069
O O1 0.242870 0.369486 0.954964
O O2 0.166380 0.657698 0.892834
O O3 0.000000 0.482162 0.967687
O O4 0.200209 0.654067 0.022217
O O5 0.500000 0.062510 0.777849
O O6 0.649857 0.825141 0.828922
O O7 0.683165 0.146465 0.865065
O O8 0.756506 0.061418 0.748770
O O9 0.217019 0.482969 0.642288
O O10 0.206574 0.598766 0.764507
O O11 0.000000 0.586075 0.697309
O O12 0.180473 0.816982 0.664082
O O13 0.500000 0.698189 0.435785
O O14 0.369099 0.516685 0.349759
O O15 0.804172 0.139904 0.626523
O O16 0.000000 0.347281 0.600455
O O17 0.000000 0.040650 0.706387
#
# Coordination Sequence:
#
# PCOD8167260 Si02
#       7
#     4   4   4   4   4   4   4
#     4   9  19  34  52  75 104 134 173 212 250 303
#     4  10  19  33  53  77 102 132 168 209 255 305
#     4   9  16  28  49  74 100 129 162 202 253 302
#     4   9  19  33  50  72 100 132 165 203 253 301
#     4   9  17  32  49  71 104 136 163 206 259 303
#     4   9  18  31  50  75 101 131 166 207 254 303
#     4   9  18  31  53  74 101 130 169 209 254 293
#
# _framework density 17.601282000000001
#
# number of rings (size 3 to 8) (size 9 to 14) (size 15 to 20)
#    0.857    2.000    0.000    1.714    0.000    1.143 
#    2.571    0.714    0.000    4.286    0.000    0.000 
#    0.000    0.000    0.000    0.000    0.000    0.000 
#
# Total GULP energy -346888.529413 kJ/mol
# GULP energy per Si atom -12388.876050 kJ/mol
# Density = 1.756122 g / cm^3
# Si number density = 17.601282 Si / 1000 Ang^3
#
#
#
# Elastic Constant Matrix: (Units=GPa)
#
#
# Indices 1 2 3 4 5 6 
#
# 1 53.7505 6.4120 17.6445 0.0000 0.0000 0.0000
# 2 6.4120 65.1921 25.8977 0.0000 0.0000 0.0000
# 3 17.6445 25.8977 91.3284 0.0000 0.0000 0.0000
# 4 0.0000 0.0000 0.0000 18.4067 0.0000 0.0000
# 5 0.0000 0.0000 0.0000 0.0000 10.0846 0.0000
# 6 0.0000 0.0000 0.0000 0.0000 0.0000 20.5272
#
#
#
# Elastic Compliance Matrix: (Units=1/GPa)
#
#
# Indices 1 2 3 4 5 6 
#
# 1 0.019878 -0.000484 -0.003703 0.000000 0.000000 0.000000
# 2 -0.000484 0.017298 -0.004812 0.000000 0.000000 0.000000
# 3 -0.003703 -0.004812 0.013029 0.000000 0.000000 0.000000
# 4 0.000000 0.000000 0.000000 0.054328 0.000000 0.000000
# 5 0.000000 0.000000 0.000000 0.000000 0.099161 0.000000
# 6 0.000000 0.000000 0.000000 0.000000 0.000000 0.048716
#
#
# Mechanical properties :
#
#
# Convention : Reuss Voigt Hill
#
# Bulk Modulus (GPa) = 31.04832 34.46436 32.75634
# Shear Modulus (GPa) = 17.78447 20.49149 19.13798
#
# Velocity S-wave (km/s) = 3.18214 3.41575 3.30101
# Velocity P-wave (km/s) = 5.58386 5.93123 5.76016
#
# Compressibility (1/GPa) = 0.03220786
#
# Stress axis : x y z
#
# Youngs Moduli (GPa) = 50.30735 57.80891 76.74962
#
# Poissons Ratio (x) = 0.02798 0.28421
# Poissons Ratio (y) = 0.02435 0.36930
# Poissons Ratio (z) = 0.18629 0.27816
#
# Static dielectric constant tensor:
#      x y z
#    x 3.040870 0.000000 0.000000 
#    y 0.000000 3.366380 0.000000 
#    z 0.000000 0.000000 3.245570 
# 
# 
# High freq. dielectric constant tensor:
#      x y z
#    x 1.661480 0.000000 0.000000 
#    y 0.000000 1.683450 0.000000 
#    z 0.000000 0.000000 1.663080 
# 
# From -- ./inp_files/5172.got.cif
#   From: 2010.03.12/outbox.cif.g09.slc.cpg/sg26_3_cif.got.tgz:5172.got - 2010.04.14 03:33:09.
