data_PCOD8167344
_publ_section_title
;
Structure prediction by ZEFSAII (Michael W. Deem and Ramdas Pophale) SiO2 
 PCOD8167344
Probable space group: P M C 21
;
_chemical_formula_sum "Si O2"
_cell_formula_units_Z 32
_cell_length_a 8.791950
_cell_length_b 12.379950
_cell_length_c 15.448214
_cell_angle_alpha 90.000000
_cell_angle_beta 90.000000
_cell_angle_gamma 90.000000
_cell_volume 1681.443881
_symmetry_space_group_name_H-M "P M C 21"
_symmetry_group_IT_number 26
_symmetry_cell_setting 'orthorhombic'
loop_
_space_group_symop_operation_xyz
x,y,z
-x,-y,1/2+z
-x,y,z
x,-y,1/2+z
loop_
_atom_site_type_symbol
_atom_site_label
_atom_site_fract_x
_atom_site_fract_y
_atom_site_fract_z
Si Si1 0.175530 0.493260 0.610350
Si Si2 0.319744 0.607053 0.770757
Si Si3 0.669247 0.162208 0.520501
Si Si4 0.826892 0.747240 0.176016
Si Si5 0.320025 0.455816 0.929698
Si Si6 0.328985 0.018858 0.898836
Si Si7 0.820350 0.239804 0.870834
Si Si8 0.179489 0.189516 0.352256
O O1 0.262912 0.570465 0.676836
O O2 0.195269 0.372863 0.643454
O O3 0.248072 0.494925 0.515770
O O4 0.000000 0.528737 0.606285
O O5 0.500000 0.616594 0.769935
O O6 0.264792 0.524017 0.845796
O O7 0.248290 0.724754 0.785744
O O8 0.500000 0.212588 0.515525
O O9 0.732508 0.170879 0.616846
O O10 0.774612 0.226180 0.450523
O O11 0.665544 0.035380 0.494494
O O12 0.762298 0.755889 0.272350
O O13 0.000000 0.785540 0.173232
O O14 0.500000 0.458297 0.937985
O O15 0.263823 0.333033 0.923316
O O16 0.500000 0.046159 0.866335
O O17 0.226833 0.124554 0.908921
O O18 0.251510 0.929975 0.834120
O O19 0.000000 0.257299 0.878831
O O20 0.000000 0.184397 0.341599
#
# Coordination Sequence:
#
# PCOD8167344 Si02
#       8
#     4   4   4   4   4   4   4   4
#     4  11  23  39  59  88 123 161 203 253 309 370
#     4  11  22  38  60  89 123 159 202 251 304 366
#     4   9  19  34  56  85 115 151 197 247 297 352
#     4  10  21  36  58  89 121 154 201 253 301 362
#     4  11  24  40  60  88 123 165 203 249 308 367
#     4   9  20  38  58  86 117 154 201 246 298 361
#     4  11  22  39  62  89 122 162 205 251 307 370
#     4  10  19  34  59  86 116 156 198 246 302 354
#
# _framework density 19.031262000000002
#
# number of rings (size 3 to 8) (size 9 to 14) (size 15 to 20)
#    0.750    1.000    1.250    3.750    0.000    5.500 
#    0.000    1.250    0.000    3.000    0.000    0.000 
#    0.000    0.000    0.000    0.000    0.000    0.000 
#
# Total GULP energy -396741.610502 kJ/mol
# GULP energy per Si atom -12398.175328 kJ/mol
# Density = 1.898795 g / cm^3
# Si number density = 19.031262 Si / 1000 Ang^3
#
#
#
# Elastic Constant Matrix: (Units=GPa)
#
#
# Indices 1 2 3 4 5 6 
#
# 1 95.5862 21.9241 20.9275 0.0000 0.0000 0.0000
# 2 21.9241 57.1305 -17.2414 0.0000 0.0000 0.0000
# 3 20.9275 -17.2414 35.5664 0.0000 0.0000 0.0000
# 4 0.0000 0.0000 0.0000 26.7609 0.0000 0.0000
# 5 0.0000 0.0000 0.0000 0.0000 32.7175 0.0000
# 6 0.0000 0.0000 0.0000 0.0000 0.0000 29.9405
#
#
#
# Elastic Compliance Matrix: (Units=1/GPa)
#
#
# Indices 1 2 3 4 5 6 
#
# 1 0.016081 -0.010573 -0.014588 0.000000 0.000000 0.000000
# 2 -0.010573 0.027456 0.019531 0.000000 0.000000 0.000000
# 3 -0.014588 0.019531 0.046168 0.000000 0.000000 0.000000
# 4 0.000000 0.000000 0.000000 0.037368 0.000000 0.000000
# 5 0.000000 0.000000 0.000000 0.000000 0.030565 0.000000
# 6 0.000000 0.000000 0.000000 0.000000 0.000000 0.033400
#
#
# Mechanical properties :
#
#
# Convention : Reuss Voigt Hill
#
# Bulk Modulus (GPa) = 12.74790 26.61150 19.67970
# Shear Modulus (GPa) = 21.88711 28.72864 25.30787
#
# Velocity S-wave (km/s) = 3.39493 3.88951 3.65061
# Velocity P-wave (km/s) = 4.69898 5.84675 5.30400
#
# Compressibility (1/GPa) = 0.07844431
#
# Stress axis : x y z
#
# Youngs Moduli (GPa) = 62.18606 36.42233 21.66001
#
# Poissons Ratio (x) = 0.38511 0.31597
# Poissons Ratio (y) = 0.65752 -0.42304
# Poissons Ratio (z) = 0.90715 -0.71137
#
# Static dielectric constant tensor:
#      x y z
#    x 3.542530 0.000000 0.000000 
#    y 0.000000 3.341450 0.000000 
#    z 0.000000 0.000000 3.408680 
# 
# 
# High freq. dielectric constant tensor:
#      x y z
#    x 1.753920 0.000000 0.000000 
#    y 0.000000 1.733560 0.000000 
#    z 0.000000 0.000000 1.724060 
# 
# From -- ./inp_files/4321.got.cif
#   From: 2010.03.12/outbox.cif.g09.slc.cpg/sg26_3_cif.got.tgz:4321.got - 2010.04.14 03:33:09.
