data_PCOD8167173
_publ_section_title
;
Structure prediction by ZEFSAII (Michael W. Deem and Ramdas Pophale) SiO2 
 PCOD8167173
Probable space group: P M C 21
;
_chemical_formula_sum "Si O2"
_cell_formula_units_Z 20
_cell_length_a 14.442044
_cell_length_b 7.592808
_cell_length_c 8.948504
_cell_angle_alpha 90.000000
_cell_angle_beta 90.000000
_cell_angle_gamma 90.000000
_cell_volume 981.254177
_symmetry_space_group_name_H-M "P M C 21"
_symmetry_group_IT_number 26
_symmetry_cell_setting 'orthorhombic'
loop_
_space_group_symop_operation_xyz
x,y,z
-x,-y,1/2+z
-x,y,z
x,-y,1/2+z
loop_
_atom_site_type_symbol
_atom_site_label
_atom_site_fract_x
_atom_site_fract_y
_atom_site_fract_z
Si Si1 0.108177 0.893805 0.107840
Si Si2 0.786582 0.591262 0.241222
Si Si3 0.599727 0.261947 0.274879
Si Si4 0.802355 0.814663 0.795433
Si Si5 0.661529 0.536512 0.497844
O O1 0.129652 0.726246 0.214652
O O2 0.000000 0.930108 0.112076
O O3 0.161424 0.066733 0.161189
O O4 0.139753 0.859541 0.940552
O O5 0.820191 0.388817 0.253225
O O6 0.733588 0.645882 0.393520
O O7 0.718353 0.604528 0.098400
O O8 0.500000 0.161128 0.289816
O O9 0.691069 0.147388 0.313224
O O10 0.594658 0.427606 0.388139
O O11 0.605891 0.330300 0.103647
#
# Coordination Sequence:
#
# PCOD8167173 Si02
#       5
#     4   4   4   4   4
#     4  12  25  42  66  90 123 170 212 262 320 374
#     4  10  19  42  63  88 124 170 197 263 315 362
#     4  10  18  35  62  93 127 166 207 253 311 377
#     4  10  25  42  62  94 130 161 209 265 311 368
#     4   8  17  33  61  89 122 161 203 251 305 363
#
# _framework density 20.382076999999999
#
# number of rings (size 3 to 8) (size 9 to 14) (size 15 to 20)
#    0.000    2.400    4.000    1.200    5.600    1.600 
#    0.000    1.000    0.000    0.000    0.000    0.000 
#    0.000    0.000    0.000    0.000    0.000    0.000 
#
# Total GULP energy -247816.671159 kJ/mol
# GULP energy per Si atom -12390.833558 kJ/mol
# Density = 2.033569 g / cm^3
# Si number density = 20.382077 Si / 1000 Ang^3
#
#
#
# Elastic Constant Matrix: (Units=GPa)
#
#
# Indices 1 2 3 4 5 6 
#
# 1 143.8010 29.0471 16.9360 0.0000 0.0000 0.0000
# 2 29.0471 76.7169 17.0910 0.0000 0.0000 0.0000
# 3 16.9360 17.0910 105.6648 0.0000 0.0000 0.0000
# 4 0.0000 0.0000 0.0000 19.6591 0.0000 0.0000
# 5 0.0000 0.0000 0.0000 0.0000 17.7568 0.0000
# 6 0.0000 0.0000 0.0000 0.0000 0.0000 26.3184
#
#
#
# Elastic Compliance Matrix: (Units=1/GPa)
#
#
# Indices 1 2 3 4 5 6 
#
# 1 0.007591 -0.002701 -0.000780 0.000000 0.000000 0.000000
# 2 -0.002701 0.014483 -0.001910 0.000000 0.000000 0.000000
# 3 -0.000780 -0.001910 0.009898 0.000000 0.000000 0.000000
# 4 0.000000 0.000000 0.000000 0.050867 0.000000 0.000000
# 5 0.000000 0.000000 0.000000 0.000000 0.056316 0.000000
# 6 0.000000 0.000000 0.000000 0.000000 0.000000 0.037996
#
#
# Mechanical properties :
#
#
# Convention : Reuss Voigt Hill
#
# Bulk Modulus (GPa) = 47.18843 50.25900 48.72371
# Shear Modulus (GPa) = 25.64153 30.28744 27.96449
#
# Velocity S-wave (km/s) = 3.55074 3.85903 3.70809
# Velocity P-wave (km/s) = 6.32554 6.67593 6.50310
#
# Compressibility (1/GPa) = 0.02119164
#
# Stress axis : x y z
#
# Youngs Moduli (GPa) = 131.72786 69.04707 101.03266
#
# Poissons Ratio (x) = 0.18647 0.07880
# Poissons Ratio (y) = 0.35574 0.19294
# Poissons Ratio (z) = 0.10274 0.13186
#
# Static dielectric constant tensor:
#      x y z
#    x 3.669500 0.000000 0.000000 
#    y 0.000000 3.375520 0.000000 
#    z 0.000000 0.000000 4.011240 
# 
# 
# High freq. dielectric constant tensor:
#      x y z
#    x 1.788280 0.000000 0.000000 
#    y 0.000000 1.757620 0.000000 
#    z 0.000000 0.000000 1.821410 
# 
# From -- ./inp_files/2068.got.cif
#   From: 2010.03.12/outbox.cif.g09.slc.cpg/sg26_2_cif.got.tgz:2068.got - 2010.04.14 03:33:09.
