data_PCOD8167190
_publ_section_title
;
Structure prediction by ZEFSAII (Michael W. Deem and Ramdas Pophale) SiO2 
 PCOD8167190
Probable space group: P M C 21
;
_chemical_formula_sum "Si O2"
_cell_formula_units_Z 32
_cell_length_a 8.360120
_cell_length_b 5.194641
_cell_length_c 36.072081
_cell_angle_alpha 90.000000
_cell_angle_beta 90.000000
_cell_angle_gamma 90.000000
_cell_volume 1566.531917
_symmetry_space_group_name_H-M "P M C 21"
_symmetry_group_IT_number 26
_symmetry_cell_setting 'orthorhombic'
loop_
_space_group_symop_operation_xyz
x,y,z
-x,-y,1/2+z
-x,y,z
x,-y,1/2+z
loop_
_atom_site_type_symbol
_atom_site_label
_atom_site_fract_x
_atom_site_fract_y
_atom_site_fract_z
Si Si1 0.809675 0.998701 0.424850
Si Si2 0.808996 0.998316 0.008439
Si Si3 0.812841 0.490638 0.634829
Si Si4 0.309571 0.001715 0.757354
Si Si5 0.809711 0.498985 0.050666
Si Si6 0.310689 0.502228 0.798904
Si Si7 0.810065 0.501361 0.881813
Si Si8 0.687110 0.009316 0.173119
O O1 0.741886 0.999776 0.466602
O O2 0.745587 0.747248 0.403702
O O3 0.000000 0.999129 0.425932
O O4 0.745404 0.248717 0.403360
O O5 0.742967 0.247503 0.029918
O O6 0.000000 0.998285 0.008165
O O7 0.741590 0.748149 0.029464
O O8 0.748559 0.500784 0.592802
O O9 0.718891 0.705305 0.657929
O O10 0.000000 0.552704 0.636760
O O11 0.781343 0.205308 0.650061
O O12 0.500000 0.997202 0.758419
O O13 0.240577 0.252627 0.778036
O O14 0.239547 0.753240 0.778576
O O15 0.249152 0.000947 0.715166
O O16 0.000000 0.504059 0.049780
O O17 0.500000 0.501999 0.796154
O O18 0.260218 0.499510 0.841147
O O19 0.000000 0.501403 0.879532
O O20 0.500000 0.947288 0.171017
#
# Coordination Sequence:
#
# PCOD8167190 Si02
#       8
#     4   4   4   4   4   4   4   4
#     4   9  17  28  45  69 100 131 164 206 252 299
#     4   9  15  26  44  69  98 133 172 208 248 303
#     4  11  22  37  56  85 120 147 176 230 290 331
#     4   9  19  35  55  75  98 129 174 222 256 295
#     4   9  17  28  46  72 104 135 168 212 262 309
#     4  10  19  34  54  74  95 128 170 212 254 304
#     4  10  19  31  46  71 103 130 156 202 260 308
#     4  11  22  39  61  83 108 147 192 230 270 331
#
# _framework density 20.427289999999999
#
# number of rings (size 3 to 8) (size 9 to 14) (size 15 to 20)
#    0.000    2.250    0.000    3.750    0.000    7.000 
#    0.000    3.750    0.000    0.000    0.000   17.500 
#    0.000    0.000    0.000    0.000    0.000    0.000 
#
# Total GULP energy -396869.186441 kJ/mol
# GULP energy per Si atom -12402.162076 kJ/mol
# Density = 2.038080 g / cm^3
# Si number density = 20.427290 Si / 1000 Ang^3
#
#
#
# Elastic Constant Matrix: (Units=GPa)
#
#
# Indices 1 2 3 4 5 6 
#
# 1 14.2168 9.4515 11.7702 0.0000 0.0000 0.0000
# 2 9.4515 191.3618 91.3210 0.0000 0.0000 0.0000
# 3 11.7702 91.3210 192.6752 0.0000 0.0000 0.0000
# 4 0.0000 0.0000 0.0000 51.5105 0.0000 0.0000
# 5 0.0000 0.0000 0.0000 0.0000 55.9127 0.0000
# 6 0.0000 0.0000 0.0000 0.0000 0.0000 13.7851
#
#
#
# Elastic Compliance Matrix: (Units=1/GPa)
#
#
# Indices 1 2 3 4 5 6 
#
# 1 0.074646 -0.001952 -0.003635 0.000000 0.000000 0.000000
# 2 -0.001952 0.006804 -0.003106 0.000000 0.000000 0.000000
# 3 -0.003635 -0.003106 0.006884 0.000000 0.000000 0.000000
# 4 0.000000 0.000000 0.000000 0.019414 0.000000 0.000000
# 5 0.000000 0.000000 0.000000 0.000000 0.017885 0.000000
# 6 0.000000 0.000000 0.000000 0.000000 0.000000 0.072542
#
#
# Mechanical properties :
#
#
# Convention : Reuss Voigt Hill
#
# Bulk Modulus (GPa) = 14.09458 69.25991 41.67724
# Shear Modulus (GPa) = 20.90212 43.28907 32.09559
#
# Velocity S-wave (km/s) = 3.20229 4.60845 3.96815
# Velocity P-wave (km/s) = 4.53737 7.89280 6.43755
#
# Compressibility (1/GPa) = 0.07094927
#
# Stress axis : x y z
#
# Youngs Moduli (GPa) = 13.39650 146.96773 145.26229
#
# Poissons Ratio (x) = 0.28693 0.52798
# Poissons Ratio (y) = 0.02615 0.45114
# Poissons Ratio (z) = 0.04869 0.45644
#
# Static dielectric constant tensor:
#      x y z
#    x 3.039350 0.000000 0.000000 
#    y 0.000000 4.056260 0.000000 
#    z 0.000000 0.000000 3.908700 
# 
# 
# High freq. dielectric constant tensor:
#      x y z
#    x 1.741740 0.000000 0.000000 
#    y 0.000000 1.819150 0.000000 
#    z 0.000000 0.000000 1.817830 
# 
# From -- ./inp_files/5687.got.cif
#   From: 2010.03.12/outbox.cif.g09.slc.cpg/sg26_3_cif.got.tgz:5687.got - 2010.04.14 03:33:09.
