data_PCOD8167816
_publ_section_title
;
Structure prediction by ZEFSAII (Michael W. Deem and Ramdas Pophale) SiO2 
 PCOD8167816
Probable space group: P C C 2
;
_chemical_formula_sum "Si O2"
_cell_formula_units_Z 18
_cell_length_a 7.561713
_cell_length_b 7.733765
_cell_length_c 16.968605
_cell_angle_alpha 90.000000
_cell_angle_beta 90.000000
_cell_angle_gamma 90.000000
_cell_volume 992.332697
_symmetry_space_group_name_H-M "P C C 2"
_symmetry_group_IT_number 27
_symmetry_cell_setting 'orthorhombic'
loop_
_space_group_symop_operation_xyz
x,y,z
-x,-y,z
-x,y,1/2+z
x,-y,1/2+z
loop_
_atom_site_type_symbol
_atom_site_label
_atom_site_fract_x
_atom_site_fract_y
_atom_site_fract_z
Si Si1 0.705869 0.000001 0.236180
Si Si2 0.000000 0.000000 0.864477
Si Si3 0.000002 0.190655 0.015616
Si Si4 0.699545 0.694158 0.620076
Si Si5 0.699540 0.694162 0.120075
O O1 0.756277 0.171926 0.187611
O O2 0.500000 0.000000 0.260149
O O3 0.821681 0.000000 0.314441
O O4 0.756275 0.828077 0.187611
O O5 0.000000 0.828353 0.920414
O O6 0.175378 0.289880 0.043940
O O7 0.824631 0.289886 0.043942
O O8 0.000000 0.000000 0.055065
O O9 0.500003 0.734160 0.591797
O O10 0.715671 0.499998 0.654565
#
# Coordination Sequence:
#
# PCOD8167816 Si02
#       5
#     4   2   4   4   4
#     4  10  19  35  57  79 109 140 176 224 266 316
#     4  10  22  34  52  80 110 150 178 200 274 330
#     4  10  20  34  54  79 111 141 177 215 264 318
#     4  10  20  36  60  83 103 137 184 229 268 308
#     4  10  20  36  60  83 103 137 184 229 268 308
#
# _framework density 18.139077
#
# number of rings (size 3 to 8) (size 9 to 14) (size 15 to 20)
#    0.667    1.333    2.222    2.000    0.000    1.778 
#    0.000    4.444    0.000    5.333    0.000    0.000 
#    0.000    0.000    0.000    0.000    0.000    0.000 
#
# Total GULP energy -223133.722361 kJ/mol
# GULP energy per Si atom -12396.317909 kJ/mol
# Density = 1.809779 g / cm^3
# Si number density = 18.139077 Si / 1000 Ang^3
#
#
#
# Elastic Constant Matrix: (Units=GPa)
#
#
# Indices 1 2 3 4 5 6 
#
# 1 121.8710 36.0694 76.9424 0.0000 0.0000 0.0000
# 2 36.0694 118.8439 48.8698 0.0000 0.0000 0.0000
# 3 76.9424 48.8698 128.8725 0.0000 0.0000 0.0000
# 4 0.0000 0.0000 0.0000 13.3060 0.0000 0.0000
# 5 0.0000 0.0000 0.0000 0.0000 22.0849 0.0000
# 6 0.0000 0.0000 0.0000 0.0000 0.0000 25.5387
#
#
#
# Elastic Compliance Matrix: (Units=1/GPa)
#
#
# Indices 1 2 3 4 5 6 
#
# 1 0.013252 -0.000911 -0.007567 0.000000 0.000000 0.000000
# 2 -0.000911 0.010031 -0.003260 0.000000 0.000000 0.000000
# 3 -0.007567 -0.003260 0.013514 0.000000 0.000000 0.000000
# 4 0.000000 0.000000 0.000000 0.075154 0.000000 0.000000
# 5 0.000000 0.000000 0.000000 0.000000 0.045280 0.000000
# 6 0.000000 0.000000 0.000000 0.000000 0.000000 0.039156
#
#
# Mechanical properties :
#
#
# Convention : Reuss Voigt Hill
#
# Bulk Modulus (GPa) = 75.06489 77.03896 76.05193
# Shear Modulus (GPa) = 22.29124 26.03297 24.16210
#
# Velocity S-wave (km/s) = 3.50938 3.79250 3.65368
# Velocity P-wave (km/s) = 7.60880 7.85753 7.73417
#
# Compressibility (1/GPa) = 0.01332181
#
# Stress axis : x y z
#
# Youngs Moduli (GPa) = 75.45951 99.68639 73.99895
#
# Poissons Ratio (x) = 0.09077 0.55994
# Poissons Ratio (y) = 0.06871 0.24127
# Poissons Ratio (z) = 0.57099 0.32502
#
# Static dielectric constant tensor:
#      x y z
#    x 3.442400 0.000000 0.000000 
#    y 0.000000 3.495020 0.000000 
#    z 0.000000 0.000000 2.955050 
# 
# 
# High freq. dielectric constant tensor:
#      x y z
#    x 1.721190 0.000000 0.000000 
#    y 0.000000 1.708290 0.000000 
#    z 0.000000 0.000000 1.663810 
# 
# From -- ./inp_files/4201.got.cif
#   From: 2010.03.12/outbox.cif.g09.slc.cpg/sg27_3_cif.got.tgz:4201.got - 2010.04.14 03:36:05.
