data_PCOD8167913
_publ_section_title
;
Structure prediction by ZEFSAII (Michael W. Deem and Ramdas Pophale) SiO2 
 PCOD8167913
Probable space group: P C C 2
;
_chemical_formula_sum "Si O2"
_cell_formula_units_Z 26
_cell_length_a 8.557042
_cell_length_b 11.677211
_cell_length_c 11.330675
_cell_angle_alpha 90.000000
_cell_angle_beta 90.000000
_cell_angle_gamma 90.000000
_cell_volume 1132.188069
_symmetry_space_group_name_H-M "P C C 2"
_symmetry_group_IT_number 27
_symmetry_cell_setting 'orthorhombic'
loop_
_space_group_symop_operation_xyz
x,y,z
-x,-y,z
-x,y,1/2+z
x,-y,1/2+z
loop_
_atom_site_type_symbol
_atom_site_label
_atom_site_fract_x
_atom_site_fract_y
_atom_site_fract_z
Si Si1 0.293282 0.169314 0.127480
Si Si2 0.739186 0.538454 0.796888
Si Si3 0.446778 0.670114 0.794921
Si Si4 0.554244 0.113460 0.952997
Si Si5 0.931401 0.702675 0.960992
Si Si6 0.123764 0.897657 0.858663
Si Si7 0.000000 0.500000 0.117271
O O1 0.349718 0.287651 0.183246
O O2 0.210391 0.093803 0.231104
O O3 0.449355 0.108786 0.073371
O O4 0.167875 0.199447 0.027151
O O5 0.606960 0.620341 0.741689
O O6 0.655271 0.429002 0.859028
O O7 0.827770 0.611027 0.893486
O O8 0.847301 0.487143 0.696195
O O9 0.488220 0.770909 0.885414
O O10 0.744113 0.099360 0.963568
O O11 0.500000 0.000000 0.880397
O O12 0.041502 0.773218 0.871007
O O13 0.027829 0.619171 0.047204
O O14 0.000000 0.000000 0.873206
#
# Coordination Sequence:
#
# PCOD8167913 Si02
#       7
#     4   4   4   4   4   4   2
#     4  11  24  47  72 108 142 197 249 301 377 445
#     4  11  24  45  69 104 151 196 245 310 366 449
#     4  10  24  45  71 104 145 192 253 298 368 449
#     4  11  25  48  74 107 141 193 253 310 378 445
#     4  12  25  45  74 105 155 194 252 305 384 443
#     4  11  28  50  78 109 151 192 256 322 380 451
#     4  12  26  40  74 108 148 196 248 304 388 438
#
# _framework density 22.964383999999999
#
# number of rings (size 3 to 8) (size 9 to 14) (size 15 to 20)
#    0.000    0.923    3.077    2.308    8.615    4.308 
#    0.000    0.000    0.000    0.000    0.000    0.000 
#    0.000    0.000    0.000    0.000    0.000    0.000 
#
# Total GULP energy -322144.398616 kJ/mol
# GULP energy per Si atom -12390.169178 kJ/mol
# Density = 2.291212 g / cm^3
# Si number density = 22.964384 Si / 1000 Ang^3
#
#
#
# Elastic Constant Matrix: (Units=GPa)
#
#
# Indices 1 2 3 4 5 6 
#
# 1 142.4682 69.7015 51.5417 0.0000 0.0000 0.0000
# 2 69.7015 149.2540 35.8482 0.0000 0.0000 0.0000
# 3 51.5417 35.8482 86.9430 0.0000 0.0000 0.0000
# 4 0.0000 0.0000 0.0000 20.8418 0.0000 0.0000
# 5 0.0000 0.0000 0.0000 0.0000 45.8234 0.0000
# 6 0.0000 0.0000 0.0000 0.0000 0.0000 54.6744
#
#
#
# Elastic Compliance Matrix: (Units=1/GPa)
#
#
# Indices 1 2 3 4 5 6 
#
# 1 0.010587 -0.003814 -0.004703 0.000000 0.000000 0.000000
# 2 -0.003814 0.008811 -0.001372 0.000000 0.000000 0.000000
# 3 -0.004703 -0.001372 0.014856 0.000000 0.000000 0.000000
# 4 0.000000 0.000000 0.000000 0.047981 0.000000 0.000000
# 5 0.000000 0.000000 0.000000 0.000000 0.021823 0.000000
# 6 0.000000 0.000000 0.000000 0.000000 0.000000 0.018290
#
#
# Mechanical properties :
#
#
# Convention : Reuss Voigt Hill
#
# Bulk Modulus (GPa) = 69.08709 76.98311 73.03510
# Shear Modulus (GPa) = 34.02514 39.03950 36.53232
#
# Velocity S-wave (km/s) = 3.85339 4.12758 3.99284
# Velocity P-wave (km/s) = 7.06739 7.50410 7.28901
#
# Compressibility (1/GPa) = 0.01447448
#
# Stress axis : x y z
#
# Youngs Moduli (GPa) = 94.45702 113.49804 67.31485
#
# Poissons Ratio (x) = 0.43292 0.31661
# Poissons Ratio (y) = 0.36029 0.09233
# Poissons Ratio (z) = 0.44427 0.15567
#
# Static dielectric constant tensor:
#      x y z
#    x 4.770520 0.000000 0.000000 
#    y 0.000000 4.520870 0.000000 
#    z 0.000000 0.000000 3.874110 
# 
# 
# High freq. dielectric constant tensor:
#      x y z
#    x 1.927350 0.000000 0.000000 
#    y 0.000000 1.928590 0.000000 
#    z 0.000000 0.000000 1.872550 
# 
# From -- ./inp_files/2368.got.cif
#   From: 2010.03.12/outbox.cif.g09.slc.cpg/sg27_2_cif.got.tgz:2368.got - 2010.04.14 03:36:05.
