data_PCOD8167997
_publ_section_title
;
Structure prediction by ZEFSAII (Michael W. Deem and Ramdas Pophale) SiO2 
 PCOD8167997
Probable space group: P M A 2
;
_chemical_formula_sum "Si O2"
_cell_formula_units_Z 20
_cell_length_a 8.724731
_cell_length_b 14.864535
_cell_length_c 7.360957
_cell_angle_alpha 90.000000
_cell_angle_beta 90.000000
_cell_angle_gamma 90.000000
_cell_volume 954.635663
_symmetry_space_group_name_H-M "P M A 2"
_symmetry_group_IT_number 28
_symmetry_cell_setting 'orthorhombic'
loop_
_space_group_symop_operation_xyz
x,y,z
-x,-y,z
1/2-x,y,z
1/2+x,-y,z
loop_
_atom_site_type_symbol
_atom_site_label
_atom_site_fract_x
_atom_site_fract_y
_atom_site_fract_z
Si Si1 0.924928 0.282725 0.393680
Si Si2 0.929646 0.274037 0.970782
Si Si3 0.429352 0.402873 0.686069
Si Si4 0.070292 0.090041 0.974296
Si Si5 0.072643 0.915366 0.366174
O O1 0.750000 0.314644 0.423861
O O2 0.969442 0.288101 0.182168
O O3 0.944339 0.180069 0.467813
O O4 0.038057 0.345560 0.505336
O O5 0.750000 0.268600 0.937967
O O6 0.000583 0.181684 0.890884
O O7 0.997183 0.358154 0.863347
O O8 0.500000 0.500000 0.657206
O O9 0.250000 0.411250 0.716502
O O10 0.250000 0.090426 0.941692
O O11 0.028877 0.089107 0.185683
O O12 0.000000 0.000000 0.880429
O O13 0.250000 0.932352 0.315111
O O14 0.000000 0.000000 0.480131
#
# Coordination Sequence:
#
# PCOD8167997 Si02
#       5
#     4   4   4   4   4
#     4   9  20  39  62  88 119 156 195 240 292 344
#     4  10  21  40  64  89 120 156 197 244 293 348
#     4  12  26  43  64  88 116 151 193 245 301 356
#     4  10  17  28  50  82 119 157 197 237 284 342
#     4   9  16  28  50  81 117 156 195 236 284 338
#
# _framework density 20.950400999999999
#
# number of rings (size 3 to 8) (size 9 to 14) (size 15 to 20)
#    0.000    2.000    0.000    7.200    0.000    5.600 
#    0.000    1.000    0.000    2.400    0.000    0.000 
#    0.000    0.000    0.000    0.000    0.000    0.000 
#
# Total GULP energy -247933.825323 kJ/mol
# GULP energy per Si atom -12396.691266 kJ/mol
# Density = 2.090272 g / cm^3
# Si number density = 20.950401 Si / 1000 Ang^3
#
#
#
# Elastic Constant Matrix: (Units=GPa)
#
#
# Indices 1 2 3 4 5 6 
#
# 1 155.1784 67.1163 38.1673 0.0000 0.0000 0.0000
# 2 67.1163 159.9224 43.4038 0.0000 0.0000 0.0000
# 3 38.1673 43.4038 65.3953 0.0000 0.0000 0.0000
# 4 0.0000 0.0000 0.0000 78.4999 0.0000 0.0000
# 5 0.0000 0.0000 0.0000 0.0000 27.3999 0.0000
# 6 0.0000 0.0000 0.0000 0.0000 0.0000 41.5213
#
#
#
# Elastic Compliance Matrix: (Units=1/GPa)
#
#
# Indices 1 2 3 4 5 6 
#
# 1 0.008362 -0.002665 -0.003112 0.000000 0.000000 0.000000
# 2 -0.002665 0.008476 -0.004070 0.000000 0.000000 0.000000
# 3 -0.003112 -0.004070 0.019809 0.000000 0.000000 0.000000
# 4 0.000000 0.000000 0.000000 0.012739 0.000000 0.000000
# 5 0.000000 0.000000 0.000000 0.000000 0.036497 0.000000
# 6 0.000000 0.000000 0.000000 0.000000 0.000000 0.024084
#
#
# Mechanical properties :
#
#
# Convention : Reuss Voigt Hill
#
# Bulk Modulus (GPa) = 58.98472 75.31899 67.15186
# Shear Modulus (GPa) = 36.95153 44.93812 40.94483
#
# Velocity S-wave (km/s) = 4.20427 4.63641 4.42562
# Velocity P-wave (km/s) = 7.19607 8.04307 7.63133
#
# Compressibility (1/GPa) = 0.01695354
#
# Stress axis : x y z
#
# Youngs Moduli (GPa) = 119.58649 117.97789 50.48123
#
# Poissons Ratio (x) = 0.31440 0.15709
# Poissons Ratio (y) = 0.31868 0.20548
# Poissons Ratio (z) = 0.37212 0.48022
#
# Static dielectric constant tensor:
#      x y z
#    x 3.805960 0.000000 0.000000 
#    y 0.000000 4.350930 0.000000 
#    z 0.000000 0.000000 3.385150 
# 
# 
# High freq. dielectric constant tensor:
#      x y z
#    x 1.828040 0.000000 0.000000 
#    y 0.000000 1.835900 0.000000 
#    z 0.000000 0.000000 1.790420 
# 
# From -- ./inp_files/2370.got.cif
#   From: 2010.03.12/outbox.cif.g09.slc.cpg/sg28_2_cif.got.tgz:2370.got - 2010.04.14 03:39:34.
