data_PCOD8167328
_publ_section_title
;
Structure prediction by ZEFSAII (Michael W. Deem and Ramdas Pophale) SiO2 
 PCOD8167328
Probable space group: P M C 21
;
_chemical_formula_sum "Si O2"
_cell_formula_units_Z 32
_cell_length_a 9.222276
_cell_length_b 14.218800
_cell_length_c 12.506782
_cell_angle_alpha 90.000000
_cell_angle_beta 90.000000
_cell_angle_gamma 90.000000
_cell_volume 1640.010546
_symmetry_space_group_name_H-M "P M C 21"
_symmetry_group_IT_number 26
_symmetry_cell_setting 'orthorhombic'
loop_
_space_group_symop_operation_xyz
x,y,z
-x,-y,1/2+z
-x,y,z
x,-y,1/2+z
loop_
_atom_site_type_symbol
_atom_site_label
_atom_site_fract_x
_atom_site_fract_y
_atom_site_fract_z
Si Si1 0.333093 0.555429 0.174840
Si Si2 0.840373 0.372417 0.858777
Si Si3 0.669474 0.248242 0.568017
Si Si4 0.670058 0.643033 0.572587
Si Si5 0.828321 0.938016 0.456719
Si Si6 0.160169 0.826666 0.255292
Si Si7 0.168483 0.143953 0.398239
Si Si8 0.169614 0.816028 0.656381
O O1 0.500000 0.559576 0.210473
O O2 0.238775 0.552109 0.282990
O O3 0.295673 0.644060 0.099169
O O4 0.295631 0.461497 0.111694
O O5 0.860437 0.279231 0.791454
O O6 0.000000 0.410144 0.893569
O O7 0.740770 0.346424 0.957650
O O8 0.500000 0.229555 0.560907
O O9 0.735928 0.173415 0.652377
O O10 0.741015 0.228125 0.452605
O O11 0.500000 0.663182 0.565127
O O12 0.742574 0.718702 0.651115
O O13 0.766178 0.886448 0.350825
O O14 0.772297 0.888626 0.565654
O O15 0.000000 0.928070 0.451306
O O16 0.780062 0.046312 0.452336
O O17 0.000000 0.867381 0.223726
O O18 0.199875 0.138657 0.271777
O O19 0.000000 0.163380 0.419843
O O20 0.000000 0.794154 0.639008
#
# Coordination Sequence:
#
# PCOD8167328 Si02
#       8
#     4   4   4   4   4   4   4   4
#     4   9  21  39  57  80 112 156 202 236 285 353
#     4  10  19  34  57  85 112 142 187 248 296 333
#     4  10  21  38  57  80 116 152 188 242 291 340
#     4  11  22  37  59  84 116 159 196 234 290 358
#     4   9  18  35  60  86 112 147 190 238 288 344
#     4   9  17  33  59  83 106 141 188 238 285 338
#     4  10  22  37  60  87 116 157 195 237 291 352
#     4  10  21  39  59  87 120 148 194 249 292 340
#
# _framework density 19.512067999999999
#
# number of rings (size 3 to 8) (size 9 to 14) (size 15 to 20)
#    0.000    2.250    1.250    1.125    1.750    3.500 
#    0.000    5.000    0.000    0.000    0.000    0.000 
#    0.000    0.000    0.000    0.000    0.000    0.000 
#
# Total GULP energy -396777.628947 kJ/mol
# GULP energy per Si atom -12399.300905 kJ/mol
# Density = 1.946766 g / cm^3
# Si number density = 19.512068 Si / 1000 Ang^3
#
#
#
# Elastic Constant Matrix: (Units=GPa)
#
#
# Indices 1 2 3 4 5 6 
#
# 1 82.3232 42.6693 47.7566 0.0000 0.0000 0.0000
# 2 42.6693 90.5189 44.2036 0.0000 0.0000 0.0000
# 3 47.7566 44.2036 104.6053 0.0000 0.0000 0.0000
# 4 0.0000 0.0000 0.0000 16.6438 0.0000 0.0000
# 5 0.0000 0.0000 0.0000 0.0000 29.8492 0.0000
# 6 0.0000 0.0000 0.0000 0.0000 0.0000 16.9896
#
#
#
# Elastic Compliance Matrix: (Units=1/GPa)
#
#
# Indices 1 2 3 4 5 6 
#
# 1 0.018698 -0.005853 -0.006063 0.000000 0.000000 0.000000
# 2 -0.005853 0.015752 -0.003984 0.000000 0.000000 0.000000
# 3 -0.006063 -0.003984 0.014011 0.000000 0.000000 0.000000
# 4 0.000000 0.000000 0.000000 0.060082 0.000000 0.000000
# 5 0.000000 0.000000 0.000000 0.000000 0.033502 0.000000
# 6 0.000000 0.000000 0.000000 0.000000 0.000000 0.058860
#
#
# Mechanical properties :
#
#
# Convention : Reuss Voigt Hill
#
# Bulk Modulus (GPa) = 60.02132 60.74516 60.38324
# Shear Modulus (GPa) = 20.98542 22.21770 21.60156
#
# Velocity S-wave (km/s) = 3.28305 3.37807 3.33090
# Velocity P-wave (km/s) = 6.72303 6.81284 6.76809
#
# Compressibility (1/GPa) = 0.01666075
#
# Stress axis : x y z
#
# Youngs Moduli (GPa) = 53.48052 63.48306 71.37027
#
# Poissons Ratio (x) = 0.37159 0.43273
# Poissons Ratio (y) = 0.31304 0.28435
# Poissons Ratio (z) = 0.32426 0.25293
#
# Static dielectric constant tensor:
#      x y z
#    x 3.592350 0.000000 0.000000 
#    y 0.000000 3.541270 0.000000 
#    z 0.000000 0.000000 3.594950 
# 
# 
# High freq. dielectric constant tensor:
#      x y z
#    x 1.744290 0.000000 0.000000 
#    y 0.000000 1.752150 0.000000 
#    z 0.000000 0.000000 1.764580 
# 
# From -- ./inp_files/2961.got.cif
#   From: 2010.03.12/outbox.cif.g09.slc.cpg/sg26_2_cif.got.tgz:2961.got - 2010.04.14 03:33:09.
