data_PCOD8167582
_publ_section_title
;
Structure prediction by ZEFSAII (Michael W. Deem and Ramdas Pophale) SiO2 
 PCOD8167582
Probable space group: P M C 21
;
_chemical_formula_sum "Si O2"
_cell_formula_units_Z 24
_cell_length_a 8.348706
_cell_length_b 15.158691
_cell_length_c 9.350786
_cell_angle_alpha 90.000000
_cell_angle_beta 90.000000
_cell_angle_gamma 90.000000
_cell_volume 1183.392972
_symmetry_space_group_name_H-M "P M C 21"
_symmetry_group_IT_number 26
_symmetry_cell_setting 'orthorhombic'
loop_
_space_group_symop_operation_xyz
x,y,z
-x,-y,1/2+z
-x,y,z
x,-y,1/2+z
loop_
_atom_site_type_symbol
_atom_site_label
_atom_site_fract_x
_atom_site_fract_y
_atom_site_fract_z
Si Si1 0.690049 0.735949 0.327280
Si Si2 0.318099 0.069488 0.837860
Si Si3 0.814138 0.587724 0.128575
Si Si4 0.815092 0.280285 0.137218
Si Si5 0.315745 0.434898 0.315268
Si Si6 0.683881 0.090883 0.164499
O O1 0.500000 0.738518 0.349410
O O2 0.756977 0.835053 0.297489
O O3 0.739424 0.676194 0.194764
O O4 0.764726 0.699291 0.474260
O O5 0.500000 0.069502 0.782701
O O6 0.234969 0.985752 0.761422
O O7 0.305555 0.053804 0.005413
O O8 0.793048 0.507477 0.237999
O O9 0.000000 0.603349 0.097879
O O10 0.724755 0.566791 0.982063
O O11 0.713299 0.340123 0.244640
O O12 0.785655 0.179455 0.181785
O O13 0.000000 0.304155 0.155848
O O14 0.500000 0.462587 0.297540
O O15 0.500000 0.112301 0.206761
#
# Coordination Sequence:
#
# PCOD8167582 Si02
#       6
#     4   4   4   4   4   4
#     4  10  20  38  61  87 116 155 199 238 281 343
#     4   8  16  30  53  80 109 145 192 239 280 329
#     4  12  25  42  62  90 122 151 184 236 294 342
#     4  11  22  38  58  85 118 154 192 242 297 342
#     4  12  25  43  64  87 114 153 197 236 278 342
#     4   9  17  33  54  79 109 148 192 237 284 340
#
# _framework density 20.280670000000001
#
# number of rings (size 3 to 8) (size 9 to 14) (size 15 to 20)
#    0.000    1.667    0.000    7.000    0.000    1.333 
#    0.000    7.500    0.000    0.000    0.000    0.000 
#    0.000    0.000    0.000    0.000    0.000    0.000 
#
# Total GULP energy -297652.622657 kJ/mol
# GULP energy per Si atom -12402.192611 kJ/mol
# Density = 2.023451 g / cm^3
# Si number density = 20.280670 Si / 1000 Ang^3
#
#
#
# Elastic Constant Matrix: (Units=GPa)
#
#
# Indices 1 2 3 4 5 6 
#
# 1 66.4133 6.6365 8.1056 0.0000 0.0000 0.0000
# 2 6.6365 81.5373 32.5352 0.0000 0.0000 0.0000
# 3 8.1056 32.5352 72.9154 0.0000 0.0000 0.0000
# 4 0.0000 0.0000 0.0000 46.5578 0.0000 0.0000
# 5 0.0000 0.0000 0.0000 0.0000 24.0572 0.0000
# 6 0.0000 0.0000 0.0000 0.0000 0.0000 22.0980
#
#
#
# Elastic Compliance Matrix: (Units=1/GPa)
#
#
# Indices 1 2 3 4 5 6 
#
# 1 0.015296 -0.000689 -0.001393 0.000000 0.000000 0.000000
# 2 -0.000689 0.014952 -0.006595 0.000000 0.000000 0.000000
# 3 -0.001393 -0.006595 0.016812 0.000000 0.000000 0.000000
# 4 0.000000 0.000000 0.000000 0.021479 0.000000 0.000000
# 5 0.000000 0.000000 0.000000 0.000000 0.041568 0.000000
# 6 0.000000 0.000000 0.000000 0.000000 0.000000 0.045253
#
#
# Mechanical properties :
#
#
# Convention : Reuss Voigt Hill
#
# Bulk Modulus (GPa) = 33.66323 35.04671 34.35497
# Shear Modulus (GPa) = 27.37991 30.11517 28.74754
#
# Velocity S-wave (km/s) = 3.67829 3.85765 3.76903
# Velocity P-wave (km/s) = 5.88850 6.09592 5.99311
#
# Compressibility (1/GPa) = 0.02970600
#
# Stress axis : x y z
#
# Youngs Moduli (GPa) = 65.37621 66.88075 59.48096
#
# Poissons Ratio (x) = 0.04609 0.08285
# Poissons Ratio (y) = 0.04506 0.39228
# Poissons Ratio (z) = 0.09106 0.44108
#
# Static dielectric constant tensor:
#      x y z
#    x 3.508260 0.000000 0.000000 
#    y 0.000000 3.899000 0.000000 
#    z 0.000000 0.000000 3.651310 
# 
# 
# High freq. dielectric constant tensor:
#      x y z
#    x 1.778360 0.000000 0.000000 
#    y 0.000000 1.806900 0.000000 
#    z 0.000000 0.000000 1.790320 
# 
# From -- ./inp_files/1413.got.cif
#   From: 2010.03.12/outbox.cif.g09.slc.cpg/sg26_1_cif.got.tgz:1413.got - 2010.04.14 03:33:09.
