data_PCOD8167139
_publ_section_title
;
Structure prediction by ZEFSAII (Michael W. Deem and Ramdas Pophale) SiO2 
 PCOD8167139
Probable space group: P M C 21
;
_chemical_formula_sum "Si O2"
_cell_formula_units_Z 32
_cell_length_a 8.805135
_cell_length_b 14.596607
_cell_length_c 14.070893
_cell_angle_alpha 90.000000
_cell_angle_beta 90.000000
_cell_angle_gamma 90.000000
_cell_volume 1808.462862
_symmetry_space_group_name_H-M "P M C 21"
_symmetry_group_IT_number 26
_symmetry_cell_setting 'orthorhombic'
loop_
_space_group_symop_operation_xyz
x,y,z
-x,-y,1/2+z
-x,y,z
x,-y,1/2+z
loop_
_atom_site_type_symbol
_atom_site_label
_atom_site_fract_x
_atom_site_fract_y
_atom_site_fract_z
Si Si1 0.321317 0.516387 0.254360
Si Si2 0.678445 0.646082 0.419602
Si Si3 0.821250 0.364406 0.378591
Si Si4 0.820713 0.003678 0.807965
Si Si5 0.320140 0.476910 0.539426
Si Si6 0.318477 0.850154 0.439715
Si Si7 0.671681 0.919507 0.642298
Si Si8 0.671980 0.178071 0.325128
O O1 0.500000 0.497028 0.259786
O O2 0.275884 0.605041 0.316697
O O3 0.240772 0.425940 0.292948
O O4 0.266762 0.534508 0.147519
O O5 0.500000 0.655977 0.428186
O O6 0.736419 0.575772 0.500628
O O7 0.748523 0.746857 0.433645
O O8 0.755890 0.396041 0.479704
O O9 0.772975 0.260659 0.361433
O O10 0.000000 0.371470 0.381107
O O11 0.773571 0.997163 0.695609
O O12 0.746585 0.916848 0.863932
O O13 0.000000 0.002441 0.818882
O O14 0.753189 0.095968 0.851868
O O15 0.500000 0.467668 0.527377
O O16 0.500000 0.852163 0.432595
O O17 0.262080 0.894030 0.539203
O O18 0.500000 0.957223 0.633125
O O19 0.672612 0.827993 0.709271
O O20 0.500000 0.187447 0.363839
#
# Coordination Sequence:
#
# PCOD8167139 Si02
#       8
#     4   4   4   4   4   4   4   4
#     4   9  18  34  55  77 106 142 183 225 265 314
#     4   8  16  30  51  81 105 131 175 224 265 307
#     4  11  21  32  50  78 110 141 172 219 279 327
#     4  10  20  34  51  76 108 136 167 218 280 328
#     4   9  18  33  54  76 102 142 187 225 260 311
#     4  10  18  33  56  79 106 140 180 223 267 319
#     4   8  18  33  54  78 100 134 178 219 259 309
#     4   9  18  35  55  75  99 132 178 223 259 309
#
# _framework density 17.694583999999999
#
# number of rings (size 3 to 8) (size 9 to 14) (size 15 to 20)
#    0.750    2.000    0.000    3.000    1.750    1.000 
#    0.000    3.750    0.000    6.000    0.000    0.000 
#    0.000    0.000    0.000    0.000    0.000    0.000 
#
# Total GULP energy -396586.671657 kJ/mol
# GULP energy per Si atom -12393.333489 kJ/mol
# Density = 1.765431 g / cm^3
# Si number density = 17.694584 Si / 1000 Ang^3
#
#
#
# Elastic Constant Matrix: (Units=GPa)
#
#
# Indices 1 2 3 4 5 6 
#
# 1 53.9951 19.1507 29.9191 0.0000 0.0000 0.0000
# 2 19.1507 84.0800 41.3741 0.0000 0.0000 0.0000
# 3 29.9191 41.3741 116.4108 0.0000 0.0000 0.0000
# 4 0.0000 0.0000 0.0000 15.3118 0.0000 0.0000
# 5 0.0000 0.0000 0.0000 0.0000 13.3642 0.0000
# 6 0.0000 0.0000 0.0000 0.0000 0.0000 17.3114
#
#
#
# Elastic Compliance Matrix: (Units=1/GPa)
#
#
# Indices 1 2 3 4 5 6 
#
# 1 0.022095 -0.002712 -0.004715 0.000000 0.000000 0.000000
# 2 -0.002712 0.014747 -0.004544 0.000000 0.000000 0.000000
# 3 -0.004715 -0.004544 0.011417 0.000000 0.000000 0.000000
# 4 0.000000 0.000000 0.000000 0.065309 0.000000 0.000000
# 5 0.000000 0.000000 0.000000 0.000000 0.074827 0.000000
# 6 0.000000 0.000000 0.000000 0.000000 0.000000 0.057765
#
#
# Mechanical properties :
#
#
# Convention : Reuss Voigt Hill
#
# Bulk Modulus (GPa) = 41.12449 48.37488 44.74968
# Shear Modulus (GPa) = 17.97214 20.13362 19.05288
#
# Velocity S-wave (km/s) = 3.19044 3.37685 3.28497
# Velocity P-wave (km/s) = 6.07154 6.52704 6.30341
#
# Compressibility (1/GPa) = 0.02431641
#
# Stress axis : x y z
#
# Youngs Moduli (GPa) = 45.25990 67.80855 87.58810
#
# Poissons Ratio (x) = 0.18393 0.41294
# Poissons Ratio (y) = 0.12277 0.39803
# Poissons Ratio (z) = 0.21338 0.30814
#
# Static dielectric constant tensor:
#      x y z
#    x 3.040860 0.000000 0.000000 
#    y 0.000000 3.317730 0.000000 
#    z 0.000000 0.000000 3.319840 
# 
# 
# High freq. dielectric constant tensor:
#      x y z
#    x 1.667470 0.000000 0.000000 
#    y 0.000000 1.673780 0.000000 
#    z 0.000000 0.000000 1.675810 
# 
# From -- ./inp_files/4347.got.cif
#   From: 2010.03.12/outbox.cif.g09.slc.cpg/sg26_3_cif.got.tgz:4347.got - 2010.04.14 03:33:09.
