data_PCOD8167827
_publ_section_title
;
Structure prediction by ZEFSAII (Michael W. Deem and Ramdas Pophale) SiO2 
 PCOD8167827
Probable space group: P C C 2
;
_chemical_formula_sum "Si O2"
_cell_formula_units_Z 16
_cell_length_a 8.167673
_cell_length_b 4.980040
_cell_length_c 19.121244
_cell_angle_alpha 90.000000
_cell_angle_beta 90.000000
_cell_angle_gamma 90.000000
_cell_volume 777.763067
_symmetry_space_group_name_H-M "P C C 2"
_symmetry_group_IT_number 27
_symmetry_cell_setting 'orthorhombic'
loop_
_space_group_symop_operation_xyz
x,y,z
-x,-y,z
-x,y,1/2+z
x,-y,1/2+z
loop_
_atom_site_type_symbol
_atom_site_label
_atom_site_fract_x
_atom_site_fract_y
_atom_site_fract_z
Si Si1 0.316644 0.898289 0.119870
Si Si2 0.812564 0.595082 0.193240
Si Si3 0.116028 0.754818 0.990676
Si Si4 0.112937 0.750643 0.837680
O O1 0.304724 0.656504 0.176099
O O2 0.500000 0.000000 0.113779
O O3 0.206680 0.153671 0.141177
O O4 0.261790 0.765548 0.046686
O O5 0.766368 0.692458 0.272364
O O6 0.000000 0.500000 0.188655
O O7 0.200486 0.786218 0.913322
O O8 0.000000 0.500000 0.001520
O O9 0.000000 0.000000 0.005180
O O10 0.000000 0.500000 0.851179
O O11 0.000000 0.000000 0.816526
#
# Coordination Sequence:
#
# PCOD8167827 Si02
#       4
#     4   4   4   4
#     4  12  24  37  56  88 123 153 186 234 287 340
#     4  11  21  38  62  85 111 152 197 236 281 339
#     4  10  20  36  59  84 111 148 194 238 283 337
#     4   9  18  33  57  87 111 139 191 248 283 324
#
# _framework density 20.571819999999999
#
# number of rings (size 3 to 8) (size 9 to 14) (size 15 to 20)
#    0.000    1.500    0.000    8.250    0.000    0.000 
#    0.000    1.250    0.000   12.000    0.000    0.000 
#    0.000    0.000    0.000    0.000    0.000    0.000 
#
# Total GULP energy -198290.205454 kJ/mol
# GULP energy per Si atom -12393.137841 kJ/mol
# Density = 2.052500 g / cm^3
# Si number density = 20.571820 Si / 1000 Ang^3
#
#
#
# Elastic Constant Matrix: (Units=GPa)
#
#
# Indices 1 2 3 4 5 6 
#
# 1 78.4389 38.8015 72.9621 0.0000 0.0000 0.0000
# 2 38.8015 150.0929 55.1945 0.0000 0.0000 0.0000
# 3 72.9621 55.1945 176.2717 0.0000 0.0000 0.0000
# 4 0.0000 0.0000 0.0000 35.7023 0.0000 0.0000
# 5 0.0000 0.0000 0.0000 0.0000 8.6274 0.0000
# 6 0.0000 0.0000 0.0000 0.0000 0.0000 32.8715
#
#
#
# Elastic Compliance Matrix: (Units=1/GPa)
#
#
# Indices 1 2 3 4 5 6 
#
# 1 0.021588 -0.002594 -0.008124 0.000000 0.000000 0.000000
# 2 -0.002594 0.007841 -0.001382 0.000000 0.000000 0.000000
# 3 -0.008124 -0.001382 0.009468 0.000000 0.000000 0.000000
# 4 0.000000 0.000000 0.000000 0.028009 0.000000 0.000000
# 5 0.000000 0.000000 0.000000 0.000000 0.115910 0.000000
# 6 0.000000 0.000000 0.000000 0.000000 0.000000 0.030422
#
#
# Mechanical properties :
#
#
# Convention : Reuss Voigt Hill
#
# Bulk Modulus (GPa) = 68.02855 82.07995 75.05425
# Shear Modulus (GPa) = 20.63253 31.29659 25.96456
#
# Velocity S-wave (km/s) = 3.17038 3.90466 3.55652
# Velocity P-wave (km/s) = 6.82219 7.76623 7.30947
#
# Compressibility (1/GPa) = 0.01469971
#
# Stress axis : x y z
#
# Youngs Moduli (GPa) = 46.32175 127.53278 105.61646
#
# Poissons Ratio (x) = 0.33076 0.85799
# Poissons Ratio (y) = 0.12014 0.14593
# Poissons Ratio (z) = 0.37630 0.17621
#
# Static dielectric constant tensor:
#      x y z
#    x 3.121150 0.000000 0.000000 
#    y 0.000000 4.059850 0.000000 
#    z 0.000000 0.000000 4.551360 
# 
# 
# High freq. dielectric constant tensor:
#      x y z
#    x 1.739330 0.000000 0.000000 
#    y 0.000000 1.838030 0.000000 
#    z 0.000000 0.000000 1.828640 
# 
# From -- ./inp_files/3852.got.cif
#   From: 2010.03.12/outbox.cif.g09.slc.cpg/sg27_2_cif.got.tgz:3852.got - 2010.04.14 03:36:05.
