data_PCOD8167628
_publ_section_title
;
Structure prediction by ZEFSAII (Michael W. Deem and Ramdas Pophale) SiO2 
 PCOD8167628
Probable space group: P M C 21
;
_chemical_formula_sum "Si O2"
_cell_formula_units_Z 18
_cell_length_a 10.092543
_cell_length_b 18.337768
_cell_length_c 5.250864
_cell_angle_alpha 90.000000
_cell_angle_beta 90.000000
_cell_angle_gamma 90.000000
_cell_volume 971.802143
_symmetry_space_group_name_H-M "P M C 21"
_symmetry_group_IT_number 26
_symmetry_cell_setting 'orthorhombic'
loop_
_space_group_symop_operation_xyz
x,y,z
-x,-y,1/2+z
-x,y,z
x,-y,1/2+z
loop_
_atom_site_type_symbol
_atom_site_label
_atom_site_fract_x
_atom_site_fract_y
_atom_site_fract_z
Si Si1 0.650697 0.704910 0.148330
Si Si2 0.769107 0.660566 0.640227
Si Si3 0.850308 0.799554 0.396509
Si Si4 0.000000 0.453388 0.178968
Si Si5 0.843022 0.039027 0.022302
O O1 0.500000 0.732728 0.141408
O O2 0.673863 0.651998 0.392766
O O3 0.749193 0.774987 0.171595
O O4 0.682229 0.659299 0.895363
O O5 0.846324 0.738237 0.618887
O O6 0.869817 0.594310 0.643208
O O7 0.801752 0.876338 0.509814
O O8 0.000000 0.805902 0.286171
O O9 0.000000 0.484587 0.464350
O O10 0.000000 0.030493 0.024926
O O11 0.783256 0.996081 0.779041
#
# Coordination Sequence:
#
# PCOD8167628 Si02
#       5
#     4   4   4   2   4
#     4  10  21  36  60  85 115 152 195 238 279 334
#     4  10  21  37  59  86 113 149 193 231 284 336
#     4   9  20  34  60  86 113 146 198 246 283 339
#     4  12  24  40  64  94 126 146 182 238 296 342
#     4   9  18  30  46  77 115 147 180 233 298 341
#
# _framework density 18.522289000000001
#
# number of rings (size 3 to 8) (size 9 to 14) (size 15 to 20)
#    1.333    0.889    1.111    2.000    4.667    0.000 
#    0.000    0.000    0.000   14.667    0.000    0.000 
#    0.000    0.000    0.000    0.000    0.000    0.000 
#
# Total GULP energy -223047.850828 kJ/mol
# GULP energy per Si atom -12391.547268 kJ/mol
# Density = 1.848013 g / cm^3
# Si number density = 18.522289 Si / 1000 Ang^3
#
#
#
# Elastic Constant Matrix: (Units=GPa)
#
#
# Indices 1 2 3 4 5 6 
#
# 1 91.4345 25.7380 21.1697 0.0000 0.0000 0.0000
# 2 25.7380 89.8019 26.1403 0.0000 0.0000 0.0000
# 3 21.1697 26.1403 124.2843 0.0000 0.0000 0.0000
# 4 0.0000 0.0000 0.0000 22.3318 0.0000 0.0000
# 5 0.0000 0.0000 0.0000 0.0000 19.2708 0.0000
# 6 0.0000 0.0000 0.0000 0.0000 0.0000 2.1198
#
#
#
# Elastic Compliance Matrix: (Units=1/GPa)
#
#
# Indices 1 2 3 4 5 6 
#
# 1 0.012128 -0.003062 -0.001422 0.000000 0.000000 0.000000
# 2 -0.003062 0.012635 -0.002136 0.000000 0.000000 0.000000
# 3 -0.001422 -0.002136 0.008737 0.000000 0.000000 0.000000
# 4 0.000000 0.000000 0.000000 0.044779 0.000000 0.000000
# 5 0.000000 0.000000 0.000000 0.000000 0.051892 0.000000
# 6 0.000000 0.000000 0.000000 0.000000 0.000000 0.471739
#
#
# Mechanical properties :
#
#
# Convention : Reuss Voigt Hill
#
# Bulk Modulus (GPa) = 49.35623 50.17966 49.76795
# Shear Modulus (GPa) = 8.03983 24.24264 16.14123
#
# Velocity S-wave (km/s) = 2.08568 3.62171 2.95523
# Velocity P-wave (km/s) = 5.70130 6.68127 6.21064
#
# Compressibility (1/GPa) = 0.02026087
#
# Stress axis : x y z
#
# Youngs Moduli (GPa) = 82.45428 79.14534 114.44955
#
# Poissons Ratio (x) = 0.24235 0.16272
# Poissons Ratio (y) = 0.25248 0.24445
# Poissons Ratio (z) = 0.11723 0.16905
#
# Static dielectric constant tensor:
#      x y z
#    x 3.041450 0.000000 0.000000 
#    y 0.000000 3.239820 0.000000 
#    z 0.000000 0.000000 3.492420 
# 
# 
# High freq. dielectric constant tensor:
#      x y z
#    x 1.684590 0.000000 0.000000 
#    y 0.000000 1.704570 0.000000 
#    z 0.000000 0.000000 1.724760 
# 
# From -- ./inp_files/373.got.cif
#   From: 2010.03.12/outbox.cif.g09.slc.cpg/sg26_1_cif.got.tgz:373.got - 2010.04.14 03:33:09.
