data_PCOD8167206
_publ_section_title
;
Structure prediction by ZEFSAII (Michael W. Deem and Ramdas Pophale) SiO2 
 PCOD8167206
Probable space group: P M C 21
;
_chemical_formula_sum "Si O2"
_cell_formula_units_Z 32
_cell_length_a 9.297939
_cell_length_b 11.338547
_cell_length_c 16.499090
_cell_angle_alpha 90.000000
_cell_angle_beta 90.000000
_cell_angle_gamma 90.000000
_cell_volume 1739.418516
_symmetry_space_group_name_H-M "P M C 21"
_symmetry_group_IT_number 26
_symmetry_cell_setting 'orthorhombic'
loop_
_space_group_symop_operation_xyz
x,y,z
-x,-y,1/2+z
-x,y,z
x,-y,1/2+z
loop_
_atom_site_type_symbol
_atom_site_label
_atom_site_fract_x
_atom_site_fract_y
_atom_site_fract_z
Si Si1 0.169653 0.732470 0.955700
Si Si2 0.827741 0.304641 0.120134
Si Si3 0.838580 0.789454 0.191562
Si Si4 0.338422 0.151137 0.998537
Si Si5 0.164349 0.931918 0.345778
Si Si6 0.168834 0.187054 0.284676
Si Si7 0.167029 0.565564 0.095976
Si Si8 0.340171 0.098046 0.560863
O O1 0.209735 0.725548 0.860182
O O2 0.000000 0.747798 0.967033
O O3 0.225661 0.621855 0.010488
O O4 0.242543 0.851585 0.988464
O O5 0.762514 0.248293 0.039205
O O6 0.765921 0.241217 0.201606
O O7 0.766847 0.438801 0.118110
O O8 0.000000 0.296967 0.115988
O O9 0.829221 0.819515 0.285824
O O10 0.799520 0.653356 0.171213
O O11 0.727123 0.873665 0.147328
O O12 0.000000 0.814849 0.158693
O O13 0.500000 0.200289 0.982619
O O14 0.345912 0.042067 0.059355
O O15 0.271196 0.104375 0.915894
O O16 0.000000 0.950045 0.376882
O O17 0.219965 0.052773 0.302591
O O18 0.000000 0.184817 0.272512
O O19 0.000000 0.544602 0.084108
O O20 0.500000 0.152581 0.553800
#
# Coordination Sequence:
#
# PCOD8167206 Si02
#       8
#     4   4   4   4   4   4   4   4
#     4   9  16  31  54  78 106 139 176 222 266 308
#     4  10  20  36  55  78 107 143 183 221 266 319
#     4   9  18  33  55  82 107 133 171 220 266 314
#     4  11  23  36  50  74 110 144 174 217 269 318
#     4  10  19  33  54  81 106 137 177 217 271 327
#     4   9  17  30  53  81 106 135 177 224 268 315
#     4   8  16  32  53  79 107 137 175 218 264 310
#     4  10  19  31  50  77 105 138 173 209 264 321
#
# _framework density 18.396953
#
# number of rings (size 3 to 8) (size 9 to 14) (size 15 to 20)
#    0.000    2.500    1.250    2.250    0.000    3.000 
#    2.250    3.750    0.000    0.000    0.000    0.000 
#    0.000    0.000    0.000    0.000    0.000    0.000 
#
# Total GULP energy -396529.440451 kJ/mol
# GULP energy per Si atom -12391.545014 kJ/mol
# Density = 1.835508 g / cm^3
# Si number density = 18.396953 Si / 1000 Ang^3
#
#
#
# Elastic Constant Matrix: (Units=GPa)
#
#
# Indices 1 2 3 4 5 6 
#
# 1 59.4016 27.6767 25.7367 0.0000 0.0000 0.0000
# 2 27.6767 119.7074 60.3365 0.0000 0.0000 0.0000
# 3 25.7367 60.3365 91.8208 0.0000 0.0000 0.0000
# 4 0.0000 0.0000 0.0000 26.5818 0.0000 0.0000
# 5 0.0000 0.0000 0.0000 0.0000 11.7097 0.0000
# 6 0.0000 0.0000 0.0000 0.0000 0.0000 13.2995
#
#
#
# Elastic Compliance Matrix: (Units=1/GPa)
#
#
# Indices 1 2 3 4 5 6 
#
# 1 0.019708 -0.002650 -0.003783 0.000000 0.000000 0.000000
# 2 -0.002650 0.012847 -0.007699 0.000000 0.000000 0.000000
# 3 -0.003783 -0.007699 0.017010 0.000000 0.000000 0.000000
# 4 0.000000 0.000000 0.000000 0.037620 0.000000 0.000000
# 5 0.000000 0.000000 0.000000 0.000000 0.085399 0.000000
# 6 0.000000 0.000000 0.000000 0.000000 0.000000 0.075191
#
#
# Mechanical properties :
#
#
# Convention : Reuss Voigt Hill
#
# Bulk Modulus (GPa) = 46.94452 55.38106 51.16279
# Shear Modulus (GPa) = 17.65916 20.79687 19.22801
#
# Velocity S-wave (km/s) = 3.10158 3.36587 3.23642
# Velocity P-wave (km/s) = 6.19672 6.72861 6.46813
#
# Compressibility (1/GPa) = 0.02130174
#
# Stress axis : x y z
#
# Youngs Moduli (GPa) = 50.74032 77.83920 58.78813
#
# Poissons Ratio (x) = 0.20627 0.22238
# Poissons Ratio (y) = 0.13446 0.45262
# Poissons Ratio (z) = 0.19194 0.59929
#
# Static dielectric constant tensor:
#      x y z
#    x 3.180410 0.000000 0.000000 
#    y 0.000000 3.515740 0.000000 
#    z 0.000000 0.000000 3.475760 
# 
# 
# High freq. dielectric constant tensor:
#      x y z
#    x 1.682940 0.000000 0.000000 
#    y 0.000000 1.703190 0.000000 
#    z 0.000000 0.000000 1.712650 
# 
# From -- ./inp_files/4999.got.cif
#   From: 2010.03.12/outbox.cif.g09.slc.cpg/sg26_3_cif.got.tgz:4999.got - 2010.04.14 03:33:09.
