data_PCOD8167912
_publ_section_title
;
Structure prediction by ZEFSAII (Michael W. Deem and Ramdas Pophale) SiO2 
 PCOD8167912
Probable space group: P C C 2
;
_chemical_formula_sum "Si O2"
_cell_formula_units_Z 32
_cell_length_a 14.029881
_cell_length_b 8.586767
_cell_length_c 11.845552
_cell_angle_alpha 90.000000
_cell_angle_beta 90.000000
_cell_angle_gamma 90.000000
_cell_volume 1427.049276
_symmetry_space_group_name_H-M "P C C 2"
_symmetry_group_IT_number 27
_symmetry_cell_setting 'orthorhombic'
loop_
_space_group_symop_operation_xyz
x,y,z
-x,-y,z
-x,y,1/2+z
x,-y,1/2+z
loop_
_atom_site_type_symbol
_atom_site_label
_atom_site_fract_x
_atom_site_fract_y
_atom_site_fract_z
Si Si1 0.129176 0.761475 0.996430
Si Si2 0.734721 0.924737 0.650633
Si Si3 0.597927 0.449487 0.636571
Si Si4 0.902742 0.088766 0.779063
Si Si5 0.049899 0.339896 0.120098
Si Si6 0.355617 0.299310 0.820512
Si Si7 0.583672 0.871292 0.042544
Si Si8 0.778896 0.450522 0.482218
O O1 0.127601 0.903590 0.909066
O O2 0.209104 0.787473 0.089822
O O3 0.162311 0.600114 0.939048
O O4 0.023395 0.760419 0.046571
O O5 0.659640 0.842801 0.734253
O O6 0.812912 0.024629 0.714009
O O7 0.680873 0.031958 0.559200
O O8 0.500000 0.500000 0.574712
O O9 0.601288 0.546810 0.756280
O O10 0.585660 0.259061 0.644557
O O11 0.687702 0.495219 0.559489
O O12 0.925313 0.263117 0.738847
O O13 0.000000 0.000000 0.757367
O O14 0.148471 0.346351 0.052710
O O15 0.000000 0.500000 0.151139
O O16 0.418864 0.225877 0.923693
O O17 0.254717 0.354869 0.872633
O O18 0.500000 0.000000 0.050012
#
# Coordination Sequence:
#
# PCOD8167912 Si02
#       8
#     4   4   4   4   4   4   4   4
#     4  11  25  42  68 101 139 191 237 309 351 442
#     4  12  25  48  68 106 148 191 240 306 375 439
#     4  11  24  47  74 106 140 189 239 301 362 444
#     4  12  26  39  69 101 137 192 240 295 367 436
#     4  10  24  46  66  97 138 185 240 299 365 430
#     4  11  25  45  76 105 140 194 240 297 364 453
#     4  11  27  49  76 111 151 188 241 314 375 446
#     4  10  24  44  73 101 141 181 244 299 357 429
#
# _framework density 22.423894000000001
#
# number of rings (size 3 to 8) (size 9 to 14) (size 15 to 20)
#    0.000    1.000    2.500    3.000    7.000    5.000 
#    0.000    0.000    0.000    0.000    0.000    0.000 
#    0.000    0.000    0.000    0.000    0.000    0.000 
#
# Total GULP energy -396521.944037 kJ/mol
# GULP energy per Si atom -12391.310751 kJ/mol
# Density = 2.237286 g / cm^3
# Si number density = 22.423894 Si / 1000 Ang^3
#
#
#
# Elastic Constant Matrix: (Units=GPa)
#
#
# Indices 1 2 3 4 5 6 
#
# 1 133.1314 42.6341 33.5578 0.0000 0.0000 0.0000
# 2 42.6341 110.0516 55.8715 0.0000 0.0000 0.0000
# 3 33.5578 55.8715 92.0119 0.0000 0.0000 0.0000
# 4 0.0000 0.0000 0.0000 76.7630 0.0000 0.0000
# 5 0.0000 0.0000 0.0000 0.0000 21.1419 0.0000
# 6 0.0000 0.0000 0.0000 0.0000 0.0000 27.0968
#
#
#
# Elastic Compliance Matrix: (Units=1/GPa)
#
#
# Indices 1 2 3 4 5 6 
#
# 1 0.008742 -0.002556 -0.001636 0.000000 0.000000 0.000000
# 2 -0.002556 0.013884 -0.007498 0.000000 0.000000 0.000000
# 3 -0.001636 -0.007498 0.016018 0.000000 0.000000 0.000000
# 4 0.000000 0.000000 0.000000 0.013027 0.000000 0.000000
# 5 0.000000 0.000000 0.000000 0.000000 0.047299 0.000000
# 6 0.000000 0.000000 0.000000 0.000000 0.000000 0.036905
#
#
# Mechanical properties :
#
#
# Convention : Reuss Voigt Hill
#
# Bulk Modulus (GPa) = 65.51879 66.59130 66.05505
# Shear Modulus (GPa) = 30.42399 38.54243 34.48321
#
# Velocity S-wave (km/s) = 3.68743 4.15035 3.92572
# Velocity P-wave (km/s) = 6.88558 7.26142 7.07600
#
# Compressibility (1/GPa) = 0.01526280
#
# Stress axis : x y z
#
# Youngs Moduli (GPa) = 114.38504 72.02759 62.42971
#
# Poissons Ratio (x) = 0.18411 0.10216
# Poissons Ratio (y) = 0.29237 0.46811
# Poissons Ratio (z) = 0.18718 0.54008
#
# Static dielectric constant tensor:
#      x y z
#    x 4.118240 0.000000 0.000000 
#    y 0.000000 4.185730 0.000000 
#    z 0.000000 0.000000 3.924180 
# 
# 
# High freq. dielectric constant tensor:
#      x y z
#    x 1.895970 0.000000 0.000000 
#    y 0.000000 1.896000 0.000000 
#    z 0.000000 0.000000 1.869060 
# 
# From -- ./inp_files/2442.got.cif
#   From: 2010.03.12/outbox.cif.g09.slc.cpg/sg27_2_cif.got.tgz:2442.got - 2010.04.14 03:36:05.
