data_PCOD8167689
_publ_section_title
;
Structure prediction by ZEFSAII (Michael W. Deem and Ramdas Pophale) SiO2 
 PCOD8167689
Probable space group: P M C 21
;
_chemical_formula_sum "Si O2"
_cell_formula_units_Z 24
_cell_length_a 8.542784
_cell_length_b 11.819325
_cell_length_c 11.920035
_cell_angle_alpha 90.000000
_cell_angle_beta 90.000000
_cell_angle_gamma 90.000000
_cell_volume 1203.565225
_symmetry_space_group_name_H-M "P M C 21"
_symmetry_group_IT_number 26
_symmetry_cell_setting 'orthorhombic'
loop_
_space_group_symop_operation_xyz
x,y,z
-x,-y,1/2+z
-x,y,z
x,-y,1/2+z
loop_
_atom_site_type_symbol
_atom_site_label
_atom_site_fract_x
_atom_site_fract_y
_atom_site_fract_z
Si Si1 0.318770 0.915905 0.372790
Si Si2 0.817026 0.774494 0.180590
Si Si3 0.318770 0.415905 0.822889
Si Si4 0.818660 0.651021 0.760503
Si Si5 0.818660 0.848978 0.935175
Si Si6 0.182974 0.725506 0.515089
O O1 0.500000 0.899811 0.344749
O O2 0.219889 0.877561 0.264505
O O3 0.274282 0.838696 0.479399
O O4 0.284596 0.045245 0.399323
O O5 0.725718 0.661304 0.216279
O O6 0.000000 0.747086 0.183598
O O7 0.761713 0.807696 0.056664
O O8 0.500000 0.399811 0.850930
O O9 0.284595 0.545245 0.796356
O O10 0.219889 0.377561 0.931173
O O11 0.786682 0.750000 0.847839
O O12 0.761713 0.692304 0.639015
O O13 0.000000 0.614945 0.758159
O O14 0.000000 0.885056 0.937520
O O15 0.000000 0.752914 0.512081
#
# Coordination Sequence:
#
# PCOD8167689 Si02
#       6
#     4   4   4   4   4   4
#     4  11  23  39  61  90 125 158 194 244 305 359
#     4  10  21  40  65  88 117 159 206 246 289 352
#     4  11  23  39  61  90 125 158 194 244 305 359
#     4  10  23  41  63  90 118 155 204 250 292 347
#     4  10  23  41  63  90 118 155 204 250 292 347
#     4  10  21  40  65  88 117 159 206 246 289 352
#
# _framework density 19.940754999999999
#
# number of rings (size 3 to 8) (size 9 to 14) (size 15 to 20)
#    0.000    1.667    0.000    6.000    4.667    3.333 
#    0.000    0.000    0.000    0.000    0.000    0.000 
#    0.000    0.000    0.000    0.000    0.000    0.000 
#
# Total GULP energy -297746.023315 kJ/mol
# GULP energy per Si atom -12406.084305 kJ/mol
# Density = 1.989537 g / cm^3
# Si number density = 19.940755 Si / 1000 Ang^3
#
#
#
# Elastic Constant Matrix: (Units=GPa)
#
#
# Indices 1 2 3 4 5 6 
#
# 1 50.3497 21.6125 5.7495 0.0000 0.0000 0.0000
# 2 21.6125 110.0109 49.0768 0.0000 0.0000 0.0000
# 3 5.7495 49.0768 128.8788 0.0000 0.0000 0.0000
# 4 0.0000 0.0000 0.0000 18.8835 0.0000 0.0000
# 5 0.0000 0.0000 0.0000 0.0000 3.9819 0.0000
# 6 0.0000 0.0000 0.0000 0.0000 0.0000 24.3478
#
#
#
# Elastic Compliance Matrix: (Units=1/GPa)
#
#
# Indices 1 2 3 4 5 6 
#
# 1 0.021757 -0.004627 0.000792 0.000000 0.000000 0.000000
# 2 -0.004627 0.011934 -0.004338 0.000000 0.000000 0.000000
# 3 0.000792 -0.004338 0.009376 0.000000 0.000000 0.000000
# 4 0.000000 0.000000 0.000000 0.052956 0.000000 0.000000
# 5 0.000000 0.000000 0.000000 0.000000 0.251135 0.000000
# 6 0.000000 0.000000 0.000000 0.000000 0.000000 0.041071
#
#
# Mechanical properties :
#
#
# Convention : Reuss Voigt Hill
#
# Bulk Modulus (GPa) = 37.42637 49.12412 43.27524
# Shear Modulus (GPa) = 12.09235 23.62936 17.86086
#
# Velocity S-wave (km/s) = 2.46522 3.44609 2.99606
# Velocity P-wave (km/s) = 5.18774 6.36573 5.80668
#
# Compressibility (1/GPa) = 0.02671913
#
# Stress axis : x y z
#
# Youngs Moduli (GPa) = 45.96215 83.79146 106.65667
#
# Poissons Ratio (x) = 0.38774 -0.08442
# Poissons Ratio (y) = 0.21269 0.46269
# Poissons Ratio (z) = -0.03638 0.36350
#
# Static dielectric constant tensor:
#      x y z
#    x 3.595360 0.000000 0.000000 
#    y 0.000000 3.525240 0.000000 
#    z 0.000000 0.000000 3.769870 
# 
# 
# High freq. dielectric constant tensor:
#      x y z
#    x 1.778300 0.000000 0.000000 
#    y 0.000000 1.782240 0.000000 
#    z 0.000000 0.000000 1.785820 
# 
# From -- ./inp_files/2830.got.cif
#   From: 2010.03.12/outbox.cif.g09.slc.cpg/sg26_2_cif.got.tgz:2830.got - 2010.04.14 03:33:09.
