data_PCOD8167464
_publ_section_title
;
Structure prediction by ZEFSAII (Michael W. Deem and Ramdas Pophale) SiO2 
 PCOD8167464
Probable space group: P M C 21
;
_chemical_formula_sum "Si O2"
_cell_formula_units_Z 32
_cell_length_a 9.204474
_cell_length_b 11.165233
_cell_length_c 16.397104
_cell_angle_alpha 90.000000
_cell_angle_beta 90.000000
_cell_angle_gamma 90.000000
_cell_volume 1685.131966
_symmetry_space_group_name_H-M "P M C 21"
_symmetry_group_IT_number 26
_symmetry_cell_setting 'orthorhombic'
loop_
_space_group_symop_operation_xyz
x,y,z
-x,-y,1/2+z
-x,y,z
x,-y,1/2+z
loop_
_atom_site_type_symbol
_atom_site_label
_atom_site_fract_x
_atom_site_fract_y
_atom_site_fract_z
Si Si1 0.670062 0.176569 0.257210
Si Si2 0.330659 0.421338 0.635752
Si Si3 0.838649 0.800497 0.452585
Si Si4 0.157827 0.928070 0.619736
Si Si5 0.329697 0.080317 0.816805
Si Si6 0.170624 0.184930 0.668371
Si Si7 0.671701 0.436163 0.297598
Si Si8 0.330350 0.559853 0.466995
O O1 0.500000 0.189128 0.246711
O O2 0.732188 0.157709 0.167116
O O3 0.733095 0.299548 0.295311
O O4 0.712312 0.060138 0.310517
O O5 0.500000 0.393155 0.646784
O O6 0.244042 0.298246 0.625881
O O7 0.272553 0.492627 0.716575
O O8 0.302194 0.488217 0.550418
O O9 0.858862 0.880221 0.530764
O O10 0.719879 0.875341 0.403813
O O11 0.772436 0.673186 0.474353
O O12 0.000000 0.785955 0.412045
O O13 0.000000 0.925339 0.664307
O O14 0.209745 0.066439 0.616031
O O15 0.500000 0.100919 0.802792
O O16 0.240879 0.165730 0.756610
O O17 0.000000 0.209086 0.676456
O O18 0.500000 0.433401 0.293756
O O19 0.721042 0.491416 0.384297
O O20 0.500000 0.595280 0.459611
#
# Coordination Sequence:
#
# PCOD8167464 Si02
#       8
#     4   4   4   4   4   4   4   4
#     4   9  18  34  56  79 102 134 176 218 265 322
#     4  10  20  34  55  81 109 144 183 225 274 324
#     4  11  22  36  54  77 107 141 179 221 270 327
#     4   9  20  36  53  76 106 139 174 220 272 319
#     4  10  20  34  55  82 108 135 174 224 270 318
#     4  10  20  36  56  77 106 143 180 218 268 326
#     4   9  18  34  54  77 108 140 174 221 271 321
#     4  10  21  36  55  79 108 144 184 227 274 323
#
# _framework density 18.989609999999999
#
# number of rings (size 3 to 8) (size 9 to 14) (size 15 to 20)
#    0.000    2.250    0.000    2.625    0.000    5.500 
#    0.000    2.500    0.000    0.000    0.000    0.000 
#    0.000    0.000    0.000    0.000    0.000    0.000 
#
# Total GULP energy -396615.439365 kJ/mol
# GULP energy per Si atom -12394.232480 kJ/mol
# Density = 1.894639 g / cm^3
# Si number density = 18.989610 Si / 1000 Ang^3
#
#
#
# Elastic Constant Matrix: (Units=GPa)
#
#
# Indices 1 2 3 4 5 6 
#
# 1 57.2589 45.3926 30.9456 0.0000 0.0000 0.0000
# 2 45.3926 114.7006 55.0691 0.0000 0.0000 0.0000
# 3 30.9456 55.0691 110.2855 0.0000 0.0000 0.0000
# 4 0.0000 0.0000 0.0000 8.1926 0.0000 0.0000
# 5 0.0000 0.0000 0.0000 0.0000 21.7623 0.0000
# 6 0.0000 0.0000 0.0000 0.0000 0.0000 0.6881
#
#
#
# Elastic Compliance Matrix: (Units=1/GPa)
#
#
# Indices 1 2 3 4 5 6 
#
# 1 0.026112 -0.008966 -0.002850 0.000000 0.000000 0.000000
# 2 -0.008966 0.014546 -0.004747 0.000000 0.000000 0.000000
# 3 -0.002850 -0.004747 0.012238 0.000000 0.000000 0.000000
# 4 0.000000 0.000000 0.000000 0.122061 0.000000 0.000000
# 5 0.000000 0.000000 0.000000 0.000000 0.045951 0.000000
# 6 0.000000 0.000000 0.000000 0.000000 0.000000 1.453211
#
#
# Mechanical properties :
#
#
# Convention : Reuss Voigt Hill
#
# Bulk Modulus (GPa) = 50.58323 60.56219 55.57271
# Shear Modulus (GPa) = 2.91743 16.18446 9.55094
#
# Velocity S-wave (km/s) = 1.24083 2.92255 2.24510
# Velocity P-wave (km/s) = 5.36172 6.58406 6.00408
#
# Compressibility (1/GPa) = 0.01976940
#
# Stress axis : x y z
#
# Youngs Moduli (GPa) = 38.29585 68.74846 81.71463
#
# Poissons Ratio (x) = 0.61637 0.23291
# Poissons Ratio (y) = 0.34334 0.38794
# Poissons Ratio (z) = 0.10915 0.32638
#
# Static dielectric constant tensor:
#      x y z
#    x 3.502850 0.000000 0.000000 
#    y 0.000000 3.716580 0.000000 
#    z 0.000000 0.000000 3.470680 
# 
# 
# High freq. dielectric constant tensor:
#      x y z
#    x 1.729450 0.000000 0.000000 
#    y 0.000000 1.750410 0.000000 
#    z 0.000000 0.000000 1.731610 
# 
# From -- ./inp_files/4282.got.cif
#   From: 2010.03.12/outbox.cif.g09.slc.cpg/sg26_3_cif.got.tgz:4282.got - 2010.04.14 03:33:09.
