data_PCOD8167336
_publ_section_title
;
Structure prediction by ZEFSAII (Michael W. Deem and Ramdas Pophale) SiO2 
 PCOD8167336
Probable space group: P M C 21
;
_chemical_formula_sum "Si O2"
_cell_formula_units_Z 32
_cell_length_a 9.597610
_cell_length_b 11.815896
_cell_length_c 15.141147
_cell_angle_alpha 90.000000
_cell_angle_beta 90.000000
_cell_angle_gamma 90.000000
_cell_volume 1717.072110
_symmetry_space_group_name_H-M "P M C 21"
_symmetry_group_IT_number 26
_symmetry_cell_setting 'orthorhombic'
loop_
_space_group_symop_operation_xyz
x,y,z
-x,-y,1/2+z
-x,y,z
x,-y,1/2+z
loop_
_atom_site_type_symbol
_atom_site_label
_atom_site_fract_x
_atom_site_fract_y
_atom_site_fract_z
Si Si1 0.160759 0.246553 0.919560
Si Si2 0.663804 0.150072 0.268362
Si Si3 0.158489 0.732151 0.620283
Si Si4 0.340260 0.275111 0.630662
Si Si5 0.842768 0.511714 0.176304
Si Si6 0.336281 0.109144 0.783925
Si Si7 0.840169 0.499277 0.879156
Si Si8 0.660538 0.702213 0.933886
O O1 0.254601 0.158694 0.866906
O O2 0.213377 0.372840 0.897923
O O3 0.000000 0.233499 0.890254
O O4 0.180322 0.218936 0.022567
O O5 0.500000 0.162556 0.253125
O O6 0.737998 0.204563 0.184923
O O7 0.711739 0.211283 0.358626
O O8 0.709432 0.020197 0.273867
O O9 0.190074 0.597729 0.616614
O O10 0.000000 0.751204 0.652981
O O11 0.500000 0.304558 0.649512
O O12 0.258070 0.388335 0.650848
O O13 0.291307 0.173446 0.694120
O O14 0.317786 0.237664 0.528956
O O15 0.820013 0.472428 0.276654
O O16 0.000000 0.555342 0.162038
O O17 0.500000 0.120389 0.802963
O O18 0.749114 0.587326 0.934515
O O19 0.000000 0.512306 0.910013
O O20 0.500000 0.668907 0.918777
#
# Coordination Sequence:
#
# PCOD8167336 Si02
#       8
#     4   4   4   4   4   4   4   4
#     4  10  21  37  57  83 114 145 180 225 274 326
#     4  10  22  39  58  80 108 146 189 231 273 320
#     4  10  21  37  57  83 114 145 180 225 274 326
#     4  10  21  36  55  81 112 144 181 227 275 325
#     4  10  19  34  58  84 111 144 179 220 273 331
#     4  10  22  39  58  80 108 146 189 231 273 320
#     4  10  19  34  58  84 111 144 179 220 273 331
#     4  10  21  36  55  81 112 144 181 227 275 325
#
# _framework density 18.636374
#
# number of rings (size 3 to 8) (size 9 to 14) (size 15 to 20)
#    0.000    2.000    2.500    0.750    0.000    5.000 
#    0.000    2.500    0.000    0.000    0.000    0.000 
#    0.000    0.000    0.000    0.000    0.000    0.000 
#
# Total GULP energy -396905.947526 kJ/mol
# GULP energy per Si atom -12403.310860 kJ/mol
# Density = 1.859396 g / cm^3
# Si number density = 18.636374 Si / 1000 Ang^3
#
#
#
# Elastic Constant Matrix: (Units=GPa)
#
#
# Indices 1 2 3 4 5 6 
#
# 1 53.3398 49.9584 38.2783 0.0000 0.0000 0.0000
# 2 49.9584 115.0617 46.3503 0.0000 0.0000 0.0000
# 3 38.2783 46.3503 87.9086 0.0000 0.0000 0.0000
# 4 0.0000 0.0000 0.0000 13.4299 0.0000 0.0000
# 5 0.0000 0.0000 0.0000 0.0000 28.5884 0.0000
# 6 0.0000 0.0000 0.0000 0.0000 0.0000 13.6960
#
#
#
# Elastic Compliance Matrix: (Units=1/GPa)
#
#
# Indices 1 2 3 4 5 6 
#
# 1 0.037190 -0.012220 -0.009751 0.000000 0.000000 0.000000
# 2 -0.012220 0.015050 -0.002614 0.000000 0.000000 0.000000
# 3 -0.009751 -0.002614 0.017000 0.000000 0.000000 0.000000
# 4 0.000000 0.000000 0.000000 0.074461 0.000000 0.000000
# 5 0.000000 0.000000 0.000000 0.000000 0.034979 0.000000
# 6 0.000000 0.000000 0.000000 0.000000 0.000000 0.073014
#
#
# Mechanical properties :
#
#
# Convention : Reuss Voigt Hill
#
# Bulk Modulus (GPa) = 49.82548 58.38711 54.10629
# Shear Modulus (GPa) = 16.25732 19.25772 17.75752
#
# Velocity S-wave (km/s) = 2.95675 3.21805 3.09016
# Velocity P-wave (km/s) = 6.20082 6.72350 6.46744
#
# Compressibility (1/GPa) = 0.02007005
#
# Stress axis : x y z
#
# Youngs Moduli (GPa) = 26.88867 66.44661 58.82442
#
# Poissons Ratio (x) = 0.81195 0.57360
# Poissons Ratio (y) = 0.32857 0.15378
# Poissons Ratio (z) = 0.26219 0.17371
#
# Static dielectric constant tensor:
#      x y z
#    x 3.359930 0.000000 0.000000 
#    y 0.000000 3.316350 0.000000 
#    z 0.000000 0.000000 3.599010 
# 
# 
# High freq. dielectric constant tensor:
#      x y z
#    x 1.717360 0.000000 0.000000 
#    y 0.000000 1.714660 0.000000 
#    z 0.000000 0.000000 1.737030 
# 
# From -- ./inp_files/4170.got.cif
#   From: 2010.03.12/outbox.cif.g09.slc.cpg/sg26_3_cif.got.tgz:4170.got - 2010.04.14 03:33:09.
