data_PCOD8167959
_publ_section_title
;
Structure prediction by ZEFSAII (Michael W. Deem and Ramdas Pophale) SiO2 
 PCOD8167959
Probable space group: P C C 2
;
_chemical_formula_sum "Si O2"
_cell_formula_units_Z 22
_cell_length_a 7.468884
_cell_length_b 9.231164
_cell_length_c 13.994921
_cell_angle_alpha 90.000000
_cell_angle_beta 90.000000
_cell_angle_gamma 90.000000
_cell_volume 964.900724
_symmetry_space_group_name_H-M "P C C 2"
_symmetry_group_IT_number 27
_symmetry_cell_setting 'orthorhombic'
loop_
_space_group_symop_operation_xyz
x,y,z
-x,-y,z
-x,y,1/2+z
x,-y,1/2+z
loop_
_atom_site_type_symbol
_atom_site_label
_atom_site_fract_x
_atom_site_fract_y
_atom_site_fract_z
Si Si1 0.466870 0.331823 0.187240
Si Si2 0.760524 0.102493 0.253651
Si Si3 0.052235 0.777915 0.427779
Si Si4 0.684559 0.195826 0.849284
Si Si5 0.593976 0.652544 0.970273
Si Si6 0.000000 0.000000 0.586271
O O1 0.500000 0.500000 0.201660
O O2 0.623359 0.230936 0.230025
O O3 0.296235 0.294693 0.253714
O O4 0.428872 0.295565 0.078337
O O5 0.918852 0.155891 0.322499
O O6 0.675439 0.969174 0.312742
O O7 0.840745 0.059636 0.151503
O O8 0.192396 0.644955 0.444168
O O9 0.091204 0.882064 0.517171
O O10 0.838956 0.749940 0.423465
O O11 0.496563 0.225361 0.904014
O O12 0.500000 0.500000 0.949598
#
# Coordination Sequence:
#
# PCOD8167959 Si02
#       6
#     4   4   4   4   4   2
#     4  11  26  48  73 104 147 194 239 294 359 434
#     4  12  24  44  72 107 142 186 243 294 363 423
#     4  12  25  43  73 105 144 185 238 301 361 420
#     4  12  23  46  71 108 142 189 239 301 362 421
#     4  11  27  49  72 105 147 192 245 292 357 435
#     4  12  22  44  70 110 144 192 246 312 358 438
#
# _framework density 22.800272
#
# number of rings (size 3 to 8) (size 9 to 14) (size 15 to 20)
#    0.000    0.364    5.455    3.273    0.000    0.727 
#    0.000    0.000    0.000    0.000    0.000    0.000 
#    0.000    0.000    0.000    0.000    0.000    0.000 
#
# Total GULP energy -272600.901157 kJ/mol
# GULP energy per Si atom -12390.950053 kJ/mol
# Density = 2.274838 g / cm^3
# Si number density = 22.800272 Si / 1000 Ang^3
#
#
#
# Elastic Constant Matrix: (Units=GPa)
#
#
# Indices 1 2 3 4 5 6 
#
# 1 112.3261 43.4919 32.3764 0.0000 0.0000 0.0000
# 2 43.4919 104.5448 43.6822 0.0000 0.0000 0.0000
# 3 32.3764 43.6822 147.6804 0.0000 0.0000 0.0000
# 4 0.0000 0.0000 0.0000 15.5269 0.0000 0.0000
# 5 0.0000 0.0000 0.0000 0.0000 39.9280 0.0000
# 6 0.0000 0.0000 0.0000 0.0000 0.0000 34.6522
#
#
#
# Elastic Compliance Matrix: (Units=1/GPa)
#
#
# Indices 1 2 3 4 5 6 
#
# 1 0.010791 -0.003994 -0.001184 0.000000 0.000000 0.000000
# 2 -0.003994 0.012393 -0.002790 0.000000 0.000000 0.000000
# 3 -0.001184 -0.002790 0.007856 0.000000 0.000000 0.000000
# 4 0.000000 0.000000 0.000000 0.064404 0.000000 0.000000
# 5 0.000000 0.000000 0.000000 0.000000 0.025045 0.000000
# 6 0.000000 0.000000 0.000000 0.000000 0.000000 0.028858
#
#
# Mechanical properties :
#
#
# Convention : Reuss Voigt Hill
#
# Bulk Modulus (GPa) = 66.21329 67.07249 66.64289
# Shear Modulus (GPa) = 29.35690 34.35482 31.85586
#
# Velocity S-wave (km/s) = 3.59216 3.88593 3.74193
# Velocity P-wave (km/s) = 6.80503 7.04380 6.92545
#
# Compressibility (1/GPa) = 0.01510271
#
# Stress axis : x y z
#
# Youngs Moduli (GPa) = 92.67409 80.69307 127.28753
#
# Poissons Ratio (x) = 0.32230 0.15073
# Poissons Ratio (y) = 0.37016 0.35513
# Poissons Ratio (z) = 0.10974 0.22513
#
# Static dielectric constant tensor:
#      x y z
#    x 4.138620 0.000000 0.000000 
#    y 0.000000 4.056550 0.000000 
#    z 0.000000 0.000000 4.550320 
# 
# 
# High freq. dielectric constant tensor:
#      x y z
#    x 1.901530 0.000000 0.000000 
#    y 0.000000 1.882490 0.000000 
#    z 0.000000 0.000000 1.932560 
# 
# From -- ./inp_files/3327.got.cif
#   From: 2010.03.12/outbox.cif.g09.slc.cpg/sg27_2_cif.got.tgz:3327.got - 2010.04.14 03:36:05.
