data_PCOD8167737
_publ_section_title
;
Structure prediction by ZEFSAII (Michael W. Deem and Ramdas Pophale) SiO2 
 PCOD8167737
Probable space group: P M C 21
;
_chemical_formula_sum "Si O2"
_cell_formula_units_Z 24
_cell_length_a 11.052490
_cell_length_b 10.670261
_cell_length_c 9.245454
_cell_angle_alpha 90.000000
_cell_angle_beta 90.000000
_cell_angle_gamma 90.000000
_cell_volume 1090.343692
_symmetry_space_group_name_H-M "P M C 21"
_symmetry_group_IT_number 26
_symmetry_cell_setting 'orthorhombic'
loop_
_space_group_symop_operation_xyz
x,y,z
-x,-y,1/2+z
-x,y,z
x,-y,1/2+z
loop_
_atom_site_type_symbol
_atom_site_label
_atom_site_fract_x
_atom_site_fract_y
_atom_site_fract_z
Si Si1 0.864315 0.739201 0.097810
Si Si2 0.323314 0.853512 0.290961
Si Si3 0.363806 0.915742 0.612455
Si Si4 0.219291 0.462200 0.143741
Si Si5 0.139129 0.781407 0.773014
Si Si6 0.370779 0.584972 0.371487
O O1 0.807928 0.819278 0.228019
O O2 0.851666 0.590376 0.117977
O O3 0.000000 0.779460 0.109788
O O4 0.817612 0.778570 0.939433
O O5 0.322015 0.922419 0.445804
O O6 0.392567 0.721681 0.301407
O O7 0.384859 0.945252 0.174748
O O8 0.500000 0.850693 0.624023
O O9 0.250114 0.852712 0.694998
O O10 0.129964 0.359617 0.211163
O O11 0.330860 0.485757 0.251209
O O12 0.271380 0.404851 0.996128
O O13 0.000000 0.836425 0.754931
O O14 0.500000 0.537836 0.432132
#
# Coordination Sequence:
#
# PCOD8167737 Si02
#       6
#     4   4   4   4   4   4
#     4  10  23  44  67  97 137 176 227 281 338 410
#     4  11  25  43  68  98 133 179 228 279 341 401
#     4  12  25  45  70  99 137 180 230 284 341 405
#     4  11  21  40  63  98 134 177 223 275 339 406
#     4  11  24  43  68  98 134 180 230 280 338 405
#     4  11  22  39  64  98 139 178 224 277 339 407
#
# _framework density 22.011407999999999
#
# number of rings (size 3 to 8) (size 9 to 14) (size 15 to 20)
#    0.000    1.000    3.333    3.500    0.000    2.000 
#    0.000    1.667    0.000    0.000    0.000    0.000 
#    0.000    0.000    0.000    0.000    0.000    0.000 
#
# Total GULP energy -297313.631193 kJ/mol
# GULP energy per Si atom -12388.067966 kJ/mol
# Density = 2.196131 g / cm^3
# Si number density = 22.011408 Si / 1000 Ang^3
#
#
#
# Elastic Constant Matrix: (Units=GPa)
#
#
# Indices 1 2 3 4 5 6 
#
# 1 97.4069 39.2876 65.0922 0.0000 0.0000 0.0000
# 2 39.2876 72.5297 37.2181 0.0000 0.0000 0.0000
# 3 65.0922 37.2181 136.2330 0.0000 0.0000 0.0000
# 4 0.0000 0.0000 0.0000 44.9121 0.0000 0.0000
# 5 0.0000 0.0000 0.0000 0.0000 18.9171 0.0000
# 6 0.0000 0.0000 0.0000 0.0000 0.0000 -20.8610
#
#
#
# Elastic Compliance Matrix: (Units=1/GPa)
#
#
# Indices 1 2 3 4 5 6 
#
# 1 0.016981 -0.005856 -0.006514 0.000000 0.000000 0.000000
# 2 -0.005856 0.018055 -0.002135 0.000000 0.000000 0.000000
# 3 -0.006514 -0.002135 0.011036 0.000000 0.000000 0.000000
# 4 0.000000 0.000000 0.000000 0.022266 0.000000 0.000000
# 5 0.000000 0.000000 0.000000 0.000000 0.052862 0.000000
# 6 0.000000 0.000000 0.000000 0.000000 0.000000 -0.047936
#
#
# Mechanical properties :
#
#
# Convention : Reuss Voigt Hill
#
# Bulk Modulus (GPa) = 58.60511 65.48501 62.04506
# Shear Modulus (GPa) = 46.31408 19.56508 32.93958
#
# Velocity S-wave (km/s) = 4.59202 2.98461 3.87263
# Velocity P-wave (km/s) = 7.40258 6.45696 6.94588
#
# Compressibility (1/GPa) = 0.01706336
#
# Stress axis : x y z
#
# Youngs Moduli (GPa) = 58.89020 55.38733 90.61437
#
# Poissons Ratio (x) = 0.32433 0.59023
# Poissons Ratio (y) = 0.34484 0.19343
# Poissons Ratio (z) = 0.38359 0.11823
#
# Static dielectric constant tensor:
#      x y z
#    x 3.968980 0.000000 0.000000 
#    y 0.000000 3.909750 0.000000 
#    z 0.000000 0.000000 4.288980 
# 
# 
# High freq. dielectric constant tensor:
#      x y z
#    x 1.871560 0.000000 0.000000 
#    y 0.000000 1.856940 0.000000 
#    z 0.000000 0.000000 1.875830 
# 
# From -- ./inp_files/1801.got.cif
#   From: 2010.03.12/outbox.cif.g09.slc.cpg/sg26_1_cif.got.tgz:1801.got - 2010.04.14 03:33:09.
