data_PCOD8167534
_publ_section_title
;
Structure prediction by ZEFSAII (Michael W. Deem and Ramdas Pophale) SiO2 
 PCOD8167534
Probable space group: P M C 21
;
_chemical_formula_sum "Si O2"
_cell_formula_units_Z 32
_cell_length_a 8.823661
_cell_length_b 11.887367
_cell_length_c 14.298900
_cell_angle_alpha 90.000000
_cell_angle_beta 90.000000
_cell_angle_gamma 90.000000
_cell_volume 1499.813002
_symmetry_space_group_name_H-M "P M C 21"
_symmetry_group_IT_number 26
_symmetry_cell_setting 'orthorhombic'
loop_
_space_group_symop_operation_xyz
x,y,z
-x,-y,1/2+z
-x,y,z
x,-y,1/2+z
loop_
_atom_site_type_symbol
_atom_site_label
_atom_site_fract_x
_atom_site_fract_y
_atom_site_fract_z
Si Si1 0.323097 0.117567 0.068490
Si Si2 0.175736 0.600058 0.159456
Si Si3 0.322087 0.326555 0.482458
Si Si4 0.821847 0.908190 0.963683
Si Si5 0.669450 0.311552 0.939089
Si Si6 0.332108 0.799634 0.246537
Si Si7 0.674142 0.947469 0.769329
Si Si8 0.177539 0.515275 0.847147
O O1 0.500000 0.093889 0.048357
O O2 0.290610 0.129432 0.179177
O O3 0.274519 0.239765 0.028372
O O4 0.230635 0.017519 0.019962
O O5 0.270202 0.585295 0.063708
O O6 0.204754 0.725915 0.196439
O O7 0.229967 0.513093 0.240634
O O8 0.000000 0.584225 0.136741
O O9 0.500000 0.318973 0.476971
O O10 0.256275 0.203540 0.505423
O O11 0.261164 0.372351 0.382667
O O12 0.782750 0.915923 0.854024
O O13 0.000000 0.894798 0.974893
O O14 0.500000 0.361704 0.953791
O O15 0.668241 0.220344 0.856834
O O16 0.782574 0.412902 0.916839
O O17 0.500000 0.770452 0.205179
O O18 0.291657 0.928492 0.230258
O O19 0.500000 0.935864 0.803191
O O20 0.000000 0.535823 0.850999
#
# Coordination Sequence:
#
# PCOD8167534 Si02
#       8
#     4   4   4   4   4   4   4   4
#     4  10  20  37  62  91 123 162 207 250 296 360
#     4  10  21  38  63  94 124 155 199 254 310 364
#     4  12  25  43  66  89 120 163 211 254 300 365
#     4  12  25  40  61  90 128 165 202 254 313 367
#     4   9  17  33  57  85 116 152 199 247 293 350
#     4   9  16  30  55  84 118 158 202 248 289 346
#     4  10  20  36  58  86 121 163 204 247 299 360
#     4  10  22  41  64  91 122 156 198 254 312 360
#
# _framework density 21.335992999999998
#
# number of rings (size 3 to 8) (size 9 to 14) (size 15 to 20)
#    0.000    1.750    1.250    3.750    0.000    4.000 
#    2.250    0.000    0.000    0.000    0.000    0.000 
#    0.000    0.000    0.000    0.000    0.000    0.000 
#
# Total GULP energy -396797.777100 kJ/mol
# GULP energy per Si atom -12399.930534 kJ/mol
# Density = 2.128743 g / cm^3
# Si number density = 21.335993 Si / 1000 Ang^3
#
#
#
# Elastic Constant Matrix: (Units=GPa)
#
#
# Indices 1 2 3 4 5 6 
#
# 1 107.8486 18.8072 29.7590 0.0000 0.0000 0.0000
# 2 18.8072 31.9526 2.5213 0.0000 0.0000 0.0000
# 3 29.7590 2.5213 83.7692 0.0000 0.0000 0.0000
# 4 0.0000 0.0000 0.0000 29.9191 0.0000 0.0000
# 5 0.0000 0.0000 0.0000 0.0000 30.6267 0.0000
# 6 0.0000 0.0000 0.0000 0.0000 0.0000 31.6448
#
#
#
# Elastic Compliance Matrix: (Units=1/GPa)
#
#
# Indices 1 2 3 4 5 6 
#
# 1 0.011466 -0.006443 -0.003879 0.000000 0.000000 0.000000
# 2 -0.006443 0.034991 0.001236 0.000000 0.000000 0.000000
# 3 -0.003879 0.001236 0.013279 0.000000 0.000000 0.000000
# 4 0.000000 0.000000 0.000000 0.033423 0.000000 0.000000
# 5 0.000000 0.000000 0.000000 0.000000 0.032651 0.000000
# 6 0.000000 0.000000 0.000000 0.000000 0.000000 0.031601
#
#
# Mechanical properties :
#
#
# Convention : Reuss Voigt Hill
#
# Bulk Modulus (GPa) = 24.06013 36.19395 30.12704
# Shear Modulus (GPa) = 26.39370 29.93696 28.16533
#
# Velocity S-wave (km/s) = 3.52099 3.74989 3.63724
# Velocity P-wave (km/s) = 5.27552 5.97909 5.63829
#
# Compressibility (1/GPa) = 0.04156254
#
# Stress axis : x y z
#
# Youngs Moduli (GPa) = 87.21220 28.57866 75.30945
#
# Poissons Ratio (x) = 0.18413 0.29216
# Poissons Ratio (y) = 0.56190 -0.09306
# Poissons Ratio (z) = 0.33834 -0.03531
#
# Static dielectric constant tensor:
#      x y z
#    x 3.674010 0.000000 0.000000 
#    y 0.000000 3.664940 0.000000 
#    z 0.000000 0.000000 4.070710 
# 
# 
# High freq. dielectric constant tensor:
#      x y z
#    x 1.825160 0.000000 0.000000 
#    y 0.000000 1.822700 0.000000 
#    z 0.000000 0.000000 1.846140 
# 
# From -- ./inp_files/4204.got.cif
#   From: 2010.03.12/outbox.cif.g09.slc.cpg/sg26_3_cif.got.tgz:4204.got - 2010.04.14 03:33:09.
