data_PCOD8167667
_publ_section_title
;
Structure prediction by ZEFSAII (Michael W. Deem and Ramdas Pophale) SiO2 
 PCOD8167667
Probable space group: P M C 21
;
_chemical_formula_sum "Si O2"
_cell_formula_units_Z 32
_cell_length_a 12.941360
_cell_length_b 11.775049
_cell_length_c 9.508541
_cell_angle_alpha 90.000000
_cell_angle_beta 90.000000
_cell_angle_gamma 90.000000
_cell_volume 1448.960429
_symmetry_space_group_name_H-M "P M C 21"
_symmetry_group_IT_number 26
_symmetry_cell_setting 'orthorhombic'
loop_
_space_group_symop_operation_xyz
x,y,z
-x,-y,1/2+z
-x,y,z
x,-y,1/2+z
loop_
_atom_site_type_symbol
_atom_site_label
_atom_site_fract_x
_atom_site_fract_y
_atom_site_fract_z
Si Si1 0.121911 0.899603 0.814060
Si Si2 0.879288 0.318397 0.811246
Si Si3 0.219019 0.264588 0.521571
Si Si4 0.122524 0.891524 0.498691
Si Si5 0.377363 0.916247 0.973411
Si Si6 0.620345 0.622190 0.613694
Si Si7 0.277174 0.492818 0.377361
Si Si8 0.622445 0.876238 0.659782
O O1 0.149036 0.784551 0.895821
O O2 0.172201 0.897907 0.656371
O O3 0.000000 0.909297 0.795302
O O4 0.166080 0.005195 0.904313
O O5 0.847839 0.265932 0.662213
O O6 0.847357 0.228432 0.930815
O O7 0.826359 0.438014 0.843861
O O8 0.000000 0.342573 0.810798
O O9 0.321402 0.188788 0.551123
O O10 0.252398 0.390251 0.481031
O O11 0.000000 0.904170 0.509152
O O12 0.500000 0.897099 0.986675
O O13 0.335595 0.914063 0.812888
O O14 0.341680 0.035882 0.039672
O O15 0.500000 0.618484 0.645867
O O16 0.675429 0.547005 0.731313
O O17 0.642425 0.574065 0.458602
O O18 0.662492 0.750984 0.621050
O O19 0.500000 0.877680 0.668957
#
# Coordination Sequence:
#
# PCOD8167667 Si02
#       8
#     4   4   4   4   4   4   4   4
#     4  10  21  38  64  97 132 173 224 279 349 417
#     4  11  26  47  67  95 139 179 231 296 343 410
#     4  12  25  41  66  98 132 180 230 281 342 422
#     4   9  20  40  66  95 130 174 220 281 349 412
#     4  10  22  41  64  96 137 174 218 280 342 409
#     4  11  24  47  73  99 140 181 231 294 340 409
#     4  12  26  46  67 103 132 180 240 274 348 413
#     4   9  20  40  67  97 134 179 220 271 347 408
#
# _framework density 22.084799
#
# number of rings (size 3 to 8) (size 9 to 14) (size 15 to 20)
#    0.000    1.500    2.500    1.500    1.750    7.500 
#    0.000    1.250    0.000    0.000    0.000    0.000 
#    0.000    0.000    0.000    0.000    0.000    0.000 
#
# Total GULP energy -396995.230773 kJ/mol
# GULP energy per Si atom -12406.100962 kJ/mol
# Density = 2.203453 g / cm^3
# Si number density = 22.084799 Si / 1000 Ang^3
#
#
#
# Elastic Constant Matrix: (Units=GPa)
#
#
# Indices 1 2 3 4 5 6 
#
# 1 62.5559 50.3602 44.5871 0.0000 0.0000 0.0000
# 2 50.3602 173.4174 78.8884 0.0000 0.0000 0.0000
# 3 44.5871 78.8884 133.3094 0.0000 0.0000 0.0000
# 4 0.0000 0.0000 0.0000 44.8151 0.0000 0.0000
# 5 0.0000 0.0000 0.0000 0.0000 42.4144 0.0000
# 6 0.0000 0.0000 0.0000 0.0000 0.0000 38.4307
#
#
#
# Elastic Compliance Matrix: (Units=1/GPa)
#
#
# Indices 1 2 3 4 5 6 
#
# 1 0.023198 -0.004388 -0.005162 0.000000 0.000000 0.000000
# 2 -0.004388 0.008721 -0.003693 0.000000 0.000000 0.000000
# 3 -0.005162 -0.003693 0.011413 0.000000 0.000000 0.000000
# 4 0.000000 0.000000 0.000000 0.022314 0.000000 0.000000
# 5 0.000000 0.000000 0.000000 0.000000 0.023577 0.000000
# 6 0.000000 0.000000 0.000000 0.000000 0.000000 0.026021
#
#
# Mechanical properties :
#
#
# Convention : Reuss Voigt Hill
#
# Bulk Modulus (GPa) = 59.36394 79.66156 69.51275
# Shear Modulus (GPa) = 33.93405 38.16186 36.04795
#
# Velocity S-wave (km/s) = 3.92412 4.16139 4.04450
# Velocity P-wave (km/s) = 6.88984 7.69667 7.30440
#
# Compressibility (1/GPa) = 0.01684524
#
# Stress axis : x y z
#
# Youngs Moduli (GPa) = 43.10774 114.66906 87.61837
#
# Poissons Ratio (x) = 0.50322 0.45227
# Poissons Ratio (y) = 0.18918 0.32357
# Poissons Ratio (z) = 0.22251 0.42346
#
# Static dielectric constant tensor:
#      x y z
#    x 4.005760 0.000000 0.000000 
#    y 0.000000 4.022630 0.000000 
#    z 0.000000 0.000000 4.159580 
# 
# 
# High freq. dielectric constant tensor:
#      x y z
#    x 1.892750 0.000000 0.000000 
#    y 0.000000 1.871410 0.000000 
#    z 0.000000 0.000000 1.879640 
# 
# From -- ./inp_files/2251.got.cif
#   From: 2010.03.12/outbox.cif.g09.slc.cpg/sg26_2_cif.got.tgz:2251.got - 2010.04.14 03:33:09.
