data_PCOD8167370
_publ_section_title
;
Structure prediction by ZEFSAII (Michael W. Deem and Ramdas Pophale) SiO2 
 PCOD8167370
Probable space group: P M C 21
;
_chemical_formula_sum "Si O2"
_cell_formula_units_Z 32
_cell_length_a 8.388045
_cell_length_b 20.420700
_cell_length_c 8.827223
_cell_angle_alpha 90.000000
_cell_angle_beta 90.000000
_cell_angle_gamma 90.000000
_cell_volume 1512.012826
_symmetry_space_group_name_H-M "P M C 21"
_symmetry_group_IT_number 26
_symmetry_cell_setting 'orthorhombic'
loop_
_space_group_symop_operation_xyz
x,y,z
-x,-y,1/2+z
-x,y,z
x,-y,1/2+z
loop_
_atom_site_type_symbol
_atom_site_label
_atom_site_fract_x
_atom_site_fract_y
_atom_site_fract_z
Si Si1 0.690123 0.440900 0.242080
Si Si2 0.184456 0.696555 0.248770
Si Si3 0.184793 0.071747 0.432267
Si Si4 0.683566 0.684302 0.924037
Si Si5 0.815021 0.828122 0.411448
Si Si6 0.317187 0.954039 0.257431
Si Si7 0.683468 0.813074 0.738187
Si Si8 0.686835 0.430378 0.904551
O O1 0.500000 0.440112 0.235276
O O2 0.749164 0.382593 0.350814
O O3 0.757962 0.509114 0.308094
O O4 0.761279 0.430640 0.073435
O O5 0.246086 0.763328 0.325605
O O6 0.280872 0.636966 0.319861
O O7 0.000000 0.685677 0.284404
O O8 0.211966 0.701304 0.069879
O O9 0.283027 0.056693 0.582162
O O10 0.252798 0.138594 0.365929
O O11 0.000000 0.080807 0.472120
O O12 0.205719 0.012757 0.314281
O O13 0.500000 0.677530 0.975205
O O14 0.703907 0.739776 0.797977
O O15 0.713554 0.888696 0.352028
O O16 0.789960 0.820571 0.589717
O O17 0.000000 0.841317 0.377070
O O18 0.500000 0.974955 0.278569
O O19 0.500000 0.828876 0.699890
O O20 0.500000 0.440932 0.917873
#
# Coordination Sequence:
#
# PCOD8167370 Si02
#       8
#     4   4   4   4   4   4   4   4
#     4   9  18  34  59  89 114 147 194 244 294 350
#     4  11  24  39  57  84 119 156 197 241 293 353
#     4  12  25  43  65  91 126 165 200 240 299 366
#     4  10  21  38  61  87 117 153 197 244 295 350
#     4  11  24  42  62  87 121 162 201 243 301 365
#     4  12  25  43  66  93 123 157 204 257 298 344
#     4  11  23  40  64  94 122 154 199 250 298 351
#     4  10  19  35  60  85 114 150 194 243 294 351
#
# _framework density 21.163841999999999
#
# number of rings (size 3 to 8) (size 9 to 14) (size 15 to 20)
#    0.000    1.250    0.000    6.375    0.000    8.000 
#    0.000    3.125    0.000    0.000    0.000    0.000 
#    0.000    0.000    0.000    0.000    0.000    0.000 
#
# Total GULP energy -397029.677069 kJ/mol
# GULP energy per Si atom -12407.177408 kJ/mol
# Density = 2.111567 g / cm^3
# Si number density = 21.163842 Si / 1000 Ang^3
#
#
#
# Elastic Constant Matrix: (Units=GPa)
#
#
# Indices 1 2 3 4 5 6 
#
# 1 46.0690 20.9353 9.7488 0.0000 0.0000 0.0000
# 2 20.9353 85.8673 -2.2553 0.0000 0.0000 0.0000
# 3 9.7488 -2.2553 92.4517 0.0000 0.0000 0.0000
# 4 0.0000 0.0000 0.0000 42.6654 0.0000 0.0000
# 5 0.0000 0.0000 0.0000 0.0000 27.0392 0.0000
# 6 0.0000 0.0000 0.0000 0.0000 0.0000 20.0593
#
#
#
# Elastic Compliance Matrix: (Units=1/GPa)
#
#
# Indices 1 2 3 4 5 6 
#
# 1 0.025115 -0.006197 -0.002799 0.000000 0.000000 0.000000
# 2 -0.006197 0.013182 0.000975 0.000000 0.000000 0.000000
# 3 -0.002799 0.000975 0.011135 0.000000 0.000000 0.000000
# 4 0.000000 0.000000 0.000000 0.023438 0.000000 0.000000
# 5 0.000000 0.000000 0.000000 0.000000 0.036983 0.000000
# 6 0.000000 0.000000 0.000000 0.000000 0.000000 0.049852
#
#
# Mechanical properties :
#
#
# Convention : Reuss Voigt Hill
#
# Bulk Modulus (GPa) = 29.94888 31.24950 30.59919
# Shear Modulus (GPa) = 26.75526 31.01674 28.88600
#
# Velocity S-wave (km/s) = 3.55941 3.83241 3.69843
# Velocity P-wave (km/s) = 5.57443 5.86351 5.72079
#
# Compressibility (1/GPa) = 0.03339023
#
# Stress axis : x y z
#
# Youngs Moduli (GPa) = 39.81679 75.85910 89.80340
#
# Poissons Ratio (x) = 0.47009 0.25140
# Poissons Ratio (y) = 0.24674 -0.08756
# Poissons Ratio (z) = 0.11147 -0.07396
#
# Static dielectric constant tensor:
#      x y z
#    x 3.614360 0.000000 0.000000 
#    y 0.000000 4.014670 0.000000 
#    z 0.000000 0.000000 3.952420 
# 
# 
# High freq. dielectric constant tensor:
#      x y z
#    x 1.812340 0.000000 0.000000 
#    y 0.000000 1.846460 0.000000 
#    z 0.000000 0.000000 1.845050 
# 
# From -- ./inp_files/1596.got.cif
#   From: 2010.03.12/outbox.cif.g09.slc.cpg/sg26_1_cif.got.tgz:1596.got - 2010.04.14 03:33:09.
