data_PCOD8167674
_publ_section_title
;
Structure prediction by ZEFSAII (Michael W. Deem and Ramdas Pophale) SiO2 
 PCOD8167674
Probable space group: P M C 21
;
_chemical_formula_sum "Si O2"
_cell_formula_units_Z 32
_cell_length_a 21.950914
_cell_length_b 5.312276
_cell_length_c 12.630047
_cell_angle_alpha 90.000000
_cell_angle_beta 90.000000
_cell_angle_gamma 90.000000
_cell_volume 1472.781112
_symmetry_space_group_name_H-M "P M C 21"
_symmetry_group_IT_number 26
_symmetry_cell_setting 'orthorhombic'
loop_
_space_group_symop_operation_xyz
x,y,z
-x,-y,1/2+z
-x,y,z
x,-y,1/2+z
loop_
_atom_site_type_symbol
_atom_site_label
_atom_site_fract_x
_atom_site_fract_y
_atom_site_fract_z
Si Si1 0.847405 0.733690 0.300590
Si Si2 0.346865 0.792699 0.431189
Si Si3 0.428625 0.111771 0.748687
Si Si4 0.232331 0.926416 0.953843
Si Si5 0.266366 0.530710 0.786693
Si Si6 0.119980 0.913415 0.086981
Si Si7 0.070734 0.417230 0.982554
Si Si8 0.374733 0.620136 0.650240
O O1 0.798180 0.560349 0.237284
O O2 0.883298 0.901218 0.214665
O O3 0.895967 0.575214 0.368702
O O4 0.807120 0.894088 0.379957
O O5 0.402703 0.924879 0.368827
O O6 0.310454 0.681958 0.331840
O O7 0.371618 0.604848 0.521867
O O8 0.298783 0.975069 0.490542
O O9 0.500000 0.143805 0.760313
O O10 0.404037 0.361128 0.689648
O O11 0.414690 0.861816 0.681497
O O12 0.246726 0.677487 0.890768
O O13 0.191040 0.875450 0.056284
O O14 0.306196 0.669106 0.696869
O O15 0.081033 0.683837 0.039312
O O16 0.093735 0.183066 0.053169
O O17 0.000000 0.380215 0.960675
#
# Coordination Sequence:
#
# PCOD8167674 Si02
#       8
#     4   4   4   4   4   4   4   4
#     4  10  24  40  65  95 131 170 211 262 330 381
#     4  10  24  40  65  95 131 170 211 262 330 381
#     4  11  25  45  63  92 129 169 226 273 309 379
#     4  10  21  39  62  98 131 162 205 265 320 391
#     4  10  21  39  62  98 131 162 205 265 320 391
#     4  11  25  41  68  96 129 171 215 264 329 386
#     4  11  25  45  63  92 129 169 226 273 309 379
#     4  11  25  41  68  96 129 171 215 264 329 386
#
# _framework density 21.727602000000001
#
# number of rings (size 3 to 8) (size 9 to 14) (size 15 to 20)
#    0.000    1.500    2.500    0.750    7.000    2.000 
#    0.000    0.000    0.000    0.000    0.000    0.000 
#    0.000    0.000    0.000    0.000    0.000    0.000 
#
# Total GULP energy -396563.327313 kJ/mol
# GULP energy per Si atom -12392.603979 kJ/mol
# Density = 2.167815 g / cm^3
# Si number density = 21.727602 Si / 1000 Ang^3
#
#
#
# Elastic Constant Matrix: (Units=GPa)
#
#
# Indices 1 2 3 4 5 6 
#
# 1 128.8398 18.1404 32.8068 0.0000 0.0000 0.0000
# 2 18.1404 84.2495 2.4370 0.0000 0.0000 0.0000
# 3 32.8068 2.4370 87.6364 0.0000 0.0000 0.0000
# 4 0.0000 0.0000 0.0000 18.8578 0.0000 0.0000
# 5 0.0000 0.0000 0.0000 0.0000 13.8704 0.0000
# 6 0.0000 0.0000 0.0000 0.0000 0.0000 32.0638
#
#
#
# Elastic Compliance Matrix: (Units=1/GPa)
#
#
# Indices 1 2 3 4 5 6 
#
# 1 0.008847 -0.001811 -0.003262 0.000000 0.000000 0.000000
# 2 -0.001811 0.012250 0.000337 0.000000 0.000000 0.000000
# 3 -0.003262 0.000337 0.012622 0.000000 0.000000 0.000000
# 4 0.000000 0.000000 0.000000 0.053029 0.000000 0.000000
# 5 0.000000 0.000000 0.000000 0.000000 0.072096 0.000000
# 6 0.000000 0.000000 0.000000 0.000000 0.000000 0.031188
#
#
# Mechanical properties :
#
#
# Convention : Reuss Voigt Hill
#
# Bulk Modulus (GPa) = 41.23872 45.27712 43.25792
# Shear Modulus (GPa) = 24.08661 29.44783 26.76722
#
# Velocity S-wave (km/s) = 3.33313 3.68546 3.51372
# Velocity P-wave (km/s) = 5.81671 6.24451 6.03440
#
# Compressibility (1/GPa) = 0.02424906
#
# Stress axis : x y z
#
# Youngs Moduli (GPa) = 113.03271 81.63529 79.22446
#
# Poissons Ratio (x) = 0.14781 0.25839
# Poissons Ratio (y) = 0.20465 -0.02671
# Poissons Ratio (z) = 0.36866 -0.02752
#
# Static dielectric constant tensor:
#      x y z
#    x 4.345640 0.000000 0.000000 
#    y 0.000000 3.907020 0.000000 
#    z 0.000000 0.000000 3.832360 
# 
# 
# High freq. dielectric constant tensor:
#      x y z
#    x 1.858570 0.000000 0.000000 
#    y 0.000000 1.849590 0.000000 
#    z 0.000000 0.000000 1.849480 
# 
# From -- ./inp_files/3727.got.cif
#   From: 2010.03.12/outbox.cif.g09.slc.cpg/sg26_2_cif.got.tgz:3727.got - 2010.04.14 03:33:09.
