data_PCOD8167750
_publ_section_title
;
Structure prediction by ZEFSAII (Michael W. Deem and Ramdas Pophale) SiO2 
 PCOD8167750
Probable space group: P M C 21
;
_chemical_formula_sum "Si O2"
_cell_formula_units_Z 32
_cell_length_a 14.263461
_cell_length_b 13.781410
_cell_length_c 9.693710
_cell_angle_alpha 90.000000
_cell_angle_beta 90.000000
_cell_angle_gamma 90.000000
_cell_volume 1905.498430
_symmetry_space_group_name_H-M "P M C 21"
_symmetry_group_IT_number 26
_symmetry_cell_setting 'orthorhombic'
loop_
_space_group_symop_operation_xyz
x,y,z
-x,-y,1/2+z
-x,y,z
x,-y,1/2+z
loop_
_atom_site_type_symbol
_atom_site_label
_atom_site_fract_x
_atom_site_fract_y
_atom_site_fract_z
Si Si1 0.399176 0.915206 0.224570
Si Si2 0.201699 0.899765 0.148476
Si Si3 0.601402 0.895244 0.544478
Si Si4 0.109464 0.420262 0.466752
Si Si5 0.891162 0.796833 0.381629
Si Si6 0.112132 0.409649 0.775158
Si Si7 0.203690 0.872103 0.634646
Si Si8 0.890588 0.796800 0.898524
O O1 0.500000 0.860662 0.200986
O O2 0.309949 0.860833 0.155955
O O3 0.381523 0.931764 0.387860
O O4 0.405346 0.018515 0.152979
O O5 0.158098 0.884062 0.299351
O O6 0.197926 0.012648 0.108849
O O7 0.138984 0.836120 0.047112
O O8 0.500000 0.839109 0.551177
O O9 0.691717 0.832858 0.594205
O O10 0.153053 0.423190 0.620642
O O11 0.153455 0.504528 0.371301
O O12 0.128008 0.317799 0.393189
O O13 0.000000 0.439435 0.482221
O O14 0.851169 0.692306 0.335500
O O15 0.871409 0.814705 0.542399
O O16 0.000000 0.801783 0.351864
O O17 0.000000 0.411627 0.773704
O O18 0.177657 0.848757 0.790940
O O19 0.000000 0.821041 0.872130
#
# Coordination Sequence:
#
# PCOD8167750 Si02
#       8
#     4   4   4   4   4   4   4   4
#     4   9  18  32  51  72  94 125 166 215 263 298
#     4  11  21  35  50  69 101 141 174 208 243 291
#     4   9  18  33  51  71  95 125 166 216 263 296
#     4   9  18  33  51  70  92 124 164 212 262 294
#     4  11  21  34  49  70 101 136 175 207 242 294
#     4   9  18  32  51  70  92 124 164 213 260 296
#     4  11  23  33  48  74 100 141 176 206 242 289
#     4  11  23  36  49  70 105 140 175 211 243 290
#
# _framework density 16.793507000000002
#
# number of rings (size 3 to 8) (size 9 to 14) (size 15 to 20)
#    0.000    2.000    2.500    1.500    7.000    3.000 
#    0.000    0.000    0.000    0.000    0.000    0.000 
#    0.000    6.000    0.000    0.000    0.000    0.000 
#
# Total GULP energy -396547.300694 kJ/mol
# GULP energy per Si atom -12392.103147 kJ/mol
# Density = 1.675528 g / cm^3
# Si number density = 16.793507 Si / 1000 Ang^3
#
#
#
# Elastic Constant Matrix: (Units=GPa)
#
#
# Indices 1 2 3 4 5 6 
#
# 1 85.5198 36.3543 26.2722 0.0000 0.0000 0.0000
# 2 36.3543 57.6004 22.5850 0.0000 0.0000 0.0000
# 3 26.2722 22.5850 70.4620 0.0000 0.0000 0.0000
# 4 0.0000 0.0000 0.0000 25.6687 0.0000 0.0000
# 5 0.0000 0.0000 0.0000 0.0000 24.9024 0.0000
# 6 0.0000 0.0000 0.0000 0.0000 0.0000 1.6450
#
#
#
# Elastic Compliance Matrix: (Units=1/GPa)
#
#
# Indices 1 2 3 4 5 6 
#
# 1 0.016603 -0.009209 -0.003239 0.000000 0.000000 0.000000
# 2 -0.009209 0.024964 -0.004568 0.000000 0.000000 0.000000
# 3 -0.003239 -0.004568 0.016864 0.000000 0.000000 0.000000
# 4 0.000000 0.000000 0.000000 0.038958 0.000000 0.000000
# 5 0.000000 0.000000 0.000000 0.000000 0.040157 0.000000
# 6 0.000000 0.000000 0.000000 0.000000 0.000000 0.607912
#
#
# Mechanical properties :
#
#
# Convention : Reuss Voigt Hill
#
# Bulk Modulus (GPa) = 40.98467 42.66726 41.82596
# Shear Modulus (GPa) = 6.34822 19.00126 12.67474
#
# Velocity S-wave (km/s) = 1.94637 3.36737 2.75023
# Velocity P-wave (km/s) = 5.43224 6.37033 5.91989
#
# Compressibility (1/GPa) = 0.02439937
#
# Stress axis : x y z
#
# Youngs Moduli (GPa) = 60.23061 40.05719 59.29836
#
# Poissons Ratio (x) = 0.36888 0.19205
# Poissons Ratio (y) = 0.55466 0.27088
# Poissons Ratio (z) = 0.19507 0.18299
#
# Static dielectric constant tensor:
#      x y z
#    x 3.453190 0.000000 0.000000 
#    y 0.000000 2.945050 0.000000 
#    z 0.000000 0.000000 3.293780 
# 
# 
# High freq. dielectric constant tensor:
#      x y z
#    x 1.629530 0.000000 0.000000 
#    y 0.000000 1.609000 0.000000 
#    z 0.000000 0.000000 1.667610 
# 
# From -- ./inp_files/2257.got.cif
#   From: 2010.03.12/outbox.cif.g09.slc.cpg/sg26_2_cif.got.tgz:2257.got - 2010.04.14 03:33:09.
