data_PCOD8167359
_publ_section_title
;
Structure prediction by ZEFSAII (Michael W. Deem and Ramdas Pophale) SiO2 
 PCOD8167359
Probable space group: P M C 21
;
_chemical_formula_sum "Si O2"
_cell_formula_units_Z 32
_cell_length_a 8.955143
_cell_length_b 20.588939
_cell_length_c 9.212093
_cell_angle_alpha 90.000000
_cell_angle_beta 90.000000
_cell_angle_gamma 90.000000
_cell_volume 1698.497085
_symmetry_space_group_name_H-M "P M C 21"
_symmetry_group_IT_number 26
_symmetry_cell_setting 'orthorhombic'
loop_
_space_group_symop_operation_xyz
x,y,z
-x,-y,1/2+z
-x,y,z
x,-y,1/2+z
loop_
_atom_site_type_symbol
_atom_site_label
_atom_site_fract_x
_atom_site_fract_y
_atom_site_fract_z
Si Si1 0.322051 0.433103 0.128680
Si Si2 0.172584 0.804560 0.614888
Si Si3 0.826914 0.319415 0.302666
Si Si4 0.328851 0.063382 0.138277
Si Si5 0.322960 0.558993 0.299810
Si Si6 0.677003 0.799369 0.314720
Si Si7 0.330630 0.941563 0.301201
Si Si8 0.323685 0.318949 0.613178
O O1 0.500000 0.428539 0.132827
O O2 0.255957 0.368571 0.196773
O O3 0.262825 0.494910 0.219140
O O4 0.261959 0.439646 0.964078
O O5 0.198533 0.752411 0.740975
O O6 0.238912 0.871674 0.675610
O O7 0.252427 0.779819 0.468576
O O8 0.000000 0.814495 0.578227
O O9 0.759454 0.323167 0.461995
O O10 0.000000 0.338035 0.309399
O O11 0.500000 0.074775 0.187619
O O12 0.251875 0.002162 0.220878
O O13 0.318500 0.045963 0.970727
O O14 0.500000 0.558078 0.302475
O O15 0.266620 0.622191 0.213649
O O16 0.500000 0.802283 0.341166
O O17 0.738304 0.870435 0.264491
O O18 0.721353 0.747747 0.192694
O O19 0.500000 0.941166 0.245246
O O20 0.500000 0.323365 0.585195
#
# Coordination Sequence:
#
# PCOD8167359 Si02
#       8
#     4   4   4   4   4   4   4   4
#     4  10  19  35  59  82 107 138 172 212 258 308
#     4  10  21  36  52  72 103 141 178 216 260 309
#     4  11  24  38  51  74 108 142 177 217 260 306
#     4   9  17  31  51  73 100 133 170 213 260 309
#     4   9  18  33  57  87 111 133 168 216 263 305
#     4   9  18  34  57  82 104 131 173 218 262 316
#     4   8  15  28  48  75 102 127 160 208 259 302
#     4  10  20  35  57  83 107 135 174 216 260 313
#
# _framework density 18.840184000000001
#
# number of rings (size 3 to 8) (size 9 to 14) (size 15 to 20)
#    0.000    2.500    0.000    3.000    0.000    6.500 
#    0.000    8.125    0.000    0.000    0.000    0.000 
#    0.000    0.000    0.000    0.000    0.000    0.000 
#
# Total GULP energy -396769.517891 kJ/mol
# GULP energy per Si atom -12399.047434 kJ/mol
# Density = 1.879730 g / cm^3
# Si number density = 18.840184 Si / 1000 Ang^3
#
#
#
# Elastic Constant Matrix: (Units=GPa)
#
#
# Indices 1 2 3 4 5 6 
#
# 1 43.5657 36.9172 34.6168 0.0000 0.0000 0.0000
# 2 36.9172 137.6674 74.0603 0.0000 0.0000 0.0000
# 3 34.6168 74.0603 129.0901 0.0000 0.0000 0.0000
# 4 0.0000 0.0000 0.0000 40.8173 0.0000 0.0000
# 5 0.0000 0.0000 0.0000 0.0000 13.9259 0.0000
# 6 0.0000 0.0000 0.0000 0.0000 0.0000 16.6354
#
#
#
# Elastic Compliance Matrix: (Units=1/GPa)
#
#
# Indices 1 2 3 4 5 6 
#
# 1 0.032025 -0.005739 -0.005295 0.000000 0.000000 0.000000
# 2 -0.005739 0.011535 -0.005079 0.000000 0.000000 0.000000
# 3 -0.005295 -0.005079 0.012080 0.000000 0.000000 0.000000
# 4 0.000000 0.000000 0.000000 0.024499 0.000000 0.000000
# 5 0.000000 0.000000 0.000000 0.000000 0.071809 0.000000
# 6 0.000000 0.000000 0.000000 0.000000 0.000000 0.060113
#
#
# Mechanical properties :
#
#
# Convention : Reuss Voigt Hill
#
# Bulk Modulus (GPa) = 42.70992 66.83464 54.77228
# Shear Modulus (GPa) = 19.83405 25.25764 22.54585
#
# Velocity S-wave (km/s) = 3.24813 3.66543 3.46307
# Velocity P-wave (km/s) = 6.06514 7.31200 6.71756
#
# Compressibility (1/GPa) = 0.02341377
#
# Stress axis : x y z
#
# Youngs Moduli (GPa) = 31.22602 86.69162 82.78007
#
# Poissons Ratio (x) = 0.49754 0.43833
# Poissons Ratio (y) = 0.17921 0.42042
# Poissons Ratio (z) = 0.16534 0.44029
#
# Static dielectric constant tensor:
#      x y z
#    x 3.163440 0.000000 0.000000 
#    y 0.000000 3.802960 0.000000 
#    z 0.000000 0.000000 3.497210 
# 
# 
# High freq. dielectric constant tensor:
#      x y z
#    x 1.695370 0.000000 0.000000 
#    y 0.000000 1.751420 0.000000 
#    z 0.000000 0.000000 1.734590 
# 
# From -- ./inp_files/1594.got.cif
#   From: 2010.03.12/outbox.cif.g09.slc.cpg/sg26_1_cif.got.tgz:1594.got - 2010.04.14 03:33:09.
