data_PCOD8167258
_publ_section_title
;
Structure prediction by ZEFSAII (Michael W. Deem and Ramdas Pophale) SiO2 
 PCOD8167258
Probable space group: P M C 21
;
_chemical_formula_sum "Si O2"
_cell_formula_units_Z 24
_cell_length_a 8.497913
_cell_length_b 26.571420
_cell_length_c 5.138289
_cell_angle_alpha 90.000000
_cell_angle_beta 90.000000
_cell_angle_gamma 90.000000
_cell_volume 1160.233957
_symmetry_space_group_name_H-M "P M C 21"
_symmetry_group_IT_number 26
_symmetry_cell_setting 'orthorhombic'
loop_
_space_group_symop_operation_xyz
x,y,z
-x,-y,1/2+z
-x,y,z
x,-y,1/2+z
loop_
_atom_site_type_symbol
_atom_site_label
_atom_site_fract_x
_atom_site_fract_y
_atom_site_fract_z
Si Si1 0.186200 0.857768 0.202710
Si Si2 0.186550 0.202941 0.206129
Si Si3 0.317516 0.311561 0.247640
Si Si4 0.317367 0.531815 0.217725
Si Si5 0.812177 0.970461 0.172646
Si Si6 0.181547 0.638711 0.249592
O O1 0.239213 0.833273 0.472505
O O2 0.257044 0.913920 0.182793
O O3 0.000000 0.861367 0.182478
O O4 0.248739 0.823158 0.968555
O O5 0.273346 0.255398 0.165416
O O6 0.000000 0.212206 0.207471
O O7 0.500000 0.316337 0.314202
O O8 0.222756 0.326128 0.505944
O O9 0.280159 0.347870 0.006143
O O10 0.500000 0.547002 0.200583
O O11 0.273638 0.507784 0.493967
O O12 0.214557 0.581273 0.172957
O O13 0.000000 0.968912 0.176037
O O14 0.748197 0.002055 0.416426
O O15 0.000000 0.646764 0.317109
#
# Coordination Sequence:
#
# PCOD8167258 Si02
#       6
#     4   4   4   4   4   4
#     4   9  17  28  45  70 102 141 180 225 282 340
#     4  10  19  33  52  75 106 142 184 232 286 343
#     4  12  25  42  63  88 120 157 200 247 300 358
#     4  10  21  38  61  89 123 161 198 239 291 347
#     4   9  15  23  37  61  97 137 174 215 271 337
#     4  12  25  42  65  93 124 158 200 248 298 351
#
# _framework density 20.685483000000001
#
# number of rings (size 3 to 8) (size 9 to 14) (size 15 to 20)
#    0.000    1.667    0.000    6.000    0.000    7.333 
#    0.000    0.000    0.000    0.000    0.000    0.000 
#    0.000   13.333    0.000    0.000    0.000    0.000 
#
# Total GULP energy -297728.699709 kJ/mol
# GULP energy per Si atom -12405.362488 kJ/mol
# Density = 2.063840 g / cm^3
# Si number density = 20.685483 Si / 1000 Ang^3
#
#
#
# Elastic Constant Matrix: (Units=GPa)
#
#
# Indices 1 2 3 4 5 6 
#
# 1 47.8445 27.5209 14.5952 0.0000 0.0000 0.0000
# 2 27.5209 110.5256 18.8123 0.0000 0.0000 0.0000
# 3 14.5952 18.8123 115.6722 0.0000 0.0000 0.0000
# 4 0.0000 0.0000 0.0000 38.5123 0.0000 0.0000
# 5 0.0000 0.0000 0.0000 0.0000 17.8181 0.0000
# 6 0.0000 0.0000 0.0000 0.0000 0.0000 3.3011
#
#
#
# Elastic Compliance Matrix: (Units=1/GPa)
#
#
# Indices 1 2 3 4 5 6 
#
# 1 0.024926 -0.005833 -0.002196 0.000000 0.000000 0.000000
# 2 -0.005833 0.010670 -0.000999 0.000000 0.000000 0.000000
# 3 -0.002196 -0.000999 0.009085 0.000000 0.000000 0.000000
# 4 0.000000 0.000000 0.000000 0.025966 0.000000 0.000000
# 5 0.000000 0.000000 0.000000 0.000000 0.056123 0.000000
# 6 0.000000 0.000000 0.000000 0.000000 0.000000 0.302933
#
#
# Mechanical properties :
#
#
# Convention : Reuss Voigt Hill
#
# Bulk Modulus (GPa) = 37.56033 43.98880 40.77457
# Shear Modulus (GPa) = 10.94967 26.13388 18.54177
#
# Velocity S-wave (km/s) = 2.30324 3.55828 2.99719
# Velocity P-wave (km/s) = 5.02697 6.18009 5.63311
#
# Compressibility (1/GPa) = 0.02662383
#
# Stress axis : x y z
#
# Youngs Moduli (GPa) = 40.11846 93.71948 110.07401
#
# Poissons Ratio (x) = 0.54664 0.24178
# Poissons Ratio (y) = 0.23400 0.11001
# Poissons Ratio (z) = 0.08812 0.09366
#
# Static dielectric constant tensor:
#      x y z
#    x 3.298330 0.000000 0.000000 
#    y 0.000000 3.840550 0.000000 
#    z 0.000000 0.000000 3.907190 
# 
# 
# High freq. dielectric constant tensor:
#      x y z
#    x 1.764670 0.000000 0.000000 
#    y 0.000000 1.825950 0.000000 
#    z 0.000000 0.000000 1.827500 
# 
# From -- ./inp_files/192.got.cif
#   From: 2010.03.12/outbox.cif.g09.slc.cpg/sg26_1_cif.got.tgz:192.got - 2010.04.14 03:33:09.
