data_PCOD8167381
_publ_section_title
;
Structure prediction by ZEFSAII (Michael W. Deem and Ramdas Pophale) SiO2 
 PCOD8167381
Probable space group: P M C 21
;
_chemical_formula_sum "Si O2"
_cell_formula_units_Z 32
_cell_length_a 9.246556
_cell_length_b 15.935319
_cell_length_c 10.720290
_cell_angle_alpha 90.000000
_cell_angle_beta 90.000000
_cell_angle_gamma 90.000000
_cell_volume 1579.600636
_symmetry_space_group_name_H-M "P M C 21"
_symmetry_group_IT_number 26
_symmetry_cell_setting 'orthorhombic'
loop_
_space_group_symop_operation_xyz
x,y,z
-x,-y,1/2+z
-x,y,z
x,-y,1/2+z
loop_
_atom_site_type_symbol
_atom_site_label
_atom_site_fract_x
_atom_site_fract_y
_atom_site_fract_z
Si Si1 0.659960 0.356837 0.547450
Si Si2 0.665832 0.233246 0.340437
Si Si3 0.830752 0.933550 0.155776
Si Si4 0.163294 0.664120 0.411495
Si Si5 0.339566 0.221195 0.753619
Si Si6 0.666274 0.373359 0.152385
Si Si7 0.837320 0.474412 0.698859
Si Si8 0.831766 0.062604 0.371289
O O1 0.500000 0.388534 0.504273
O O2 0.730133 0.297580 0.442180
O O3 0.642007 0.303683 0.672266
O O4 0.764677 0.435204 0.573814
O O5 0.500000 0.211557 0.373905
O O6 0.679681 0.280011 0.208361
O O7 0.754162 0.148489 0.338095
O O8 0.738461 0.849829 0.172433
O O9 0.000000 0.912396 0.169412
O O10 0.780344 0.996345 0.266105
O O11 0.798117 0.967720 0.014347
O O12 0.240466 0.751410 0.370528
O O13 0.251731 0.623845 0.522698
O O14 0.161616 0.593994 0.306060
O O15 0.000000 0.687421 0.451320
O O16 0.500000 0.190825 0.797272
O O17 0.500000 0.398846 0.134694
O O18 0.743591 0.443961 0.239089
O O19 0.000000 0.502177 0.664453
O O20 0.000000 0.079676 0.355441
#
# Coordination Sequence:
#
# PCOD8167381 Si02
#       8
#     4   4   4   4   4   4   4   4
#     4   9  18  35  59  85 114 148 190 239 291 349
#     4  10  22  40  60  87 119 155 199 247 301 360
#     4  10  21  38  59  88 122 160 204 254 308 370
#     4  10  22  40  59  84 119 155 197 248 298 358
#     4  10  19  35  62  89 113 149 194 241 298 357
#     4  11  24  39  58  85 120 158 198 247 304 362
#     4  10  22  38  58  86 115 151 198 246 296 350
#     4  10  22  39  61  88 122 162 208 256 312 374
#
# _framework density 20.258285000000001
#
# number of rings (size 3 to 8) (size 9 to 14) (size 15 to 20)
#    0.000    2.000    1.250    1.500    1.750    5.000 
#    0.000    1.250    0.000    0.000    0.000    0.000 
#    0.000    0.000    0.000    0.000    0.000    0.000 
#
# Total GULP energy -396711.526467 kJ/mol
# GULP energy per Si atom -12397.235202 kJ/mol
# Density = 2.021218 g / cm^3
# Si number density = 20.258285 Si / 1000 Ang^3
#
#
#
# Elastic Constant Matrix: (Units=GPa)
#
#
# Indices 1 2 3 4 5 6 
#
# 1 121.9085 43.9451 40.8141 0.0000 0.0000 0.0000
# 2 43.9451 72.5834 32.3241 0.0000 0.0000 0.0000
# 3 40.8141 32.3241 70.2659 0.0000 0.0000 0.0000
# 4 0.0000 0.0000 0.0000 27.6852 0.0000 0.0000
# 5 0.0000 0.0000 0.0000 0.0000 24.0318 0.0000
# 6 0.0000 0.0000 0.0000 0.0000 0.0000 33.6969
#
#
#
# Elastic Compliance Matrix: (Units=1/GPa)
#
#
# Indices 1 2 3 4 5 6 
#
# 1 0.011465 -0.005000 -0.004359 0.000000 0.000000 0.000000
# 2 -0.005000 0.019507 -0.006070 0.000000 0.000000 0.000000
# 3 -0.004359 -0.006070 0.019556 0.000000 0.000000 0.000000
# 4 0.000000 0.000000 0.000000 0.036120 0.000000 0.000000
# 5 0.000000 0.000000 0.000000 0.000000 0.041612 0.000000
# 6 0.000000 0.000000 0.000000 0.000000 0.000000 0.029676
#
#
# Mechanical properties :
#
#
# Convention : Reuss Voigt Hill
#
# Bulk Modulus (GPa) = 50.83774 55.43604 53.13689
# Shear Modulus (GPa) = 25.59500 26.92775 26.26137
#
# Velocity S-wave (km/s) = 3.55834 3.64980 3.60436
# Velocity P-wave (km/s) = 6.48318 6.72201 6.60368
#
# Compressibility (1/GPa) = 0.01967043
#
# Stress axis : x y z
#
# Youngs Moduli (GPa) = 87.22488 51.26243 51.13542
#
# Poissons Ratio (x) = 0.25630 0.22291
# Poissons Ratio (y) = 0.43611 0.31038
# Poissons Ratio (z) = 0.38023 0.31115
#
# Static dielectric constant tensor:
#      x y z
#    x 3.948220 0.000000 0.000000 
#    y 0.000000 3.529850 0.000000 
#    z 0.000000 0.000000 3.690760 
# 
# 
# High freq. dielectric constant tensor:
#      x y z
#    x 1.797510 0.000000 0.000000 
#    y 0.000000 1.778480 0.000000 
#    z 0.000000 0.000000 1.786890 
# 
# From -- ./inp_files/3042.got.cif
#   From: 2010.03.12/outbox.cif.g09.slc.cpg/sg26_2_cif.got.tgz:3042.got - 2010.04.14 03:33:09.
