data_PCOD8167447
_publ_section_title
;
Structure prediction by ZEFSAII (Michael W. Deem and Ramdas Pophale) SiO2 
 PCOD8167447
Probable space group: P M C 21
;
_chemical_formula_sum "Si O2"
_cell_formula_units_Z 32
_cell_length_a 14.192944
_cell_length_b 13.897979
_cell_length_c 9.622050
_cell_angle_alpha 90.000000
_cell_angle_beta 90.000000
_cell_angle_gamma 90.000000
_cell_volume 1897.980515
_symmetry_space_group_name_H-M "P M C 21"
_symmetry_group_IT_number 26
_symmetry_cell_setting 'orthorhombic'
loop_
_space_group_symop_operation_xyz
x,y,z
-x,-y,1/2+z
-x,y,z
x,-y,1/2+z
loop_
_atom_site_type_symbol
_atom_site_label
_atom_site_fract_x
_atom_site_fract_y
_atom_site_fract_z
Si Si1 0.297112 0.288550 0.434170
Si Si2 0.391135 0.600359 0.173554
Si Si3 0.391272 0.288413 0.942090
Si Si4 0.896197 0.468803 0.214192
Si Si5 0.387852 0.092300 0.376810
Si Si6 0.611401 0.911465 0.556456
Si Si7 0.703691 0.402288 0.166973
Si Si8 0.104905 0.376627 0.498719
O O1 0.357197 0.361087 0.526747
O O2 0.332618 0.179979 0.448838
O O3 0.321322 0.320756 0.278311
O O4 0.185695 0.296659 0.473113
O O5 0.500000 0.569875 0.165948
O O6 0.375418 0.688584 0.280562
O O7 0.331527 0.506853 0.217831
O O8 0.500000 0.289342 0.983560
O O9 0.346986 0.185505 0.985502
O O10 0.343151 0.376036 0.022354
O O11 0.816512 0.402266 0.145615
O O12 0.884588 0.462149 0.382306
O O13 0.000000 0.430765 0.170543
O O14 0.882900 0.576772 0.152293
O O15 0.500000 0.109639 0.388462
O O16 0.356154 0.078704 0.216549
O O17 0.352858 0.000574 0.464451
O O18 0.500000 0.909058 0.548453
O O19 0.000000 0.329521 0.486407
#
# Coordination Sequence:
#
# PCOD8167447 Si02
#       8
#     4   4   4   4   4   4   4   4
#     4  11  21  33  51  76 101 132 173 209 254 305
#     4  11  23  32  45  70 105 142 172 201 237 297
#     4  10  21  35  49  70 103 137 169 207 249 294
#     4   9  18  31  48  70  97 129 167 209 246 287
#     4  10  20  34  53  74  99 129 169 217 258 299
#     4   9  19  35  53  72  96 130 168 212 259 294
#     4  11  20  33  50  70 101 138 174 201 246 299
#     4   9  18  33  52  74 100 131 169 212 256 299
#
# _framework density 16.860025
#
# number of rings (size 3 to 8) (size 9 to 14) (size 15 to 20)
#    0.000    2.000    2.500    1.500    3.500    2.500 
#    0.000    0.000    0.000    0.000    0.000    1.750 
#    0.000    0.000    0.000    0.000    0.000    0.000 
#
# Total GULP energy -396644.348198 kJ/mol
# GULP energy per Si atom -12395.135881 kJ/mol
# Density = 1.682165 g / cm^3
# Si number density = 16.860025 Si / 1000 Ang^3
#
#
#
# Elastic Constant Matrix: (Units=GPa)
#
#
# Indices 1 2 3 4 5 6 
#
# 1 74.3068 35.3466 32.0339 0.0000 0.0000 0.0000
# 2 35.3466 94.8230 23.5979 0.0000 0.0000 0.0000
# 3 32.0339 23.5979 44.7275 0.0000 0.0000 0.0000
# 4 0.0000 0.0000 0.0000 29.4692 0.0000 0.0000
# 5 0.0000 0.0000 0.0000 0.0000 17.4676 0.0000
# 6 0.0000 0.0000 0.0000 0.0000 0.0000 14.8464
#
#
#
# Elastic Compliance Matrix: (Units=1/GPa)
#
#
# Indices 1 2 3 4 5 6 
#
# 1 0.021171 -0.004741 -0.012662 0.000000 0.000000 0.000000
# 2 -0.004741 0.013202 -0.003570 0.000000 0.000000 0.000000
# 3 -0.012662 -0.003570 0.033309 0.000000 0.000000 0.000000
# 4 0.000000 0.000000 0.000000 0.033934 0.000000 0.000000
# 5 0.000000 0.000000 0.000000 0.000000 0.057249 0.000000
# 6 0.000000 0.000000 0.000000 0.000000 0.000000 0.067356
#
#
# Mechanical properties :
#
#
# Convention : Reuss Voigt Hill
#
# Bulk Modulus (GPa) = 38.85343 43.97934 41.41638
# Shear Modulus (GPa) = 18.06719 20.54857 19.30788
#
# Velocity S-wave (km/s) = 3.27708 3.49488 3.38773
# Velocity P-wave (km/s) = 6.11668 6.51362 6.31827
#
# Compressibility (1/GPa) = 0.02573775
#
# Stress axis : x y z
#
# Youngs Moduli (GPa) = 47.23358 75.74870 30.02165
#
# Poissons Ratio (x) = 0.35912 0.38013
# Poissons Ratio (y) = 0.22393 0.10717
# Poissons Ratio (z) = 0.59806 0.27039
#
# Static dielectric constant tensor:
#      x y z
#    x 3.180690 0.000000 0.000000 
#    y 0.000000 3.040070 0.000000 
#    z 0.000000 0.000000 3.247430 
# 
# 
# High freq. dielectric constant tensor:
#      x y z
#    x 1.634330 0.000000 0.000000 
#    y 0.000000 1.622770 0.000000 
#    z 0.000000 0.000000 1.661090 
# 
# From -- ./inp_files/2258.got.cif
#   From: 2010.03.12/outbox.cif.g09.slc.cpg/sg26_2_cif.got.tgz:2258.got - 2010.04.14 03:33:09.
