data_PCOD8167958
_publ_section_title
;
Structure prediction by ZEFSAII (Michael W. Deem and Ramdas Pophale) SiO2 
 PCOD8167958
Probable space group: P C C 2
;
_chemical_formula_sum "Si O2"
_cell_formula_units_Z 20
_cell_length_a 5.006947
_cell_length_b 8.608660
_cell_length_c 19.050686
_cell_angle_alpha 90.000000
_cell_angle_beta 90.000000
_cell_angle_gamma 90.000000
_cell_volume 821.143707
_symmetry_space_group_name_H-M "P C C 2"
_symmetry_group_IT_number 27
_symmetry_cell_setting 'orthorhombic'
loop_
_space_group_symop_operation_xyz
x,y,z
-x,-y,z
-x,y,1/2+z
x,-y,1/2+z
loop_
_atom_site_type_symbol
_atom_site_label
_atom_site_fract_x
_atom_site_fract_y
_atom_site_fract_z
Si Si1 0.756165 0.398590 0.103490
Si Si2 0.602673 0.322454 0.814918
Si Si3 0.094015 0.829705 0.536923
Si Si4 0.095963 0.172858 0.878402
Si Si5 0.565809 0.822145 0.174956
O O1 0.500000 0.500000 0.080882
O O2 0.705049 0.278767 0.167689
O O3 0.000000 0.500000 0.131755
O O4 0.852418 0.295245 0.037082
O O5 0.500000 0.500000 0.814738
O O6 0.350029 0.214040 0.831757
O O7 0.717262 0.259528 0.739977
O O8 0.850425 0.294772 0.868068
O O9 0.208557 0.823356 0.458379
O O10 0.300271 0.788878 0.598973
O O11 0.000000 0.000000 0.556842
O O12 0.000000 0.000000 0.858288
O O13 0.500000 0.000000 0.189813
#
# Coordination Sequence:
#
# PCOD8167958 Si02
#       5
#     4   4   4   4   4
#     4  12  26  43  69 109 148 187 236 309 374 428
#     4  12  29  50  76 111 153 198 247 309 375 444
#     4  11  26  47  79 111 150 195 255 306 369 446
#     4  11  27  51  78 107 148 202 252 301 369 451
#     4  12  26  47  80 110 149 196 254 305 373 443
#
# _framework density 24.356273999999999
#
# number of rings (size 3 to 8) (size 9 to 14) (size 15 to 20)
#    0.000    0.400    4.000    3.000    5.600    3.200 
#    0.000    0.000    0.000    0.000    0.000    0.000 
#    0.000    0.000    0.000    0.000    0.000    0.000 
#
# Total GULP energy -247841.335640 kJ/mol
# GULP energy per Si atom -12392.066782 kJ/mol
# Density = 2.430084 g / cm^3
# Si number density = 24.356274 Si / 1000 Ang^3
#
#
#
# Elastic Constant Matrix: (Units=GPa)
#
#
# Indices 1 2 3 4 5 6 
#
# 1 119.8940 44.7405 38.1119 0.0000 0.0000 0.0000
# 2 44.7405 165.5817 45.7921 0.0000 0.0000 0.0000
# 3 38.1119 45.7921 126.8007 0.0000 0.0000 0.0000
# 4 0.0000 0.0000 0.0000 41.4958 0.0000 0.0000
# 5 0.0000 0.0000 0.0000 0.0000 54.6734 0.0000
# 6 0.0000 0.0000 0.0000 0.0000 0.0000 34.0113
#
#
#
# Elastic Compliance Matrix: (Units=1/GPa)
#
#
# Indices 1 2 3 4 5 6 
#
# 1 0.009804 -0.002038 -0.002211 0.000000 0.000000 0.000000
# 2 -0.002038 0.007133 -0.001964 0.000000 0.000000 0.000000
# 3 -0.002211 -0.001964 0.009260 0.000000 0.000000 0.000000
# 4 0.000000 0.000000 0.000000 0.024099 0.000000 0.000000
# 5 0.000000 0.000000 0.000000 0.000000 0.018290 0.000000
# 6 0.000000 0.000000 0.000000 0.000000 0.000000 0.029402
#
#
# Mechanical properties :
#
#
# Convention : Reuss Voigt Hill
#
# Bulk Modulus (GPa) = 72.60676 74.39615 73.50146
# Shear Modulus (GPa) = 43.47718 44.94488 44.21103
#
# Velocity S-wave (km/s) = 4.22957 4.30037 4.26512
# Velocity P-wave (km/s) = 7.32989 7.43430 7.38228
#
# Compressibility (1/GPa) = 0.01377282
#
# Stress axis : x y z
#
# Youngs Moduli (GPa) = 102.00072 140.19558 107.99149
#
# Poissons Ratio (x) = 0.28566 0.23875
# Poissons Ratio (y) = 0.20784 0.21204
# Poissons Ratio (z) = 0.22551 0.27527
#
# Static dielectric constant tensor:
#      x y z
#    x 4.312880 0.000000 0.000000 
#    y 0.000000 4.740140 0.000000 
#    z 0.000000 0.000000 4.318050 
# 
# 
# High freq. dielectric constant tensor:
#      x y z
#    x 1.963490 0.000000 0.000000 
#    y 0.000000 1.998470 0.000000 
#    z 0.000000 0.000000 1.958760 
# 
# From -- ./inp_files/3922.got.cif
#   From: 2010.03.12/outbox.cif.g09.slc.cpg/sg27_2_cif.got.tgz:3922.got - 2010.04.14 03:36:05.
