data_PCOD8167476
_publ_section_title
;
Structure prediction by ZEFSAII (Michael W. Deem and Ramdas Pophale) SiO2 
 PCOD8167476
Probable space group: P M C 21
;
_chemical_formula_sum "Si O2"
_cell_formula_units_Z 32
_cell_length_a 8.689399
_cell_length_b 10.249328
_cell_length_c 19.023890
_cell_angle_alpha 90.000000
_cell_angle_beta 90.000000
_cell_angle_gamma 90.000000
_cell_volume 1694.277164
_symmetry_space_group_name_H-M "P M C 21"
_symmetry_group_IT_number 26
_symmetry_cell_setting 'orthorhombic'
loop_
_space_group_symop_operation_xyz
x,y,z
-x,-y,1/2+z
-x,y,z
x,-y,1/2+z
loop_
_atom_site_type_symbol
_atom_site_label
_atom_site_fract_x
_atom_site_fract_y
_atom_site_fract_z
Si Si1 0.321036 0.980831 0.327070
Si Si2 0.319490 0.628356 0.697344
Si Si3 0.321037 0.980830 0.487224
Si Si4 0.821779 0.133524 0.117311
Si Si5 0.821779 0.866479 0.196982
Si Si6 0.680510 0.371642 0.616950
Si Si7 0.821779 0.259655 0.327853
Si Si8 0.178221 0.259654 0.486442
O O1 0.500000 0.967616 0.309451
O O2 0.272309 0.128918 0.312394
O O3 0.284150 0.941781 0.407147
O O4 0.225638 0.882147 0.278319
O O5 0.500000 0.622601 0.711115
O O6 0.279140 0.753549 0.651145
O O7 0.260857 0.499997 0.657148
O O8 0.235115 0.631440 0.773085
O O9 0.500000 0.967616 0.504843
O O10 0.225639 0.882146 0.535975
O O11 0.272310 0.128917 0.501900
O O12 0.000000 0.171379 0.123271
O O13 0.783627 0.000002 0.157148
O O14 0.720857 0.753555 0.163148
O O15 0.000000 0.828622 0.191021
O O16 0.500000 0.377400 0.603177
O O17 0.764888 0.368560 0.541210
O O18 0.792673 0.310705 0.407147
O O19 0.000000 0.227254 0.315091
O O20 0.000000 0.227250 0.499203
#
# Coordination Sequence:
#
# PCOD8167476 Si02
#       8
#     4   4   4   4   4   4   4   4
#     4  10  20  34  56  86 117 150 189 237 289 338
#     4  11  24  40  59  85 116 153 195 238 286 340
#     4  10  20  34  56  86 117 150 189 237 289 338
#     4  11  22  36  58  87 115 149 190 234 286 338
#     4  11  22  36  58  87 115 149 190 234 286 338
#     4  11  24  40  59  85 116 153 195 238 286 340
#     4  10  20  35  57  85 115 148 189 235 284 342
#     4  10  20  35  57  85 115 148 189 235 284 342
#
# _framework density 18.887111000000001
#
# number of rings (size 3 to 8) (size 9 to 14) (size 15 to 20)
#    0.000    1.500    2.500    3.000    0.000    6.000 
#    0.000    1.250    0.000    1.500    0.000    0.000 
#    0.000    0.000    0.000    0.000    0.000    0.000 
#
# Total GULP energy -396945.982770 kJ/mol
# GULP energy per Si atom -12404.561962 kJ/mol
# Density = 1.884412 g / cm^3
# Si number density = 18.887111 Si / 1000 Ang^3
#
#
#
# Elastic Constant Matrix: (Units=GPa)
#
#
# Indices 1 2 3 4 5 6 
#
# 1 36.9045 17.7607 31.3475 0.0000 0.0000 0.0000
# 2 17.7607 65.7699 45.1584 0.0000 0.0000 0.0000
# 3 31.3475 45.1584 141.1379 0.0000 0.0000 0.0000
# 4 0.0000 0.0000 0.0000 29.3113 0.0000 0.0000
# 5 0.0000 0.0000 0.0000 0.0000 33.6611 0.0000
# 6 0.0000 0.0000 0.0000 0.0000 0.0000 16.4363
#
#
#
# Elastic Compliance Matrix: (Units=1/GPa)
#
#
# Indices 1 2 3 4 5 6 
#
# 1 0.034749 -0.005234 -0.006043 0.000000 0.000000 0.000000
# 2 -0.005234 0.020274 -0.005324 0.000000 0.000000 0.000000
# 3 -0.006043 -0.005324 0.010131 0.000000 0.000000 0.000000
# 4 0.000000 0.000000 0.000000 0.034116 0.000000 0.000000
# 5 0.000000 0.000000 0.000000 0.000000 0.029708 0.000000
# 6 0.000000 0.000000 0.000000 0.000000 0.000000 0.060841
#
#
# Mechanical properties :
#
#
# Convention : Reuss Voigt Hill
#
# Bulk Modulus (GPa) = 31.29856 48.03840 39.66848
# Shear Modulus (GPa) = 21.39742 25.85147 23.62445
#
# Velocity S-wave (km/s) = 3.36953 3.70366 3.54054
# Velocity P-wave (km/s) = 5.63433 6.61658 6.14511
#
# Compressibility (1/GPa) = 0.03195035
#
# Stress axis : x y z
#
# Youngs Moduli (GPa) = 28.77754 49.32500 98.70692
#
# Poissons Ratio (x) = 0.25819 0.59650
# Poissons Ratio (y) = 0.15064 0.52553
# Poissons Ratio (z) = 0.17391 0.26261
#
# Static dielectric constant tensor:
#      x y z
#    x 3.507110 0.000000 0.000000 
#    y 0.000000 3.206610 0.000000 
#    z 0.000000 0.000000 3.796200 
# 
# 
# High freq. dielectric constant tensor:
#      x y z
#    x 1.748660 0.000000 0.000000 
#    y 0.000000 1.697430 0.000000 
#    z 0.000000 0.000000 1.753310 
# 
# From -- ./inp_files/5025.got.cif
#   From: 2010.03.12/outbox.cif.g09.slc.cpg/sg26_3_cif.got.tgz:5025.got - 2010.04.14 03:33:09.
