data_PCOD8167066
_publ_section_title
;
Structure prediction by ZEFSAII (Michael W. Deem and Ramdas Pophale) SiO2 
 PCOD8167066
Probable space group: P M C 21
;
_chemical_formula_sum "Si O2"
_cell_formula_units_Z 32
_cell_length_a 9.033999
_cell_length_b 12.122372
_cell_length_c 14.832550
_cell_angle_alpha 90.000000
_cell_angle_beta 90.000000
_cell_angle_gamma 90.000000
_cell_volume 1624.364413
_symmetry_space_group_name_H-M "P M C 21"
_symmetry_group_IT_number 26
_symmetry_cell_setting 'orthorhombic'
loop_
_space_group_symop_operation_xyz
x,y,z
-x,-y,1/2+z
-x,y,z
x,-y,1/2+z
loop_
_atom_site_type_symbol
_atom_site_label
_atom_site_fract_x
_atom_site_fract_y
_atom_site_fract_z
Si Si1 0.826136 0.503620 0.167310
Si Si2 0.666912 0.942088 0.759985
Si Si3 0.828526 0.321797 0.036704
Si Si4 0.323305 0.118644 0.450108
Si Si5 0.676807 0.904566 0.561915
Si Si6 0.170057 0.377737 0.841025
Si Si7 0.174676 0.729881 0.081067
Si Si8 0.332747 0.190920 0.746414
O O1 0.762325 0.391386 0.122098
O O2 0.783001 0.520543 0.273695
O O3 0.769221 0.608270 0.109553
O O4 0.000000 0.495690 0.155050
O O5 0.500000 0.900728 0.749329
O O6 0.737324 0.881858 0.846904
O O7 0.743489 0.916835 0.663834
O O8 0.670690 0.069945 0.787923
O O9 0.738414 0.209634 0.022146
O O10 0.000000 0.290711 0.050713
O O11 0.811427 0.400900 0.947553
O O12 0.500000 0.125458 0.454598
O O13 0.252572 0.230091 0.489792
O O14 0.268164 0.008879 0.503084
O O15 0.500000 0.901436 0.561043
O O16 0.271784 0.273005 0.821548
O O17 0.000000 0.347767 0.817094
O O18 0.228807 0.812282 0.158951
O O19 0.000000 0.735994 0.069227
O O20 0.500000 0.224263 0.718854
#
# Coordination Sequence:
#
# PCOD8167066 Si02
#       8
#     4   4   4   4   4   4   4   4
#     4   8  17  35  54  74 102 138 175 217 268 316
#     4   9  18  32  51  75 104 141 177 208 260 323
#     4  10  20  36  56  78 105 141 183 221 269 325
#     4  10  19  34  55  77 105 143 179 213 262 325
#     4  10  20  36  54  77 111 143 175 220 269 318
#     4   9  18  33  54  79 105 137 178 229 272 308
#     4  10  19  33  53  78 106 134 174 225 268 308
#     4  10  17  31  55  78 102 139 181 217 258 317
#
# _framework density 19.700012000000001
#
# number of rings (size 3 to 8) (size 9 to 14) (size 15 to 20)
#    0.000    2.500    1.250    2.250    0.000    2.000 
#    2.250    5.000    0.000    0.000    0.000    0.000 
#    0.000    0.000    0.000    0.000    0.000    0.000 
#
# Total GULP energy -396491.036286 kJ/mol
# GULP energy per Si atom -12390.344884 kJ/mol
# Density = 1.965517 g / cm^3
# Si number density = 19.700012 Si / 1000 Ang^3
#
#
#
# Elastic Constant Matrix: (Units=GPa)
#
#
# Indices 1 2 3 4 5 6 
#
# 1 28.4924 10.6648 11.8353 0.0000 0.0000 0.0000
# 2 10.6648 44.1941 8.2841 0.0000 0.0000 0.0000
# 3 11.8353 8.2841 94.4435 0.0000 0.0000 0.0000
# 4 0.0000 0.0000 0.0000 27.8567 0.0000 0.0000
# 5 0.0000 0.0000 0.0000 0.0000 20.6866 0.0000
# 6 0.0000 0.0000 0.0000 0.0000 0.0000 22.3597
#
#
#
# Elastic Compliance Matrix: (Units=1/GPa)
#
#
# Indices 1 2 3 4 5 6 
#
# 1 0.040197 -0.008903 -0.004257 0.000000 0.000000 0.000000
# 2 -0.008903 0.024977 -0.001075 0.000000 0.000000 0.000000
# 3 -0.004257 -0.001075 0.011216 0.000000 0.000000 0.000000
# 4 0.000000 0.000000 0.000000 0.035898 0.000000 0.000000
# 5 0.000000 0.000000 0.000000 0.000000 0.048340 0.000000
# 6 0.000000 0.000000 0.000000 0.000000 0.000000 0.044723
#
#
# Mechanical properties :
#
#
# Convention : Reuss Voigt Hill
#
# Bulk Modulus (GPa) = 20.86710 25.41094 23.13902
# Shear Modulus (GPa) = 20.01638 23.27030 21.64334
#
# Velocity S-wave (km/s) = 3.19103 3.44064 3.31818
# Velocity P-wave (km/s) = 4.91857 5.35826 5.14311
#
# Compressibility (1/GPa) = 0.04792232
#
# Stress axis : x y z
#
# Youngs Moduli (GPa) = 24.87721 40.03625 89.15777
#
# Poissons Ratio (x) = 0.35642 0.37950
# Poissons Ratio (y) = 0.22147 0.09587
# Poissons Ratio (z) = 0.10589 0.04305
#
# Static dielectric constant tensor:
#      x y z
#    x 3.301170 0.000000 0.000000 
#    y 0.000000 3.459550 0.000000 
#    z 0.000000 0.000000 3.884420 
# 
# 
# High freq. dielectric constant tensor:
#      x y z
#    x 1.733800 0.000000 0.000000 
#    y 0.000000 1.746500 0.000000 
#    z 0.000000 0.000000 1.780360 
# 
# From -- ./inp_files/4261.got.cif
#   From: 2010.03.12/outbox.cif.g09.slc.cpg/sg26_3_cif.got.tgz:4261.got - 2010.04.14 03:33:09.
