data_PCOD8167986
_publ_section_title
;
Structure prediction by ZEFSAII (Michael W. Deem and Ramdas Pophale) SiO2 
 PCOD8167986
Probable space group: P M A 2
;
_chemical_formula_sum "Si O2"
_cell_formula_units_Z 28
_cell_length_a 8.626940
_cell_length_b 15.436935
_cell_length_c 12.706385
_cell_angle_alpha 90.000000
_cell_angle_beta 90.000000
_cell_angle_gamma 90.000000
_cell_volume 1692.153916
_symmetry_space_group_name_H-M "P M A 2"
_symmetry_group_IT_number 28
_symmetry_cell_setting 'orthorhombic'
loop_
_space_group_symop_operation_xyz
x,y,z
-x,-y,z
1/2-x,y,z
1/2+x,-y,z
loop_
_atom_site_type_symbol
_atom_site_label
_atom_site_fract_x
_atom_site_fract_y
_atom_site_fract_z
Si Si1 0.566149 0.260658 0.227650
Si Si2 0.068309 0.404842 0.827442
Si Si3 0.933009 0.087569 0.988479
Si Si4 0.567761 0.405667 0.386952
Si Si5 0.932071 0.405067 0.618057
Si Si6 0.933746 0.914828 0.221412
Si Si7 0.432793 0.263927 0.997355
O O1 0.750000 0.249343 0.233846
O O2 0.505735 0.339682 0.299282
O O3 0.484470 0.174660 0.276707
O O4 0.515735 0.279393 0.108611
O O5 0.250000 0.413977 0.818500
O O6 0.000000 0.500000 0.847688
O O7 0.006796 0.358110 0.719763
O O8 0.019826 0.343881 0.924048
O O9 0.750000 0.089894 0.973960
O O10 0.979133 0.086488 0.110237
O O11 0.007892 0.175252 0.941094
O O12 0.000000 0.000000 0.933553
O O13 0.500000 0.500000 0.365120
O O14 0.750000 0.416189 0.379362
O O15 0.522570 0.367325 0.502996
O O16 0.750000 0.406748 0.634164
O O17 0.000000 0.500000 0.622680
O O18 0.750000 0.920289 0.207688
O O19 0.000000 0.000000 0.282813
O O20 0.250000 0.256966 0.016137
#
# Coordination Sequence:
#
# PCOD8167986 Si02
#       7
#     4   4   4   4   4   4   4
#     4  10  19  31  45  65  93 122 152 183 220 266
#     4  10  20  32  47  66  90 119 151 189 226 263
#     4  10  17  27  44  64  87 116 148 183 222 262
#     4   9  19  32  47  67  91 119 150 187 225 263
#     4   9  16  29  48  67  86 110 146 189 229 265
#     4  10  17  27  43  63  87 116 149 184 222 261
#     4  10  20  32  44  64  93 122 153 185 220 264
#
# _framework density 16.546958
#
# number of rings (size 3 to 8) (size 9 to 14) (size 15 to 20)
#    0.000    2.286    0.000    7.714    0.000    4.571 
#    0.000    2.857    0.000    0.000    0.000    1.000 
#    0.000    6.857    0.000    0.000    0.000    0.000 
#
# Total GULP energy -346944.179360 kJ/mol
# GULP energy per Si atom -12390.863549 kJ/mol
# Density = 1.650930 g / cm^3
# Si number density = 16.546958 Si / 1000 Ang^3
#
#
#
# Elastic Constant Matrix: (Units=GPa)
#
#
# Indices 1 2 3 4 5 6 
#
# 1 62.7192 38.6757 30.1394 0.0000 0.0000 0.0000
# 2 38.6757 127.7035 60.5017 0.0000 0.0000 0.0000
# 3 30.1394 60.5017 82.1014 0.0000 0.0000 0.0000
# 4 0.0000 0.0000 0.0000 1.6675 0.0000 0.0000
# 5 0.0000 0.0000 0.0000 0.0000 -0.5015 0.0000
# 6 0.0000 0.0000 0.0000 0.0000 0.0000 21.4607
#
#
#
# Elastic Compliance Matrix: (Units=1/GPa)
#
#
# Indices 1 2 3 4 5 6 
#
# 1 0.020664 -0.004093 -0.004569 0.000000 0.000000 0.000000
# 2 -0.004093 0.012842 -0.007961 0.000000 0.000000 0.000000
# 3 -0.004569 -0.007961 0.019724 0.000000 0.000000 0.000000
# 4 0.000000 0.000000 0.000000 0.599703 0.000000 0.000000
# 5 0.000000 0.000000 0.000000 0.000000 -1.993877 0.000000
# 6 0.000000 0.000000 0.000000 0.000000 0.000000 0.046597
#
#
# Mechanical properties :
#
#
# Convention : Reuss Voigt Hill
#
# Bulk Modulus (GPa) = 50.04262 59.01750 54.53006
# Shear Modulus (GPa) = -3.98584 14.07249 5.04332
#
# Velocity S-wave (km/s) = -1.55372 2.91942 1.74771
# Velocity P-wave (km/s) = 5.20478 6.86354 6.09089
#
# Compressibility (1/GPa) = 0.01998297
#
# Stress axis : x y z
#
# Youngs Moduli (GPa) = 48.39326 77.87033 50.70038
#
# Poissons Ratio (x) = 0.31876 0.23166
# Poissons Ratio (y) = 0.19810 0.40361
# Poissons Ratio (z) = 0.22112 0.61990
#
# Static dielectric constant tensor:
#      x y z
#    x 3.221920 0.000000 0.000000 
#    y 0.000000 3.898820 0.000000 
#    z 0.000000 0.000000 3.374050 
# 
# 
# High freq. dielectric constant tensor:
#      x y z
#    x 1.655510 0.000000 0.000000 
#    y 0.000000 1.634810 0.000000 
#    z 0.000000 0.000000 1.598620 
# 
# From -- ./inp_files/6363.got.cif
#   From: 2010.03.12/outbox.cif.g09.slc.cpg/sg28_4_cif.got.tgz:6363.got - 2010.04.14 03:39:34.
