data_PCOD8167027
_publ_section_title
;
Structure prediction by ZEFSAII (Michael W. Deem and Ramdas Pophale) SiO2 
 PCOD8167027
Probable space group: P M M 2
;
_chemical_formula_sum "Si O2"
_cell_formula_units_Z 32
_cell_length_a 9.394867
_cell_length_b 18.138583
_cell_length_c 11.463898
_cell_angle_alpha 90.000000
_cell_angle_beta 90.000000
_cell_angle_gamma 90.000000
_cell_volume 1953.557984
_symmetry_space_group_name_H-M "P M M 2"
_symmetry_group_IT_number 25
_symmetry_cell_setting 'orthorhombic'
loop_
_space_group_symop_operation_xyz
x,y,z
-x,-y,z
-x,y,z
x,-y,z
loop_
_atom_site_type_symbol
_atom_site_label
_atom_site_fract_x
_atom_site_fract_y
_atom_site_fract_z
Si Si1 0.659744 0.205654 0.477330
Si Si2 0.158044 0.303961 0.791840
Si Si3 0.341069 0.362198 0.601204
Si Si4 0.830560 0.227238 0.019803
Si Si5 0.832217 0.271006 0.274262
Si Si6 0.841877 0.147809 0.669069
Si Si7 0.162356 0.418531 0.398093
Si Si8 0.169619 0.919029 0.905015
O O1 0.500000 0.178894 0.446935
O O2 0.654170 0.281380 0.547146
O O3 0.750013 0.215558 0.359504
O O4 0.736837 0.144301 0.557843
O O5 0.262379 0.361118 0.726689
O O6 0.146877 0.230228 0.716768
O O7 0.000000 0.339182 0.802054
O O8 0.221108 0.284475 0.920028
O O9 0.500000 0.393114 0.619843
O O10 0.257845 0.415494 0.513530
O O11 0.774645 0.254771 0.144518
O O12 0.000000 0.225446 0.016569
O O13 0.771575 0.144516 0.992111
O O14 0.794686 0.356232 0.303869
O O15 0.000000 0.255401 0.285867
O O16 0.779902 0.096069 0.772031
O O17 0.000000 0.121881 0.629968
O O18 0.181447 0.500000 0.341567
O O19 0.000000 0.405083 0.437769
O O20 0.000000 0.916089 0.905756
O O21 0.225147 0.000000 0.944488
#
# Coordination Sequence:
#
# PCOD8167027 Si02
#       8
#     4   4   4   4   4   4   4   4
#     4   9  16  25  38  58  82 105 132 168 207 245
#     4   8  13  23  39  58  81 106 131 162 200 243
#     4   9  16  25  39  60  82 103 129 163 205 249
#     4   8  14  24  40  62  85 112 144 174 208 248
#     4   9  16  27  43  61  82 110 145 180 210 246
#     4   8  13  22  38  59  80 103 130 161 203 249
#     4   9  17  28  42  60  81 106 137 174 215 255
#     4   8  13  22  39  64  89 108 132 173 218 254
#
# _framework density 16.380368000000001
#
# number of rings (size 3 to 8) (size 9 to 14) (size 15 to 20)
#    0.000    3.500    0.000    2.250    0.000    3.250 
#    0.000    0.625    0.000    2.625    0.000    7.000 
#    0.000    0.000    0.000    0.000    0.000    0.000 
#
# Total GULP energy -396524.306745 kJ/mol
# GULP energy per Si atom -12391.384586 kJ/mol
# Density = 1.634309 g / cm^3
# Si number density = 16.380368 Si / 1000 Ang^3
#
#
#
# Elastic Constant Matrix: (Units=GPa)
#
#
# Indices 1 2 3 4 5 6 
#
# 1 64.9113 21.9178 45.5402 0.0000 0.0000 0.0000
# 2 21.9178 64.8644 47.3500 0.0000 0.0000 0.0000
# 3 45.5402 47.3500 131.4678 0.0000 0.0000 0.0000
# 4 0.0000 0.0000 0.0000 15.7188 0.0000 0.0000
# 5 0.0000 0.0000 0.0000 0.0000 7.7228 0.0000
# 6 0.0000 0.0000 0.0000 0.0000 0.0000 6.7685
#
#
#
# Elastic Compliance Matrix: (Units=1/GPa)
#
#
# Indices 1 2 3 4 5 6 
#
# 1 0.020619 -0.002379 -0.006286 0.000000 0.000000 0.000000
# 2 -0.002379 0.021190 -0.006808 0.000000 0.000000 0.000000
# 3 -0.006286 -0.006808 0.012236 0.000000 0.000000 0.000000
# 4 0.000000 0.000000 0.000000 0.063618 0.000000 0.000000
# 5 0.000000 0.000000 0.000000 0.000000 0.129488 0.000000
# 6 0.000000 0.000000 0.000000 0.000000 0.000000 0.147744
#
#
# Mechanical properties :
#
#
# Convention : Reuss Voigt Hill
#
# Bulk Modulus (GPa) = 43.28983 54.53993 48.91488
# Shear Modulus (GPa) = 11.53299 15.80436 13.66868
#
# Velocity S-wave (km/s) = 2.65632 3.10955 2.89183
# Velocity P-wave (km/s) = 5.99110 6.80151 6.40913
#
# Compressibility (1/GPa) = 0.02310011
#
# Stress axis : x y z
#
# Youngs Moduli (GPa) = 48.49989 47.19146 81.72798
#
# Poissons Ratio (x) = 0.11226 0.51370
# Poissons Ratio (y) = 0.11537 0.55640
# Poissons Ratio (z) = 0.30485 0.32128
#
# Static dielectric constant tensor:
#      x y z
#    x 3.089390 0.000000 0.000000 
#    y 0.000000 2.924570 0.000000 
#    z 0.000000 0.000000 3.173970 
# 
# 
# High freq. dielectric constant tensor:
#      x y z
#    x 1.606550 0.000000 0.000000 
#    y 0.000000 1.594570 0.000000 
#    z 0.000000 0.000000 1.616590 
# 
# From -- ./inp_files/4394.got.cif
#   From: 2010.03.12/outbox.cif.g09.slc.cpg/sg25_3_cif.got.tgz:4394.got - 2010.04.14 03:30:10.
