data_PCOD8167588
_publ_section_title
;
Structure prediction by ZEFSAII (Michael W. Deem and Ramdas Pophale) SiO2 
 PCOD8167588
Probable space group: P M C 21
;
_chemical_formula_sum "Si O2"
_cell_formula_units_Z 32
_cell_length_a 8.781523
_cell_length_b 11.951010
_cell_length_c 15.027114
_cell_angle_alpha 90.000000
_cell_angle_beta 90.000000
_cell_angle_gamma 90.000000
_cell_volume 1577.066600
_symmetry_space_group_name_H-M "P M C 21"
_symmetry_group_IT_number 26
_symmetry_cell_setting 'orthorhombic'
loop_
_space_group_symop_operation_xyz
x,y,z
-x,-y,1/2+z
-x,y,z
x,-y,1/2+z
loop_
_atom_site_type_symbol
_atom_site_label
_atom_site_fract_x
_atom_site_fract_y
_atom_site_fract_z
Si Si1 0.673589 0.462240 0.446200
Si Si2 0.178585 0.607481 0.298270
Si Si3 0.325961 0.533028 0.644727
Si Si4 0.169666 0.750161 0.681407
Si Si5 0.820235 0.996989 0.641854
Si Si6 0.830612 0.250416 0.385400
Si Si7 0.319963 0.148871 0.791994
Si Si8 0.178827 0.993771 0.936678
O O1 0.500000 0.483986 0.417368
O O2 0.779917 0.544444 0.389600
O O3 0.699650 0.478899 0.549756
O O4 0.714238 0.332582 0.433190
O O5 0.219929 0.529584 0.214991
O O6 0.266678 0.723622 0.291404
O O7 0.000000 0.631578 0.297491
O O8 0.500000 0.525010 0.676993
O O9 0.279634 0.662774 0.633029
O O10 0.236200 0.874543 0.671560
O O11 0.162646 0.714653 0.783436
O O12 0.000000 0.744917 0.638966
O O13 0.000000 0.010783 0.656003
O O14 0.740203 0.089003 0.702975
O O15 0.771499 0.010500 0.539459
O O16 0.771788 0.123929 0.394217
O O17 0.000000 0.260989 0.428011
O O18 0.500000 0.145627 0.790348
O O19 0.263435 0.091050 0.882897
O O20 0.000000 0.016314 0.926373
#
# Coordination Sequence:
#
# PCOD8167588 Si02
#       8
#     4   4   4   4   4   4   4   4
#     4  11  25  43  64  94 130 165 206 262 323 379
#     4  12  26  45  68  91 124 171 219 263 311 374
#     4  11  25  43  64  94 130 165 206 262 323 379
#     4  10  20  38  64  93 125 162 210 262 309 369
#     4  10  22  42  67  95 126 167 216 263 310 370
#     4  10  20  38  64  93 125 162 210 262 309 369
#     4  12  26  43  64  93 132 171 209 261 325 382
#     4  10  22  42  67  95 126 167 216 263 310 370
#
# _framework density 20.290835999999999
#
# number of rings (size 3 to 8) (size 9 to 14) (size 15 to 20)
#    0.000    1.250    2.500    3.000    3.500    3.500 
#    0.000    0.000    0.000    0.000    0.000    0.000 
#    0.000    0.000    0.000    0.000    0.000    0.000 
#
# Total GULP energy -396929.522550 kJ/mol
# GULP energy per Si atom -12404.047580 kJ/mol
# Density = 2.024465 g / cm^3
# Si number density = 20.290836 Si / 1000 Ang^3
#
#
#
# Elastic Constant Matrix: (Units=GPa)
#
#
# Indices 1 2 3 4 5 6 
#
# 1 83.8265 28.4625 38.9472 0.0000 0.0000 0.0000
# 2 28.4625 104.3521 15.9133 0.0000 0.0000 0.0000
# 3 38.9472 15.9133 69.3451 0.0000 0.0000 0.0000
# 4 0.0000 0.0000 0.0000 33.8585 0.0000 0.0000
# 5 0.0000 0.0000 0.0000 0.0000 25.2372 0.0000
# 6 0.0000 0.0000 0.0000 0.0000 0.0000 8.8262
#
#
#
# Elastic Compliance Matrix: (Units=1/GPa)
#
#
# Indices 1 2 3 4 5 6 
#
# 1 0.017192 -0.003333 -0.008891 0.000000 0.000000 0.000000
# 2 -0.003333 0.010577 -0.000555 0.000000 0.000000 0.000000
# 3 -0.008891 -0.000555 0.019541 0.000000 0.000000 0.000000
# 4 0.000000 0.000000 0.000000 0.029535 0.000000 0.000000
# 5 0.000000 0.000000 0.000000 0.000000 0.039624 0.000000
# 6 0.000000 0.000000 0.000000 0.000000 0.000000 0.113299
#
#
# Mechanical properties :
#
#
# Convention : Reuss Voigt Hill
#
# Bulk Modulus (GPa) = 45.97310 47.12997 46.55153
# Shear Modulus (GPa) = 19.04201 25.19775 22.11988
#
# Velocity S-wave (km/s) = 3.06674 3.52778 3.30531
# Velocity P-wave (km/s) = 5.93685 6.31437 6.12852
#
# Compressibility (1/GPa) = 0.02175185
#
# Stress axis : x y z
#
# Youngs Moduli (GPa) = 58.16636 94.54681 51.17317
#
# Poissons Ratio (x) = 0.31516 0.45497
# Poissons Ratio (y) = 0.19389 0.02840
# Poissons Ratio (z) = 0.51715 0.05247
#
# Static dielectric constant tensor:
#      x y z
#    x 3.661830 0.000000 0.000000 
#    y 0.000000 3.792230 0.000000 
#    z 0.000000 0.000000 3.705040 
# 
# 
# High freq. dielectric constant tensor:
#      x y z
#    x 1.786840 0.000000 0.000000 
#    y 0.000000 1.807310 0.000000 
#    z 0.000000 0.000000 1.797330 
# 
# From -- ./inp_files/4257.got.cif
#   From: 2010.03.12/outbox.cif.g09.slc.cpg/sg26_3_cif.got.tgz:4257.got - 2010.04.14 03:33:09.
