data_PCOD8167617
_publ_section_title
;
Structure prediction by ZEFSAII (Michael W. Deem and Ramdas Pophale) SiO2 
 PCOD8167617
Probable space group: P M C 21
;
_chemical_formula_sum "Si O2"
_cell_formula_units_Z 24
_cell_length_a 8.541622
_cell_length_b 26.651301
_cell_length_c 5.168422
_cell_angle_alpha 90.000000
_cell_angle_beta 90.000000
_cell_angle_gamma 90.000000
_cell_volume 1176.567178
_symmetry_space_group_name_H-M "P M C 21"
_symmetry_group_IT_number 26
_symmetry_cell_setting 'orthorhombic'
loop_
_space_group_symop_operation_xyz
x,y,z
-x,-y,1/2+z
-x,y,z
x,-y,1/2+z
loop_
_atom_site_type_symbol
_atom_site_label
_atom_site_fract_x
_atom_site_fract_y
_atom_site_fract_z
Si Si1 0.318576 0.864027 0.629350
Si Si2 0.315843 0.357495 0.158580
Si Si3 0.815760 0.027231 0.134895
Si Si4 0.682182 0.800093 0.132905
Si Si5 0.181623 0.692158 0.157996
Si Si6 0.313601 0.471406 0.128742
O O1 0.500000 0.878716 0.619471
O O2 0.219073 0.914208 0.638162
O O3 0.268248 0.832753 0.378952
O O4 0.277825 0.831457 0.878950
O O5 0.500000 0.353696 0.108959
O O6 0.279540 0.338606 0.446525
O O7 0.254266 0.414335 0.132937
O O8 0.229726 0.323861 0.946241
O O9 0.000000 0.019314 0.134669
O O10 0.741175 0.999652 0.383940
O O11 0.500000 0.784729 0.144988
O O12 0.786577 0.750783 0.126381
O O13 0.000000 0.681283 0.113001
O O14 0.500000 0.472644 0.133897
O O15 0.246462 0.501133 0.375594
#
# Coordination Sequence:
#
# PCOD8167617 Si02
#       6
#     4   4   4   4   4   4
#     4  10  21  36  57  83 109 141 184 235 283 333
#     4  11  22  39  64  89 118 159 200 243 298 353
#     4  10  21  36  54  78 109 145 182 221 271 334
#     4  10  21  38  58  82 112 147 190 235 286 346
#     4  12  25  40  60  89 123 157 198 247 297 353
#     4   9  17  31  55  87 115 143 192 249 289 335
#
# _framework density 20.398325
#
# number of rings (size 3 to 8) (size 9 to 14) (size 15 to 20)
#    0.000    1.667    0.000    5.000    0.000    6.000 
#    0.000    0.000    0.000   10.000    0.000    0.000 
#    0.000    0.000    0.000    0.000    0.000    0.000 
#
# Total GULP energy -297729.940523 kJ/mol
# GULP energy per Si atom -12405.414188 kJ/mol
# Density = 2.035190 g / cm^3
# Si number density = 20.398325 Si / 1000 Ang^3
#
#
#
# Elastic Constant Matrix: (Units=GPa)
#
#
# Indices 1 2 3 4 5 6 
#
# 1 35.6633 27.8708 21.6098 0.0000 0.0000 0.0000
# 2 27.8708 124.3313 51.2535 0.0000 0.0000 0.0000
# 3 21.6098 51.2535 154.6537 0.0000 0.0000 0.0000
# 4 0.0000 0.0000 0.0000 35.3532 0.0000 0.0000
# 5 0.0000 0.0000 0.0000 0.0000 17.1018 0.0000
# 6 0.0000 0.0000 0.0000 0.0000 0.0000 -1.9193
#
#
#
# Elastic Compliance Matrix: (Units=1/GPa)
#
#
# Indices 1 2 3 4 5 6 
#
# 1 0.034906 -0.006734 -0.002646 0.000000 0.000000 0.000000
# 2 -0.006734 0.010615 -0.002577 0.000000 0.000000 0.000000
# 3 -0.002646 -0.002577 0.007690 0.000000 0.000000 0.000000
# 4 0.000000 0.000000 0.000000 0.028286 0.000000 0.000000
# 5 0.000000 0.000000 0.000000 0.000000 0.058473 0.000000
# 6 0.000000 0.000000 0.000000 0.000000 0.000000 -0.521012
#
#
# Mechanical properties :
#
#
# Convention : Reuss Voigt Hill
#
# Bulk Modulus (GPa) = 34.13301 57.34630 45.73965
# Shear Modulus (GPa) = -14.39415 24.36808 4.98697
#
# Velocity S-wave (km/s) = -2.65930 3.46007 1.56528
# Velocity P-wave (km/s) = 2.70932 6.64357 5.07333
#
# Compressibility (1/GPa) = 0.02929715
#
# Stress axis : x y z
#
# Youngs Moduli (GPa) = 28.64850 94.20759 130.04326
#
# Poissons Ratio (x) = 0.63440 0.34405
# Poissons Ratio (y) = 0.19292 0.33511
# Poissons Ratio (z) = 0.07580 0.24276
#
# Static dielectric constant tensor:
#      x y z
#    x 3.349630 0.000000 0.000000 
#    y 0.000000 3.718530 0.000000 
#    z 0.000000 0.000000 4.008580 
# 
# 
# High freq. dielectric constant tensor:
#      x y z
#    x 1.768110 0.000000 0.000000 
#    y 0.000000 1.811380 0.000000 
#    z 0.000000 0.000000 1.820170 
# 
# From -- ./inp_files/189.got.cif
#   From: 2010.03.12/outbox.cif.g09.slc.cpg/sg26_1_cif.got.tgz:189.got - 2010.04.14 03:33:09.
