data_PCOD8167665
_publ_section_title
;
Structure prediction by ZEFSAII (Michael W. Deem and Ramdas Pophale) SiO2 
 PCOD8167665
Probable space group: P M C 21
;
_chemical_formula_sum "Si O2"
_cell_formula_units_Z 32
_cell_length_a 13.227235
_cell_length_b 11.883999
_cell_length_c 9.354387
_cell_angle_alpha 90.000000
_cell_angle_beta 90.000000
_cell_angle_gamma 90.000000
_cell_volume 1470.438988
_symmetry_space_group_name_H-M "P M C 21"
_symmetry_group_IT_number 26
_symmetry_cell_setting 'orthorhombic'
loop_
_space_group_symop_operation_xyz
x,y,z
-x,-y,1/2+z
-x,y,z
x,-y,1/2+z
loop_
_atom_site_type_symbol
_atom_site_label
_atom_site_fract_x
_atom_site_fract_y
_atom_site_fract_z
Si Si1 0.383401 0.851824 0.188450
Si Si2 0.110885 0.715373 0.628671
Si Si3 0.809572 0.069350 0.240191
Si Si4 0.888776 0.352774 0.454755
Si Si5 0.731455 0.541417 0.523956
Si Si6 0.619575 0.603063 0.249239
Si Si7 0.115410 0.889913 0.045517
Si Si8 0.615659 0.945303 0.881623
O O1 0.500000 0.830620 0.163080
O O2 0.336931 0.726281 0.203093
O O3 0.368275 0.923181 0.335690
O O4 0.348791 0.920491 0.044263
O O5 0.138639 0.847372 0.626648
O O6 0.104585 0.679786 0.791402
O O7 0.197742 0.648226 0.549211
O O8 0.000000 0.698317 0.556314
O O9 0.869318 0.057965 0.388570
O O10 0.695574 0.115801 0.275470
O O11 0.811223 0.946089 0.165031
O O12 0.803987 0.444915 0.467109
O O13 0.859054 0.242820 0.546813
O O14 0.000000 0.397089 0.504953
O O15 0.646351 0.578853 0.412920
O O16 0.673525 0.496026 0.661758
O O17 0.500000 0.593909 0.228602
O O18 0.000000 0.911633 0.090990
O O19 0.500000 0.907030 0.849927
#
# Coordination Sequence:
#
# PCOD8167665 Si02
#       8
#     4   4   4   4   4   4   4   4
#     4   9  21  41  62  91 131 173 220 278 330 389
#     4  10  22  42  64  94 130 168 217 278 336 396
#     4  11  22  37  63  93 131 172 218 265 336 398
#     4   9  20  40  65  94 127 168 219 273 331 397
#     4  12  23  43  69  93 130 174 229 268 345 391
#     4  11  26  44  67  98 138 177 227 287 336 403
#     4  10  21  39  62  90 129 168 212 269 332 403
#     4  10  21  38  63  95 132 176 223 270 331 399
#
# _framework density 21.762207
#
# number of rings (size 3 to 8) (size 9 to 14) (size 15 to 20)
#    0.000    1.750    1.250    3.375    5.250    2.000 
#    0.000    2.500    0.000    0.000    0.000    0.000 
#    0.000    0.000    0.000    0.000    0.000    0.000 
#
# Total GULP energy -396560.236631 kJ/mol
# GULP energy per Si atom -12392.507395 kJ/mol
# Density = 2.171268 g / cm^3
# Si number density = 21.762207 Si / 1000 Ang^3
#
#
#
# Elastic Constant Matrix: (Units=GPa)
#
#
# Indices 1 2 3 4 5 6 
#
# 1 97.3039 18.3617 18.5897 0.0000 0.0000 0.0000
# 2 18.3617 67.7230 35.0324 0.0000 0.0000 0.0000
# 3 18.5897 35.0324 63.5989 0.0000 0.0000 0.0000
# 4 0.0000 0.0000 0.0000 33.0056 0.0000 0.0000
# 5 0.0000 0.0000 0.0000 0.0000 30.1338 0.0000
# 6 0.0000 0.0000 0.0000 0.0000 0.0000 32.6578
#
#
#
# Elastic Compliance Matrix: (Units=1/GPa)
#
#
# Indices 1 2 3 4 5 6 
#
# 1 0.011049 -0.001853 -0.002209 0.000000 0.000000 0.000000
# 2 -0.001853 0.020961 -0.011004 0.000000 0.000000 0.000000
# 3 -0.002209 -0.011004 0.022431 0.000000 0.000000 0.000000
# 4 0.000000 0.000000 0.000000 0.030298 0.000000 0.000000
# 5 0.000000 0.000000 0.000000 0.000000 0.033185 0.000000
# 6 0.000000 0.000000 0.000000 0.000000 0.000000 0.030621
#
#
# Mechanical properties :
#
#
# Convention : Reuss Voigt Hill
#
# Bulk Modulus (GPa) = 41.13867 41.39925 41.26896
# Shear Modulus (GPa) = 26.76962 29.60226 28.18594
#
# Velocity S-wave (km/s) = 3.51108 3.69217 3.60276
# Velocity P-wave (km/s) = 5.94825 6.10253 6.02589
#
# Compressibility (1/GPa) = 0.02430803
#
# Stress axis : x y z
#
# Youngs Moduli (GPa) = 90.50809 47.70797 44.58182
#
# Poissons Ratio (x) = 0.08841 0.09847
# Poissons Ratio (y) = 0.16772 0.49059
# Poissons Ratio (z) = 0.19991 0.52499
#
# Static dielectric constant tensor:
#      x y z
#    x 4.793090 0.000000 0.000000 
#    y 0.000000 4.083200 0.000000 
#    z 0.000000 0.000000 3.740820 
# 
# 
# High freq. dielectric constant tensor:
#      x y z
#    x 1.880600 0.000000 0.000000 
#    y 0.000000 1.844540 0.000000 
#    z 0.000000 0.000000 1.836970 
# 
# From -- ./inp_files/2261.got.cif
#   From: 2010.03.12/outbox.cif.g09.slc.cpg/sg26_2_cif.got.tgz:2261.got - 2010.04.14 03:33:09.
