data_PCOD8167910
_publ_section_title
;
Structure prediction by ZEFSAII (Michael W. Deem and Ramdas Pophale) SiO2 
 PCOD8167910
Probable space group: P C C 2
;
_chemical_formula_sum "Si O2"
_cell_formula_units_Z 14
_cell_length_a 5.015546
_cell_length_b 13.120035
_cell_length_c 8.832383
_cell_angle_alpha 90.000000
_cell_angle_beta 90.000000
_cell_angle_gamma 90.000000
_cell_volume 581.207359
_symmetry_space_group_name_H-M "P C C 2"
_symmetry_group_IT_number 27
_symmetry_cell_setting 'orthorhombic'
loop_
_space_group_symop_operation_xyz
x,y,z
-x,-y,z
-x,y,1/2+z
x,-y,1/2+z
loop_
_atom_site_type_symbol
_atom_site_label
_atom_site_fract_x
_atom_site_fract_y
_atom_site_fract_z
Si Si1 0.000000 0.500000 0.987670
Si Si2 0.347434 0.822721 0.218015
Si Si3 0.684642 0.404020 0.236969
Si Si4 0.858939 0.109113 0.545205
O O1 0.154829 0.416671 0.890557
O O2 0.150248 0.584221 0.084902
O O3 0.453368 0.706753 0.239968
O O4 0.241541 0.868278 0.376082
O O5 0.599637 0.887065 0.155608
O O6 0.095925 0.816556 0.102374
O O7 0.500000 0.500000 0.233802
O O8 0.000000 0.000000 0.553840
#
# Coordination Sequence:
#
# PCOD8167910 Si02
#       4
#     2   4   4   4
#     4  10  24  42  68 104 160 196 242 302 364 440
#     4  12  28  48  83 112 155 205 256 315 398 457
#     4  11  25  42  72 107 155 195 251 299 374 454
#     4  12  28  52  79 115 150 198 263 327 387 458
#
# _framework density 24.087786000000001
#
# number of rings (size 3 to 8) (size 9 to 14) (size 15 to 20)
#    0.000    0.571    0.000    6.000   16.000    2.286 
#    0.000    1.429    0.000    0.000    0.000    0.000 
#    0.000    0.000    0.000    0.000    0.000    0.000 
#
# Total GULP energy -173455.232081 kJ/mol
# GULP energy per Si atom -12389.659434 kJ/mol
# Density = 2.403296 g / cm^3
# Si number density = 24.087786 Si / 1000 Ang^3
#
#
#
# Elastic Constant Matrix: (Units=GPa)
#
#
# Indices 1 2 3 4 5 6 
#
# 1 166.9899 69.4944 77.4507 0.0000 0.0000 0.0000
# 2 69.4944 174.0612 71.3211 0.0000 0.0000 0.0000
# 3 77.4507 71.3211 168.8119 0.0000 0.0000 0.0000
# 4 0.0000 0.0000 0.0000 13.4994 0.0000 0.0000
# 5 0.0000 0.0000 0.0000 0.0000 60.4430 0.0000
# 6 0.0000 0.0000 0.0000 0.0000 0.0000 42.3933
#
#
#
# Elastic Compliance Matrix: (Units=1/GPa)
#
#
# Indices 1 2 3 4 5 6 
#
# 1 0.008193 -0.002093 -0.002874 0.000000 0.000000 0.000000
# 2 -0.002093 0.007483 -0.002201 0.000000 0.000000 0.000000
# 3 -0.002874 -0.002201 0.008172 0.000000 0.000000 0.000000
# 4 0.000000 0.000000 0.000000 0.074077 0.000000 0.000000
# 5 0.000000 0.000000 0.000000 0.000000 0.016545 0.000000
# 6 0.000000 0.000000 0.000000 0.000000 0.000000 0.023589
#
#
# Mechanical properties :
#
#
# Convention : Reuss Voigt Hill
#
# Bulk Modulus (GPa) = 105.14630 105.15505 105.15068
# Shear Modulus (GPa) = 32.14082 42.70693 37.42387
#
# Velocity S-wave (km/s) = 3.65680 4.21523 3.94591
# Velocity P-wave (km/s) = 7.84701 8.21222 8.03169
#
# Compressibility (1/GPa) = 0.00951056
#
# Stress axis : x y z
#
# Youngs Moduli (GPa) = 122.06061 133.64238 122.36240
#
# Poissons Ratio (x) = 0.27973 0.35172
# Poissons Ratio (y) = 0.25549 0.26932
# Poissons Ratio (z) = 0.35086 0.29415
#
# Static dielectric constant tensor:
#      x y z
#    x 3.954870 0.000000 0.000000 
#    y 0.000000 4.230760 0.000000 
#    z 0.000000 0.000000 4.688600 
# 
# 
# High freq. dielectric constant tensor:
#      x y z
#    x 1.960020 0.000000 0.000000 
#    y 0.000000 1.965020 0.000000 
#    z 0.000000 0.000000 1.981030 
# 
# From -- ./inp_files/809.got.cif
#   From: 2010.03.12/outbox.cif.g09.slc.cpg/sg27_1_cif.got.tgz:809.got - 2010.04.14 03:36:05.
