data_PCOD8167554
_publ_section_title
;
Structure prediction by ZEFSAII (Michael W. Deem and Ramdas Pophale) SiO2 
 PCOD8167554
Probable space group: P M C 21
;
_chemical_formula_sum "Si O2"
_cell_formula_units_Z 32
_cell_length_a 15.089361
_cell_length_b 8.592961
_cell_length_c 11.391879
_cell_angle_alpha 90.000000
_cell_angle_beta 90.000000
_cell_angle_gamma 90.000000
_cell_volume 1477.097125
_symmetry_space_group_name_H-M "P M C 21"
_symmetry_group_IT_number 26
_symmetry_cell_setting 'orthorhombic'
loop_
_space_group_symop_operation_xyz
x,y,z
-x,-y,1/2+z
-x,y,z
x,-y,1/2+z
loop_
_atom_site_type_symbol
_atom_site_label
_atom_site_fract_x
_atom_site_fract_y
_atom_site_fract_z
Si Si1 0.760766 0.368051 0.885310
Si Si2 0.903709 0.849204 0.731210
Si Si3 0.664585 0.163270 0.514063
Si Si4 0.397663 0.284444 0.745273
Si Si5 0.099613 0.217337 0.714772
Si Si6 0.836531 0.688965 0.956387
Si Si7 0.402879 0.069116 0.283629
Si Si8 0.270900 0.837040 0.602570
O O1 0.672765 0.404207 0.805374
O O2 0.828586 0.268093 0.809197
O O3 0.823408 0.507484 0.928236
O O4 0.715441 0.275467 0.992916
O O5 0.897040 0.778494 0.862147
O O6 0.826584 0.788115 0.647319
O O7 0.000000 0.796671 0.681840
O O8 0.898174 0.033644 0.728227
O O9 0.618458 0.280842 0.605344
O O10 0.737827 0.251057 0.440110
O O11 0.590870 0.115571 0.419836
O O12 0.716319 0.017314 0.570315
O O13 0.500000 0.330844 0.773586
O O14 0.372003 0.110152 0.785911
O O15 0.125063 0.280768 0.585891
O O16 0.000000 0.278640 0.742702
O O17 0.500000 0.079504 0.225721
O O18 0.341383 0.186509 0.208042
#
# Coordination Sequence:
#
# PCOD8167554 Si02
#       8
#     4   4   4   4   4   4   4   4
#     4  12  26  43  66  97 141 185 217 270 345 409
#     4  11  24  43  70  99 128 172 228 283 334 396
#     4  11  19  39  68  93 129 173 233 282 333 392
#     4  10  21  39  65  97 134 178 223 279 341 402
#     4  11  25  46  70  99 135 174 224 284 338 398
#     4  12  25  43  70  95 134 180 224 272 340 409
#     4  10  20  36  67 104 132 170 233 291 333 387
#     4  11  22  39  66  96 133 176 222 279 336 401
#
# _framework density 21.664114999999999
#
# number of rings (size 3 to 8) (size 9 to 14) (size 15 to 20)
#    0.000    1.000    5.000    2.250    1.750    2.500 
#    0.000    1.250    0.000    0.000    0.000    0.000 
#    0.000    0.000    0.000    0.000    0.000    0.000 
#
# Total GULP energy -396486.427919 kJ/mol
# GULP energy per Si atom -12390.200872 kJ/mol
# Density = 2.161481 g / cm^3
# Si number density = 21.664115 Si / 1000 Ang^3
#
#
#
# Elastic Constant Matrix: (Units=GPa)
#
#
# Indices 1 2 3 4 5 6 
#
# 1 134.8160 25.6906 39.8029 0.0000 0.0000 0.0000
# 2 25.6906 41.4097 29.2242 0.0000 0.0000 0.0000
# 3 39.8029 29.2242 108.6275 0.0000 0.0000 0.0000
# 4 0.0000 0.0000 0.0000 18.9629 0.0000 0.0000
# 5 0.0000 0.0000 0.0000 0.0000 21.9259 0.0000
# 6 0.0000 0.0000 0.0000 0.0000 0.0000 -24.6502
#
#
#
# Elastic Compliance Matrix: (Units=1/GPa)
#
#
# Indices 1 2 3 4 5 6 
#
# 1 0.008807 -0.003933 -0.002169 0.000000 0.000000 0.000000
# 2 -0.003933 0.031565 -0.007051 0.000000 0.000000 0.000000
# 3 -0.002169 -0.007051 0.011897 0.000000 0.000000 0.000000
# 4 0.000000 0.000000 0.000000 0.052735 0.000000 0.000000
# 5 0.000000 0.000000 0.000000 0.000000 0.045608 0.000000
# 6 0.000000 0.000000 0.000000 0.000000 0.000000 -0.040568
#
#
# Mechanical properties :
#
#
# Convention : Reuss Voigt Hill
#
# Bulk Modulus (GPa) = 38.51526 52.69872 45.60699
# Shear Modulus (GPa) = 34.48129 15.92340 25.20235
#
# Velocity S-wave (km/s) = 3.99385 2.71405 3.41445
# Velocity P-wave (km/s) = 6.25178 5.84804 6.05328
#
# Compressibility (1/GPa) = 0.02596373
#
# Stress axis : x y z
#
# Youngs Moduli (GPa) = 113.54039 31.68044 84.05201
#
# Poissons Ratio (x) = 0.12461 0.18231
# Poissons Ratio (y) = 0.44660 0.59263
# Poissons Ratio (z) = 0.24627 0.22337
#
# Static dielectric constant tensor:
#      x y z
#    x 4.153730 0.000000 0.000000 
#    y 0.000000 3.620490 0.000000 
#    z 0.000000 0.000000 4.012290 
# 
# 
# High freq. dielectric constant tensor:
#      x y z
#    x 1.865410 0.000000 0.000000 
#    y 0.000000 1.816600 0.000000 
#    z 0.000000 0.000000 1.861150 
# 
# From -- ./inp_files/3608.got.cif
#   From: 2010.03.12/outbox.cif.g09.slc.cpg/sg26_2_cif.got.tgz:3608.got - 2010.04.14 03:33:09.
