data_PCOD8167481
_publ_section_title
;
Structure prediction by ZEFSAII (Michael W. Deem and Ramdas Pophale) SiO2 
 PCOD8167481
Probable space group: P M C 21
;
_chemical_formula_sum "Si O2"
_cell_formula_units_Z 32
_cell_length_a 13.203774
_cell_length_b 13.641839
_cell_length_c 9.126002
_cell_angle_alpha 90.000000
_cell_angle_beta 90.000000
_cell_angle_gamma 90.000000
_cell_volume 1643.809786
_symmetry_space_group_name_H-M "P M C 21"
_symmetry_group_IT_number 26
_symmetry_cell_setting 'orthorhombic'
loop_
_space_group_symop_operation_xyz
x,y,z
-x,-y,1/2+z
-x,y,z
x,-y,1/2+z
loop_
_atom_site_type_symbol
_atom_site_label
_atom_site_fract_x
_atom_site_fract_y
_atom_site_fract_z
Si Si1 0.763162 0.540780 0.806800
Si Si2 0.613356 0.696814 0.944704
Si Si3 0.879482 0.404154 0.021816
Si Si4 0.385080 0.630939 0.261922
Si Si5 0.791492 0.056048 0.776416
Si Si6 0.283431 0.850635 0.775302
Si Si7 0.737954 0.761307 0.459577
Si Si8 0.114305 0.907223 0.963533
O O1 0.697279 0.626628 0.876581
O O2 0.834124 0.586764 0.683420
O O3 0.685668 0.463004 0.736880
O O4 0.837742 0.493453 0.925401
O O5 0.500000 0.660624 0.904941
O O6 0.628656 0.806345 0.878772
O O7 0.626007 0.700456 0.120037
O O8 0.000000 0.407261 0.024692
O O9 0.843238 0.299532 0.955713
O O10 0.500000 0.595199 0.284917
O O11 0.352078 0.689751 0.407208
O O12 0.707106 0.030934 0.254150
O O13 0.739791 0.149409 0.847527
O O14 0.840413 0.087741 0.624869
O O15 0.878049 0.015063 0.887673
O O16 0.287467 0.797091 0.621027
O O17 0.176871 0.830742 0.861901
O O18 0.000000 0.870117 0.971114
#
# Coordination Sequence:
#
# PCOD8167481 Si02
#       8
#     4   4   4   4   4   4   4   4
#     4  11  21  43  63  92 128 163 212 261 320 380
#     4  11  22  40  65  92 124 165 211 264 323 383
#     4  11  24  40  64  92 129 171 210 258 319 386
#     4  10  23  40  64  93 124 163 211 268 323 381
#     4  10  20  38  59  84 129 167 210 263 314 360
#     4  10  21  39  58  92 124 161 211 263 312 371
#     4  11  22  40  63  90 130 165 211 266 315 381
#     4  10  20  34  59  87 120 165 211 255 305 360
#
# _framework density 19.466972999999999
#
# number of rings (size 3 to 8) (size 9 to 14) (size 15 to 20)
#    0.750    0.750    3.750    1.875    0.000    2.000 
#    0.000    0.625    0.000    0.750    0.000    0.000 
#    0.000    0.000    0.000    0.000    0.000    0.000 
#
# Total GULP energy -396639.960731 kJ/mol
# GULP energy per Si atom -12394.998773 kJ/mol
# Density = 1.942267 g / cm^3
# Si number density = 19.466973 Si / 1000 Ang^3
#
#
#
# Elastic Constant Matrix: (Units=GPa)
#
#
# Indices 1 2 3 4 5 6 
#
# 1 117.9486 36.0502 39.3846 0.0000 0.0000 0.0000
# 2 36.0502 77.3087 23.1972 0.0000 0.0000 0.0000
# 3 39.3846 23.1972 103.2178 0.0000 0.0000 0.0000
# 4 0.0000 0.0000 0.0000 32.1575 0.0000 0.0000
# 5 0.0000 0.0000 0.0000 0.0000 27.3695 0.0000
# 6 0.0000 0.0000 0.0000 0.0000 0.0000 19.5145
#
#
#
# Elastic Compliance Matrix: (Units=1/GPa)
#
#
# Indices 1 2 3 4 5 6 
#
# 1 0.010792 -0.004071 -0.003203 0.000000 0.000000 0.000000
# 2 -0.004071 0.015407 -0.001909 0.000000 0.000000 0.000000
# 3 -0.003203 -0.001909 0.011339 0.000000 0.000000 0.000000
# 4 0.000000 0.000000 0.000000 0.031097 0.000000 0.000000
# 5 0.000000 0.000000 0.000000 0.000000 0.036537 0.000000
# 6 0.000000 0.000000 0.000000 0.000000 0.000000 0.051244
#
#
# Mechanical properties :
#
#
# Convention : Reuss Voigt Hill
#
# Bulk Modulus (GPa) = 52.16086 55.08211 53.62148
# Shear Modulus (GPa) = 27.59788 29.13117 28.36452
#
# Velocity S-wave (km/s) = 3.76929 3.87258 3.82129
# Velocity P-wave (km/s) = 6.76728 6.95359 6.86107
#
# Compressibility (1/GPa) = 0.01917146
#
# Stress axis : x y z
#
# Youngs Moduli (GPa) = 92.65951 64.90746 88.18811
#
# Poissons Ratio (x) = 0.26427 0.28246
# Poissons Ratio (y) = 0.37726 0.16834
# Poissons Ratio (z) = 0.29678 0.12390
#
# Static dielectric constant tensor:
#      x y z
#    x 3.384800 0.000000 0.000000 
#    y 0.000000 3.565190 0.000000 
#    z 0.000000 0.000000 3.681840 
# 
# 
# High freq. dielectric constant tensor:
#      x y z
#    x 1.738930 0.000000 0.000000 
#    y 0.000000 1.752990 0.000000 
#    z 0.000000 0.000000 1.775990 
# 
# From -- ./inp_files/1975.got.cif
#   From: 2010.03.12/outbox.cif.g09.slc.cpg/sg26_1_cif.got.tgz:1975.got - 2010.04.14 03:33:09.
