data_PCOD8167193
_publ_section_title
;
Structure prediction by ZEFSAII (Michael W. Deem and Ramdas Pophale) SiO2 
 PCOD8167193
Probable space group: P M C 21
;
_chemical_formula_sum "Si O2"
_cell_formula_units_Z 32
_cell_length_a 9.122754
_cell_length_b 11.552171
_cell_length_c 17.632714
_cell_angle_alpha 90.000000
_cell_angle_beta 90.000000
_cell_angle_gamma 90.000000
_cell_volume 1858.269660
_symmetry_space_group_name_H-M "P M C 21"
_symmetry_group_IT_number 26
_symmetry_cell_setting 'orthorhombic'
loop_
_space_group_symop_operation_xyz
x,y,z
-x,-y,1/2+z
-x,y,z
x,-y,1/2+z
loop_
_atom_site_type_symbol
_atom_site_label
_atom_site_fract_x
_atom_site_fract_y
_atom_site_fract_z
Si Si1 0.834591 0.547980 0.326140
Si Si2 0.326050 0.242299 0.764622
Si Si3 0.671832 0.126867 0.919956
Si Si4 0.166848 0.442082 0.534021
Si Si5 0.161083 0.676259 0.486131
Si Si6 0.331501 0.646226 0.893869
Si Si7 0.328534 0.875548 0.968986
Si Si8 0.831582 0.781385 0.115660
O O1 0.738314 0.628249 0.271114
O O2 0.828985 0.601505 0.409609
O O3 0.766005 0.418022 0.329727
O O4 0.000000 0.540850 0.294496
O O5 0.500000 0.248821 0.757837
O O6 0.274367 0.165276 0.836492
O O7 0.259034 0.181931 0.690053
O O8 0.500000 0.132769 0.924356
O O9 0.729004 0.215936 0.984338
O O10 0.728276 0.998462 0.937697
O O11 0.194827 0.579696 0.551975
O O12 0.291192 0.401296 0.476419
O O13 0.180503 0.358864 0.606950
O O14 0.000000 0.429423 0.500135
O O15 0.000000 0.730054 0.496809
O O16 0.500000 0.617791 0.876295
O O17 0.302944 0.784566 0.899731
O O18 0.500000 0.877905 0.991749
O O19 0.233972 0.845837 0.042781
O O20 0.000000 0.819919 0.125270
#
# Coordination Sequence:
#
# PCOD8167193 Si02
#       8
#     4   4   4   4   4   4   4   4
#     4   9  16  27  43  64  91 118 144 179 226 276
#     4  10  19  31  48  70  95 123 156 196 242 291
#     4   9  18  31  47  68  94 125 161 198 236 278
#     4   8  15  27  42  62  89 117 143 176 224 277
#     4   8  14  25  42  64  88 113 142 179 221 265
#     4   9  15  24  42  66  89 113 144 183 223 265
#     4   9  18  32  48  68  95 126 161 199 236 278
#     4  10  19  31  48  70  95 123 155 194 242 292
#
# _framework density 17.220320000000001
#
# number of rings (size 3 to 8) (size 9 to 14) (size 15 to 20)
#    0.000    3.000    0.000    2.250    0.000    5.000 
#    0.000    0.000    0.000    1.500    0.000    1.750 
#    0.000    0.000    0.000    0.000    0.000    0.000 
#
# Total GULP energy -396482.309669 kJ/mol
# GULP energy per Si atom -12390.072177 kJ/mol
# Density = 1.718113 g / cm^3
# Si number density = 17.220320 Si / 1000 Ang^3
#
#
#
# Elastic Constant Matrix: (Units=GPa)
#
#
# Indices 1 2 3 4 5 6 
#
# 1 74.3453 45.2509 31.6193 0.0000 0.0000 0.0000
# 2 45.2509 125.9266 35.7880 0.0000 0.0000 0.0000
# 3 31.6193 35.7880 53.3141 0.0000 0.0000 0.0000
# 4 0.0000 0.0000 0.0000 15.4037 0.0000 0.0000
# 5 0.0000 0.0000 0.0000 0.0000 20.4735 0.0000
# 6 0.0000 0.0000 0.0000 0.0000 0.0000 23.8202
#
#
#
# Elastic Compliance Matrix: (Units=1/GPa)
#
#
# Indices 1 2 3 4 5 6 
#
# 1 0.020029 -0.004722 -0.008709 0.000000 0.000000 0.000000
# 2 -0.004722 0.010927 -0.004534 0.000000 0.000000 0.000000
# 3 -0.008709 -0.004534 0.026965 0.000000 0.000000 0.000000
# 4 0.000000 0.000000 0.000000 0.064919 0.000000 0.000000
# 5 0.000000 0.000000 0.000000 0.000000 0.048844 0.000000
# 6 0.000000 0.000000 0.000000 0.000000 0.000000 0.041981
#
#
# Mechanical properties :
#
#
# Convention : Reuss Voigt Hill
#
# Bulk Modulus (GPa) = 45.47379 53.21138 49.34259
# Shear Modulus (GPa) = 19.46091 21.33466 20.39779
#
# Velocity S-wave (km/s) = 3.36536 3.52365 3.44542
# Velocity P-wave (km/s) = 6.44711 6.89364 6.67411
#
# Compressibility (1/GPa) = 0.02199069
#
# Stress axis : x y z
#
# Youngs Moduli (GPa) = 49.92798 91.51977 37.08471
#
# Poissons Ratio (x) = 0.43218 0.32296
# Poissons Ratio (y) = 0.23577 0.16814
# Poissons Ratio (z) = 0.43481 0.41495
#
# Static dielectric constant tensor:
#      x y z
#    x 3.254620 0.000000 0.000000 
#    y 0.000000 3.480830 0.000000 
#    z 0.000000 0.000000 2.914570 
# 
# 
# High freq. dielectric constant tensor:
#      x y z
#    x 1.673430 0.000000 0.000000 
#    y 0.000000 1.657860 0.000000 
#    z 0.000000 0.000000 1.616890 
# 
# From -- ./inp_files/5008.got.cif
#   From: 2010.03.12/outbox.cif.g09.slc.cpg/sg26_3_cif.got.tgz:5008.got - 2010.04.14 03:33:09.
