data_PCOD8167506
_publ_section_title
;
Structure prediction by ZEFSAII (Michael W. Deem and Ramdas Pophale) SiO2 
 PCOD8167506
Probable space group: P M C 21
;
_chemical_formula_sum "Si O2"
_cell_formula_units_Z 32
_cell_length_a 8.931190
_cell_length_b 14.392325
_cell_length_c 12.191489
_cell_angle_alpha 90.000000
_cell_angle_beta 90.000000
_cell_angle_gamma 90.000000
_cell_volume 1567.101178
_symmetry_space_group_name_H-M "P M C 21"
_symmetry_group_IT_number 26
_symmetry_cell_setting 'orthorhombic'
loop_
_space_group_symop_operation_xyz
x,y,z
-x,-y,1/2+z
-x,y,z
x,-y,1/2+z
loop_
_atom_site_type_symbol
_atom_site_label
_atom_site_fract_x
_atom_site_fract_y
_atom_site_fract_z
Si Si1 0.328857 0.461886 0.644370
Si Si2 0.166859 0.142916 0.744026
Si Si3 0.669573 0.312051 0.815416
Si Si4 0.673333 0.951850 0.429669
Si Si5 0.672819 0.763934 0.547466
Si Si6 0.823790 0.359321 0.216084
Si Si7 0.168553 0.135520 0.493722
Si Si8 0.323204 0.327565 0.445529
O O1 0.500000 0.492932 0.623563
O O2 0.314124 0.414773 0.765054
O O3 0.224692 0.552107 0.643621
O O4 0.275733 0.392397 0.547918
O O5 0.212557 0.250699 0.748156
O O6 0.291514 0.085303 0.808692
O O7 0.170255 0.109591 0.620491
O O8 0.000000 0.130465 0.794132
O O9 0.500000 0.274905 0.795392
O O10 0.704405 0.306287 0.945308
O O11 0.500000 0.977341 0.440387
O O12 0.717315 0.869750 0.515244
O O13 0.770165 0.043784 0.437371
O O14 0.500000 0.759125 0.582271
O O15 0.771419 0.733147 0.651337
O O16 0.749630 0.366758 0.335138
O O17 0.000000 0.356442 0.230337
O O18 0.270523 0.222999 0.466147
O O19 0.000000 0.156084 0.452200
O O20 0.500000 0.326794 0.430748
#
# Coordination Sequence:
#
# PCOD8167506 Si02
#       8
#     4   4   4   4   4   4   4   4
#     4  10  22  41  66  93 120 160 211 259 308 371
#     4  10  20  35  57  87 123 159 197 252 316 374
#     4   9  18  36  63  90 115 150 203 259 304 362
#     4  10  22  39  63  91 121 165 217 263 307 371
#     4   9  20  40  63  89 123 163 213 262 307 368
#     4  12  27  42  61  92 133 171 207 260 322 382
#     4  11  23  39  62  93 129 164 202 257 321 379
#     4  11  24  44  69  93 124 166 214 262 309 373
#
# _framework density 20.419868999999998
#
# number of rings (size 3 to 8) (size 9 to 14) (size 15 to 20)
#    0.000    1.750    1.250    3.375    1.750    6.500 
#    0.000    2.500    0.000    0.000    0.000    0.000 
#    0.000    0.000    0.000    0.000    0.000    0.000 
#
# Total GULP energy -396806.179896 kJ/mol
# GULP energy per Si atom -12400.193122 kJ/mol
# Density = 2.037339 g / cm^3
# Si number density = 20.419869 Si / 1000 Ang^3
#
#
#
# Elastic Constant Matrix: (Units=GPa)
#
#
# Indices 1 2 3 4 5 6 
#
# 1 93.6700 39.7500 38.2248 0.0000 0.0000 0.0000
# 2 39.7500 101.2135 34.7549 0.0000 0.0000 0.0000
# 3 38.2248 34.7549 77.4940 0.0000 0.0000 0.0000
# 4 0.0000 0.0000 0.0000 24.4202 0.0000 0.0000
# 5 0.0000 0.0000 0.0000 0.0000 31.1236 0.0000
# 6 0.0000 0.0000 0.0000 0.0000 0.0000 25.1482
#
#
#
# Elastic Compliance Matrix: (Units=1/GPa)
#
#
# Indices 1 2 3 4 5 6 
#
# 1 0.014525 -0.003835 -0.005445 0.000000 0.000000 0.000000
# 2 -0.003835 0.012691 -0.003800 0.000000 0.000000 0.000000
# 3 -0.005445 -0.003800 0.017294 0.000000 0.000000 0.000000
# 4 0.000000 0.000000 0.000000 0.040950 0.000000 0.000000
# 5 0.000000 0.000000 0.000000 0.000000 0.032130 0.000000
# 6 0.000000 0.000000 0.000000 0.000000 0.000000 0.039764
#
#
# Mechanical properties :
#
#
# Convention : Reuss Voigt Hill
#
# Bulk Modulus (GPa) = 54.49360 55.31522 54.90441
# Shear Modulus (GPa) = 26.36703 26.78159 26.57431
#
# Velocity S-wave (km/s) = 3.59729 3.62546 3.61140
# Velocity P-wave (km/s) = 6.63313 6.68378 6.65851
#
# Compressibility (1/GPa) = 0.01835078
#
# Stress axis : x y z
#
# Youngs Moduli (GPa) = 68.84656 78.79543 57.82267
#
# Poissons Ratio (x) = 0.30217 0.31483
# Poissons Ratio (y) = 0.26402 0.21974
# Poissons Ratio (z) = 0.37485 0.29944
#
# Static dielectric constant tensor:
#      x y z
#    x 3.777060 0.000000 0.000000 
#    y 0.000000 3.620970 0.000000 
#    z 0.000000 0.000000 3.697720 
# 
# 
# High freq. dielectric constant tensor:
#      x y z
#    x 1.798140 0.000000 0.000000 
#    y 0.000000 1.795090 0.000000 
#    z 0.000000 0.000000 1.796630 
# 
# From -- ./inp_files/2972.got.cif
#   From: 2010.03.12/outbox.cif.g09.slc.cpg/sg26_2_cif.got.tgz:2972.got - 2010.04.14 03:33:09.
