data_PCOD8167215
_publ_section_title
;
Structure prediction by ZEFSAII (Michael W. Deem and Ramdas Pophale) SiO2 
 PCOD8167215
Probable space group: P M C 21
;
_chemical_formula_sum "Si O2"
_cell_formula_units_Z 28
_cell_length_a 12.711966
_cell_length_b 14.183022
_cell_length_c 9.150379
_cell_angle_alpha 90.000000
_cell_angle_beta 90.000000
_cell_angle_gamma 90.000000
_cell_volume 1649.759286
_symmetry_space_group_name_H-M "P M C 21"
_symmetry_group_IT_number 26
_symmetry_cell_setting 'orthorhombic'
loop_
_space_group_symop_operation_xyz
x,y,z
-x,-y,1/2+z
-x,y,z
x,-y,1/2+z
loop_
_atom_site_type_symbol
_atom_site_label
_atom_site_fract_x
_atom_site_fract_y
_atom_site_fract_z
Si Si1 0.194696 0.236594 0.214800
Si Si2 0.194606 0.783403 0.374576
Si Si3 0.122413 0.604972 0.214588
Si Si4 0.000000 0.087802 0.893593
Si Si5 0.877500 0.584236 0.875338
Si Si6 0.000000 0.108323 0.233834
Si Si7 0.618948 0.083379 0.893838
Si Si8 0.618791 0.896580 0.731840
O O1 0.189673 0.336741 0.293441
O O2 0.102298 0.169378 0.272854
O O3 0.305999 0.191865 0.260803
O O4 0.184828 0.251829 0.041204
O O5 0.188556 0.694561 0.267514
O O6 0.306078 0.832356 0.341057
O O7 0.102596 0.857146 0.337834
O O8 0.157601 0.515890 0.310660
O O9 0.000000 0.627078 0.239639
O O10 0.148095 0.584505 0.046424
O O11 0.000000 0.076856 0.066863
O O12 0.000000 0.983276 0.832684
O O13 0.000000 0.602910 0.843352
O O14 0.500000 0.107785 0.843729
O O15 0.656991 0.984683 0.827411
O O16 0.627484 0.069828 0.066035
O O17 0.500000 0.865992 0.772399
#
# Coordination Sequence:
#
# PCOD8167215 Si02
#       8
#     4   4   4   2   4   2   4   4
#     4  10  19  32  49  70  99 131 162 200 243 289
#     4  10  19  32  49  70  99 131 162 200 243 289
#     4  10  20  33  51  74  99 128 161 199 242 293
#     4  10  20  30  43  66  97 130 159 192 238 286
#     4  10  20  33  51  74  99 128 161 199 242 293
#     4  10  20  30  43  66  97 130 159 192 238 286
#     4   9  18  32  50  72  98 131 169 206 243 283
#     4   9  18  32  50  72  98 131 169 206 243 283
#
# _framework density 16.972173999999999
#
# number of rings (size 3 to 8) (size 9 to 14) (size 15 to 20)
#    0.000    2.286    1.429    1.714    0.000    3.429 
#    0.000    0.000    0.000    0.857    0.000    0.000 
#    0.000    0.000    0.000    0.000    0.000    0.000 
#
# Total GULP energy -347297.915565 kJ/mol
# GULP energy per Si atom -12403.496984 kJ/mol
# Density = 1.693354 g / cm^3
# Si number density = 16.972174 Si / 1000 Ang^3
#
#
#
# Elastic Constant Matrix: (Units=GPa)
#
#
# Indices 1 2 3 4 5 6 
#
# 1 70.1787 23.8795 15.3218 0.0000 0.0000 0.0000
# 2 23.8795 45.8631 3.0367 0.0000 0.0000 0.0000
# 3 15.3218 3.0367 27.2447 0.0000 0.0000 0.0000
# 4 0.0000 0.0000 0.0000 38.4792 0.0000 0.0000
# 5 0.0000 0.0000 0.0000 0.0000 15.5108 0.0000
# 6 0.0000 0.0000 0.0000 0.0000 0.0000 24.1860
#
#
#
# Elastic Compliance Matrix: (Units=1/GPa)
#
#
# Indices 1 2 3 4 5 6 
#
# 1 0.019699 -0.009594 -0.010009 0.000000 0.000000 0.000000
# 2 -0.009594 0.026639 0.002426 0.000000 0.000000 0.000000
# 3 -0.010009 0.002426 0.042063 0.000000 0.000000 0.000000
# 4 0.000000 0.000000 0.000000 0.025988 0.000000 0.000000
# 5 0.000000 0.000000 0.000000 0.000000 0.064471 0.000000
# 6 0.000000 0.000000 0.000000 0.000000 0.000000 0.041346
#
#
# Mechanical properties :
#
#
# Convention : Reuss Voigt Hill
#
# Bulk Modulus (GPa) = 18.50234 25.30695 21.90464
# Shear Modulus (GPa) = 18.34357 22.37176 20.35767
#
# Velocity S-wave (km/s) = 3.29112 3.63456 3.46710
# Velocity P-wave (km/s) = 5.03659 5.70584 5.38163
#
# Compressibility (1/GPa) = 0.05404721
#
# Stress axis : x y z
#
# Youngs Moduli (GPa) = 50.76386 37.53943 23.77396
#
# Poissons Ratio (x) = 0.36015 0.23795
# Poissons Ratio (y) = 0.48703 -0.05768
# Poissons Ratio (z) = 0.50809 -0.09108
#
# Static dielectric constant tensor:
#      x y z
#    x 3.215300 0.000000 0.000000 
#    y 0.000000 3.090990 0.000000 
#    z 0.000000 0.000000 3.136640 
# 
# 
# High freq. dielectric constant tensor:
#      x y z
#    x 1.639600 0.000000 0.000000 
#    y 0.000000 1.652960 0.000000 
#    z 0.000000 0.000000 1.655920 
# 
# From -- ./inp_files/1916.got.cif
#   From: 2010.03.12/outbox.cif.g09.slc.cpg/sg26_1_cif.got.tgz:1916.got - 2010.04.14 03:33:09.
