data_PCOD8167458
_publ_section_title
;
Structure prediction by ZEFSAII (Michael W. Deem and Ramdas Pophale) SiO2 
 PCOD8167458
Probable space group: P M C 21
;
_chemical_formula_sum "Si O2"
_cell_formula_units_Z 32
_cell_length_a 9.217266
_cell_length_b 11.209258
_cell_length_c 16.432608
_cell_angle_alpha 90.000000
_cell_angle_beta 90.000000
_cell_angle_gamma 90.000000
_cell_volume 1697.795904
_symmetry_space_group_name_H-M "P M C 21"
_symmetry_group_IT_number 26
_symmetry_cell_setting 'orthorhombic'
loop_
_space_group_symop_operation_xyz
x,y,z
-x,-y,1/2+z
-x,y,z
x,-y,1/2+z
loop_
_atom_site_type_symbol
_atom_site_label
_atom_site_fract_x
_atom_site_fract_y
_atom_site_fract_z
Si Si1 0.661586 0.655194 0.121690
Si Si2 0.327201 0.307812 0.899650
Si Si3 0.830871 0.071983 0.205706
Si Si4 0.828927 0.803448 0.243570
Si Si5 0.328727 0.574056 0.946550
Si Si6 0.168028 0.284251 0.318901
Si Si7 0.342552 0.592920 0.693432
Si Si8 0.664842 0.793438 0.569511
O O1 0.500000 0.711666 0.111211
O O2 0.773555 0.749901 0.158177
O O3 0.652803 0.547595 0.184717
O O4 0.721575 0.600036 0.038196
O O5 0.500000 0.304757 0.887357
O O6 0.250304 0.255375 0.820289
O O7 0.274385 0.444215 0.915678
O O8 0.281461 0.223914 0.976420
O O9 0.785104 0.157451 0.280626
O O10 0.754511 0.108828 0.120834
O O11 0.000000 0.083423 0.187106
O O12 0.787287 0.942067 0.236965
O O13 0.000000 0.783143 0.252430
O O14 0.500000 0.579788 0.938268
O O15 0.259299 0.684923 0.898400
O O16 0.207803 0.383027 0.251899
O O17 0.000000 0.289958 0.340704
O O18 0.500000 0.632762 0.730990
O O19 0.321082 0.661655 0.608384
O O20 0.500000 0.838842 0.570097
#
# Coordination Sequence:
#
# PCOD8167458 Si02
#       8
#     4   4   4   4   4   4   4   4
#     4  10  20  36  57  80 112 147 179 224 280 334
#     4  10  20  37  60  87 116 144 181 230 283 338
#     4   9  21  41  57  74 109 152 190 227 275 328
#     4  11  24  40  56  79 113 155 194 229 276 332
#     4  10  20  36  57  84 116 145 176 220 283 343
#     4  10  20  34  54  80 108 142 183 226 268 320
#     4   9  16  31  55  81 108 140 174 216 277 333
#     4   9  17  33  60  87 108 137 183 232 272 324
#
# _framework density 18.847966
#
# number of rings (size 3 to 8) (size 9 to 14) (size 15 to 20)
#    0.000    2.250    1.250    1.500    0.000    6.500 
#    2.250    0.000    0.000    0.000    0.000    0.000 
#    0.000    0.000    0.000    0.000    0.000    0.000 
#
# Total GULP energy -396635.632850 kJ/mol
# GULP energy per Si atom -12394.863527 kJ/mol
# Density = 1.880507 g / cm^3
# Si number density = 18.847966 Si / 1000 Ang^3
#
#
#
# Elastic Constant Matrix: (Units=GPa)
#
#
# Indices 1 2 3 4 5 6 
#
# 1 53.2715 50.8192 47.3810 0.0000 0.0000 0.0000
# 2 50.8192 108.9198 67.4150 0.0000 0.0000 0.0000
# 3 47.3810 67.4150 110.9149 0.0000 0.0000 0.0000
# 4 0.0000 0.0000 0.0000 28.1858 0.0000 0.0000
# 5 0.0000 0.0000 0.0000 0.0000 21.2667 0.0000
# 6 0.0000 0.0000 0.0000 0.0000 0.0000 28.2831
#
#
#
# Elastic Compliance Matrix: (Units=1/GPa)
#
#
# Indices 1 2 3 4 5 6 
#
# 1 0.038619 -0.012516 -0.008890 0.000000 0.000000 0.000000
# 2 -0.012516 0.018774 -0.006065 0.000000 0.000000 0.000000
# 3 -0.008890 -0.006065 0.016500 0.000000 0.000000 0.000000
# 4 0.000000 0.000000 0.000000 0.035479 0.000000 0.000000
# 5 0.000000 0.000000 0.000000 0.000000 0.047022 0.000000
# 6 0.000000 0.000000 0.000000 0.000000 0.000000 0.035357
#
#
# Mechanical properties :
#
#
# Convention : Reuss Voigt Hill
#
# Bulk Modulus (GPa) = 52.76613 67.14852 59.95733
# Shear Modulus (GPa) = 19.76221 22.71319 21.23770
#
# Velocity S-wave (km/s) = 3.24158 3.47518 3.36041
# Velocity P-wave (km/s) = 6.48590 7.19766 6.85103
#
# Compressibility (1/GPa) = 0.01895155
#
# Stress axis : x y z
#
# Youngs Moduli (GPa) = 25.89429 53.26406 60.60771
#
# Poissons Ratio (x) = 0.66666 0.53879
# Poissons Ratio (y) = 0.32410 0.36756
# Poissons Ratio (z) = 0.23019 0.32302
#
# Static dielectric constant tensor:
#      x y z
#    x 3.396660 0.000000 0.000000 
#    y 0.000000 3.450440 0.000000 
#    z 0.000000 0.000000 3.519260 
# 
# 
# High freq. dielectric constant tensor:
#      x y z
#    x 1.722990 0.000000 0.000000 
#    y 0.000000 1.721210 0.000000 
#    z 0.000000 0.000000 1.736000 
# 
# From -- ./inp_files/4249.got.cif
#   From: 2010.03.12/outbox.cif.g09.slc.cpg/sg26_3_cif.got.tgz:4249.got - 2010.04.14 03:33:09.
