data_PCOD8167963
_publ_section_title
;
Structure prediction by ZEFSAII (Michael W. Deem and Ramdas Pophale) SiO2 
 PCOD8167963
Probable space group: P C C 2
;
_chemical_formula_sum "Si O2"
_cell_formula_units_Z 16
_cell_length_a 12.358034
_cell_length_b 4.838285
_cell_length_c 9.553162
_cell_angle_alpha 90.000000
_cell_angle_beta 90.000000
_cell_angle_gamma 90.000000
_cell_volume 571.199706
_symmetry_space_group_name_H-M "P C C 2"
_symmetry_group_IT_number 27
_symmetry_cell_setting 'orthorhombic'
loop_
_space_group_symop_operation_xyz
x,y,z
-x,-y,z
-x,y,1/2+z
x,-y,1/2+z
loop_
_atom_site_type_symbol
_atom_site_label
_atom_site_fract_x
_atom_site_fract_y
_atom_site_fract_z
Si Si1 0.318982 0.851976 0.316130
Si Si2 0.000000 0.500000 0.916885
Si Si3 0.500000 0.500000 0.456213
Si Si4 0.500000 0.000000 0.147697
Si Si5 0.000000 0.000000 0.725401
Si Si6 0.818982 0.851976 0.556967
O O1 0.394092 0.599974 0.370673
O O2 0.400067 0.084222 0.249632
O O3 0.250000 0.731979 0.186549
O O4 0.250000 0.999998 0.436549
O O5 0.959052 0.749265 0.820017
O O6 0.894092 0.400025 0.002424
O O7 0.540948 0.749265 0.553081
O O8 0.900068 0.084222 0.623466
#
# Coordination Sequence:
#
# PCOD8167963 Si02
#       6
#     4   2   2   2   2   4
#     4  12  28  59  95 137 188 252 307 389 478 548
#     4  12  28  58  90 138 186 240 320 382 460 578
#     4  12  28  58  90 138 186 240 320 382 460 578
#     4  12  28  58  86 138 186 236 318 390 448 580
#     4  12  28  58  86 138 186 236 318 390 448 580
#     4  12  28  59  95 137 188 252 307 389 478 548
#
# _framework density 28.011218
#
# number of rings (size 3 to 8) (size 9 to 14) (size 15 to 20)
#    0.000    0.000    5.000    3.000    0.000    2.000 
#    9.000    0.000    0.000    0.000    0.000    0.000 
#    0.000    0.000    0.000    0.000    0.000    0.000 
#
# Total GULP energy -198269.379394 kJ/mol
# GULP energy per Si atom -12391.836212 kJ/mol
# Density = 2.794746 g / cm^3
# Si number density = 28.011218 Si / 1000 Ang^3
#
#
#
# Elastic Constant Matrix: (Units=GPa)
#
#
# Indices 1 2 3 4 5 6 
#
# 1 235.6498 79.6741 144.2500 0.0000 0.0000 0.0000
# 2 79.6741 150.6012 95.0453 0.0000 0.0000 0.0000
# 3 144.2500 95.0453 254.6584 0.0000 0.0000 0.0000
# 4 0.0000 0.0000 0.0000 27.2859 0.0000 0.0000
# 5 0.0000 0.0000 0.0000 0.0000 14.7203 0.0000
# 6 0.0000 0.0000 0.0000 0.0000 0.0000 59.1902
#
#
#
# Elastic Compliance Matrix: (Units=1/GPa)
#
#
# Indices 1 2 3 4 5 6 
#
# 1 0.006750 -0.001515 -0.003258 0.000000 0.000000 0.000000
# 2 -0.001515 0.009026 -0.002511 0.000000 0.000000 0.000000
# 3 -0.003258 -0.002511 0.006710 0.000000 0.000000 0.000000
# 4 0.000000 0.000000 0.000000 0.036649 0.000000 0.000000
# 5 0.000000 0.000000 0.000000 0.000000 0.067933 0.000000
# 6 0.000000 0.000000 0.000000 0.000000 0.000000 0.016895
#
#
# Mechanical properties :
#
#
# Convention : Reuss Voigt Hill
#
# Bulk Modulus (GPa) = 126.29158 142.09425 134.19292
# Shear Modulus (GPa) = 31.02322 41.70196 36.36259
#
# Velocity S-wave (km/s) = 3.33157 3.86263 3.60689
# Velocity P-wave (km/s) = 7.74487 8.41017 8.08437
#
# Compressibility (1/GPa) = 0.00791818
#
# Stress axis : x y z
#
# Youngs Moduli (GPa) = 148.14211 110.79163 149.04231
#
# Poissons Ratio (x) = 0.16783 0.48562
# Poissons Ratio (y) = 0.22441 0.37419
# Poissons Ratio (z) = 0.48269 0.27816
#
# Static dielectric constant tensor:
#      x y z
#    x 5.665240 0.000000 0.000000 
#    y 0.000000 4.750680 0.000000 
#    z 0.000000 0.000000 5.887650 
# 
# 
# High freq. dielectric constant tensor:
#      x y z
#    x 2.160900 0.000000 0.000000 
#    y 0.000000 2.103750 0.000000 
#    z 0.000000 0.000000 2.173550 
# 
# From -- ./inp_files/1537.got.cif
#   From: 2010.03.12/outbox.cif.g09.slc.cpg/sg27_1_cif.got.tgz:1537.got - 2010.04.14 03:36:05.
