data_PCOD8167753
_publ_section_title
;
Structure prediction by ZEFSAII (Michael W. Deem and Ramdas Pophale) SiO2 
 PCOD8167753
Probable space group: P M C 21
;
_chemical_formula_sum "Si O2"
_cell_formula_units_Z 24
_cell_length_a 13.370414
_cell_length_b 9.995170
_cell_length_c 8.702716
_cell_angle_alpha 90.000000
_cell_angle_beta 90.000000
_cell_angle_gamma 90.000000
_cell_volume 1163.027145
_symmetry_space_group_name_H-M "P M C 21"
_symmetry_group_IT_number 26
_symmetry_cell_setting 'orthorhombic'
loop_
_space_group_symop_operation_xyz
x,y,z
-x,-y,1/2+z
-x,y,z
x,-y,1/2+z
loop_
_atom_site_type_symbol
_atom_site_label
_atom_site_fract_x
_atom_site_fract_y
_atom_site_fract_z
Si Si1 0.683102 0.387795 0.056530
Si Si2 0.387765 0.637056 0.886051
Si Si3 0.889820 0.539795 0.542589
Si Si4 0.697377 0.152913 0.839986
Si Si5 0.889783 0.304587 0.742632
Si Si6 0.615814 0.916822 0.018066
O O1 0.612258 0.380479 0.202741
O O2 0.798858 0.370999 0.113484
O O3 0.680593 0.532504 0.975943
O O4 0.650601 0.279910 0.928689
O O5 0.500000 0.613888 0.945348
O O6 0.352169 0.785992 0.924075
O O7 0.873485 0.380786 0.579365
O O8 0.883344 0.569371 0.360320
O O9 0.000000 0.585038 0.604377
O O10 0.809133 0.188621 0.779395
O O11 0.628098 0.111344 0.698411
O O12 0.692790 0.031457 0.962062
O O13 0.000000 0.236556 0.749468
O O14 0.500000 0.957264 0.988102
#
# Coordination Sequence:
#
# PCOD8167753 Si02
#       6
#     4   4   4   4   4   4
#     4  11  21  36  59  87 117 148 188 241 292 340
#     4  11  23  37  56  84 116 149 189 237 293 351
#     4   9  17  31  54  84 116 147 180 221 274 337
#     4  11  23  39  60  83 113 151 196 244 289 347
#     4   9  18  34  58  88 120 153 188 231 286 347
#     4  11  24  41  59  80 110 154 201 242 294 356
#
# _framework density 20.635805000000001
#
# number of rings (size 3 to 8) (size 9 to 14) (size 15 to 20)
#    0.000    1.667    0.000    6.000    0.000    5.333 
#    0.000    0.833    0.000    4.000    0.000    0.000 
#    0.000    0.000    0.000    0.000    0.000    0.000 
#
# Total GULP energy -297422.891146 kJ/mol
# GULP energy per Si atom -12392.620464 kJ/mol
# Density = 2.058884 g / cm^3
# Si number density = 20.635805 Si / 1000 Ang^3
#
#
#
# Elastic Constant Matrix: (Units=GPa)
#
#
# Indices 1 2 3 4 5 6 
#
# 1 80.6279 60.0300 33.7212 0.0000 0.0000 0.0000
# 2 60.0300 112.1819 35.2092 0.0000 0.0000 0.0000
# 3 33.7212 35.2092 76.8678 0.0000 0.0000 0.0000
# 4 0.0000 0.0000 0.0000 43.2815 0.0000 0.0000
# 5 0.0000 0.0000 0.0000 0.0000 25.9332 0.0000
# 6 0.0000 0.0000 0.0000 0.0000 0.0000 27.9609
#
#
#
# Elastic Compliance Matrix: (Units=1/GPa)
#
#
# Indices 1 2 3 4 5 6 
#
# 1 0.022153 -0.010282 -0.005008 0.000000 0.000000 0.000000
# 2 -0.010282 0.015183 -0.002444 0.000000 0.000000 0.000000
# 3 -0.005008 -0.002444 0.016326 0.000000 0.000000 0.000000
# 4 0.000000 0.000000 0.000000 0.023105 0.000000 0.000000
# 5 0.000000 0.000000 0.000000 0.000000 0.038561 0.000000
# 6 0.000000 0.000000 0.000000 0.000000 0.000000 0.035764
#
#
# Mechanical properties :
#
#
# Convention : Reuss Voigt Hill
#
# Bulk Modulus (GPa) = 54.96706 58.62204 56.79455
# Shear Modulus (GPa) = 25.95713 28.81628 27.38670
#
# Velocity S-wave (km/s) = 3.55049 3.74093 3.64695
# Velocity P-wave (km/s) = 6.59565 6.86505 6.73170
#
# Compressibility (1/GPa) = 0.01819271
#
# Stress axis : x y z
#
# Youngs Moduli (GPa) = 45.14085 65.86153 61.25217
#
# Poissons Ratio (x) = 0.67721 0.30678
# Poissons Ratio (y) = 0.46415 0.14970
# Poissons Ratio (z) = 0.22608 0.16096
#
# Static dielectric constant tensor:
#      x y z
#    x 3.844480 0.000000 0.000000 
#    y 0.000000 3.560510 0.000000 
#    z 0.000000 0.000000 3.730280 
# 
# 
# High freq. dielectric constant tensor:
#      x y z
#    x 1.815560 0.000000 0.000000 
#    y 0.000000 1.778040 0.000000 
#    z 0.000000 0.000000 1.809920 
# 
# From -- ./inp_files/2109.got.cif
#   From: 2010.03.12/outbox.cif.g09.slc.cpg/sg26_2_cif.got.tgz:2109.got - 2010.04.14 03:33:09.
