data_PCOD8167310
_publ_section_title
;
Structure prediction by ZEFSAII (Michael W. Deem and Ramdas Pophale) SiO2 
 PCOD8167310
Probable space group: P M C 21
;
_chemical_formula_sum "Si O2"
_cell_formula_units_Z 32
_cell_length_a 9.058721
_cell_length_b 16.300174
_cell_length_c 11.106992
_cell_angle_alpha 90.000000
_cell_angle_beta 90.000000
_cell_angle_gamma 90.000000
_cell_volume 1640.044316
_symmetry_space_group_name_H-M "P M C 21"
_symmetry_group_IT_number 26
_symmetry_cell_setting 'orthorhombic'
loop_
_space_group_symop_operation_xyz
x,y,z
-x,-y,1/2+z
-x,y,z
x,-y,1/2+z
loop_
_atom_site_type_symbol
_atom_site_label
_atom_site_fract_x
_atom_site_fract_y
_atom_site_fract_z
Si Si1 0.174935 0.958776 0.588230
Si Si2 0.674126 0.534656 0.633744
Si Si3 0.837161 0.214224 0.177267
Si Si4 0.326511 0.644233 0.091811
Si Si5 0.824297 0.062578 0.818724
Si Si6 0.673257 0.235956 0.792217
Si Si7 0.164864 0.347532 0.972002
Si Si8 0.673678 0.665460 0.829568
O O1 0.232932 0.867714 0.619525
O O2 0.225548 0.978983 0.448601
O O3 0.000000 0.962566 0.591067
O O4 0.236246 0.016922 0.697344
O O5 0.500000 0.542616 0.607201
O O6 0.725402 0.440540 0.655883
O O7 0.762351 0.568158 0.517796
O O8 0.720561 0.587514 0.749600
O O9 0.735282 0.247456 0.283865
O O10 0.000000 0.193809 0.229209
O O11 0.848848 0.283600 0.078802
O O12 0.500000 0.637390 0.077887
O O13 0.286095 0.727670 0.161359
O O14 0.255169 0.650111 0.959935
O O15 0.763903 0.154297 0.815997
O O16 0.000000 0.067207 0.816067
O O17 0.500000 0.218242 0.808582
O O18 0.722291 0.309466 0.877772
O O19 0.000000 0.363870 0.919016
O O20 0.500000 0.675535 0.833045
#
# Coordination Sequence:
#
# PCOD8167310 Si02
#       8
#     4   4   4   4   4   4   4   4
#     4   9  18  34  58  83 109 143 185 229 280 343
#     4   9  18  33  56  80 102 139 186 226 270 328
#     4   9  17  33  55  78 104 136 176 222 272 327
#     4   9  20  35  53  78 110 145 184 229 274 329
#     4  10  20  38  60  84 112 147 191 238 288 344
#     4  11  22  36  56  82 112 150 190 229 275 333
#     4  10  19  34  56  80 109 140 177 227 274 322
#     4   9  18  33  52  77 106 138 179 226 275 328
#
# _framework density 19.511668
#
# number of rings (size 3 to 8) (size 9 to 14) (size 15 to 20)
#    0.000    2.500    1.250    0.750    1.750    1.500 
#    0.000    5.625    0.000    0.000    0.000    0.000 
#    0.000    0.000    0.000    0.000    0.000    0.000 
#
# Total GULP energy -396477.680458 kJ/mol
# GULP energy per Si atom -12389.927514 kJ/mol
# Density = 1.946726 g / cm^3
# Si number density = 19.511668 Si / 1000 Ang^3
#
#
#
# Elastic Constant Matrix: (Units=GPa)
#
#
# Indices 1 2 3 4 5 6 
#
# 1 25.5872 13.3601 21.7480 0.0000 0.0000 0.0000
# 2 13.3601 62.4608 46.4042 0.0000 0.0000 0.0000
# 3 21.7480 46.4042 136.3468 0.0000 0.0000 0.0000
# 4 0.0000 0.0000 0.0000 24.9641 0.0000 0.0000
# 5 0.0000 0.0000 0.0000 0.0000 18.9544 0.0000
# 6 0.0000 0.0000 0.0000 0.0000 0.0000 24.1028
#
#
#
# Elastic Compliance Matrix: (Units=1/GPa)
#
#
# Indices 1 2 3 4 5 6 
#
# 1 0.046822 -0.005978 -0.005434 0.000000 0.000000 0.000000
# 2 -0.005978 0.022191 -0.006599 0.000000 0.000000 0.000000
# 3 -0.005434 -0.006599 0.010447 0.000000 0.000000 0.000000
# 4 0.000000 0.000000 0.000000 0.040058 0.000000 0.000000
# 5 0.000000 0.000000 0.000000 0.000000 0.052758 0.000000
# 6 0.000000 0.000000 0.000000 0.000000 0.000000 0.041489
#
#
# Mechanical properties :
#
#
# Convention : Reuss Voigt Hill
#
# Bulk Modulus (GPa) = 23.02116 43.04661 33.03389
# Shear Modulus (GPa) = 18.92033 23.12977 21.02505
#
# Velocity S-wave (km/s) = 3.11737 3.44675 3.28619
# Velocity P-wave (km/s) = 4.97811 6.16035 5.60052
#
# Compressibility (1/GPa) = 0.04343829
#
# Stress axis : x y z
#
# Youngs Moduli (GPa) = 21.35753 45.06247 95.72250
#
# Poissons Ratio (x) = 0.26939 0.52013
# Poissons Ratio (y) = 0.12768 0.63168
# Poissons Ratio (z) = 0.11605 0.29737
#
# Static dielectric constant tensor:
#      x y z
#    x 3.406350 0.000000 0.000000 
#    y 0.000000 3.618370 0.000000 
#    z 0.000000 0.000000 4.243740 
# 
# 
# High freq. dielectric constant tensor:
#      x y z
#    x 1.727760 0.000000 0.000000 
#    y 0.000000 1.756220 0.000000 
#    z 0.000000 0.000000 1.764130 
# 
# From -- ./inp_files/3062.got.cif
#   From: 2010.03.12/outbox.cif.g09.slc.cpg/sg26_2_cif.got.tgz:3062.got - 2010.04.14 03:33:09.
