data_PCOD8167367
_publ_section_title
;
Structure prediction by ZEFSAII (Michael W. Deem and Ramdas Pophale) SiO2 
 PCOD8167367
Probable space group: P M C 21
;
_chemical_formula_sum "Si O2"
_cell_formula_units_Z 32
_cell_length_a 8.766504
_cell_length_b 19.019766
_cell_length_c 10.340158
_cell_angle_alpha 90.000000
_cell_angle_beta 90.000000
_cell_angle_gamma 90.000000
_cell_volume 1724.085422
_symmetry_space_group_name_H-M "P M C 21"
_symmetry_group_IT_number 26
_symmetry_cell_setting 'orthorhombic'
loop_
_space_group_symop_operation_xyz
x,y,z
-x,-y,1/2+z
-x,y,z
x,-y,1/2+z
loop_
_atom_site_type_symbol
_atom_site_label
_atom_site_fract_x
_atom_site_fract_y
_atom_site_fract_z
Si Si1 0.819088 0.075451 0.635850
Si Si2 0.818444 0.841463 0.882749
Si Si3 0.324445 0.149974 0.880339
Si Si4 0.821320 0.299022 0.495543
Si Si5 0.673098 0.293010 0.759001
Si Si6 0.678162 0.547746 0.287146
Si Si7 0.818225 0.544876 0.010395
Si Si8 0.180254 0.084754 0.128851
O O1 0.764893 0.112048 0.503937
O O2 0.733762 0.111945 0.752902
O O3 0.000000 0.081029 0.657649
O O4 0.762255 0.995174 0.628196
O O5 0.756772 0.760951 0.898383
O O6 0.748855 0.874834 0.752691
O O7 0.000000 0.841923 0.877076
O O8 0.500000 0.130653 0.901947
O O9 0.300725 0.234242 0.868554
O O10 0.228752 0.124995 0.001402
O O11 0.783617 0.275136 0.640700
O O12 0.757270 0.377321 0.468545
O O13 0.000000 0.301244 0.480427
O O14 0.500000 0.290639 0.706489
O O15 0.709018 0.370035 0.815527
O O16 0.500000 0.528836 0.290096
O O17 0.764933 0.508116 0.400959
O O18 0.745379 0.524495 0.148427
O O19 0.000000 0.542594 0.024741
O O20 0.000000 0.085733 0.136449
#
# Coordination Sequence:
#
# PCOD8167367 Si02
#       8
#     4   4   4   4   4   4   4   4
#     4  10  19  35  60  81 101 138 186 227 265 319
#     4   9  17  32  54  79 105 135 179 224 265 311
#     4  11  22  36  54  80 113 143 177 222 270 319
#     4   9  17  32  56  80 106 140 180 224 268 318
#     4   9  19  35  55  78 107 143 185 222 257 316
#     4  10  20  37  59  81 110 149 188 221 268 333
#     4  10  20  35  56  84 114 141 181 233 278 319
#     4  10  21  36  54  79 110 143 180 223 267 317
#
# _framework density 18.560565
#
# number of rings (size 3 to 8) (size 9 to 14) (size 15 to 20)
#    0.000    2.250    1.250    1.875    0.000    4.000 
#    2.250    1.250    0.000    0.000    0.000    0.000 
#    0.000    0.000    0.000    0.000    0.000    0.000 
#
# Total GULP energy -396737.152010 kJ/mol
# GULP energy per Si atom -12398.036000 kJ/mol
# Density = 1.851832 g / cm^3
# Si number density = 18.560565 Si / 1000 Ang^3
#
#
#
# Elastic Constant Matrix: (Units=GPa)
#
#
# Indices 1 2 3 4 5 6 
#
# 1 12.8359 12.6024 -3.2702 0.0000 0.0000 0.0000
# 2 12.6024 117.9923 53.1044 0.0000 0.0000 0.0000
# 3 -3.2702 53.1044 89.6881 0.0000 0.0000 0.0000
# 4 0.0000 0.0000 0.0000 30.4465 0.0000 0.0000
# 5 0.0000 0.0000 0.0000 0.0000 15.1814 0.0000
# 6 0.0000 0.0000 0.0000 0.0000 0.0000 18.6738
#
#
#
# Elastic Compliance Matrix: (Units=1/GPa)
#
#
# Indices 1 2 3 4 5 6 
#
# 1 0.097329 -0.016349 0.013229 0.000000 0.000000 0.000000
# 2 -0.016349 0.014301 -0.009063 0.000000 0.000000 0.000000
# 3 0.013229 -0.009063 0.016999 0.000000 0.000000 0.000000
# 4 0.000000 0.000000 0.000000 0.032845 0.000000 0.000000
# 5 0.000000 0.000000 0.000000 0.000000 0.065870 0.000000
# 6 0.000000 0.000000 0.000000 0.000000 0.000000 0.053551
#
#
# Mechanical properties :
#
#
# Convention : Reuss Voigt Hill
#
# Bulk Modulus (GPa) = 9.59132 38.37661 23.98397
# Shear Modulus (GPa) = 14.70525 23.39898 19.05211
#
# Velocity S-wave (km/s) = 2.81781 3.55446 3.20735
# Velocity P-wave (km/s) = 3.97058 6.12918 5.16393
#
# Compressibility (1/GPa) = 0.10426093
#
# Stress axis : x y z
#
# Youngs Moduli (GPa) = 10.27443 69.92746 58.82832
#
# Poissons Ratio (x) = 1.14328 -0.77826
# Poissons Ratio (y) = 0.16798 0.53319
# Poissons Ratio (z) = -0.13592 0.63379
#
# Static dielectric constant tensor:
#      x y z
#    x 3.267100 0.000000 0.000000 
#    y 0.000000 3.889750 0.000000 
#    z 0.000000 0.000000 3.527980 
# 
# 
# High freq. dielectric constant tensor:
#      x y z
#    x 1.705510 0.000000 0.000000 
#    y 0.000000 1.736400 0.000000 
#    z 0.000000 0.000000 1.710490 
# 
# From -- ./inp_files/1590.got.cif
#   From: 2010.03.12/outbox.cif.g09.slc.cpg/sg26_1_cif.got.tgz:1590.got - 2010.04.14 03:33:09.
