data_PCOD8167961
_publ_section_title
;
Structure prediction by ZEFSAII (Michael W. Deem and Ramdas Pophale) SiO2 
 PCOD8167961
Probable space group: P C C 2
;
_chemical_formula_sum "Si O2"
_cell_formula_units_Z 24
_cell_length_a 10.841235
_cell_length_b 9.102218
_cell_length_c 10.365448
_cell_angle_alpha 90.000000
_cell_angle_beta 90.000000
_cell_angle_gamma 90.000000
_cell_volume 1022.854991
_symmetry_space_group_name_H-M "P C C 2"
_symmetry_group_IT_number 27
_symmetry_cell_setting 'orthorhombic'
loop_
_space_group_symop_operation_xyz
x,y,z
-x,-y,z
-x,y,1/2+z
x,-y,1/2+z
loop_
_atom_site_type_symbol
_atom_site_label
_atom_site_fract_x
_atom_site_fract_y
_atom_site_fract_z
Si Si1 0.607162 0.278046 0.215420
Si Si2 0.239286 0.560537 0.659323
Si Si3 0.000000 0.000000 0.705454
Si Si4 0.392838 0.778046 0.508823
Si Si5 0.101011 0.750000 0.862122
Si Si6 0.000000 0.500000 0.018789
Si Si7 0.760714 0.060538 0.064920
O O1 0.657314 0.444312 0.203808
O O2 0.560845 0.250000 0.362122
O O3 0.500000 0.250000 0.112122
O O4 0.712968 0.161435 0.181905
O O5 0.287032 0.661436 0.542339
O O6 0.197970 0.658613 0.778715
O O7 0.119270 0.479297 0.607003
O O8 0.119270 0.979297 0.617240
O O9 0.997441 0.146989 0.789909
O O10 0.342686 0.944312 0.520435
O O11 0.002559 0.646989 0.934335
O O12 0.197970 0.841386 0.945528
#
# Coordination Sequence:
#
# PCOD8167961 Si02
#       7
#     4   4   2   4   4   2   4
#     4  12  30  51  81 111 155 208 267 325 394 471
#     4  12  27  50  76 114 158 202 262 322 397 473
#     4  12  26  46  76 118 154 208 252 330 394 474
#     4  12  30  51  81 111 155 208 267 325 394 471
#     4  12  26  44  80 114 160 202 260 320 404 468
#     4  12  26  46  76 118 154 208 252 330 394 474
#     4  12  27  50  76 114 158 202 262 322 397 473
#
# _framework density 23.463737999999999
#
# number of rings (size 3 to 8) (size 9 to 14) (size 15 to 20)
#    0.000    0.000    3.333    5.000    9.333    2.667 
#    0.000    0.000    0.000    0.000    0.000    0.000 
#    0.000    0.000    0.000    0.000    0.000    0.000 
#
# Total GULP energy -297652.171842 kJ/mol
# GULP energy per Si atom -12402.173827 kJ/mol
# Density = 2.341033 g / cm^3
# Si number density = 23.463738 Si / 1000 Ang^3
#
#
#
# Elastic Constant Matrix: (Units=GPa)
#
#
# Indices 1 2 3 4 5 6 
#
# 1 112.5590 39.4451 56.7572 0.0000 0.0000 0.0000
# 2 39.4451 150.0014 62.2497 0.0000 0.0000 0.0000
# 3 56.7572 62.2497 169.7240 0.0000 0.0000 0.0000
# 4 0.0000 0.0000 0.0000 48.2925 0.0000 0.0000
# 5 0.0000 0.0000 0.0000 0.0000 35.5876 0.0000
# 6 0.0000 0.0000 0.0000 0.0000 0.0000 47.8098
#
#
#
# Elastic Compliance Matrix: (Units=1/GPa)
#
#
# Indices 1 2 3 4 5 6 
#
# 1 0.011007 -0.001612 -0.003090 0.000000 0.000000 0.000000
# 2 -0.001612 0.008100 -0.002432 0.000000 0.000000 0.000000
# 3 -0.003090 -0.002432 0.007817 0.000000 0.000000 0.000000
# 4 0.000000 0.000000 0.000000 0.020707 0.000000 0.000000
# 5 0.000000 0.000000 0.000000 0.000000 0.028100 0.000000
# 6 0.000000 0.000000 0.000000 0.000000 0.000000 0.020916
#
#
# Mechanical properties :
#
#
# Convention : Reuss Voigt Hill
#
# Bulk Modulus (GPa) = 79.00838 83.24316 81.12577
# Shear Modulus (GPa) = 43.42824 44.59349 44.01086
#
# Velocity S-wave (km/s) = 4.30684 4.36423 4.33563
# Velocity P-wave (km/s) = 7.64705 7.80703 7.72746
#
# Compressibility (1/GPa) = 0.01265689
#
# Stress axis : x y z
#
# Youngs Moduli (GPa) = 90.85014 123.46185 127.92806
#
# Poissons Ratio (x) = 0.19906 0.39524
# Poissons Ratio (y) = 0.14648 0.31106
# Poissons Ratio (z) = 0.28068 0.30020
#
# Static dielectric constant tensor:
#      x y z
#    x 4.162580 0.000000 0.000000 
#    y 0.000000 4.362980 0.000000 
#    z 0.000000 0.000000 4.396760 
# 
# 
# High freq. dielectric constant tensor:
#      x y z
#    x 1.932860 0.000000 0.000000 
#    y 0.000000 1.949550 0.000000 
#    z 0.000000 0.000000 1.938800 
# 
# From -- ./inp_files/2587.got.cif
#   From: 2010.03.12/outbox.cif.g09.slc.cpg/sg27_2_cif.got.tgz:2587.got - 2010.04.14 03:36:05.
