data_PCOD8167241
_publ_section_title
;
Structure prediction by ZEFSAII (Michael W. Deem and Ramdas Pophale) SiO2 
 PCOD8167241
Probable space group: P M C 21
;
_chemical_formula_sum "Si O2"
_cell_formula_units_Z 32
_cell_length_a 9.014957
_cell_length_b 10.220483
_cell_length_c 19.032786
_cell_angle_alpha 90.000000
_cell_angle_beta 90.000000
_cell_angle_gamma 90.000000
_cell_volume 1753.627891
_symmetry_space_group_name_H-M "P M C 21"
_symmetry_group_IT_number 26
_symmetry_cell_setting 'orthorhombic'
loop_
_space_group_symop_operation_xyz
x,y,z
-x,-y,1/2+z
-x,y,z
x,-y,1/2+z
loop_
_atom_site_type_symbol
_atom_site_label
_atom_site_fract_x
_atom_site_fract_y
_atom_site_fract_z
Si Si1 0.669405 0.519580 0.186920
Si Si2 0.826591 0.879515 0.969429
Si Si3 0.828299 0.475151 0.826186
Si Si4 0.675957 0.611987 0.459624
Si Si5 0.172433 0.221031 0.320911
Si Si6 0.824748 0.150797 0.039731
Si Si7 0.327365 0.782753 0.677889
Si Si8 0.328449 0.643865 0.040602
O O1 0.500000 0.530011 0.213231
O O2 0.778617 0.565830 0.248296
O O3 0.702450 0.370590 0.164228
O O4 0.700987 0.614611 0.122154
O O5 0.774004 0.861682 0.888621
O O6 0.000000 0.854193 0.973224
O O7 0.755155 0.775233 0.021373
O O8 0.781782 0.022526 0.995599
O O9 0.732396 0.388760 0.879764
O O10 0.794677 0.627832 0.838219
O O11 0.000000 0.441043 0.836494
O O12 0.500000 0.629182 0.463530
O O13 0.750218 0.729376 0.500669
O O14 0.730504 0.477417 0.494892
O O15 0.266866 0.173853 0.254069
O O16 0.000000 0.199155 0.303439
O O17 0.759590 0.136996 0.118182
O O18 0.000000 0.171640 0.044189
O O19 0.500000 0.818012 0.673607
O O20 0.500000 0.665621 0.024725
#
# Coordination Sequence:
#
# PCOD8167241 Si02
#       8
#     4   4   4   4   4   4   4   4
#     4   9  18  34  53  80 114 145 181 230 281 331
#     4  10  22  39  57  82 115 149 186 231 280 331
#     4  10  19  32  54  85 113 144 184 231 284 333
#     4  11  21  36  57  83 113 146 184 230 279 329
#     4   9  18  34  55  81 111 143 184 230 277 334
#     4  11  23  38  57  82 114 152 190 230 279 332
#     4  10  19  34  56  82 112 144 184 232 280 333
#     4  10  20  35  57  83 110 143 183 226 278 331
#
# _framework density 18.247883999999999
#
# number of rings (size 3 to 8) (size 9 to 14) (size 15 to 20)
#    0.000    2.000    2.500    1.500    0.000    3.500 
#    0.000    1.250    0.000    1.500    0.000    0.000 
#    0.000    0.000    0.000    0.000    0.000    0.000 
#
# Total GULP energy -396909.023220 kJ/mol
# GULP energy per Si atom -12403.406976 kJ/mol
# Density = 1.820635 g / cm^3
# Si number density = 18.247884 Si / 1000 Ang^3
#
#
#
# Elastic Constant Matrix: (Units=GPa)
#
#
# Indices 1 2 3 4 5 6 
#
# 1 75.4986 44.4448 56.2979 0.0000 0.0000 0.0000
# 2 44.4448 57.6489 53.2264 0.0000 0.0000 0.0000
# 3 56.2979 53.2264 128.2628 0.0000 0.0000 0.0000
# 4 0.0000 0.0000 0.0000 23.3957 0.0000 0.0000
# 5 0.0000 0.0000 0.0000 0.0000 36.4544 0.0000
# 6 0.0000 0.0000 0.0000 0.0000 0.0000 24.8800
#
#
#
# Elastic Compliance Matrix: (Units=1/GPa)
#
#
# Indices 1 2 3 4 5 6 
#
# 1 0.026117 -0.015483 -0.005038 0.000000 0.000000 0.000000
# 2 -0.015483 0.037300 -0.008683 0.000000 0.000000 0.000000
# 3 -0.005038 -0.008683 0.013611 0.000000 0.000000 0.000000
# 4 0.000000 0.000000 0.000000 0.042743 0.000000 0.000000
# 5 0.000000 0.000000 0.000000 0.000000 0.027432 0.000000
# 6 0.000000 0.000000 0.000000 0.000000 0.000000 0.040193
#
#
# Mechanical properties :
#
#
# Convention : Reuss Voigt Hill
#
# Bulk Modulus (GPa) = 53.70697 63.26095 58.48396
# Shear Modulus (GPa) = 19.84047 24.10877 21.97462
#
# Velocity S-wave (km/s) = 3.30096 3.63875 3.47396
# Velocity P-wave (km/s) = 6.63508 7.23856 6.94338
#
# Compressibility (1/GPa) = 0.01861956
#
# Stress axis : x y z
#
# Youngs Moduli (GPa) = 38.28932 26.80965 73.47006
#
# Poissons Ratio (x) = 0.41510 0.37015
# Poissons Ratio (y) = 0.59285 0.63792
# Poissons Ratio (z) = 0.19291 0.23278
#
# Static dielectric constant tensor:
#      x y z
#    x 3.371790 0.000000 0.000000 
#    y 0.000000 3.135920 0.000000 
#    z 0.000000 0.000000 3.525960 
# 
# 
# High freq. dielectric constant tensor:
#      x y z
#    x 1.712090 0.000000 0.000000 
#    y 0.000000 1.676940 0.000000 
#    z 0.000000 0.000000 1.722150 
# 
# From -- ./inp_files/5081.got.cif
#   From: 2010.03.12/outbox.cif.g09.slc.cpg/sg26_3_cif.got.tgz:5081.got - 2010.04.14 03:33:09.
