data_PCOD8167401
_publ_section_title
;
Structure prediction by ZEFSAII (Michael W. Deem and Ramdas Pophale) SiO2 
 PCOD8167401
Probable space group: P M C 21
;
_chemical_formula_sum "Si O2"
_cell_formula_units_Z 32
_cell_length_a 8.721857
_cell_length_b 16.008546
_cell_length_c 11.109684
_cell_angle_alpha 90.000000
_cell_angle_beta 90.000000
_cell_angle_gamma 90.000000
_cell_volume 1551.181285
_symmetry_space_group_name_H-M "P M C 21"
_symmetry_group_IT_number 26
_symmetry_cell_setting 'orthorhombic'
loop_
_space_group_symop_operation_xyz
x,y,z
-x,-y,1/2+z
-x,y,z
x,-y,1/2+z
loop_
_atom_site_type_symbol
_atom_site_label
_atom_site_fract_x
_atom_site_fract_y
_atom_site_fract_z
Si Si1 0.674089 0.165437 0.761750
Si Si2 0.175488 0.255433 0.567555
Si Si3 0.182224 0.446363 0.607849
Si Si4 0.325340 0.978787 0.423960
Si Si5 0.178473 0.153774 0.097059
Si Si6 0.825938 0.705237 0.425569
Si Si7 0.680127 0.464606 0.870284
Si Si8 0.175501 0.144409 0.359438
O O1 0.500000 0.191087 0.794674
O O2 0.712722 0.184876 0.624015
O O3 0.699723 0.067909 0.794690
O O4 0.797897 0.223393 0.827948
O O5 0.227233 0.348755 0.600812
O O6 0.196296 0.233377 0.426784
O O7 0.000000 0.241289 0.607159
O O8 0.247606 0.484902 0.483364
O O9 0.248879 0.483282 0.735380
O O10 0.000000 0.460601 0.608712
O O11 0.500000 0.000731 0.448116
O O12 0.272687 0.913559 0.523524
O O13 0.237850 0.065473 0.432700
O O14 0.252883 0.152563 0.229364
O O15 0.000000 0.129719 0.089513
O O16 0.201487 0.249620 0.053246
O O17 0.706868 0.631343 0.404587
O O18 0.000000 0.670942 0.412276
O O19 0.500000 0.484122 0.863232
O O20 0.000000 0.124658 0.337617
#
# Coordination Sequence:
#
# PCOD8167401 Si02
#       8
#     4   4   4   4   4   4   4   4
#     4  10  20  35  58  85 117 153 196 247 301 360
#     4  10  22  39  62  89 119 158 208 256 307 372
#     4  11  24  44  69  97 131 174 223 271 329 401
#     4  10  22  37  55  84 118 157 200 248 306 369
#     4   9  20  38  59  84 116 155 202 255 305 365
#     4  10  19  36  63  90 116 154 204 249 302 371
#     4  12  25  42  66 100 137 171 214 272 333 395
#     4  10  22  39  58  85 118 156 203 258 311 365
#
# _framework density 20.629439000000001
#
# number of rings (size 3 to 8) (size 9 to 14) (size 15 to 20)
#    0.000    1.750    1.250    2.625    1.750    4.500 
#    0.000    2.500    0.000    0.000    0.000    0.000 
#    0.000    0.000    0.000    0.000    0.000    0.000 
#
# Total GULP energy -396496.612871 kJ/mol
# GULP energy per Si atom -12390.519152 kJ/mol
# Density = 2.058249 g / cm^3
# Si number density = 20.629439 Si / 1000 Ang^3
#
#
#
# Elastic Constant Matrix: (Units=GPa)
#
#
# Indices 1 2 3 4 5 6 
#
# 1 64.9754 21.0192 42.8376 0.0000 0.0000 0.0000
# 2 21.0192 62.7049 39.0216 0.0000 0.0000 0.0000
# 3 42.8376 39.0216 131.9944 0.0000 0.0000 0.0000
# 4 0.0000 0.0000 0.0000 27.6989 0.0000 0.0000
# 5 0.0000 0.0000 0.0000 0.0000 24.9471 0.0000
# 6 0.0000 0.0000 0.0000 0.0000 0.0000 22.8591
#
#
#
# Elastic Compliance Matrix: (Units=1/GPa)
#
#
# Indices 1 2 3 4 5 6 
#
# 1 0.020117 -0.003285 -0.005558 0.000000 0.000000 0.000000
# 2 -0.003285 0.020079 -0.004870 0.000000 0.000000 0.000000
# 3 -0.005558 -0.004870 0.010820 0.000000 0.000000 0.000000
# 4 0.000000 0.000000 0.000000 0.036103 0.000000 0.000000
# 5 0.000000 0.000000 0.000000 0.000000 0.040085 0.000000
# 6 0.000000 0.000000 0.000000 0.000000 0.000000 0.043746
#
#
# Mechanical properties :
#
#
# Convention : Reuss Voigt Hill
#
# Bulk Modulus (GPa) = 42.38910 51.71461 47.05186
# Shear Modulus (GPa) = 24.24374 25.55411 24.89893
#
# Velocity S-wave (km/s) = 3.43184 3.52336 3.47790
# Velocity P-wave (km/s) = 6.02460 6.45561 6.24383
#
# Compressibility (1/GPa) = 0.02359097
#
# Stress axis : x y z
#
# Youngs Moduli (GPa) = 49.70857 49.80213 92.42537
#
# Poissons Ratio (x) = 0.16359 0.51368
# Poissons Ratio (y) = 0.16328 0.45012
# Poissons Ratio (z) = 0.27627 0.24254
#
# Static dielectric constant tensor:
#      x y z
#    x 3.665600 0.000000 0.000000 
#    y 0.000000 3.692280 0.000000 
#    z 0.000000 0.000000 4.153780 
# 
# 
# High freq. dielectric constant tensor:
#      x y z
#    x 1.804560 0.000000 0.000000 
#    y 0.000000 1.795670 0.000000 
#    z 0.000000 0.000000 1.816870 
# 
# From -- ./inp_files/3050.got.cif
#   From: 2010.03.12/outbox.cif.g09.slc.cpg/sg26_2_cif.got.tgz:3050.got - 2010.04.14 03:33:09.
