data_PCOD8167303
_publ_section_title
;
Structure prediction by ZEFSAII (Michael W. Deem and Ramdas Pophale) SiO2 
 PCOD8167303
Probable space group: P M C 21
;
_chemical_formula_sum "Si O2"
_cell_formula_units_Z 24
_cell_length_a 8.287036
_cell_length_b 15.499286
_cell_length_c 8.953239
_cell_angle_alpha 90.000000
_cell_angle_beta 90.000000
_cell_angle_gamma 90.000000
_cell_volume 1149.982140
_symmetry_space_group_name_H-M "P M C 21"
_symmetry_group_IT_number 26
_symmetry_cell_setting 'orthorhombic'
loop_
_space_group_symop_operation_xyz
x,y,z
-x,-y,1/2+z
-x,y,z
x,-y,1/2+z
loop_
_atom_site_type_symbol
_atom_site_label
_atom_site_fract_x
_atom_site_fract_y
_atom_site_fract_z
Si Si1 0.686261 0.423255 0.742960
Si Si2 0.307243 0.910225 0.223143
Si Si3 0.308332 0.259353 0.557771
Si Si4 0.184231 0.578932 0.567312
Si Si5 0.691661 0.080173 0.059541
Si Si6 0.691673 0.746568 0.719607
O O1 0.500000 0.408562 0.786236
O O2 0.752747 0.344609 0.642540
O O3 0.701352 0.511578 0.651663
O O4 0.791163 0.428599 0.891097
O O5 0.500000 0.909973 0.223396
O O6 0.239780 0.824852 0.141781
O O7 0.239884 0.912074 0.391808
O O8 0.239974 0.993504 0.135556
O O9 0.500000 0.256078 0.554988
O O10 0.243594 0.261761 0.388567
O O11 0.226623 0.674787 0.617979
O O12 0.000000 0.557076 0.605624
O O13 0.500000 0.076109 0.055070
O O14 0.749205 0.161452 0.156592
O O15 0.500000 0.736206 0.710133
#
# Coordination Sequence:
#
# PCOD8167303 Si02
#       6
#     4   4   4   4   4   4
#     4  11  22  39  61  84 111 149 191 234 282 342
#     4   9  15  25  41  72 112 145 178 228 286 335
#     4   9  18  31  52  80 110 141 182 232 283 335
#     4  12  25  40  58  84 115 148 185 234 288 340
#     4   9  16  25  44  73 110 148 184 228 281 335
#     4  10  19  34  55  81 110 147 190 232 278 337
#
# _framework density 20.869890000000002
#
# number of rings (size 3 to 8) (size 9 to 14) (size 15 to 20)
#    0.000    2.000    0.000    5.000    0.000    8.000 
#    0.000    0.833    0.000    0.000    0.000   11.667 
#    0.000    0.000    0.000    0.000    0.000    0.000 
#
# Total GULP energy -297691.098563 kJ/mol
# GULP energy per Si atom -12403.795773 kJ/mol
# Density = 2.082239 g / cm^3
# Si number density = 20.869890 Si / 1000 Ang^3
#
#
#
# Elastic Constant Matrix: (Units=GPa)
#
#
# Indices 1 2 3 4 5 6 
#
# 1 29.7468 12.3816 9.6536 0.0000 0.0000 0.0000
# 2 12.3816 135.8817 44.3221 0.0000 0.0000 0.0000
# 3 9.6536 44.3221 145.2689 0.0000 0.0000 0.0000
# 4 0.0000 0.0000 0.0000 49.2175 0.0000 0.0000
# 5 0.0000 0.0000 0.0000 0.0000 13.4815 0.0000
# 6 0.0000 0.0000 0.0000 0.0000 0.0000 2.1932
#
#
#
# Elastic Compliance Matrix: (Units=1/GPa)
#
#
# Indices 1 2 3 4 5 6 
#
# 1 0.035239 -0.002718 -0.001513 0.000000 0.000000 0.000000
# 2 -0.002718 0.008382 -0.002377 0.000000 0.000000 0.000000
# 3 -0.001513 -0.002377 0.007709 0.000000 0.000000 0.000000
# 4 0.000000 0.000000 0.000000 0.020318 0.000000 0.000000
# 5 0.000000 0.000000 0.000000 0.000000 0.074176 0.000000
# 6 0.000000 0.000000 0.000000 0.000000 0.000000 0.455957
#
#
# Mechanical properties :
#
#
# Convention : Reuss Voigt Hill
#
# Bulk Modulus (GPa) = 26.23521 49.29020 37.76271
# Shear Modulus (GPa) = 7.96557 29.28110 18.62333
#
# Velocity S-wave (km/s) = 1.95578 3.74977 2.99047
# Velocity P-wave (km/s) = 4.20692 6.51282 5.48247
#
# Compressibility (1/GPa) = 0.03811671
#
# Stress axis : x y z
#
# Youngs Moduli (GPa) = 28.37756 119.29953 129.71018
#
# Poissons Ratio (x) = 0.32421 0.19620
# Poissons Ratio (y) = 0.07712 0.30830
# Poissons Ratio (z) = 0.04292 0.28356
#
# Static dielectric constant tensor:
#      x y z
#    x 3.108360 0.000000 0.000000 
#    y 0.000000 3.947790 0.000000 
#    z 0.000000 0.000000 3.969520 
# 
# 
# High freq. dielectric constant tensor:
#      x y z
#    x 1.758720 0.000000 0.000000 
#    y 0.000000 1.834630 0.000000 
#    z 0.000000 0.000000 1.834890 
# 
# From -- ./inp_files/1428.got.cif
#   From: 2010.03.12/outbox.cif.g09.slc.cpg/sg26_1_cif.got.tgz:1428.got - 2010.04.14 03:33:09.
