data_PCOD8167358
_publ_section_title
;
Structure prediction by ZEFSAII (Michael W. Deem and Ramdas Pophale) SiO2 
 PCOD8167358
Probable space group: P M C 21
;
_chemical_formula_sum "Si O2"
_cell_formula_units_Z 24
_cell_length_a 15.555915
_cell_length_b 8.846379
_cell_length_c 8.275548
_cell_angle_alpha 90.000000
_cell_angle_beta 90.000000
_cell_angle_gamma 90.000000
_cell_volume 1138.827288
_symmetry_space_group_name_H-M "P M C 21"
_symmetry_group_IT_number 26
_symmetry_cell_setting 'orthorhombic'
loop_
_space_group_symop_operation_xyz
x,y,z
-x,-y,1/2+z
-x,y,z
x,-y,1/2+z
loop_
_atom_site_type_symbol
_atom_site_label
_atom_site_fract_x
_atom_site_fract_y
_atom_site_fract_z
Si Si1 0.686329 0.879947 0.672410
Si Si2 0.500000 0.097175 0.141950
Si Si3 0.157068 0.386291 0.674610
Si Si4 0.158419 0.291743 0.307002
Si Si5 0.500000 0.205650 0.788771
Si Si6 0.000000 0.790792 0.308362
Si Si7 0.313186 0.790170 0.304335
Si Si8 0.000000 0.887204 0.676900
O O1 0.587625 0.832969 0.718118
O O2 0.749341 0.788425 0.789361
O O3 0.707002 0.837775 0.487764
O O4 0.697278 0.060185 0.694505
O O5 0.500000 0.916486 0.147769
O O6 0.500000 0.111036 0.951791
O O7 0.146262 0.344714 0.489064
O O8 0.150399 0.566601 0.687059
O O9 0.248277 0.336778 0.745749
O O10 0.083452 0.309843 0.780249
O O11 0.084691 0.173068 0.264808
O O12 0.592099 0.291716 0.783407
O O13 0.000000 0.846668 0.490516
O O14 0.000000 0.931987 0.187060
#
# Coordination Sequence:
#
# PCOD8167358 Si02
#       8
#     4   2   4   4   2   2   4   2
#     4  10  19  35  58  87 118 154 196 242 289 341
#     4   8  16  30  53  82 115 150 192 240 288 336
#     4  12  25  42  61  86 118 155 193 237 289 346
#     4  12  25  42  61  86 118 155 193 237 289 346
#     4   8  16  30  53  82 115 150 192 240 288 336
#     4  12  25  44  67  92 118 150 190 236 283 338
#     4  10  19  35  58  87 118 154 196 242 289 341
#     4  12  25  44  67  92 118 150 190 236 283 338
#
# _framework density 21.074311999999999
#
# number of rings (size 3 to 8) (size 9 to 14) (size 15 to 20)
#    0.000    1.333    0.000    7.000    0.000    1.333 
#    0.000    0.833    0.000    0.000    0.000    0.000 
#    0.000    0.000    0.000    0.000    0.000    0.000 
#
# Total GULP energy -297548.650159 kJ/mol
# GULP energy per Si atom -12397.860423 kJ/mol
# Density = 2.102635 g / cm^3
# Si number density = 21.074312 Si / 1000 Ang^3
#
#
#
# Elastic Constant Matrix: (Units=GPa)
#
#
# Indices 1 2 3 4 5 6 
#
# 1 142.2311 32.0329 18.4989 0.0000 0.0000 0.0000
# 2 32.0329 69.2356 -11.0169 0.0000 0.0000 0.0000
# 3 18.4989 -11.0169 60.9091 0.0000 0.0000 0.0000
# 4 0.0000 0.0000 0.0000 33.6510 0.0000 0.0000
# 5 0.0000 0.0000 0.0000 0.0000 25.8701 0.0000
# 6 0.0000 0.0000 0.0000 0.0000 0.0000 0.1210
#
#
#
# Elastic Compliance Matrix: (Units=1/GPa)
#
#
# Indices 1 2 3 4 5 6 
#
# 1 0.008475 -0.004459 -0.003380 0.000000 0.000000 0.000000
# 2 -0.004459 0.017217 0.004468 0.000000 0.000000 0.000000
# 3 -0.003380 0.004468 0.018253 0.000000 0.000000 0.000000
# 4 0.000000 0.000000 0.000000 0.029717 0.000000 0.000000
# 5 0.000000 0.000000 0.000000 0.000000 0.038655 0.000000
# 6 0.000000 0.000000 0.000000 0.000000 0.000000 8.264059
#
#
# Mechanical properties :
#
#
# Convention : Reuss Voigt Hill
#
# Bulk Modulus (GPa) = 26.87935 39.04507 32.96221
# Shear Modulus (GPa) = 0.59556 27.45247 14.02401
#
# Velocity S-wave (km/s) = 0.53218 3.61314 2.58244
# Velocity P-wave (km/s) = 3.62765 5.99783 4.95650
#
# Compressibility (1/GPa) = 0.03720328
#
# Stress axis : x y z
#
# Youngs Moduli (GPa) = 117.99866 58.08074 54.78617
#
# Poissons Ratio (x) = 0.25897 0.18520
# Poissons Ratio (y) = 0.52614 -0.24481
# Poissons Ratio (z) = 0.39888 -0.25953
#
# Static dielectric constant tensor:
#      x y z
#    x 4.315810 0.000000 0.000000 
#    y 0.000000 3.620030 0.000000 
#    z 0.000000 0.000000 3.828830 
# 
# 
# High freq. dielectric constant tensor:
#      x y z
#    x 1.851970 0.000000 0.000000 
#    y 0.000000 1.795810 0.000000 
#    z 0.000000 0.000000 1.836250 
# 
# From -- ./inp_files/2155.got.cif
#   From: 2010.03.12/outbox.cif.g09.slc.cpg/sg26_2_cif.got.tgz:2155.got - 2010.04.14 03:33:09.
