data_PCOD8167510
_publ_section_title
;
Structure prediction by ZEFSAII (Michael W. Deem and Ramdas Pophale) SiO2 
 PCOD8167510
Probable space group: P M C 21
;
_chemical_formula_sum "Si O2"
_cell_formula_units_Z 32
_cell_length_a 9.153122
_cell_length_b 14.160121
_cell_length_c 12.530440
_cell_angle_alpha 90.000000
_cell_angle_beta 90.000000
_cell_angle_gamma 90.000000
_cell_volume 1624.061746
_symmetry_space_group_name_H-M "P M C 21"
_symmetry_group_IT_number 26
_symmetry_cell_setting 'orthorhombic'
loop_
_space_group_symop_operation_xyz
x,y,z
-x,-y,1/2+z
-x,y,z
x,-y,1/2+z
loop_
_atom_site_type_symbol
_atom_site_label
_atom_site_fract_x
_atom_site_fract_y
_atom_site_fract_z
Si Si1 0.336220 0.197884 0.690500
Si Si2 0.169611 0.344006 0.314457
Si Si3 0.664247 0.980361 0.305315
Si Si4 0.666748 0.647882 0.033314
Si Si5 0.832009 0.538792 0.215689
Si Si6 0.827572 0.146918 0.215888
Si Si7 0.669916 0.161480 0.998847
Si Si8 0.832440 0.699671 0.365202
O O1 0.500000 0.224345 0.735733
O O2 0.321217 0.084179 0.697221
O O3 0.319874 0.242216 0.572332
O O4 0.206930 0.240945 0.760370
O O5 0.251348 0.363955 0.423520
O O6 0.202354 0.428541 0.232014
O O7 0.224640 0.247903 0.260128
O O8 0.000000 0.337718 0.342768
O O9 0.500000 0.020853 0.314616
O O10 0.701679 0.915272 0.407022
O O11 0.776623 0.066807 0.299445
O O12 0.500000 0.619089 0.015084
O O13 0.729819 0.577440 0.122421
O O14 0.803581 0.590961 0.330389
O O15 0.000000 0.555150 0.181375
O O16 0.750136 0.125925 0.104191
O O17 0.000000 0.142245 0.200759
O O18 0.500000 0.173116 0.023090
O O19 0.733516 0.264182 0.963572
O O20 0.000000 0.716811 0.397594
#
# Coordination Sequence:
#
# PCOD8167510 Si02
#       8
#     4   4   4   4   4   4   4   4
#     4   8  16  32  53  79 110 142 176 217 271 330
#     4  10  23  41  56  76 112 153 187 220 270 333
#     4   9  19  37  59  81 107 144 186 223 271 336
#     4  10  20  35  58  86 113 141 180 232 279 321
#     4   9  19  37  59  80 108 149 189 224 270 332
#     4  11  24  39  56  81 112 145 185 232 272 314
#     4  10  21  38  59  81 111 149 181 219 277 337
#     4   9  16  29  54  84 107 133 178 229 268 311
#
# _framework density 19.703686000000001
#
# number of rings (size 3 to 8) (size 9 to 14) (size 15 to 20)
#    0.000    2.500    0.000    2.250    0.000    7.000 
#    0.000    8.750    0.000    0.000    0.000    0.000 
#    0.000    0.000    0.000    0.000    0.000    0.000 
#
# Total GULP energy -396658.493489 kJ/mol
# GULP energy per Si atom -12395.577922 kJ/mol
# Density = 1.965884 g / cm^3
# Si number density = 19.703686 Si / 1000 Ang^3
#
#
#
# Elastic Constant Matrix: (Units=GPa)
#
#
# Indices 1 2 3 4 5 6 
#
# 1 85.9449 50.9600 43.9496 0.0000 0.0000 0.0000
# 2 50.9600 119.4936 36.1291 0.0000 0.0000 0.0000
# 3 43.9496 36.1291 82.1945 0.0000 0.0000 0.0000
# 4 0.0000 0.0000 0.0000 20.8458 0.0000 0.0000
# 5 0.0000 0.0000 0.0000 0.0000 31.8094 0.0000
# 6 0.0000 0.0000 0.0000 0.0000 0.0000 27.0364
#
#
#
# Elastic Compliance Matrix: (Units=1/GPa)
#
#
# Indices 1 2 3 4 5 6 
#
# 1 0.018946 -0.005786 -0.007587 0.000000 0.000000 0.000000
# 2 -0.005786 0.011418 -0.001925 0.000000 0.000000 0.000000
# 3 -0.007587 -0.001925 0.017069 0.000000 0.000000 0.000000
# 4 0.000000 0.000000 0.000000 0.047971 0.000000 0.000000
# 5 0.000000 0.000000 0.000000 0.000000 0.031437 0.000000
# 6 0.000000 0.000000 0.000000 0.000000 0.000000 0.036987
#
#
# Mechanical properties :
#
#
# Convention : Reuss Voigt Hill
#
# Bulk Modulus (GPa) = 59.39316 61.07893 60.23604
# Shear Modulus (GPa) = 24.99524 26.37793 25.68658
#
# Velocity S-wave (km/s) = 3.56554 3.66284 3.61452
# Velocity P-wave (km/s) = 6.86727 6.99675 6.93231
#
# Compressibility (1/GPa) = 0.01683696
#
# Stress axis : x y z
#
# Youngs Moduli (GPa) = 52.78203 87.57957 58.58424
#
# Poissons Ratio (x) = 0.50671 0.44449
# Poissons Ratio (y) = 0.30538 0.11279
# Poissons Ratio (z) = 0.40047 0.16861
#
# Static dielectric constant tensor:
#      x y z
#    x 3.601420 0.000000 0.000000 
#    y 0.000000 3.732370 0.000000 
#    z 0.000000 0.000000 3.378680 
# 
# 
# High freq. dielectric constant tensor:
#      x y z
#    x 1.771980 0.000000 0.000000 
#    y 0.000000 1.765260 0.000000 
#    z 0.000000 0.000000 1.749550 
# 
# From -- ./inp_files/3075.got.cif
#   From: 2010.03.12/outbox.cif.g09.slc.cpg/sg26_2_cif.got.tgz:3075.got - 2010.04.14 03:33:09.
