data_PCOD8167107
_publ_section_title
;
Structure prediction by ZEFSAII (Michael W. Deem and Ramdas Pophale) SiO2 
 PCOD8167107
Probable space group: P M C 21
;
_chemical_formula_sum "Si O2"
_cell_formula_units_Z 32
_cell_length_a 9.073609
_cell_length_b 11.342818
_cell_length_c 16.509528
_cell_angle_alpha 90.000000
_cell_angle_beta 90.000000
_cell_angle_gamma 90.000000
_cell_volume 1699.165500
_symmetry_space_group_name_H-M "P M C 21"
_symmetry_group_IT_number 26
_symmetry_cell_setting 'orthorhombic'
loop_
_space_group_symop_operation_xyz
x,y,z
-x,-y,1/2+z
-x,y,z
x,-y,1/2+z
loop_
_atom_site_type_symbol
_atom_site_label
_atom_site_fract_x
_atom_site_fract_y
_atom_site_fract_z
Si Si1 0.667502 0.328729 0.632860
Si Si2 0.326018 0.063072 0.599514
Si Si3 0.330418 0.972408 0.428732
Si Si4 0.329502 0.302329 0.914176
Si Si5 0.172429 0.564686 0.279882
Si Si6 0.674747 0.657169 0.736718
Si Si7 0.333226 0.432536 0.066298
Si Si8 0.675250 0.925716 0.759361
O O1 0.500000 0.324891 0.669149
O O2 0.716435 0.200445 0.603912
O O3 0.785290 0.379625 0.694467
O O4 0.672797 0.424612 0.560019
O O5 0.500000 0.042167 0.597920
O O6 0.258069 0.019702 0.513147
O O7 0.262439 0.994630 0.679303
O O8 0.500000 0.011422 0.428274
O O9 0.309871 0.834018 0.431431
O O10 0.260132 0.022376 0.344408
O O11 0.500000 0.334377 0.896488
O O12 0.228936 0.335788 0.839813
O O13 0.257725 0.375254 0.988423
O O14 0.249978 0.437729 0.297024
O O15 0.000000 0.546330 0.287049
O O16 0.500000 0.642134 0.744244
O O17 0.736305 0.621020 0.648158
O O18 0.725213 0.789650 0.756061
O O19 0.500000 0.385819 0.065499
O O20 0.500000 0.938910 0.758586
#
# Coordination Sequence:
#
# PCOD8167107 Si02
#       8
#     4   4   4   4   4   4   4   4
#     4   9  17  32  53  76 102 130 163 203 252 305
#     4   9  16  27  47  77 108 131 158 204 252 295
#     4   9  17  27  45  77 107 130 162 205 250 296
#     4  10  18  31  51  74 103 134 165 203 251 302
#     4  11  22  34  49  71  99 131 170 211 249 295
#     4   9  17  32  52  72  95 124 163 208 255 305
#     4   8  15  27  47  73  95 123 162 202 244 294
#     4   9  16  26  44  70  99 131 163 198 245 298
#
# _framework density 18.832773
#
# number of rings (size 3 to 8) (size 9 to 14) (size 15 to 20)
#    0.000    2.750    0.000    3.375    0.000    6.000 
#    0.000    6.250    0.000    3.750    0.000    0.000 
#    0.000    0.000    0.000    0.000    0.000    0.000 
#
# Total GULP energy -396493.698601 kJ/mol
# GULP energy per Si atom -12390.428081 kJ/mol
# Density = 1.878991 g / cm^3
# Si number density = 18.832773 Si / 1000 Ang^3
#
#
#
# Elastic Constant Matrix: (Units=GPa)
#
#
# Indices 1 2 3 4 5 6 
#
# 1 41.2122 31.3207 18.1351 0.0000 0.0000 0.0000
# 2 31.3207 134.6280 66.5546 0.0000 0.0000 0.0000
# 3 18.1351 66.5546 119.2867 0.0000 0.0000 0.0000
# 4 0.0000 0.0000 0.0000 33.3553 0.0000 0.0000
# 5 0.0000 0.0000 0.0000 0.0000 2.0419 0.0000
# 6 0.0000 0.0000 0.0000 0.0000 0.0000 6.2252
#
#
#
# Elastic Compliance Matrix: (Units=1/GPa)
#
#
# Indices 1 2 3 4 5 6 
#
# 1 0.029547 -0.006426 -0.000907 0.000000 0.000000 0.000000
# 2 -0.006426 0.011654 -0.005526 0.000000 0.000000 0.000000
# 3 -0.000907 -0.005526 0.011604 0.000000 0.000000 0.000000
# 4 0.000000 0.000000 0.000000 0.029980 0.000000 0.000000
# 5 0.000000 0.000000 0.000000 0.000000 0.489740 0.000000
# 6 0.000000 0.000000 0.000000 0.000000 0.000000 0.160638
#
#
# Mechanical properties :
#
#
# Convention : Reuss Voigt Hill
#
# Bulk Modulus (GPa) = 36.91505 58.57196 47.74351
# Shear Modulus (GPa) = 6.51119 20.26559 13.38839
#
# Velocity S-wave (km/s) = 1.86142 3.28393 2.66918
# Velocity P-wave (km/s) = 4.92584 6.74889 5.90810
#
# Compressibility (1/GPa) = 0.02708922
#
# Stress axis : x y z
#
# Youngs Moduli (GPa) = 33.84423 85.80466 86.17759
#
# Poissons Ratio (x) = 0.55135 0.07816
# Poissons Ratio (y) = 0.21747 0.47618
# Poissons Ratio (z) = 0.03069 0.47412
#
# Static dielectric constant tensor:
#      x y z
#    x 2.811080 0.000000 0.000000 
#    y 0.000000 3.621680 0.000000 
#    z 0.000000 0.000000 3.744200 
# 
# 
# High freq. dielectric constant tensor:
#      x y z
#    x 1.654110 0.000000 0.000000 
#    y 0.000000 1.748510 0.000000 
#    z 0.000000 0.000000 1.733820 
# 
# From -- ./inp_files/5094.got.cif
#   From: 2010.03.12/outbox.cif.g09.slc.cpg/sg26_3_cif.got.tgz:5094.got - 2010.04.14 03:33:09.
