data_PCOD8167738
_publ_section_title
;
Structure prediction by ZEFSAII (Michael W. Deem and Ramdas Pophale) SiO2 
 PCOD8167738
Probable space group: P M C 21
;
_chemical_formula_sum "Si O2"
_cell_formula_units_Z 32
_cell_length_a 8.457016
_cell_length_b 11.854542
_cell_length_c 15.338099
_cell_angle_alpha 90.000000
_cell_angle_beta 90.000000
_cell_angle_gamma 90.000000
_cell_volume 1537.706565
_symmetry_space_group_name_H-M "P M C 21"
_symmetry_group_IT_number 26
_symmetry_cell_setting 'orthorhombic'
loop_
_space_group_symop_operation_xyz
x,y,z
-x,-y,1/2+z
-x,y,z
x,-y,1/2+z
loop_
_atom_site_type_symbol
_atom_site_label
_atom_site_fract_x
_atom_site_fract_y
_atom_site_fract_z
Si Si1 0.184909 0.381844 0.310260
Si Si2 0.184064 0.356386 0.810978
Si Si3 0.817558 0.997121 0.890912
Si Si4 0.183151 0.239836 0.145159
Si Si5 0.682717 0.008381 0.204854
Si Si6 0.684462 0.766753 0.959472
Si Si7 0.318220 0.785674 0.464578
Si Si8 0.813208 0.780265 0.140587
O O1 0.225385 0.512814 0.303529
O O2 0.241750 0.323840 0.220858
O O3 0.282957 0.330621 0.389845
O O4 0.000000 0.359078 0.326486
O O5 0.282051 0.304380 0.889874
O O6 0.236514 0.298415 0.720999
O O7 0.000000 0.335156 0.829473
O O8 0.784244 0.100210 0.956244
O O9 0.000000 0.998274 0.862700
O O10 0.711227 0.018030 0.806081
O O11 0.779011 0.879624 0.936108
O O12 0.211051 0.112627 0.175911
O O13 0.000000 0.258920 0.125401
O O14 0.278787 0.269784 0.057773
O O15 0.500000 0.037604 0.188698
O O16 0.730793 0.901387 0.147773
O O17 0.500000 0.794192 0.962465
O O18 0.747288 0.722732 0.052717
O O19 0.500000 0.820116 0.460490
O O20 0.000000 0.795887 0.135529
#
# Coordination Sequence:
#
# PCOD8167738 Si02
#       8
#     4   4   4   4   4   4   4   4
#     4  10  23  44  68  92 122 166 219 267 312 373
#     4  10  23  44  68  92 122 166 219 267 312 373
#     4  12  23  40  65  93 127 169 212 256 311 384
#     4  11  23  41  66  94 128 170 213 258 310 378
#     4  12  23  38  63  97 133 165 202 258 321 380
#     4  12  25  41  64  96 132 167 207 264 322 375
#     4  12  25  41  64  96 132 167 207 264 322 375
#     4  11  23  41  66  94 128 170 213 258 310 378
#
# _framework density 20.810212
#
# number of rings (size 3 to 8) (size 9 to 14) (size 15 to 20)
#    0.000    0.750    2.500    6.000    0.000    2.500 
#    0.000    2.500    0.000    0.000    0.000    0.000 
#    0.000    0.000    0.000    0.000    0.000    0.000 
#
# Total GULP energy -397074.367973 kJ/mol
# GULP energy per Si atom -12408.573999 kJ/mol
# Density = 2.076285 g / cm^3
# Si number density = 20.810212 Si / 1000 Ang^3
#
#
#
# Elastic Constant Matrix: (Units=GPa)
#
#
# Indices 1 2 3 4 5 6 
#
# 1 79.4486 30.2163 43.9976 0.0000 0.0000 0.0000
# 2 30.2163 116.7347 43.4897 0.0000 0.0000 0.0000
# 3 43.9976 43.4897 130.0760 0.0000 0.0000 0.0000
# 4 0.0000 0.0000 0.0000 6.8351 0.0000 0.0000
# 5 0.0000 0.0000 0.0000 0.0000 28.9820 0.0000
# 6 0.0000 0.0000 0.0000 0.0000 0.0000 16.7573
#
#
#
# Elastic Compliance Matrix: (Units=1/GPa)
#
#
# Indices 1 2 3 4 5 6 
#
# 1 0.016074 -0.002439 -0.004621 0.000000 0.000000 0.000000
# 2 -0.002439 0.010155 -0.002570 0.000000 0.000000 0.000000
# 3 -0.004621 -0.002570 0.010110 0.000000 0.000000 0.000000
# 4 0.000000 0.000000 0.000000 0.146304 0.000000 0.000000
# 5 0.000000 0.000000 0.000000 0.000000 0.034504 0.000000
# 6 0.000000 0.000000 0.000000 0.000000 0.000000 0.059675
#
#
# Mechanical properties :
#
#
# Convention : Reuss Voigt Hill
#
# Bulk Modulus (GPa) = 58.55506 62.40738 60.48122
# Shear Modulus (GPa) = 16.56852 24.41861 20.49356
#
# Velocity S-wave (km/s) = 2.82471 3.42920 3.14153
# Velocity P-wave (km/s) = 6.23197 6.76263 6.50271
#
# Compressibility (1/GPa) = 0.01707794
#
# Stress axis : x y z
#
# Youngs Moduli (GPa) = 62.21380 98.47049 98.90837
#
# Poissons Ratio (x) = 0.24016 0.45710
# Poissons Ratio (y) = 0.15173 0.25423
# Poissons Ratio (z) = 0.28752 0.25311
#
# Static dielectric constant tensor:
#      x y z
#    x 3.726260 0.000000 0.000000 
#    y 0.000000 3.650820 0.000000 
#    z 0.000000 0.000000 3.993160 
# 
# 
# High freq. dielectric constant tensor:
#      x y z
#    x 1.818000 0.000000 0.000000 
#    y 0.000000 1.807040 0.000000 
#    z 0.000000 0.000000 1.831580 
# 
# From -- ./inp_files/4241.got.cif
#   From: 2010.03.12/outbox.cif.g09.slc.cpg/sg26_3_cif.got.tgz:4241.got - 2010.04.14 03:33:09.
