data_PCOD8167416
_publ_section_title
;
Structure prediction by ZEFSAII (Michael W. Deem and Ramdas Pophale) SiO2 
 PCOD8167416
Probable space group: P M C 21
;
_chemical_formula_sum "Si O2"
_cell_formula_units_Z 32
_cell_length_a 8.823330
_cell_length_b 12.100567
_cell_length_c 15.144473
_cell_angle_alpha 90.000000
_cell_angle_beta 90.000000
_cell_angle_gamma 90.000000
_cell_volume 1616.934429
_symmetry_space_group_name_H-M "P M C 21"
_symmetry_group_IT_number 26
_symmetry_cell_setting 'orthorhombic'
loop_
_space_group_symop_operation_xyz
x,y,z
-x,-y,1/2+z
-x,y,z
x,-y,1/2+z
loop_
_atom_site_type_symbol
_atom_site_label
_atom_site_fract_x
_atom_site_fract_y
_atom_site_fract_z
Si Si1 0.178168 0.492780 0.868630
Si Si2 0.831534 0.252208 0.115124
Si Si3 0.322005 0.891684 0.037489
Si Si4 0.678987 0.361804 0.518686
Si Si5 0.179432 0.512878 0.664567
Si Si6 0.169433 0.751029 0.411369
Si Si7 0.179592 0.970946 0.688528
Si Si8 0.676886 0.032501 0.867467
O O1 0.223605 0.504540 0.766801
O O2 0.233474 0.371491 0.897009
O O3 0.000000 0.506703 0.884576
O O4 0.260241 0.583240 0.928836
O O5 0.750900 0.369653 0.132388
O O6 0.749659 0.148118 0.160791
O O7 0.000000 0.263923 0.155493
O O8 0.838508 0.223046 0.013509
O O9 0.500000 0.899144 0.052350
O O10 0.270925 0.766291 0.017858
O O11 0.244685 0.931666 0.127685
O O12 0.271548 0.969808 0.956353
O O13 0.500000 0.374408 0.520158
O O14 0.744489 0.416796 0.607354
O O15 0.000000 0.504032 0.648373
O O16 0.285548 0.837516 0.369400
O O17 0.000000 0.763074 0.369532
O O18 0.000000 0.971978 0.677165
O O19 0.225183 0.982556 0.789302
O O20 0.500000 0.016088 0.848772
#
# Coordination Sequence:
#
# PCOD8167416 Si02
#       8
#     4   4   4   4   4   4   4   4
#     4  10  22  39  64  91 120 157 197 245 300 355
#     4   9  18  36  61  87 118 148 191 252 297 341
#     4  10  24  44  60  83 124 166 201 242 296 358
#     4  11  24  41  60  86 123 161 201 246 293 354
#     4  10  21  40  63  90 120 156 199 244 299 355
#     4  10  19  38  62  88 119 152 200 253 294 346
#     4  11  23  39  63  92 118 153 202 253 298 350
#     4  11  24  41  61  87 122 161 197 243 303 363
#
# _framework density 19.790537
#
# number of rings (size 3 to 8) (size 9 to 14) (size 15 to 20)
#    0.000    1.750    2.500    1.125    3.500    2.500 
#    0.000    1.250    0.000    0.000    0.000    0.000 
#    0.000    0.000    0.000    0.000    0.000    0.000 
#
# Total GULP energy -396802.841931 kJ/mol
# GULP energy per Si atom -12400.088810 kJ/mol
# Density = 1.974549 g / cm^3
# Si number density = 19.790537 Si / 1000 Ang^3
#
#
#
# Elastic Constant Matrix: (Units=GPa)
#
#
# Indices 1 2 3 4 5 6 
#
# 1 47.6390 38.5658 29.8350 0.0000 0.0000 0.0000
# 2 38.5658 123.4412 24.3279 0.0000 0.0000 0.0000
# 3 29.8350 24.3279 88.9690 0.0000 0.0000 0.0000
# 4 0.0000 0.0000 0.0000 34.3840 0.0000 0.0000
# 5 0.0000 0.0000 0.0000 0.0000 26.2170 0.0000
# 6 0.0000 0.0000 0.0000 0.0000 0.0000 27.8292
#
#
#
# Elastic Compliance Matrix: (Units=1/GPa)
#
#
# Indices 1 2 3 4 5 6 
#
# 1 0.033651 -0.008761 -0.008889 0.000000 0.000000 0.000000
# 2 -0.008761 0.010844 -0.000027 0.000000 0.000000 0.000000
# 3 -0.008889 -0.000027 0.014228 0.000000 0.000000 0.000000
# 4 0.000000 0.000000 0.000000 0.029083 0.000000 0.000000
# 5 0.000000 0.000000 0.000000 0.000000 0.038143 0.000000
# 6 0.000000 0.000000 0.000000 0.000000 0.000000 0.035933
#
#
# Mechanical properties :
#
#
# Convention : Reuss Voigt Hill
#
# Bulk Modulus (GPa) = 42.79363 49.50073 46.14718
# Shear Modulus (GPa) = 24.38713 28.84075 26.61394
#
# Velocity S-wave (km/s) = 3.51417 3.82160 3.67110
# Velocity P-wave (km/s) = 6.17544 6.67379 6.42944
#
# Compressibility (1/GPa) = 0.02336796
#
# Stress axis : x y z
#
# Youngs Moduli (GPa) = 29.71699 92.22010 70.28384
#
# Poissons Ratio (x) = 0.80798 0.62474
# Poissons Ratio (y) = 0.26036 0.00190
# Poissons Ratio (z) = 0.26415 0.00249
#
# Static dielectric constant tensor:
#      x y z
#    x 3.409210 0.000000 0.000000 
#    y 0.000000 3.867960 0.000000 
#    z 0.000000 0.000000 3.585210 
# 
# 
# High freq. dielectric constant tensor:
#      x y z
#    x 1.749520 0.000000 0.000000 
#    y 0.000000 1.788980 0.000000 
#    z 0.000000 0.000000 1.778110 
# 
# From -- ./inp_files/4082.got.cif
#   From: 2010.03.12/outbox.cif.g09.slc.cpg/sg26_3_cif.got.tgz:4082.got - 2010.04.14 03:33:09.
