data_PCOD8167817
_publ_section_title
;
Structure prediction by ZEFSAII (Michael W. Deem and Ramdas Pophale) SiO2 
 PCOD8167817
Probable space group: P C C 2
;
_chemical_formula_sum "Si O2"
_cell_formula_units_Z 28
_cell_length_a 9.114606
_cell_length_b 8.661270
_cell_length_c 18.791960
_cell_angle_alpha 90.000000
_cell_angle_beta 90.000000
_cell_angle_gamma 90.000000
_cell_volume 1483.513684
_symmetry_space_group_name_H-M "P C C 2"
_symmetry_group_IT_number 27
_symmetry_cell_setting 'orthorhombic'
loop_
_space_group_symop_operation_xyz
x,y,z
-x,-y,z
-x,y,1/2+z
x,-y,1/2+z
loop_
_atom_site_type_symbol
_atom_site_label
_atom_site_fract_x
_atom_site_fract_y
_atom_site_fract_z
Si Si1 0.349084 0.427751 0.855200
Si Si2 0.309267 0.384748 0.217253
Si Si3 0.435655 0.161833 0.758580
Si Si4 0.893891 0.793449 0.115363
Si Si5 0.224972 0.879341 0.134948
Si Si6 0.852238 0.575020 0.988846
Si Si7 0.358608 0.410858 0.588095
O O1 0.500000 0.500000 0.884609
O O2 0.281117 0.547051 0.796341
O O3 0.380480 0.258694 0.825247
O O4 0.241544 0.392908 0.919360
O O5 0.441785 0.260968 0.215506
O O6 0.168241 0.308105 0.180606
O O7 0.349367 0.533889 0.169952
O O8 0.292565 0.116677 0.713246
O O9 0.500000 0.000000 0.786761
O O10 0.063236 0.806001 0.136609
O O11 0.796992 0.948108 0.106718
O O12 0.879397 0.726663 0.036011
O O13 0.344090 0.776941 0.088888
O O14 0.000000 0.500000 0.960041
O O15 0.779366 0.453420 0.041167
O O16 0.500000 0.500000 0.554278
#
# Coordination Sequence:
#
# PCOD8167817 Si02
#       7
#     4   4   4   4   4   4   4
#     4  10  22  40  59  85 120 162 205 255 301 364
#     4  10  19  35  62  91 116 151 203 252 304 355
#     4  11  20  37  63  92 122 154 200 256 311 367
#     4  10  23  37  59  93 127 156 198 253 321 372
#     4  11  20  37  62  91 125 154 193 258 318 371
#     4  11  23  40  58  86 121 163 209 251 303 371
#     4  11  19  35  62  90 115 155 203 258 306 357
#
# _framework density 18.874108
#
# number of rings (size 3 to 8) (size 9 to 14) (size 15 to 20)
#    0.000    1.429    5.714    0.857    0.000    1.143 
#    0.000    4.286    0.000    0.000    0.000    0.000 
#    0.000    0.000    0.000    0.000    0.000    0.000 
#
# Total GULP energy -346874.266513 kJ/mol
# GULP energy per Si atom -12388.366661 kJ/mol
# Density = 1.883115 g / cm^3
# Si number density = 18.874108 Si / 1000 Ang^3
#
#
#
# Elastic Constant Matrix: (Units=GPa)
#
#
# Indices 1 2 3 4 5 6 
#
# 1 102.8031 54.5437 57.5536 0.0000 0.0000 0.0000
# 2 54.5437 133.6468 44.1854 0.0000 0.0000 0.0000
# 3 57.5536 44.1854 105.3732 0.0000 0.0000 0.0000
# 4 0.0000 0.0000 0.0000 10.6319 0.0000 0.0000
# 5 0.0000 0.0000 0.0000 0.0000 28.5733 0.0000
# 6 0.0000 0.0000 0.0000 0.0000 0.0000 33.4510
#
#
#
# Elastic Compliance Matrix: (Units=1/GPa)
#
#
# Indices 1 2 3 4 5 6 
#
# 1 0.015789 -0.004171 -0.006875 0.000000 0.000000 0.000000
# 2 -0.004171 0.009788 -0.001826 0.000000 0.000000 0.000000
# 3 -0.006875 -0.001826 0.014011 0.000000 0.000000 0.000000
# 4 0.000000 0.000000 0.000000 0.094056 0.000000 0.000000
# 5 0.000000 0.000000 0.000000 0.000000 0.034998 0.000000
# 6 0.000000 0.000000 0.000000 0.000000 0.000000 0.029895
#
#
# Mechanical properties :
#
#
# Convention : Reuss Voigt Hill
#
# Bulk Modulus (GPa) = 72.23300 72.70984 72.47142
# Shear Modulus (GPa) = 21.84396 26.90059 24.37228
#
# Velocity S-wave (km/s) = 3.40568 3.77936 3.59738
# Velocity P-wave (km/s) = 7.33613 7.59289 7.46562
#
# Compressibility (1/GPa) = 0.01384409
#
# Stress axis : x y z
#
# Youngs Moduli (GPa) = 63.33476 102.16090 71.37288
#
# Poissons Ratio (x) = 0.42610 0.49068
# Poissons Ratio (y) = 0.26416 0.13036
# Poissons Ratio (z) = 0.43542 0.18659
#
# Static dielectric constant tensor:
#      x y z
#    x 3.631730 0.000000 0.000000 
#    y 0.000000 3.672660 0.000000 
#    z 0.000000 0.000000 3.197950 
# 
# 
# High freq. dielectric constant tensor:
#      x y z
#    x 1.741230 0.000000 0.000000 
#    y 0.000000 1.741830 0.000000 
#    z 0.000000 0.000000 1.706920 
# 
# From -- ./inp_files/4310.got.cif
#   From: 2010.03.12/outbox.cif.g09.slc.cpg/sg27_3_cif.got.tgz:4310.got - 2010.04.14 03:36:05.
