data_PCOD8167856
_publ_section_title
;
Structure prediction by ZEFSAII (Michael W. Deem and Ramdas Pophale) SiO2 
 PCOD8167856
Probable space group: P C C 2
;
_chemical_formula_sum "Si O2"
_cell_formula_units_Z 32
_cell_length_a 8.247582
_cell_length_b 14.334816
_cell_length_c 12.024439
_cell_angle_alpha 90.000000
_cell_angle_beta 90.000000
_cell_angle_gamma 90.000000
_cell_volume 1421.620209
_symmetry_space_group_name_H-M "P C C 2"
_symmetry_group_IT_number 27
_symmetry_cell_setting 'orthorhombic'
loop_
_space_group_symop_operation_xyz
x,y,z
-x,-y,z
-x,y,1/2+z
x,-y,1/2+z
loop_
_atom_site_type_symbol
_atom_site_label
_atom_site_fract_x
_atom_site_fract_y
_atom_site_fract_z
Si Si1 0.912943 0.207976 0.469040
Si Si2 0.360665 0.422597 0.026391
Si Si3 0.890854 0.659152 0.172370
Si Si4 0.819267 0.961486 0.097241
Si Si5 0.318070 0.174423 0.256994
Si Si6 0.796182 0.643945 0.808864
Si Si7 0.575223 0.277731 0.132840
Si Si8 0.255855 0.143191 0.488811
O O1 0.950235 0.287576 0.561254
O O2 0.795364 0.128171 0.516913
O O3 0.832101 0.253920 0.360718
O O4 0.075946 0.152723 0.437358
O O5 0.500000 0.500000 0.033676
O O6 0.229221 0.425217 0.128808
O O7 0.456027 0.325372 0.042686
O O8 0.264188 0.425681 0.907864
O O9 0.797075 0.733455 0.249984
O O10 0.038718 0.613163 0.243604
O O11 0.762120 0.922800 0.216222
O O12 0.709988 0.045413 0.050318
O O13 0.000000 0.000000 0.110706
O O14 0.481317 0.193539 0.190650
O O15 0.373143 0.155214 0.383500
O O16 0.648060 0.649216 0.721696
O O17 0.724772 0.229565 0.071932
#
# Coordination Sequence:
#
# PCOD8167856 Si02
#       8
#     4   4   4   4   4   4   4   4
#     4   9  18  35  60  96 125 165 228 279 314 380
#     4  10  24  45  69 102 142 168 211 284 359 421
#     4   9  18  38  68  97 128 167 225 269 315 408
#     4   9  21  35  55  90 132 172 225 287 335 382
#     4  10  21  38  57  89 127 175 225 270 345 402
#     4  11  20  39  75  98 124 182 229 270 334 415
#     4  11  24  40  64  94 131 178 218 281 352 417
#     4  11  20  36  60  86 128 175 225 284 328 396
#
# _framework density 22.509529000000001
#
# number of rings (size 3 to 8) (size 9 to 14) (size 15 to 20)
#    0.000    2.000    2.500    1.500    0.000    3.500 
#    0.000    1.875    2.750    0.000    0.000    3.500 
#    0.000    0.000    0.000    0.000    0.000    0.000 
#
# Total GULP energy -396541.073104 kJ/mol
# GULP energy per Si atom -12391.908535 kJ/mol
# Density = 2.245830 g / cm^3
# Si number density = 22.509529 Si / 1000 Ang^3
#
#
#
# Elastic Constant Matrix: (Units=GPa)
#
#
# Indices 1 2 3 4 5 6 
#
# 1 95.9027 33.2506 43.8096 0.0000 0.0000 0.0000
# 2 33.2506 73.4212 38.7611 0.0000 0.0000 0.0000
# 3 43.8096 38.7611 113.8327 0.0000 0.0000 0.0000
# 4 0.0000 0.0000 0.0000 19.9224 0.0000 0.0000
# 5 0.0000 0.0000 0.0000 0.0000 31.1891 0.0000
# 6 0.0000 0.0000 0.0000 0.0000 0.0000 38.5211
#
#
#
# Elastic Compliance Matrix: (Units=1/GPa)
#
#
# Indices 1 2 3 4 5 6 
#
# 1 0.013613 -0.004144 -0.003828 0.000000 0.000000 0.000000
# 2 -0.004144 0.017867 -0.004489 0.000000 0.000000 0.000000
# 3 -0.003828 -0.004489 0.011787 0.000000 0.000000 0.000000
# 4 0.000000 0.000000 0.000000 0.050195 0.000000 0.000000
# 5 0.000000 0.000000 0.000000 0.000000 0.032063 0.000000
# 6 0.000000 0.000000 0.000000 0.000000 0.000000 0.025960
#
#
# Mechanical properties :
#
#
# Convention : Reuss Voigt Hill
#
# Bulk Modulus (GPa) = 54.51306 57.19991 55.85649
# Shear Modulus (GPa) = 27.39443 29.08221 28.23832
#
# Velocity S-wave (km/s) = 3.49236 3.59833 3.54574
# Velocity P-wave (km/s) = 6.36651 6.53686 6.45225
#
# Compressibility (1/GPa) = 0.01834423
#
# Stress axis : x y z
#
# Youngs Moduli (GPa) = 73.46117 55.97053 84.84267
#
# Poissons Ratio (x) = 0.23194 0.32477
# Poissons Ratio (y) = 0.30442 0.38085
# Poissons Ratio (z) = 0.28120 0.25124
#
# Static dielectric constant tensor:
#      x y z
#    x 3.996390 0.000000 0.000000 
#    y 0.000000 3.791990 0.000000 
#    z 0.000000 0.000000 4.051460 
# 
# 
# High freq. dielectric constant tensor:
#      x y z
#    x 1.883640 0.000000 0.000000 
#    y 0.000000 1.860270 0.000000 
#    z 0.000000 0.000000 1.887580 
# 
# From -- ./inp_files/2443.got.cif
#   From: 2010.03.12/outbox.cif.g09.slc.cpg/sg27_2_cif.got.tgz:2443.got - 2010.04.14 03:36:05.
