data_PCOD8167810
_publ_section_title
;
Structure prediction by ZEFSAII (Michael W. Deem and Ramdas Pophale) SiO2 
 PCOD8167810
Probable space group: P C C 2
;
_chemical_formula_sum "Si O2"
_cell_formula_units_Z 32
_cell_length_a 16.461692
_cell_length_b 17.423055
_cell_length_c 5.274523
_cell_angle_alpha 90.000000
_cell_angle_beta 90.000000
_cell_angle_gamma 90.000000
_cell_volume 1512.801581
_symmetry_space_group_name_H-M "P C C 2"
_symmetry_group_IT_number 27
_symmetry_cell_setting 'orthorhombic'
loop_
_space_group_symop_operation_xyz
x,y,z
-x,-y,z
-x,y,1/2+z
x,-y,1/2+z
loop_
_atom_site_type_symbol
_atom_site_label
_atom_site_fract_x
_atom_site_fract_y
_atom_site_fract_z
Si Si1 0.366342 0.801604 0.552840
Si Si2 0.363404 0.542296 0.050462
Si Si3 0.827842 0.282551 0.054897
Si Si4 0.169459 0.456213 0.549207
Si Si5 0.034331 0.087450 0.014976
Si Si6 0.410259 0.969055 0.603064
Si Si7 0.174711 0.190868 0.055585
Si Si8 0.635755 0.286640 0.051989
O O1 0.415994 0.879680 0.548397
O O2 0.270853 0.822069 0.556163
O O3 0.394193 0.755963 0.304382
O O4 0.395111 0.755188 0.799140
O O5 0.396490 0.499194 0.298988
O O6 0.266432 0.543570 0.050281
O O7 0.399747 0.627791 0.053932
O O8 0.855667 0.234975 0.807656
O O9 0.864286 0.368825 0.048329
O O10 0.854173 0.240588 0.313827
O O11 0.731831 0.289780 0.049075
O O12 0.136826 0.500034 0.299319
O O13 0.992482 0.128333 0.255031
O O14 0.130994 0.106112 0.043124
O O15 0.000000 0.000000 0.001257
O O16 0.500000 0.000000 0.660516
O O17 0.364449 0.012205 0.369492
#
# Coordination Sequence:
#
# PCOD8167810 Si02
#       8
#     4   4   4   4   4   4   4   4
#     4  10  19  33  51  76 102 138 179 213 266 311
#     4   9  15  23  37  61  96 143 181 202 247 304
#     4   9  17  28  45  69 100 134 170 213 256 298
#     4   9  15  23  37  61  96 133 167 203 247 302
#     4  10  21  38  54  72  98 128 160 210 271 304
#     4  10  21  38  56  77 105 138 170 218 272 307
#     4  10  19  33  51  73 100 132 171 215 256 311
#     4   9  17  28  45  69 105 140 177 220 253 303
#
# _framework density 21.152808
#
# number of rings (size 3 to 8) (size 9 to 14) (size 15 to 20)
#    0.000    2.500    0.000    3.000    0.000    6.000 
#    4.500    0.000    0.000    0.000    0.000    0.000 
#    0.000   35.000    0.000  157.500    0.000   70.000 
#
# Total GULP energy -396529.716882 kJ/mol
# GULP energy per Si atom -12391.553653 kJ/mol
# Density = 2.110466 g / cm^3
# Si number density = 21.152808 Si / 1000 Ang^3
#
#
#
# Elastic Constant Matrix: (Units=GPa)
#
#
# Indices 1 2 3 4 5 6 
#
# 1 19.0582 18.5704 1.6674 0.0000 0.0000 0.0000
# 2 18.5704 144.9759 48.1614 0.0000 0.0000 0.0000
# 3 1.6674 48.1614 198.7962 0.0000 0.0000 0.0000
# 4 0.0000 0.0000 0.0000 15.8614 0.0000 0.0000
# 5 0.0000 0.0000 0.0000 0.0000 -13.4777 0.0000
# 6 0.0000 0.0000 0.0000 0.0000 0.0000 13.4669
#
#
#
# Elastic Compliance Matrix: (Units=1/GPa)
#
#
# Indices 1 2 3 4 5 6 
#
# 1 0.060355 -0.008225 0.001486 0.000000 0.000000 0.000000
# 2 -0.008225 0.008622 -0.002020 0.000000 0.000000 0.000000
# 3 0.001486 -0.002020 0.005507 0.000000 0.000000 0.000000
# 4 0.000000 0.000000 0.000000 0.063046 0.000000 0.000000
# 5 0.000000 0.000000 0.000000 0.000000 -0.074197 0.000000
# 6 0.000000 0.000000 0.000000 0.000000 0.000000 0.074256
#
#
# Mechanical properties :
#
#
# Convention : Reuss Voigt Hill
#
# Bulk Modulus (GPa) = 17.55373 55.51431 36.53402
# Shear Modulus (GPa) = 28.71971 22.79886 25.75929
#
# Velocity S-wave (km/s) = 3.68873 3.28657 3.49344
# Velocity P-wave (km/s) = 5.14382 6.37993 5.79493
#
# Compressibility (1/GPa) = 0.05696795
#
# Stress axis : x y z
#
# Youngs Moduli (GPa) = 16.56855 115.97879 181.58181
#
# Poissons Ratio (x) = 0.95391 -0.26990
# Poissons Ratio (y) = 0.13627 0.36678
# Poissons Ratio (z) = -0.02463 0.23426
#
# Static dielectric constant tensor:
#      x y z
#    x 3.059130 0.000000 0.000000 
#    y 0.000000 3.880850 0.000000 
#    z 0.000000 0.000000 5.424410 
# 
# 
# High freq. dielectric constant tensor:
#      x y z
#    x 1.763700 0.000000 0.000000 
#    y 0.000000 1.829110 0.000000 
#    z 0.000000 0.000000 1.862890 
# 
# From -- ./inp_files/566.got.cif
#   From: 2010.03.12/outbox.cif.g09.slc.cpg/sg27_1_cif.got.tgz:566.got - 2010.04.14 03:36:05.
