data_PCOD8167932
_publ_section_title
;
Structure prediction by ZEFSAII (Michael W. Deem and Ramdas Pophale) SiO2 
 PCOD8167932
Probable space group: P C C 2
;
_chemical_formula_sum "Si O2"
_cell_formula_units_Z 24
_cell_length_a 13.808950
_cell_length_b 4.927577
_cell_length_c 16.859359
_cell_angle_alpha 90.000000
_cell_angle_beta 90.000000
_cell_angle_gamma 90.000000
_cell_volume 1147.189425
_symmetry_space_group_name_H-M "P C C 2"
_symmetry_group_IT_number 27
_symmetry_cell_setting 'orthorhombic'
loop_
_space_group_symop_operation_xyz
x,y,z
-x,-y,z
-x,y,1/2+z
x,-y,1/2+z
loop_
_atom_site_type_symbol
_atom_site_label
_atom_site_fract_x
_atom_site_fract_y
_atom_site_fract_z
Si Si1 0.500000 0.000000 0.189410
Si Si2 0.937254 0.747519 0.949253
Si Si3 0.284738 0.072317 0.237475
Si Si4 0.500000 0.500000 0.080189
Si Si5 0.231390 0.418534 0.835143
Si Si6 0.685626 0.513275 0.493543
Si Si7 0.219566 0.982992 0.560588
O O1 0.600326 0.009655 0.239139
O O2 0.527285 0.742909 0.137163
O O3 0.871535 0.603081 0.880962
O O4 0.000000 0.500000 0.983076
O O5 0.880293 0.863264 0.026048
O O6 0.000000 0.000000 0.913991
O O7 0.249785 0.374900 0.262193
O O8 0.229505 0.010954 0.155359
O O9 0.241753 0.884905 0.305214
O O10 0.416866 0.616780 0.023777
O O11 0.312958 0.505610 0.898638
O O12 0.696185 0.209414 0.527034
O O13 0.768402 0.712696 0.527411
#
# Coordination Sequence:
#
# PCOD8167932 Si02
#       7
#     2   4   4   2   4   4   4
#     4  12  24  38  64  96 134 178 218 260 316 376
#     4  11  23  45  70  94 124 170 226 280 335 404
#     4  12  23  42  63  98 137 173 211 263 327 388
#     4  12  20  38  62  94 122 176 232 268 288 378
#     4  11  25  41  64  95 133 172 207 272 341 386
#     4  11  21  39  62  91 125 173 223 259 313 378
#     4  11  22  41  66  93 125 167 218 266 324 391
#
# _framework density 20.920693
#
# number of rings (size 3 to 8) (size 9 to 14) (size 15 to 20)
#    0.000    0.667    3.333    7.000    0.000    1.333 
#    0.000    5.000    0.000    0.000    0.000    0.000 
#    0.000    0.000    0.000    0.000    0.000    0.000 
#
# Total GULP energy -297363.985315 kJ/mol
# GULP energy per Si atom -12390.166055 kJ/mol
# Density = 2.087308 g / cm^3
# Si number density = 20.920693 Si / 1000 Ang^3
#
#
#
# Elastic Constant Matrix: (Units=GPa)
#
#
# Indices 1 2 3 4 5 6 
#
# 1 109.7379 22.4714 33.6001 0.0000 0.0000 0.0000
# 2 22.4714 98.7098 24.4149 0.0000 0.0000 0.0000
# 3 33.6001 24.4149 109.0942 0.0000 0.0000 0.0000
# 4 0.0000 0.0000 0.0000 35.9802 0.0000 0.0000
# 5 0.0000 0.0000 0.0000 0.0000 25.3976 0.0000
# 6 0.0000 0.0000 0.0000 0.0000 0.0000 37.1555
#
#
#
# Elastic Compliance Matrix: (Units=1/GPa)
#
#
# Indices 1 2 3 4 5 6 
#
# 1 0.010310 -0.001653 -0.002805 0.000000 0.000000 0.000000
# 2 -0.001653 0.010989 -0.001950 0.000000 0.000000 0.000000
# 3 -0.002805 -0.001950 0.010467 0.000000 0.000000 0.000000
# 4 0.000000 0.000000 0.000000 0.027793 0.000000 0.000000
# 5 0.000000 0.000000 0.000000 0.000000 0.039374 0.000000
# 6 0.000000 0.000000 0.000000 0.000000 0.000000 0.026914
#
#
# Mechanical properties :
#
#
# Convention : Reuss Voigt Hill
#
# Bulk Modulus (GPa) = 52.77406 53.16828 52.97117
# Shear Modulus (GPa) = 34.48720 35.51036 34.99878
#
# Velocity S-wave (km/s) = 4.06454 4.12440 4.09458
# Velocity P-wave (km/s) = 6.87807 6.93904 6.90862
#
# Compressibility (1/GPa) = 0.01894870
#
# Stress axis : x y z
#
# Youngs Moduli (GPa) = 96.99186 90.99652 95.53934
#
# Poissons Ratio (x) = 0.15044 0.26803
# Poissons Ratio (y) = 0.16035 0.18632
# Poissons Ratio (z) = 0.27211 0.17746
#
# Static dielectric constant tensor:
#      x y z
#    x 3.842600 0.000000 0.000000 
#    y 0.000000 3.905140 0.000000 
#    z 0.000000 0.000000 3.686290 
# 
# 
# High freq. dielectric constant tensor:
#      x y z
#    x 1.811290 0.000000 0.000000 
#    y 0.000000 1.844440 0.000000 
#    z 0.000000 0.000000 1.812120 
# 
# From -- ./inp_files/3087.got.cif
#   From: 2010.03.12/outbox.cif.g09.slc.cpg/sg27_2_cif.got.tgz:3087.got - 2010.04.14 03:36:05.
