data_PCOD8167271
_publ_section_title
;
Structure prediction by ZEFSAII (Michael W. Deem and Ramdas Pophale) SiO2 
 PCOD8167271
Probable space group: P M C 21
;
_chemical_formula_sum "Si O2"
_cell_formula_units_Z 32
_cell_length_a 9.393073
_cell_length_b 12.458912
_cell_length_c 13.719860
_cell_angle_alpha 90.000000
_cell_angle_beta 90.000000
_cell_angle_gamma 90.000000
_cell_volume 1605.600503
_symmetry_space_group_name_H-M "P M C 21"
_symmetry_group_IT_number 26
_symmetry_cell_setting 'orthorhombic'
loop_
_space_group_symop_operation_xyz
x,y,z
-x,-y,1/2+z
-x,y,z
x,-y,1/2+z
loop_
_atom_site_type_symbol
_atom_site_label
_atom_site_fract_x
_atom_site_fract_y
_atom_site_fract_z
Si Si1 0.338321 0.890493 0.683320
Si Si2 0.156541 0.914103 0.176749
Si Si3 0.667012 0.626593 0.369649
Si Si4 0.843919 0.045428 0.452411
Si Si5 0.663351 0.425601 0.495956
Si Si6 0.171074 0.667895 0.178899
Si Si7 0.665373 0.149747 0.965676
Si Si8 0.658781 0.225884 0.371883
O O1 0.500000 0.930222 0.676906
O O2 0.289048 0.845650 0.578965
O O3 0.318333 0.789958 0.756234
O O4 0.254321 0.994438 0.726943
O O5 0.219887 0.793237 0.181006
O O6 0.000000 0.914181 0.225298
O O7 0.145821 0.957035 0.067749
O O8 0.500000 0.618405 0.342280
O O9 0.706836 0.541348 0.453699
O O10 0.762059 0.609124 0.273149
O O11 0.708649 0.740645 0.414593
O O12 0.753435 0.944509 0.412591
O O13 0.000000 0.039987 0.404514
O O14 0.772511 0.157580 0.429467
O O15 0.500000 0.424951 0.533984
O O16 0.766504 0.390398 0.583363
O O17 0.681404 0.348563 0.402099
O O18 0.000000 0.657185 0.177603
O O19 0.500000 0.124029 0.952899
O O20 0.500000 0.187279 0.401455
#
# Coordination Sequence:
#
# PCOD8167271 Si02
#       8
#     4   4   4   4   4   4   4   4
#     4   9  19  33  53  82 116 154 190 236 292 348
#     4   9  19  35  53  79 114 152 192 234 283 343
#     4  10  23  41  63  90 117 155 203 248 297 352
#     4  10  19  33  54  80 114 153 191 236 288 346
#     4  10  22  41  64  88 118 157 202 250 295 349
#     4  11  23  40  61  87 119 155 196 245 298 354
#     4   9  19  37  57  82 117 152 191 240 293 346
#     4  10  20  34  55  86 117 150 193 239 292 346
#
# _framework density 19.930237999999999
#
# number of rings (size 3 to 8) (size 9 to 14) (size 15 to 20)
#    0.000    2.250    1.250    0.750    1.750    4.000 
#    0.000    3.750    0.000    3.000    0.000    0.000 
#    0.000    0.000    0.000    0.000    0.000    0.000 
#
# Total GULP energy -396695.147497 kJ/mol
# GULP energy per Si atom -12396.723359 kJ/mol
# Density = 1.988488 g / cm^3
# Si number density = 19.930238 Si / 1000 Ang^3
#
#
#
# Elastic Constant Matrix: (Units=GPa)
#
#
# Indices 1 2 3 4 5 6 
#
# 1 82.7754 37.0903 36.7595 0.0000 0.0000 0.0000
# 2 37.0903 86.0969 22.4699 0.0000 0.0000 0.0000
# 3 36.7595 22.4699 73.8795 0.0000 0.0000 0.0000
# 4 0.0000 0.0000 0.0000 27.9349 0.0000 0.0000
# 5 0.0000 0.0000 0.0000 0.0000 22.3975 0.0000
# 6 0.0000 0.0000 0.0000 0.0000 0.0000 16.7704
#
#
#
# Elastic Compliance Matrix: (Units=1/GPa)
#
#
# Indices 1 2 3 4 5 6 
#
# 1 0.017852 -0.005836 -0.007108 0.000000 0.000000 0.000000
# 2 -0.005836 0.014524 -0.001514 0.000000 0.000000 0.000000
# 3 -0.007108 -0.001514 0.017532 0.000000 0.000000 0.000000
# 4 0.000000 0.000000 0.000000 0.035798 0.000000 0.000000
# 5 0.000000 0.000000 0.000000 0.000000 0.044648 0.000000
# 6 0.000000 0.000000 0.000000 0.000000 0.000000 0.059629
#
#
# Mechanical properties :
#
#
# Convention : Reuss Voigt Hill
#
# Bulk Modulus (GPa) = 47.63185 48.37680 48.00433
# Shear Modulus (GPa) = 22.13417 23.18269 22.65843
#
# Velocity S-wave (km/s) = 3.33616 3.41426 3.37543
# Velocity P-wave (km/s) = 6.22825 6.31416 6.27135
#
# Compressibility (1/GPa) = 0.02099435
#
# Stress axis : x y z
#
# Youngs Moduli (GPa) = 56.01547 68.85209 57.03715
#
# Poissons Ratio (x) = 0.40180 0.40540
# Poissons Ratio (y) = 0.32689 0.08634
# Poissons Ratio (z) = 0.39814 0.10422
#
# Static dielectric constant tensor:
#      x y z
#    x 3.781020 0.000000 0.000000 
#    y 0.000000 3.548340 0.000000 
#    z 0.000000 0.000000 3.624330 
# 
# 
# High freq. dielectric constant tensor:
#      x y z
#    x 1.772590 0.000000 0.000000 
#    y 0.000000 1.767830 0.000000 
#    z 0.000000 0.000000 1.781060 
# 
# From -- ./inp_files/4296.got.cif
#   From: 2010.03.12/outbox.cif.g09.slc.cpg/sg26_3_cif.got.tgz:4296.got - 2010.04.14 03:33:09.
