data_PCOD8167351
_publ_section_title
;
Structure prediction by ZEFSAII (Michael W. Deem and Ramdas Pophale) SiO2 
 PCOD8167351
Probable space group: P M C 21
;
_chemical_formula_sum "Si O2"
_cell_formula_units_Z 32
_cell_length_a 8.781788
_cell_length_b 12.341515
_cell_length_c 14.722662
_cell_angle_alpha 90.000000
_cell_angle_beta 90.000000
_cell_angle_gamma 90.000000
_cell_volume 1595.650475
_symmetry_space_group_name_H-M "P M C 21"
_symmetry_group_IT_number 26
_symmetry_cell_setting 'orthorhombic'
loop_
_space_group_symop_operation_xyz
x,y,z
-x,-y,1/2+z
-x,y,z
x,-y,1/2+z
loop_
_atom_site_type_symbol
_atom_site_label
_atom_site_fract_x
_atom_site_fract_y
_atom_site_fract_z
Si Si1 0.675022 0.447839 0.021180
Si Si2 0.179744 0.391515 0.202991
Si Si3 0.668376 0.693272 0.021375
Si Si4 0.175577 0.887587 0.099262
Si Si5 0.180709 0.169360 0.790422
Si Si6 0.819190 0.980965 0.916323
Si Si7 0.326431 0.222890 0.327186
Si Si8 0.819098 0.590498 0.327257
O O1 0.500000 0.414526 0.007249
O O2 0.748084 0.381273 0.103322
O O3 0.692892 0.571481 0.052550
O O4 0.763916 0.428102 0.928873
O O5 0.226442 0.279235 0.249941
O O6 0.241600 0.496316 0.259600
O O7 0.000000 0.397920 0.193638
O O8 0.500000 0.735894 0.050166
O O9 0.683223 0.697636 0.913043
O O10 0.799490 0.764138 0.067383
O O11 0.246725 0.894224 0.200865
O O12 0.000000 0.914776 0.105844
O O13 0.244350 0.966898 0.020485
O O14 0.245489 0.291655 0.795922
O O15 0.000000 0.176280 0.780829
O O16 0.225700 0.100325 0.879931
O O17 0.742177 0.894162 0.850163
O O18 0.000000 0.961503 0.913600
O O19 0.500000 0.208674 0.293950
O O20 0.000000 0.589788 0.328490
#
# Coordination Sequence:
#
# PCOD8167351 Si02
#       8
#     4   4   4   4   4   4   4   4
#     4  11  22  36  54  80 116 153 186 226 286 349
#     4  11  22  36  57  85 114 149 192 234 281 339
#     4   9  18  32  52  77 107 143 180 225 275 330
#     4   9  17  31  55  81 105 142 188 235 278 323
#     4   9  18  35  55  80 114 147 187 235 282 331
#     4   9  18  34  56  81 108 143 188 234 282 332
#     4  10  19  35  56  78 109 143 182 231 283 333
#     4  10  21  37  57  82 115 152 191 238 283 337
#
# _framework density 20.054518000000002
#
# number of rings (size 3 to 8) (size 9 to 14) (size 15 to 20)
#    0.000    2.250    1.250    1.875    0.000    3.000 
#    2.250    1.875    0.000    0.000    0.000    0.000 
#    0.000    0.000    0.000    0.000    0.000    0.000 
#
# Total GULP energy -396608.006764 kJ/mol
# GULP energy per Si atom -12394.000211 kJ/mol
# Density = 2.000887 g / cm^3
# Si number density = 20.054518 Si / 1000 Ang^3
#
#
#
# Elastic Constant Matrix: (Units=GPa)
#
#
# Indices 1 2 3 4 5 6 
#
# 1 22.9717 8.5607 7.7331 0.0000 0.0000 0.0000
# 2 8.5607 57.5273 18.2827 0.0000 0.0000 0.0000
# 3 7.7331 18.2827 106.4313 0.0000 0.0000 0.0000
# 4 0.0000 0.0000 0.0000 24.4369 0.0000 0.0000
# 5 0.0000 0.0000 0.0000 0.0000 17.4720 0.0000
# 6 0.0000 0.0000 0.0000 0.0000 0.0000 18.3592
#
#
#
# Elastic Compliance Matrix: (Units=1/GPa)
#
#
# Indices 1 2 3 4 5 6 
#
# 1 0.046624 -0.006200 -0.002323 0.000000 0.000000 0.000000
# 2 -0.006200 0.019211 -0.002850 0.000000 0.000000 0.000000
# 3 -0.002323 -0.002850 0.010054 0.000000 0.000000 0.000000
# 4 0.000000 0.000000 0.000000 0.040922 0.000000 0.000000
# 5 0.000000 0.000000 0.000000 0.000000 0.057235 0.000000
# 6 0.000000 0.000000 0.000000 0.000000 0.000000 0.054469
#
#
# Mechanical properties :
#
#
# Convention : Reuss Voigt Hill
#
# Bulk Modulus (GPa) = 18.81643 28.45369 23.63506
# Shear Modulus (GPa) = 18.58916 22.21053 20.39985
#
# Velocity S-wave (km/s) = 3.04786 3.33153 3.19285
# Velocity P-wave (km/s) = 4.66786 5.38682 5.04017
#
# Compressibility (1/GPa) = 0.05314506
#
# Stress axis : x y z
#
# Youngs Moduli (GPa) = 21.44807 52.05259 99.46294
#
# Poissons Ratio (x) = 0.32273 0.23101
# Poissons Ratio (y) = 0.13298 0.28343
# Poissons Ratio (z) = 0.04981 0.14833
#
# Static dielectric constant tensor:
#      x y z
#    x 3.437100 0.000000 0.000000 
#    y 0.000000 3.552620 0.000000 
#    z 0.000000 0.000000 3.840080 
# 
# 
# High freq. dielectric constant tensor:
#      x y z
#    x 1.760700 0.000000 0.000000 
#    y 0.000000 1.766830 0.000000 
#    z 0.000000 0.000000 1.789910 
# 
# From -- ./inp_files/4225.got.cif
#   From: 2010.03.12/outbox.cif.g09.slc.cpg/sg26_3_cif.got.tgz:4225.got - 2010.04.14 03:33:09.
