data_PCOD8167267
_publ_section_title
;
Structure prediction by ZEFSAII (Michael W. Deem and Ramdas Pophale) SiO2 
 PCOD8167267
Probable space group: P M C 21
;
_chemical_formula_sum "Si O2"
_cell_formula_units_Z 18
_cell_length_a 22.327540
_cell_length_b 8.529251
_cell_length_c 5.076925
_cell_angle_alpha 90.000000
_cell_angle_beta 90.000000
_cell_angle_gamma 90.000000
_cell_volume 966.835345
_symmetry_space_group_name_H-M "P M C 21"
_symmetry_group_IT_number 26
_symmetry_cell_setting 'orthorhombic'
loop_
_space_group_symop_operation_xyz
x,y,z
-x,-y,1/2+z
-x,y,z
x,-y,1/2+z
loop_
_atom_site_type_symbol
_atom_site_label
_atom_site_fract_x
_atom_site_fract_y
_atom_site_fract_z
Si Si1 0.148196 0.599203 0.128400
Si Si2 0.371630 0.893824 0.065006
Si Si3 0.931142 0.100438 0.627465
Si Si4 0.287214 0.398071 0.612830
Si Si5 0.500000 0.901940 0.165139
O O1 0.132117 0.533363 0.415143
O O2 0.109557 0.751185 0.068874
O O3 0.217478 0.646489 0.106991
O O4 0.321726 0.764589 0.108940
O O5 0.437772 0.812311 0.097527
O O6 0.363947 0.033373 0.275758
O O7 0.000000 0.153801 0.603717
O O8 0.916319 0.966818 0.414521
O O9 0.305588 0.505338 0.368886
O O10 0.500000 0.944435 0.474432
#
# Coordination Sequence:
#
# PCOD8167267 Si02
#       5
#     4   4   4   4   2
#     4  10  21  36  54  75 102 137 171 204 247 301
#     4  10  19  33  54  76  98 132 173 207 246 300
#     4  10  21  36  54  78 106 132 164 211 256 292
#     4  10  21  36  51  74 107 134 163 210 257 293
#     4   8  16  30  48  72 100 126 162 210 248 288
#
# _framework density 18.617442
#
# number of rings (size 3 to 8) (size 9 to 14) (size 15 to 20)
#    0.000    2.222    0.000    2.667    0.000    2.667 
#    0.000    1.111    0.000    0.000    0.000    0.000 
#    0.000    0.000    0.000    0.000    0.000    0.000 
#
# Total GULP energy -223202.411213 kJ/mol
# GULP energy per Si atom -12400.133956 kJ/mol
# Density = 1.857507 g / cm^3
# Si number density = 18.617442 Si / 1000 Ang^3
#
#
#
# Elastic Constant Matrix: (Units=GPa)
#
#
# Indices 1 2 3 4 5 6 
#
# 1 88.2632 62.1887 25.1413 0.0000 0.0000 0.0000
# 2 62.1887 79.1967 15.4310 0.0000 0.0000 0.0000
# 3 25.1413 15.4310 101.0175 0.0000 0.0000 0.0000
# 4 0.0000 0.0000 0.0000 15.7546 0.0000 0.0000
# 5 0.0000 0.0000 0.0000 0.0000 27.0936 0.0000
# 6 0.0000 0.0000 0.0000 0.0000 0.0000 -232.4868
#
#
#
# Elastic Compliance Matrix: (Units=1/GPa)
#
#
# Indices 1 2 3 4 5 6 
#
# 1 0.026526 -0.020142 -0.003525 0.000000 0.000000 0.000000
# 2 -0.020142 0.028309 0.000689 0.000000 0.000000 0.000000
# 3 -0.003525 0.000689 0.010671 0.000000 0.000000 0.000000
# 4 0.000000 0.000000 0.000000 0.063474 0.000000 0.000000
# 5 0.000000 0.000000 0.000000 0.000000 0.036909 0.000000
# 6 0.000000 0.000000 0.000000 0.000000 0.000000 -0.004301
#
#
# Mechanical properties :
#
#
# Convention : Reuss Voigt Hill
#
# Bulk Modulus (GPa) = 51.15309 52.66660 51.90985
# Shear Modulus (GPa) = 23.35777 -26.87997 -1.76110
#
# Velocity S-wave (km/s) = 3.54590 -3.80387 -0.97365
# Velocity P-wave (km/s) = 6.65583 3.00961 5.16516
#
# Compressibility (1/GPa) = 0.01954916
#
# Stress axis : x y z
#
# Youngs Moduli (GPa) = 37.69920 35.32406 93.70880
#
# Poissons Ratio (x) = 0.71151 0.33031
# Poissons Ratio (y) = 0.75935 -0.06453
# Poissons Ratio (z) = 0.13288 -0.02433
#
# Static dielectric constant tensor:
#      x y z
#    x 3.580150 0.000000 0.000000 
#    y 0.000000 2.982120 0.000000 
#    z 0.000000 0.000000 3.663940 
# 
# 
# High freq. dielectric constant tensor:
#      x y z
#    x 1.730750 0.000000 0.000000 
#    y 0.000000 1.691650 0.000000 
#    z 0.000000 0.000000 1.748110 
# 
# From -- ./inp_files/703.got.cif
#   From: 2010.03.12/outbox.cif.g09.slc.cpg/sg26_1_cif.got.tgz:703.got - 2010.04.14 03:33:09.
