data_PCOD8167509
_publ_section_title
;
Structure prediction by ZEFSAII (Michael W. Deem and Ramdas Pophale) SiO2 
 PCOD8167509
Probable space group: P M C 21
;
_chemical_formula_sum "Si O2"
_cell_formula_units_Z 32
_cell_length_a 12.952614
_cell_length_b 10.103960
_cell_length_c 12.407077
_cell_angle_alpha 90.000000
_cell_angle_beta 90.000000
_cell_angle_gamma 90.000000
_cell_volume 1623.747589
_symmetry_space_group_name_H-M "P M C 21"
_symmetry_group_IT_number 26
_symmetry_cell_setting 'orthorhombic'
loop_
_space_group_symop_operation_xyz
x,y,z
-x,-y,1/2+z
-x,y,z
x,-y,1/2+z
loop_
_atom_site_type_symbol
_atom_site_label
_atom_site_fract_x
_atom_site_fract_y
_atom_site_fract_z
Si Si1 0.612974 0.563094 0.824310
Si Si2 0.280899 0.208086 0.227444
Si Si3 0.184054 0.847192 0.951476
Si Si4 0.718576 0.924594 0.172579
Si Si5 0.218392 0.426516 0.506152
Si Si6 0.886085 0.898009 0.359000
Si Si7 0.121492 0.294638 0.050650
Si Si8 0.387997 0.334825 0.669256
O O1 0.500000 0.600567 0.873639
O O2 0.638840 0.669608 0.728488
O O3 0.705348 0.553496 0.907347
O O4 0.605044 0.416434 0.778376
O O5 0.259871 0.177618 0.352028
O O6 0.179423 0.245639 0.158034
O O7 0.328786 0.072335 0.180382
O O8 0.142076 0.700492 0.985100
O O9 0.101371 0.957091 0.915463
O O10 0.247878 0.907365 0.049800
O O11 0.814168 0.903847 0.254638
O O12 0.630980 0.818129 0.200475
O O13 0.147779 0.552877 0.526825
O O14 0.291780 0.394232 0.605694
O O15 0.844709 0.792584 0.447194
O O16 0.000000 0.855413 0.319694
O O17 0.000000 0.279887 0.073366
O O18 0.500000 0.344379 0.609217
#
# Coordination Sequence:
#
# PCOD8167509 Si02
#       8
#     4   4   4   4   4   4   4   4
#     4  10  20  36  60  88 116 152 194 240 299 362
#     4  10  20  37  59  85 120 155 195 250 297 350
#     4   9  20  36  58  81 111 157 193 239 293 348
#     4  10  20  37  59  83 117 155 193 242 298 348
#     4  10  20  37  60  83 118 151 190 246 294 346
#     4  10  21  36  57  83 112 151 199 243 289 351
#     4  11  22  38  58  84 118 157 201 247 299 352
#     4  10  20  35  58  85 112 148 190 235 290 349
#
# _framework density 19.707497
#
# number of rings (size 3 to 8) (size 9 to 14) (size 15 to 20)
#    0.000    2.000    2.500    1.125    0.000    3.500 
#    0.000    3.750    0.000    0.750    0.000    0.000 
#    0.000    0.000    0.000    0.000    0.000    0.000 
#
# Total GULP energy -396420.865659 kJ/mol
# GULP energy per Si atom -12388.152052 kJ/mol
# Density = 1.966264 g / cm^3
# Si number density = 19.707497 Si / 1000 Ang^3
#
#
#
# Elastic Constant Matrix: (Units=GPa)
#
#
# Indices 1 2 3 4 5 6 
#
# 1 57.9762 16.4550 16.1191 0.0000 0.0000 0.0000
# 2 16.4550 133.1344 29.3887 0.0000 0.0000 0.0000
# 3 16.1191 29.3887 83.3926 0.0000 0.0000 0.0000
# 4 0.0000 0.0000 0.0000 27.8734 0.0000 0.0000
# 5 0.0000 0.0000 0.0000 0.0000 21.2299 0.0000
# 6 0.0000 0.0000 0.0000 0.0000 0.0000 16.3843
#
#
#
# Elastic Compliance Matrix: (Units=1/GPa)
#
#
# Indices 1 2 3 4 5 6 
#
# 1 0.018548 -0.001628 -0.003012 0.000000 0.000000 0.000000
# 2 -0.001628 0.008288 -0.002606 0.000000 0.000000 0.000000
# 3 -0.003012 -0.002606 0.013492 0.000000 0.000000 0.000000
# 4 0.000000 0.000000 0.000000 0.035876 0.000000 0.000000
# 5 0.000000 0.000000 0.000000 0.000000 0.047103 0.000000
# 6 0.000000 0.000000 0.000000 0.000000 0.000000 0.061034
#
#
# Mechanical properties :
#
#
# Convention : Reuss Voigt Hill
#
# Bulk Modulus (GPa) = 38.70438 44.26987 41.48712
# Shear Modulus (GPa) = 24.10291 27.26690 25.68490
#
# Velocity S-wave (km/s) = 3.50098 3.72369 3.61405
# Velocity P-wave (km/s) = 6.00205 6.40313 6.20583
#
# Compressibility (1/GPa) = 0.02583687
#
# Stress axis : x y z
#
# Youngs Moduli (GPa) = 53.91502 120.66139 74.11806
#
# Poissons Ratio (x) = 0.19640 0.22321
# Poissons Ratio (y) = 0.08776 0.19316
# Poissons Ratio (z) = 0.16237 0.31445
#
# Static dielectric constant tensor:
#      x y z
#    x 3.366120 0.000000 0.000000 
#    y 0.000000 4.253540 0.000000 
#    z 0.000000 0.000000 3.532720 
# 
# 
# High freq. dielectric constant tensor:
#      x y z
#    x 1.738840 0.000000 0.000000 
#    y 0.000000 1.793400 0.000000 
#    z 0.000000 0.000000 1.766460 
# 
# From -- ./inp_files/3581.got.cif
#   From: 2010.03.12/outbox.cif.g09.slc.cpg/sg26_2_cif.got.tgz:3581.got - 2010.04.14 03:33:09.
