data_PCOD8167197
_publ_section_title
;
Structure prediction by ZEFSAII (Michael W. Deem and Ramdas Pophale) SiO2 
 PCOD8167197
Probable space group: P M C 21
;
_chemical_formula_sum "Si O2"
_cell_formula_units_Z 32
_cell_length_a 9.252042
_cell_length_b 9.293438
_cell_length_c 20.185080
_cell_angle_alpha 90.000000
_cell_angle_beta 90.000000
_cell_angle_gamma 90.000000
_cell_volume 1735.579359
_symmetry_space_group_name_H-M "P M C 21"
_symmetry_group_IT_number 26
_symmetry_cell_setting 'orthorhombic'
loop_
_space_group_symop_operation_xyz
x,y,z
-x,-y,1/2+z
-x,y,z
x,-y,1/2+z
loop_
_atom_site_type_symbol
_atom_site_label
_atom_site_fract_x
_atom_site_fract_y
_atom_site_fract_z
Si Si1 0.831504 0.019506 0.602190
Si Si2 0.661299 0.056195 0.730603
Si Si3 0.832551 0.798235 0.488762
Si Si4 0.667448 0.701766 0.064697
Si Si5 0.668495 0.480495 0.951268
Si Si6 0.838699 0.556186 0.322856
Si Si7 0.840214 0.106694 0.850326
Si Si8 0.659785 0.606687 0.203132
O O1 0.755234 0.985823 0.672025
O O2 0.764741 0.156439 0.564807
O O3 0.000000 0.049732 0.614607
O O4 0.805704 0.880402 0.556967
O O5 0.500000 0.990783 0.729322
O O6 0.732312 0.020020 0.802066
O O7 0.657469 0.226063 0.721547
O O8 0.735259 0.656440 0.488649
O O9 0.789895 0.903212 0.427069
O O10 0.000000 0.751932 0.480043
O O11 0.500000 0.748070 0.073420
O O12 0.694287 0.619597 0.996492
O O13 0.710113 0.596792 0.126389
O O14 0.500000 0.450264 0.938848
O O15 0.744768 0.514189 0.881435
O O16 0.842522 0.726053 0.331915
O O17 0.767685 0.520013 0.251392
O O18 0.000000 0.490779 0.324134
O O19 0.000000 0.040369 0.840980
O O20 0.500000 0.540355 0.212470
#
# Coordination Sequence:
#
# PCOD8167197 Si02
#       8
#     4   4   4   4   4   4   4   4
#     4  10  19  31  49  71  95 125 156 188 232 279
#     4   9  16  26  42  66  93 118 150 192 231 270
#     4   9  19  33  48  70  97 123 155 193 231 275
#     4   9  19  33  48  70  97 123 155 193 231 275
#     4  10  19  31  49  71  95 125 156 188 232 279
#     4   9  16  26  42  66  93 118 150 192 231 270
#     4   8  14  26  43  63  89 118 149 189 232 270
#     4   8  14  26  43  63  89 118 149 189 232 270
#
# _framework density 18.437647999999999
#
# number of rings (size 3 to 8) (size 9 to 14) (size 15 to 20)
#    0.000    3.000    0.000    3.000    0.000    8.000 
#    0.000    0.000    0.000    1.500    0.000    0.000 
#    0.000    0.000    0.000    0.000    0.000    0.000 
#
# Total GULP energy -396674.394907 kJ/mol
# GULP energy per Si atom -12396.074841 kJ/mol
# Density = 1.839568 g / cm^3
# Si number density = 18.437648 Si / 1000 Ang^3
#
#
#
# Elastic Constant Matrix: (Units=GPa)
#
#
# Indices 1 2 3 4 5 6 
#
# 1 92.4123 8.3553 8.8907 0.0000 0.0000 0.0000
# 2 8.3553 11.0508 -9.8470 0.0000 0.0000 0.0000
# 3 8.8907 -9.8470 29.7502 0.0000 0.0000 0.0000
# 4 0.0000 0.0000 0.0000 17.9914 0.0000 0.0000
# 5 0.0000 0.0000 0.0000 0.0000 33.8209 0.0000
# 6 0.0000 0.0000 0.0000 0.0000 0.0000 16.7092
#
#
#
# Elastic Compliance Matrix: (Units=1/GPa)
#
#
# Indices 1 2 3 4 5 6 
#
# 1 0.013629 -0.019762 -0.010614 0.000000 0.000000 0.000000
# 2 -0.019762 0.156999 0.057871 0.000000 0.000000 0.000000
# 3 -0.010614 0.057871 0.055940 0.000000 0.000000 0.000000
# 4 0.000000 0.000000 0.000000 0.055582 0.000000 0.000000
# 5 0.000000 0.000000 0.000000 0.000000 0.029568 0.000000
# 6 0.000000 0.000000 0.000000 0.000000 0.000000 0.059847
#
#
# Mechanical properties :
#
#
# Convention : Reuss Voigt Hill
#
# Bulk Modulus (GPa) = 3.55169 16.44571 9.99870
# Shear Modulus (GPa) = 12.18241 22.09192 17.13716
#
# Velocity S-wave (km/s) = 2.57327 3.46525 3.05202
# Velocity P-wave (km/s) = 3.28016 4.99496 4.22546
#
# Compressibility (1/GPa) = 0.28155623
#
# Stress axis : x y z
#
# Youngs Moduli (GPa) = 73.37302 6.36947 17.87641
#
# Poissons Ratio (x) = 0.12588 0.18974
# Poissons Ratio (y) = 1.45002 -1.03452
# Poissons Ratio (z) = 0.77878 -0.36861
#
# Static dielectric constant tensor:
#      x y z
#    x 3.631050 0.000000 0.000000 
#    y 0.000000 2.705340 0.000000 
#    z 0.000000 0.000000 3.710430 
# 
# 
# High freq. dielectric constant tensor:
#      x y z
#    x 1.725170 0.000000 0.000000 
#    y 0.000000 1.643890 0.000000 
#    z 0.000000 0.000000 1.730620 
# 
# From -- ./inp_files/5367.got.cif
#   From: 2010.03.12/outbox.cif.g09.slc.cpg/sg26_3_cif.got.tgz:5367.got - 2010.04.14 03:33:09.
