data_PCOD8167207
_publ_section_title
;
Structure prediction by ZEFSAII (Michael W. Deem and Ramdas Pophale) SiO2 
 PCOD8167207
Probable space group: P M C 21
;
_chemical_formula_sum "Si O2"
_cell_formula_units_Z 32
_cell_length_a 8.562640
_cell_length_b 35.464358
_cell_length_c 5.159464
_cell_angle_alpha 90.000000
_cell_angle_beta 90.000000
_cell_angle_gamma 90.000000
_cell_volume 1566.766850
_symmetry_space_group_name_H-M "P M C 21"
_symmetry_group_IT_number 26
_symmetry_cell_setting 'orthorhombic'
loop_
_space_group_symop_operation_xyz
x,y,z
-x,-y,1/2+z
-x,y,z
x,-y,1/2+z
loop_
_atom_site_type_symbol
_atom_site_label
_atom_site_fract_x
_atom_site_fract_y
_atom_site_fract_z
Si Si1 0.313135 0.648152 0.952160
Si Si2 0.818984 0.023832 0.418852
Si Si3 0.318715 0.896354 0.886651
Si Si4 0.315944 0.605407 0.452120
Si Si5 0.817705 0.859371 0.388604
Si Si6 0.817621 0.523412 0.424054
Si Si7 0.684699 0.267179 0.435280
Si Si8 0.314721 0.221892 0.931905
O O1 0.500000 0.648556 0.951111
O O2 0.246187 0.626114 0.703592
O O3 0.246058 0.690661 0.951956
O O4 0.245917 0.626237 0.201058
O O5 0.714773 0.060591 0.461523
O O6 0.000000 0.035634 0.435123
O O7 0.776736 0.994455 0.644075
O O8 0.500000 0.890078 0.829579
O O9 0.225048 0.886670 0.625965
O O10 0.271797 0.869977 0.126107
O O11 0.500000 0.609734 0.450968
O O12 0.275098 0.561771 0.455196
O O13 0.772464 0.817335 0.468939
O O14 0.000000 0.863037 0.332711
O O15 0.768252 0.495527 0.654579
O O16 0.000000 0.532638 0.435107
O O17 0.500000 0.269710 0.454190
O O18 0.746798 0.241919 0.671944
O O19 0.737545 0.248419 0.167893
O O20 0.500000 0.214867 0.929635
#
# Coordination Sequence:
#
# PCOD8167207 Si02
#       8
#     4   4   4   4   4   4   4   4
#     4   9  17  30  49  77 107 135 170 214 266 317
#     4  10  21  38  61  89 123 161 198 239 295 361
#     4  12  25  42  65  93 124 158 204 257 299 347
#     4  10  19  31  51  76 102 131 168 215 261 311
#     4  12  25  42  63  88 123 164 201 244 305 365
#     4  10  21  36  52  70  96 131 168 207 255 313
#     4   9  17  30  52  79 108 141 178 223 273 327
#     4  10  19  33  55  82 109 143 189 235 276 325
#
# _framework density 20.424223000000001
#
# number of rings (size 3 to 8) (size 9 to 14) (size 15 to 20)
#    0.000    1.750    0.000    5.250    0.000    6.000 
#    0.000    0.000    0.000    4.500    0.000    0.000 
#    0.000    0.000    0.000    0.000    0.000    0.000 
#
# Total GULP energy -396955.516977 kJ/mol
# GULP energy per Si atom -12404.859906 kJ/mol
# Density = 2.037774 g / cm^3
# Si number density = 20.424223 Si / 1000 Ang^3
#
#
#
# Elastic Constant Matrix: (Units=GPa)
#
#
# Indices 1 2 3 4 5 6 
#
# 1 36.5605 20.7513 17.5215 0.0000 0.0000 0.0000
# 2 20.7513 103.5853 24.1603 0.0000 0.0000 0.0000
# 3 17.5215 24.1603 127.1939 0.0000 0.0000 0.0000
# 4 0.0000 0.0000 0.0000 38.8462 0.0000 0.0000
# 5 0.0000 0.0000 0.0000 0.0000 15.9007 0.0000
# 6 0.0000 0.0000 0.0000 0.0000 0.0000 -0.4268
#
#
#
# Elastic Compliance Matrix: (Units=1/GPa)
#
#
# Indices 1 2 3 4 5 6 
#
# 1 0.032175 -0.005663 -0.003357 0.000000 0.000000 0.000000
# 2 -0.005663 0.011098 -0.001328 0.000000 0.000000 0.000000
# 3 -0.003357 -0.001328 0.008577 0.000000 0.000000 0.000000
# 4 0.000000 0.000000 0.000000 0.025743 0.000000 0.000000
# 5 0.000000 0.000000 0.000000 0.000000 0.062890 0.000000
# 6 0.000000 0.000000 0.000000 0.000000 0.000000 -2.342939
#
#
# Mechanical properties :
#
#
# Convention : Reuss Voigt Hill
#
# Bulk Modulus (GPa) = 32.09777 43.57844 37.83811
# Shear Modulus (GPa) = -2.30269 24.52445 11.11088
#
# Velocity S-wave (km/s) = -1.06296 3.46895 2.33492
# Velocity P-wave (km/s) = 3.77401 6.11782 5.08286
#
# Compressibility (1/GPa) = 0.03115481
#
# Stress axis : x y z
#
# Youngs Moduli (GPa) = 31.08040 90.10610 116.59569
#
# Poissons Ratio (x) = 0.51024 0.39136
# Poissons Ratio (y) = 0.17600 0.15484
# Poissons Ratio (z) = 0.10432 0.11966
#
# Static dielectric constant tensor:
#      x y z
#    x 3.316630 0.000000 0.000000 
#    y 0.000000 3.734980 0.000000 
#    z 0.000000 0.000000 4.016240 
# 
# 
# High freq. dielectric constant tensor:
#      x y z
#    x 1.759830 0.000000 0.000000 
#    y 0.000000 1.813540 0.000000 
#    z 0.000000 0.000000 1.819430 
# 
# From -- ./inp_files/251.got.cif
#   From: 2010.03.12/outbox.cif.g09.slc.cpg/sg26_1_cif.got.tgz:251.got - 2010.04.14 03:33:09.
