data_PCOD8167525
_publ_section_title
;
Structure prediction by ZEFSAII (Michael W. Deem and Ramdas Pophale) SiO2 
 PCOD8167525
Probable space group: P M C 21
;
_chemical_formula_sum "Si O2"
_cell_formula_units_Z 28
_cell_length_a 10.361625
_cell_length_b 27.516368
_cell_length_c 5.210306
_cell_angle_alpha 90.000000
_cell_angle_beta 90.000000
_cell_angle_gamma 90.000000
_cell_volume 1485.532678
_symmetry_space_group_name_H-M "P M C 21"
_symmetry_group_IT_number 26
_symmetry_cell_setting 'orthorhombic'
loop_
_space_group_symop_operation_xyz
x,y,z
-x,-y,1/2+z
-x,y,z
x,-y,1/2+z
loop_
_atom_site_type_symbol
_atom_site_label
_atom_site_fract_x
_atom_site_fract_y
_atom_site_fract_z
Si Si1 0.851670 0.821461 0.418930
Si Si2 0.150647 0.117306 0.417468
Si Si3 0.270324 0.282616 0.922942
Si Si4 0.855072 0.370398 0.714449
Si Si5 0.152166 0.525747 0.404855
Si Si6 0.360478 0.674006 0.934487
Si Si7 0.646238 0.968387 0.969495
O O1 0.814535 0.857252 0.649753
O O2 0.774651 0.772120 0.447977
O O3 0.000000 0.807029 0.435834
O O4 0.818714 0.846160 0.148897
O O5 0.244786 0.071990 0.442028
O O6 0.000000 0.100681 0.425146
O O7 0.153307 0.322066 0.892515
O O8 0.360034 0.287774 0.671871
O O9 0.348059 0.295294 0.177181
O O10 0.755039 0.365237 0.474844
O O11 0.000000 0.376207 0.604200
O O12 0.813925 0.417342 0.879157
O O13 0.212469 0.495461 0.166562
O O14 0.000000 0.517500 0.408778
O O15 0.500000 0.647474 0.930744
O O16 0.500000 0.946771 0.951747
O O17 0.667418 0.992759 0.245064
#
# Coordination Sequence:
#
# PCOD8167525 Si02
#       7
#     4   4   4   4   4   4   4
#     4  10  20  36  55  82 117 149 180 229 286 327
#     4  10  21  36  57  84 114 147 183 226 281 335
#     4  10  21  36  59  81 110 149 194 229 270 341
#     4   9  21  35  59  87 108 143 193 234 281 342
#     4   9  18  31  49  77 113 140 170 227 290 337
#     4  10  22  38  56  79 111 147 183 232 283 326
#     4  10  21  38  59  82 111 147 187 231 277 322
#
# _framework density 18.848458000000001
#
# number of rings (size 3 to 8) (size 9 to 14) (size 15 to 20)
#    0.857    1.429    0.000    2.571    2.000    1.714 
#    0.000    4.286    0.000    0.857    0.000    0.000 
#    0.000    0.000    0.000    0.000    0.000    0.000 
#
# Total GULP energy -346973.355333 kJ/mol
# GULP energy per Si atom -12391.905548 kJ/mol
# Density = 1.880556 g / cm^3
# Si number density = 18.848458 Si / 1000 Ang^3
#
#
#
# Elastic Constant Matrix: (Units=GPa)
#
#
# Indices 1 2 3 4 5 6 
#
# 1 86.0870 40.1921 10.6961 0.0000 0.0000 0.0000
# 2 40.1921 75.8686 -1.8593 0.0000 0.0000 0.0000
# 3 10.6961 -1.8593 92.6025 0.0000 0.0000 0.0000
# 4 0.0000 0.0000 0.0000 17.8315 0.0000 0.0000
# 5 0.0000 0.0000 0.0000 0.0000 107.9272 0.0000
# 6 0.0000 0.0000 0.0000 0.0000 0.0000 34.8200
#
#
#
# Elastic Compliance Matrix: (Units=1/GPa)
#
#
# Indices 1 2 3 4 5 6 
#
# 1 0.015793 -0.008415 -0.001993 0.000000 0.000000 0.000000
# 2 -0.008415 0.017671 0.001327 0.000000 0.000000 0.000000
# 3 -0.001993 0.001327 0.011056 0.000000 0.000000 0.000000
# 4 0.000000 0.000000 0.000000 0.056080 0.000000 0.000000
# 5 0.000000 0.000000 0.000000 0.000000 0.009266 0.000000
# 6 0.000000 0.000000 0.000000 0.000000 0.000000 0.028719
#
#
# Mechanical properties :
#
#
# Convention : Reuss Voigt Hill
#
# Bulk Modulus (GPa) = 37.94107 39.17953 38.56030
# Shear Modulus (GPa) = 30.20546 45.81769 38.01157
#
# Velocity S-wave (km/s) = 4.00752 4.93571 4.49563
# Velocity P-wave (km/s) = 6.44879 7.30160 6.88840
#
# Compressibility (1/GPa) = 0.02635666
#
# Stress axis : x y z
#
# Youngs Moduli (GPa) = 63.32066 56.58931 90.45109
#
# Poissons Ratio (x) = 0.47621 0.18028
# Poissons Ratio (y) = 0.53285 -0.12001
# Poissons Ratio (z) = 0.12620 -0.07508
#
# Static dielectric constant tensor:
#      x y z
#    x 3.265230 0.000000 0.000000 
#    y 0.000000 3.252970 0.000000 
#    z 0.000000 0.000000 3.806620 
# 
# 
# High freq. dielectric constant tensor:
#      x y z
#    x 1.709790 0.000000 0.000000 
#    y 0.000000 1.720350 0.000000 
#    z 0.000000 0.000000 1.748930 
# 
# From -- ./inp_files/488.got.cif
#   From: 2010.03.12/outbox.cif.g09.slc.cpg/sg26_1_cif.got.tgz:488.got - 2010.04.14 03:33:09.
