data_PCOD8167928
_publ_section_title
;
Structure prediction by ZEFSAII (Michael W. Deem and Ramdas Pophale) SiO2 
 PCOD8167928
Probable space group: P C C 2
;
_chemical_formula_sum "Si O2"
_cell_formula_units_Z 14
_cell_length_a 4.904176
_cell_length_b 12.770002
_cell_length_c 8.805869
_cell_angle_alpha 90.000000
_cell_angle_beta 90.000000
_cell_angle_gamma 90.000000
_cell_volume 551.479322
_symmetry_space_group_name_H-M "P C C 2"
_symmetry_group_IT_number 27
_symmetry_cell_setting 'orthorhombic'
loop_
_space_group_symop_operation_xyz
x,y,z
-x,-y,z
-x,y,1/2+z
x,-y,1/2+z
loop_
_atom_site_type_symbol
_atom_site_label
_atom_site_fract_x
_atom_site_fract_y
_atom_site_fract_z
Si Si1 0.674346 0.600458 0.000000
Si Si2 0.140301 0.112436 0.190772
Si Si3 0.000000 0.500000 0.249407
Si Si4 0.644616 0.184837 0.016166
O O1 0.500000 0.500000 0.004150
O O2 0.483563 0.701215 0.996609
O O3 0.846348 0.589110 0.153067
O O4 0.844658 0.587930 0.846935
O O5 0.402993 0.110335 0.079519
O O6 0.243714 0.142765 0.356837
O O7 0.905804 0.191572 0.129026
O O8 0.000000 0.000000 0.193036
#
# Coordination Sequence:
#
# PCOD8167928 Si02
#       4
#     4   4   2   4
#     4  11  27  46  79 114 167 218 273 336 407 499
#     4  12  29  56  85 124 166 215 283 355 417 492
#     4  10  26  50  72 112 176 214 278 334 410 474
#     4  12  30  52  88 121 166 224 278 340 428 494
#
# _framework density 25.386265999999999
#
# number of rings (size 3 to 8) (size 9 to 14) (size 15 to 20)
#    0.000    0.571    0.000    4.286   16.000    2.286 
#    0.000    1.429    0.000    0.000    0.000    0.000 
#    0.000    0.000    0.000    0.000    0.000    0.000 
#
# Total GULP energy -173467.662366 kJ/mol
# GULP energy per Si atom -12390.547312 kJ/mol
# Density = 2.532849 g / cm^3
# Si number density = 25.386266 Si / 1000 Ang^3
#
#
#
# Elastic Constant Matrix: (Units=GPa)
#
#
# Indices 1 2 3 4 5 6 
#
# 1 209.4703 73.7692 120.1176 0.0000 0.0000 0.0000
# 2 73.7692 139.6485 92.5639 0.0000 0.0000 0.0000
# 3 120.1176 92.5639 207.4292 0.0000 0.0000 0.0000
# 4 0.0000 0.0000 0.0000 20.5888 0.0000 0.0000
# 5 0.0000 0.0000 0.0000 0.0000 130.5653 0.0000
# 6 0.0000 0.0000 0.0000 0.0000 0.0000 67.8628
#
#
#
# Elastic Compliance Matrix: (Units=1/GPa)
#
#
# Indices 1 2 3 4 5 6 
#
# 1 0.007365 -0.001510 -0.003591 0.000000 0.000000 0.000000
# 2 -0.001510 0.010478 -0.003801 0.000000 0.000000 0.000000
# 3 -0.003591 -0.003801 0.008597 0.000000 0.000000 0.000000
# 4 0.000000 0.000000 0.000000 0.048570 0.000000 0.000000
# 5 0.000000 0.000000 0.000000 0.000000 0.007659 0.000000
# 6 0.000000 0.000000 0.000000 0.000000 0.000000 0.014736
#
#
# Mechanical properties :
#
#
# Convention : Reuss Voigt Hill
#
# Bulk Modulus (GPa) = 115.80975 125.49436 120.65206
# Shear Modulus (GPa) = 42.34133 61.80988 52.07560
#
# Velocity S-wave (km/s) = 4.08840 4.93970 4.53407
# Velocity P-wave (km/s) = 8.24650 9.05955 8.66257
#
# Compressibility (1/GPa) = 0.00863485
#
# Stress axis : x y z
#
# Youngs Moduli (GPa) = 135.77706 95.43540 116.32478
#
# Poissons Ratio (x) = 0.14414 0.41771
# Poissons Ratio (y) = 0.20507 0.44218
# Poissons Ratio (z) = 0.48756 0.36277
#
# Static dielectric constant tensor:
#      x y z
#    x 5.385370 0.000000 0.000000 
#    y 0.000000 4.492570 0.000000 
#    z 0.000000 0.000000 5.004450 
# 
# 
# High freq. dielectric constant tensor:
#      x y z
#    x 2.044250 0.000000 0.000000 
#    y 0.000000 2.017920 0.000000 
#    z 0.000000 0.000000 2.036320 
# 
# From -- ./inp_files/808.got.cif
#   From: 2010.03.12/outbox.cif.g09.slc.cpg/sg27_1_cif.got.tgz:808.got - 2010.04.14 03:36:05.
