data_PCOD8167147
_publ_section_title
;
Structure prediction by ZEFSAII (Michael W. Deem and Ramdas Pophale) SiO2 
 PCOD8167147
Probable space group: P M C 21
;
_chemical_formula_sum "Si O2"
_cell_formula_units_Z 32
_cell_length_a 9.278553
_cell_length_b 10.752195
_cell_length_c 16.930135
_cell_angle_alpha 90.000000
_cell_angle_beta 90.000000
_cell_angle_gamma 90.000000
_cell_volume 1689.031721
_symmetry_space_group_name_H-M "P M C 21"
_symmetry_group_IT_number 26
_symmetry_cell_setting 'orthorhombic'
loop_
_space_group_symop_operation_xyz
x,y,z
-x,-y,1/2+z
-x,y,z
x,-y,1/2+z
loop_
_atom_site_type_symbol
_atom_site_label
_atom_site_fract_x
_atom_site_fract_y
_atom_site_fract_z
Si Si1 0.170835 0.818608 0.239090
Si Si2 0.827896 0.896926 0.760554
Si Si3 0.662027 0.205730 0.122422
Si Si4 0.172390 0.688805 0.075645
Si Si5 0.160626 0.329505 0.890649
Si Si6 0.155575 0.095350 0.001168
Si Si7 0.164548 0.159673 0.428298
Si Si8 0.666013 0.453443 0.021308
O O1 0.220094 0.763030 0.154568
O O2 0.227467 0.724939 0.308581
O O3 0.000000 0.822753 0.246715
O O4 0.229805 0.960439 0.249198
O O5 0.765550 0.800794 0.697305
O O6 0.769851 0.829713 0.840692
O O7 0.000000 0.897748 0.758057
O O8 0.500000 0.176724 0.148323
O O9 0.716451 0.097051 0.064212
O O10 0.677007 0.335469 0.078147
O O11 0.247958 0.555779 0.071467
O O12 0.000000 0.673470 0.074776
O O13 0.236214 0.761766 0.998930
O O14 0.000000 0.387277 0.876485
O O15 0.146582 0.218781 0.951425
O O16 0.263572 0.430921 0.933964
O O17 0.000000 0.074714 0.044769
O O18 0.184820 0.985772 0.941576
O O19 0.000000 0.201968 0.427398
O O20 0.500000 0.491674 0.007523
#
# Coordination Sequence:
#
# PCOD8167147 Si02
#       8
#     4   4   4   4   4   4   4   4
#     4   9  17  32  57  88 115 136 171 224 275 325
#     4  10  18  33  57  85 114 140 171 213 271 333
#     4  10  21  35  51  75 106 140 181 225 264 309
#     4  10  20  35  55  80 110 144 182 225 269 317
#     4   9  16  31  58  85 107 135 175 222 267 320
#     4   9  15  29  55  82 107 136 169 209 269 328
#     4   9  17  31  54  84 113 138 169 216 269 325
#     4  10  22  40  55  71 104 147 190 228 266 315
#
# _framework density 18.945765999999999
#
# number of rings (size 3 to 8) (size 9 to 14) (size 15 to 20)
#    0.000    2.500    1.250    1.500    0.000    3.500 
#    2.250    5.000    0.000    0.000    0.000    0.000 
#    0.000    0.000    0.000    0.000    0.000    0.000 
#
# Total GULP energy -396444.006844 kJ/mol
# GULP energy per Si atom -12388.875214 kJ/mol
# Density = 1.890264 g / cm^3
# Si number density = 18.945766 Si / 1000 Ang^3
#
#
#
# Elastic Constant Matrix: (Units=GPa)
#
#
# Indices 1 2 3 4 5 6 
#
# 1 55.1815 28.4992 39.1404 0.0000 0.0000 0.0000
# 2 28.4992 33.7267 25.5763 0.0000 0.0000 0.0000
# 3 39.1404 25.5763 137.1494 0.0000 0.0000 0.0000
# 4 0.0000 0.0000 0.0000 28.6664 0.0000 0.0000
# 5 0.0000 0.0000 0.0000 0.0000 8.6303 0.0000
# 6 0.0000 0.0000 0.0000 0.0000 0.0000 15.1715
#
#
#
# Elastic Compliance Matrix: (Units=1/GPa)
#
#
# Indices 1 2 3 4 5 6 
#
# 1 0.035100 -0.025697 -0.005225 0.000000 0.000000 0.000000
# 2 -0.025697 0.053347 -0.002615 0.000000 0.000000 0.000000
# 3 -0.005225 -0.002615 0.009270 0.000000 0.000000 0.000000
# 4 0.000000 0.000000 0.000000 0.034884 0.000000 0.000000
# 5 0.000000 0.000000 0.000000 0.000000 0.115870 0.000000
# 6 0.000000 0.000000 0.000000 0.000000 0.000000 0.065913
#
#
# Mechanical properties :
#
#
# Convention : Reuss Voigt Hill
#
# Bulk Modulus (GPa) = 32.63359 45.83215 39.23287
# Shear Modulus (GPa) = 12.76578 19.34976 16.05777
#
# Velocity S-wave (km/s) = 2.59859 3.19928 2.91446
# Velocity P-wave (km/s) = 5.12501 6.15556 5.66377
#
# Compressibility (1/GPa) = 0.03064328
#
# Stress axis : x y z
#
# Youngs Moduli (GPa) = 28.49038 18.74514 107.87455
#
# Poissons Ratio (x) = 0.48170 0.56362
# Poissons Ratio (y) = 0.73212 0.28208
# Poissons Ratio (z) = 0.14886 0.04902
#
# Static dielectric constant tensor:
#      x y z
#    x 3.359450 0.000000 0.000000 
#    y 0.000000 3.367370 0.000000 
#    z 0.000000 0.000000 3.828110 
# 
# 
# High freq. dielectric constant tensor:
#      x y z
#    x 1.697210 0.000000 0.000000 
#    y 0.000000 1.722250 0.000000 
#    z 0.000000 0.000000 1.747990 
# 
# From -- ./inp_files/4998.got.cif
#   From: 2010.03.12/outbox.cif.g09.slc.cpg/sg26_3_cif.got.tgz:4998.got - 2010.04.14 03:33:09.
