data_PCOD8167860
_publ_section_title
;
Structure prediction by ZEFSAII (Michael W. Deem and Ramdas Pophale) SiO2 
 PCOD8167860
Probable space group: P C C 2
;
_chemical_formula_sum "Si O2"
_cell_formula_units_Z 16
_cell_length_a 8.514638
_cell_length_b 9.204723
_cell_length_c 7.072033
_cell_angle_alpha 90.000000
_cell_angle_beta 90.000000
_cell_angle_gamma 90.000000
_cell_volume 554.269768
_symmetry_space_group_name_H-M "P C C 2"
_symmetry_group_IT_number 27
_symmetry_cell_setting 'orthorhombic'
loop_
_space_group_symop_operation_xyz
x,y,z
-x,-y,z
-x,y,1/2+z
x,-y,1/2+z
loop_
_atom_site_type_symbol
_atom_site_label
_atom_site_fract_x
_atom_site_fract_y
_atom_site_fract_z
Si Si1 0.680200 0.979964 0.900310
Si Si2 0.290161 0.749987 0.692970
Si Si3 0.179142 0.480355 0.947239
Si Si4 0.655441 0.276364 0.150237
O O1 0.695277 0.895236 0.693353
O O2 0.500000 0.000000 0.957163
O O3 0.735328 0.151645 0.887015
O O4 0.768571 0.874325 0.045769
O O5 0.185290 0.601375 0.659531
O O6 0.469145 0.704153 0.649428
O O7 0.271739 0.364459 0.824023
O O8 0.000000 0.500000 0.890605
O O9 0.271688 0.637273 0.962225
#
# Coordination Sequence:
#
# PCOD8167860 Si02
#       4
#     4   4   4   4
#     4   9  18  35  60  93 125 157 212 278 329 384
#     4  10  21  38  65  95 124 165 217 272 331 394
#     4  11  24  42  63  95 136 178 222 275 333 401
#     4  10  22  39  62  93 129 174 223 275 333 399
#
# _framework density 28.866809
#
# number of rings (size 3 to 8) (size 9 to 14) (size 15 to 20)
#    0.000    2.000    0.000    3.750    0.000   12.000 
#    0.000    1.250    0.000   15.000    0.000    0.000 
#    0.000    0.000    0.000    0.000    0.000    0.000 
#
# Total GULP energy -198273.630020 kJ/mol
# GULP energy per Si atom -12392.101876 kJ/mol
# Density = 2.880111 g / cm^3
# Si number density = 28.866809 Si / 1000 Ang^3
#
#
#
# Elastic Constant Matrix: (Units=GPa)
#
#
# Indices 1 2 3 4 5 6 
#
# 1 110.1983 70.0822 33.0003 0.0000 0.0000 0.0000
# 2 70.0822 303.4738 58.0456 0.0000 0.0000 0.0000
# 3 33.0003 58.0456 91.2742 0.0000 0.0000 0.0000
# 4 0.0000 0.0000 0.0000 62.6578 0.0000 0.0000
# 5 0.0000 0.0000 0.0000 0.0000 6.7617 0.0000
# 6 0.0000 0.0000 0.0000 0.0000 0.0000 14.2977
#
#
#
# Elastic Compliance Matrix: (Units=1/GPa)
#
#
# Indices 1 2 3 4 5 6 
#
# 1 0.011208 -0.002064 -0.002739 0.000000 0.000000 0.000000
# 2 -0.002064 0.004132 -0.001881 0.000000 0.000000 0.000000
# 3 -0.002739 -0.001881 0.013143 0.000000 0.000000 0.000000
# 4 0.000000 0.000000 0.000000 0.015960 0.000000 0.000000
# 5 0.000000 0.000000 0.000000 0.000000 0.147892 0.000000
# 6 0.000000 0.000000 0.000000 0.000000 0.000000 0.069941
#
#
# Mechanical properties :
#
#
# Convention : Reuss Voigt Hill
#
# Bulk Modulus (GPa) = 66.17064 91.91139 79.04102
# Shear Modulus (GPa) = 17.81372 39.66466 28.73919
#
# Velocity S-wave (km/s) = 2.48685 3.71085 3.15870
# Velocity P-wave (km/s) = 5.58734 7.09010 6.38310
#
# Compressibility (1/GPa) = 0.01511244
#
# Stress axis : x y z
#
# Youngs Moduli (GPa) = 89.22445 242.03094 76.08745
#
# Poissons Ratio (x) = 0.49962 0.20843
# Poissons Ratio (y) = 0.18418 0.14314
# Poissons Ratio (z) = 0.24442 0.45531
#
# Static dielectric constant tensor:
#      x y z
#    x 4.177250 0.000000 0.000000 
#    y 0.000000 6.899320 0.000000 
#    z 0.000000 0.000000 7.707300 
# 
# 
# High freq. dielectric constant tensor:
#      x y z
#    x 2.058740 0.000000 0.000000 
#    y 0.000000 2.270500 0.000000 
#    z 0.000000 0.000000 2.292170 
# 
# From -- ./inp_files/950.got.cif
#   From: 2010.03.12/outbox.cif.g09.slc.cpg/sg27_1_cif.got.tgz:950.got - 2010.04.14 03:36:05.
