data_PCOD8167036
_publ_section_title
;
Structure prediction by ZEFSAII (Michael W. Deem and Ramdas Pophale) SiO2 
 PCOD8167036
Probable space group: P M M 2
;
_chemical_formula_sum "Si O2"
_cell_formula_units_Z 32
_cell_length_a 8.783039
_cell_length_b 24.792850
_cell_length_c 7.612591
_cell_angle_alpha 90.000000
_cell_angle_beta 90.000000
_cell_angle_gamma 90.000000
_cell_volume 1657.691693
_symmetry_space_group_name_H-M "P M M 2"
_symmetry_group_IT_number 25
_symmetry_cell_setting 'orthorhombic'
loop_
_space_group_symop_operation_xyz
x,y,z
-x,-y,z
-x,y,z
x,-y,z
loop_
_atom_site_type_symbol
_atom_site_label
_atom_site_fract_x
_atom_site_fract_y
_atom_site_fract_z
Si Si1 0.818046 0.439296 0.791880
Si Si2 0.823817 0.635034 0.487318
Si Si3 0.823680 0.246516 0.465991
Si Si4 0.319790 0.863685 0.101312
Si Si5 0.819940 0.637951 0.094044
Si Si6 0.680473 0.140569 0.499430
Si Si7 0.676472 0.745945 0.096187
Si Si8 0.318862 0.060348 0.799111
O O1 0.753708 0.500000 0.789966
O O2 0.749588 0.407308 0.623519
O O3 0.000000 0.438897 0.786995
O O4 0.760834 0.410056 0.969419
O O5 0.803535 0.695933 0.564846
O O6 0.752388 0.629197 0.291064
O O7 0.000000 0.620471 0.470717
O O8 0.763241 0.194817 0.574818
O O9 0.713034 0.249849 0.300751
O O10 0.000000 0.239021 0.410368
O O11 0.500000 0.868509 0.108289
O O12 0.259990 0.871854 0.301143
O O13 0.275887 0.804801 0.019863
O O14 0.252343 0.909147 0.971340
O O15 0.767461 0.695621 0.013315
O O16 0.000000 0.639757 0.100603
O O17 0.500000 0.149685 0.507300
O O18 0.731845 0.091153 0.622362
O O19 0.500000 0.734377 0.066741
O O20 0.500000 0.058524 0.809773
O O21 0.250821 0.000000 0.794219
#
# Coordination Sequence:
#
# PCOD8167036 Si02
#       8
#     4   4   4   4   4   4   4   4
#     4   9  17  28  43  65  91 119 153 190 226 265
#     4   8  15  27  42  63  91 117 144 183 225 265
#     4   9  16  28  47  70  95 121 149 184 229 278
#     4   8  15  27  42  63  91 117 144 183 225 265
#     4   9  17  29  46  69  94 118 148 187 228 272
#     4   9  17  29  46  69  94 118 148 187 228 272
#     4   9  16  28  47  70  95 121 149 184 229 278
#     4   9  17  28  43  65  91 119 153 190 226 265
#
# _framework density 19.30395
#
# number of rings (size 3 to 8) (size 9 to 14) (size 15 to 20)
#    0.000    3.250    0.000    2.250    0.000    2.000 
#    0.000    5.000    0.000    6.750    0.000    0.000 
#    0.000    0.000    0.000    0.000    0.000    0.000 
#
# Total GULP energy -396425.802569 kJ/mol
# GULP energy per Si atom -12388.306330 kJ/mol
# Density = 1.926001 g / cm^3
# Si number density = 19.303950 Si / 1000 Ang^3
#
#
#
# Elastic Constant Matrix: (Units=GPa)
#
#
# Indices 1 2 3 4 5 6 
#
# 1 8.9499 19.6524 13.9077 0.0000 0.0000 0.0000
# 2 19.6524 201.5524 91.3260 0.0000 0.0000 0.0000
# 3 13.9077 91.3260 112.6313 0.0000 0.0000 0.0000
# 4 0.0000 0.0000 0.0000 36.6777 0.0000 0.0000
# 5 0.0000 0.0000 0.0000 0.0000 8.5860 0.0000
# 6 0.0000 0.0000 0.0000 0.0000 0.0000 22.4560
#
#
#
# Elastic Compliance Matrix: (Units=1/GPa)
#
#
# Indices 1 2 3 4 5 6 
#
# 1 0.149646 -0.009830 -0.010508 0.000000 0.000000 0.000000
# 2 -0.009830 0.008489 -0.005669 0.000000 0.000000 0.000000
# 3 -0.010508 -0.005669 0.014773 0.000000 0.000000 0.000000
# 4 0.000000 0.000000 0.000000 0.027265 0.000000 0.000000
# 5 0.000000 0.000000 0.000000 0.000000 0.116469 0.000000
# 6 0.000000 0.000000 0.000000 0.000000 0.000000 0.044532
#
#
# Mechanical properties :
#
#
# Convention : Reuss Voigt Hill
#
# Bulk Modulus (GPa) = 8.27170 63.65619 35.96395
# Shear Modulus (GPa) = 11.02572 26.76044 18.89308
#
# Velocity S-wave (km/s) = 2.39250 3.72730 3.13184
# Velocity P-wave (km/s) = 3.45345 7.18130 5.63460
#
# Compressibility (1/GPa) = 0.12089410
#
# Stress axis : x y z
#
# Youngs Moduli (GPa) = 6.68242 117.80275 67.69187
#
# Poissons Ratio (x) = 1.15802 0.71128
# Poissons Ratio (y) = 0.06569 0.38376
# Poissons Ratio (z) = 0.07022 0.66785
#
# Static dielectric constant tensor:
#      x y z
#    x 3.026960 0.000000 0.000000 
#    y 0.000000 4.029330 0.000000 
#    z 0.000000 0.000000 3.640320 
# 
# 
# High freq. dielectric constant tensor:
#      x y z
#    x 1.691130 0.000000 0.000000 
#    y 0.000000 1.760480 0.000000 
#    z 0.000000 0.000000 1.737950 
# 
# From -- ./inp_files/2411.got.cif
#   From: 2010.03.12/outbox.cif.g09.slc.cpg/sg25_2_cif.got.tgz:2411.got - 2010.04.14 03:30:10.
