data_PCOD8167078
_publ_section_title
;
Structure prediction by ZEFSAII (Michael W. Deem and Ramdas Pophale) SiO2 
 PCOD8167078
Probable space group: P M C 21
;
_chemical_formula_sum "Si O2"
_cell_formula_units_Z 32
_cell_length_a 12.158375
_cell_length_b 30.486543
_cell_length_c 5.105608
_cell_angle_alpha 90.000000
_cell_angle_beta 90.000000
_cell_angle_gamma 90.000000
_cell_volume 1892.479493
_symmetry_space_group_name_H-M "P M C 21"
_symmetry_group_IT_number 26
_symmetry_cell_setting 'orthorhombic'
loop_
_space_group_symop_operation_xyz
x,y,z
-x,-y,1/2+z
-x,y,z
x,-y,1/2+z
loop_
_atom_site_type_symbol
_atom_site_label
_atom_site_fract_x
_atom_site_fract_y
_atom_site_fract_z
Si Si1 0.871582 0.696623 0.826320
Si Si2 0.242862 0.266776 0.821394
Si Si3 0.631286 0.026036 0.306529
Si Si4 0.372707 0.876503 0.840240
Si Si5 0.373850 0.528475 0.857141
Si Si6 0.621563 0.652594 0.261812
Si Si7 0.629060 0.178252 0.851552
Si Si8 0.278305 0.618269 0.763945
O O1 0.810606 0.724434 0.603079
O O2 0.833750 0.645113 0.830987
O O3 0.000000 0.697084 0.772692
O O4 0.846005 0.720867 0.099449
O O5 0.350616 0.296405 0.785118
O O6 0.288196 0.217923 0.795251
O O7 0.500000 0.027750 0.316040
O O8 0.681481 0.075201 0.322461
O O9 0.675818 0.997206 0.546647
O O10 0.500000 0.882266 0.776920
O O11 0.327373 0.843448 0.619914
O O12 0.352024 0.857297 0.126150
O O13 0.500000 0.546410 0.830743
O O14 0.354035 0.490622 0.644972
O O15 0.281230 0.566119 0.815859
O O16 0.500000 0.644415 0.362168
O O17 0.698020 0.624592 0.456577
O O18 0.630867 0.638315 0.960039
O O19 0.500000 0.192834 0.864512
#
# Coordination Sequence:
#
# PCOD8167078 Si02
#       8
#     4   4   4   4   4   4   4   4
#     4  10  21  37  54  70  89 115 155 199 232 266
#     4  10  20  32  49  71  90 118 152 184 231 278
#     4   9  15  23  35  51  74 109 161 210 230 246
#     4   9  17  26  38  57  84 123 160 193 231 266
#     4  10  19  30  46  69  98 127 150 175 215 269
#     4  10  18  29  46  69  96 120 149 185 221 265
#     4  10  18  29  43  63  95 124 152 186 225 281
#     4  10  20  32  49  70  93 124 155 186 224 265
#
# _framework density 16.909034999999999
#
# number of rings (size 3 to 8) (size 9 to 14) (size 15 to 20)
#    0.000    2.250    0.000    4.125    0.000    4.000 
#    0.000    3.750    0.000    0.750    0.000    0.000 
#    0.000    0.000    0.000    0.000    0.000  157.500 
#
# Total GULP energy -396623.479220 kJ/mol
# GULP energy per Si atom -12394.483726 kJ/mol
# Density = 1.687055 g / cm^3
# Si number density = 16.909035 Si / 1000 Ang^3
#
#
#
# Elastic Constant Matrix: (Units=GPa)
#
#
# Indices 1 2 3 4 5 6 
#
# 1 41.4477 24.1238 4.2258 0.0000 0.0000 0.0000
# 2 24.1238 96.2083 9.2454 0.0000 0.0000 0.0000
# 3 4.2258 9.2454 79.5462 0.0000 0.0000 0.0000
# 4 0.0000 0.0000 0.0000 23.5107 0.0000 0.0000
# 5 0.0000 0.0000 0.0000 0.0000 9.9627 0.0000
# 6 0.0000 0.0000 0.0000 0.0000 0.0000 9.8051
#
#
#
# Elastic Compliance Matrix: (Units=1/GPa)
#
#
# Indices 1 2 3 4 5 6 
#
# 1 0.028287 -0.007027 -0.000686 0.000000 0.000000 0.000000
# 2 -0.007027 0.012257 -0.001051 0.000000 0.000000 0.000000
# 3 -0.000686 -0.001051 0.012730 0.000000 0.000000 0.000000
# 4 0.000000 0.000000 0.000000 0.042534 0.000000 0.000000
# 5 0.000000 0.000000 0.000000 0.000000 0.100375 0.000000
# 6 0.000000 0.000000 0.000000 0.000000 0.000000 0.101988
#
#
# Mechanical properties :
#
#
# Convention : Reuss Voigt Hill
#
# Bulk Modulus (GPa) = 27.97566 32.48803 30.23184
# Shear Modulus (GPa) = 15.26192 20.62952 17.94572
#
# Velocity S-wave (km/s) = 3.00757 3.49668 3.26131
# Velocity P-wave (km/s) = 5.35176 5.96301 5.66564
#
# Compressibility (1/GPa) = 0.03574536
#
# Stress axis : x y z
#
# Youngs Moduli (GPa) = 35.35254 81.58551 78.55499
#
# Poissons Ratio (x) = 0.57329 0.05389
# Poissons Ratio (y) = 0.24842 0.08259
# Poissons Ratio (z) = 0.02425 0.08577
#
# Static dielectric constant tensor:
#      x y z
#    x 2.669050 0.000000 0.000000 
#    y 0.000000 3.230160 0.000000 
#    z 0.000000 0.000000 3.354610 
# 
# 
# High freq. dielectric constant tensor:
#      x y z
#    x 1.581530 0.000000 0.000000 
#    y 0.000000 1.655950 0.000000 
#    z 0.000000 0.000000 1.677990 
# 
# From -- ./inp_files/517.got.cif
#   From: 2010.03.12/outbox.cif.g09.slc.cpg/sg26_1_cif.got.tgz:517.got - 2010.04.14 03:33:09.
