data_PCOD8167500
_publ_section_title
;
Structure prediction by ZEFSAII (Michael W. Deem and Ramdas Pophale) SiO2 
 PCOD8167500
Probable space group: P M C 21
;
_chemical_formula_sum "Si O2"
_cell_formula_units_Z 32
_cell_length_a 9.060277
_cell_length_b 14.337731
_cell_length_c 12.573645
_cell_angle_alpha 90.000000
_cell_angle_beta 90.000000
_cell_angle_gamma 90.000000
_cell_volume 1633.364447
_symmetry_space_group_name_H-M "P M C 21"
_symmetry_group_IT_number 26
_symmetry_cell_setting 'orthorhombic'
loop_
_space_group_symop_operation_xyz
x,y,z
-x,-y,1/2+z
-x,y,z
x,-y,1/2+z
loop_
_atom_site_type_symbol
_atom_site_label
_atom_site_fract_x
_atom_site_fract_y
_atom_site_fract_z
Si Si1 0.828609 0.648768 0.909390
Si Si2 0.826006 0.171971 0.844774
Si Si3 0.825234 0.150813 0.081274
Si Si4 0.335042 0.193723 0.519476
Si Si5 0.662462 0.679423 0.226039
Si Si6 0.174708 0.048357 0.648993
Si Si7 0.170697 0.652255 0.663483
Si Si8 0.675205 0.478909 0.576825
O O1 0.807173 0.626647 0.785935
O O2 0.000000 0.653503 0.942075
O O3 0.756151 0.749719 0.930993
O O4 0.749653 0.566020 0.973187
O O5 0.770054 0.275375 0.812887
O O6 0.772327 0.093376 0.760725
O O7 0.000000 0.177962 0.845729
O O8 0.762484 0.146555 0.960695
O O9 0.769117 0.243369 0.141026
O O10 0.000000 0.151478 0.075990
O O11 0.773333 0.059459 0.146513
O O12 0.500000 0.171492 0.477171
O O13 0.344409 0.255805 0.623656
O O14 0.250389 0.098544 0.548226
O O15 0.500000 0.670250 0.277517
O O16 0.718893 0.579031 0.183781
O O17 0.000000 0.059088 0.634687
O O18 0.265717 0.583171 0.590454
O O19 0.000000 0.643350 0.629777
O O20 0.500000 0.477911 0.559298
#
# Coordination Sequence:
#
# PCOD8167500 Si02
#       8
#     4   4   4   4   4   4   4   4
#     4  10  20  35  57  82 108 141 181 224 271 324
#     4   9  17  30  52  78 102 134 172 213 261 311
#     4   9  19  35  52  75 108 139 174 221 268 317
#     4   9  17  31  52  78 107 136 171 218 268 316
#     4   8  16  31  50  73 101 131 165 210 259 308
#     4   9  17  31  53  78 103 137 181 222 263 317
#     4  10  22  38  55  78 109 144 182 226 273 323
#     4  10  21  37  57  80 108 142 180 224 273 326
#
# _framework density 19.591462
#
# number of rings (size 3 to 8) (size 9 to 14) (size 15 to 20)
#    0.000    2.750    0.000    1.875    0.000    6.500 
#    0.000    9.375    0.000    3.000    0.000    0.000 
#    0.000    0.000    0.000    0.000    0.000    0.000 
#
# Total GULP energy -396709.645588 kJ/mol
# GULP energy per Si atom -12397.176425 kJ/mol
# Density = 1.954687 g / cm^3
# Si number density = 19.591462 Si / 1000 Ang^3
#
#
#
# Elastic Constant Matrix: (Units=GPa)
#
#
# Indices 1 2 3 4 5 6 
#
# 1 71.4754 42.0363 34.6562 0.0000 0.0000 0.0000
# 2 42.0363 139.9020 41.8702 0.0000 0.0000 0.0000
# 3 34.6562 41.8702 77.6887 0.0000 0.0000 0.0000
# 4 0.0000 0.0000 0.0000 26.6735 0.0000 0.0000
# 5 0.0000 0.0000 0.0000 0.0000 10.1939 0.0000
# 6 0.0000 0.0000 0.0000 0.0000 0.0000 20.2064
#
#
#
# Elastic Compliance Matrix: (Units=1/GPa)
#
#
# Indices 1 2 3 4 5 6 
#
# 1 0.019468 -0.003876 -0.006596 0.000000 0.000000 0.000000
# 2 -0.003876 0.009294 -0.003280 0.000000 0.000000 0.000000
# 3 -0.006596 -0.003280 0.017582 0.000000 0.000000 0.000000
# 4 0.000000 0.000000 0.000000 0.037490 0.000000 0.000000
# 5 0.000000 0.000000 0.000000 0.000000 0.098097 0.000000
# 6 0.000000 0.000000 0.000000 0.000000 0.000000 0.049489
#
#
# Mechanical properties :
#
#
# Convention : Reuss Voigt Hill
#
# Bulk Modulus (GPa) = 53.07525 58.46572 55.77049
# Shear Modulus (GPa) = 18.85334 22.78168 20.81751
#
# Velocity S-wave (km/s) = 3.10550 3.41374 3.26326
# Velocity P-wave (km/s) = 6.32524 6.74132 6.53659
#
# Compressibility (1/GPa) = 0.01884117
#
# Stress axis : x y z
#
# Youngs Moduli (GPa) = 51.36561 107.59576 56.87617
#
# Poissons Ratio (x) = 0.41700 0.37515
# Poissons Ratio (y) = 0.19907 0.18656
# Poissons Ratio (z) = 0.33880 0.35293
#
# Static dielectric constant tensor:
#      x y z
#    x 3.508480 0.000000 0.000000 
#    y 0.000000 3.778680 0.000000 
#    z 0.000000 0.000000 3.496940 
# 
# 
# High freq. dielectric constant tensor:
#      x y z
#    x 1.747000 0.000000 0.000000 
#    y 0.000000 1.764280 0.000000 
#    z 0.000000 0.000000 1.748370 
# 
# From -- ./inp_files/2979.got.cif
#   From: 2010.03.12/outbox.cif.g09.slc.cpg/sg26_2_cif.got.tgz:2979.got - 2010.04.14 03:33:09.
