data_PCOD8167029
_publ_section_title
;
Structure prediction by ZEFSAII (Michael W. Deem and Ramdas Pophale) SiO2 
 PCOD8167029
Probable space group: P M M 2
;
_chemical_formula_sum "Si O2"
_cell_formula_units_Z 28
_cell_length_a 9.337712
_cell_length_b 9.613513
_cell_length_c 18.112475
_cell_angle_alpha 90.000000
_cell_angle_beta 90.000000
_cell_angle_gamma 90.000000
_cell_volume 1625.924563
_symmetry_space_group_name_H-M "P M M 2"
_symmetry_group_IT_number 25
_symmetry_cell_setting 'orthorhombic'
loop_
_space_group_symop_operation_xyz
x,y,z
-x,-y,z
-x,y,z
x,-y,z
loop_
_atom_site_type_symbol
_atom_site_label
_atom_site_fract_x
_atom_site_fract_y
_atom_site_fract_z
Si Si1 0.838151 0.834658 0.155750
Si Si2 0.340234 0.334348 0.594501
Si Si3 0.839098 0.665628 0.731133
Si Si4 0.333839 0.838617 0.013917
Si Si5 0.333716 0.339281 0.873208
Si Si6 0.670418 0.654792 0.432579
Si Si7 0.333033 0.162058 0.297542
O O1 0.754188 0.779587 0.227538
O O2 0.000000 0.776633 0.156408
O O3 0.836172 0.000000 0.156376
O O4 0.757721 0.781350 0.082643
O O5 0.500000 0.273823 0.607070
O O6 0.346974 0.500000 0.598661
O O7 0.237194 0.273425 0.657947
O O8 0.279282 0.291526 0.513567
O O9 0.838173 0.500000 0.728146
O O10 0.754939 0.716738 0.803433
O O11 0.000000 0.724389 0.734154
O O12 0.500000 0.814813 0.032921
O O13 0.285665 0.750801 0.943184
O O14 0.301907 0.000000 0.997669
O O15 0.500000 0.317634 0.854643
O O16 0.299524 0.500000 0.890446
O O17 0.500000 0.650089 0.433401
O O18 0.730956 0.500000 0.416538
O O19 0.726312 0.758656 0.369601
O O20 0.500000 0.192287 0.283215
O O21 0.304511 0.000000 0.310709
#
# Coordination Sequence:
#
# PCOD8167029 Si02
#       7
#     4   4   4   4   4   4   4
#     4   9  17  29  45  64  85 111 143 174 205 247
#     4   8  13  23  40  59  79 107 143 177 207 244
#     4   9  16  25  39  61  87 113 142 175 208 243
#     4   9  17  30  48  67  85 107 139 177 211 244
#     4   9  17  29  45  65  88 112 138 170 210 253
#     4   8  14  25  42  64  87 110 138 173 212 251
#     4   9  16  27  45  66  85 107 139 177 211 244
#
# _framework density 17.220970999999999
#
# number of rings (size 3 to 8) (size 9 to 14) (size 15 to 20)
#    0.000    3.286    0.000    1.714    0.000    4.000 
#    0.000    1.429    0.000    6.429    0.000    4.000 
#    0.000    0.000    0.000    0.000    0.000    0.000 
#
# Total GULP energy -347103.514776 kJ/mol
# GULP energy per Si atom -12396.554099 kJ/mol
# Density = 1.718178 g / cm^3
# Si number density = 17.220971 Si / 1000 Ang^3
#
#
#
# Elastic Constant Matrix: (Units=GPa)
#
#
# Indices 1 2 3 4 5 6 
#
# 1 89.1301 25.6012 84.9425 0.0000 0.0000 0.0000
# 2 25.6012 34.4788 50.3645 0.0000 0.0000 0.0000
# 3 84.9425 50.3645 198.1709 0.0000 0.0000 0.0000
# 4 0.0000 0.0000 0.0000 14.9419 0.0000 0.0000
# 5 0.0000 0.0000 0.0000 0.0000 10.4197 0.0000
# 6 0.0000 0.0000 0.0000 0.0000 0.0000 10.0430
#
#
#
# Elastic Compliance Matrix: (Units=1/GPa)
#
#
# Indices 1 2 3 4 5 6 
#
# 1 0.019239 -0.003562 -0.007341 0.000000 0.000000 0.000000
# 2 -0.003562 0.046787 -0.010364 0.000000 0.000000 0.000000
# 3 -0.007341 -0.010364 0.010827 0.000000 0.000000 0.000000
# 4 0.000000 0.000000 0.000000 0.066926 0.000000 0.000000
# 5 0.000000 0.000000 0.000000 0.000000 0.095972 0.000000
# 6 0.000000 0.000000 0.000000 0.000000 0.000000 0.099572
#
#
# Mechanical properties :
#
#
# Convention : Reuss Voigt Hill
#
# Bulk Modulus (GPa) = 29.13847 71.51069 50.32458
# Shear Modulus (GPa) = 12.71307 17.80571 15.25939
#
# Velocity S-wave (km/s) = 2.71999 3.21901 2.97996
# Velocity P-wave (km/s) = 5.17895 7.44523 6.41300
#
# Compressibility (1/GPa) = 0.03431890
#
# Stress axis : x y z
#
# Youngs Moduli (GPa) = 51.97805 21.37329 92.36295
#
# Poissons Ratio (x) = 0.07613 0.67806
# Poissons Ratio (y) = 0.18513 0.95727
# Poissons Ratio (z) = 0.38158 0.22152
#
# Static dielectric constant tensor:
#      x y z
#    x 3.189690 0.000000 0.000000 
#    y 0.000000 2.827980 0.000000 
#    z 0.000000 0.000000 3.525800 
# 
# 
# High freq. dielectric constant tensor:
#      x y z
#    x 1.649130 0.000000 0.000000 
#    y 0.000000 1.611210 0.000000 
#    z 0.000000 0.000000 1.681280 
# 
# From -- ./inp_files/6218.got.cif
#   From: 2010.03.12/outbox.cif.g09.slc.cpg/sg25_4_cif.got.tgz:6218.got - 2010.04.14 03:30:10.
