data_PCOD8167093
_publ_section_title
;
Structure prediction by ZEFSAII (Michael W. Deem and Ramdas Pophale) SiO2 
 PCOD8167093
Probable space group: P M C 21
;
_chemical_formula_sum "Si O2"
_cell_formula_units_Z 32
_cell_length_a 9.215058
_cell_length_b 9.623020
_cell_length_c 20.189331
_cell_angle_alpha 90.000000
_cell_angle_beta 90.000000
_cell_angle_gamma 90.000000
_cell_volume 1790.322995
_symmetry_space_group_name_H-M "P M C 21"
_symmetry_group_IT_number 26
_symmetry_cell_setting 'orthorhombic'
loop_
_space_group_symop_operation_xyz
x,y,z
-x,-y,1/2+z
-x,y,z
x,-y,1/2+z
loop_
_atom_site_type_symbol
_atom_site_label
_atom_site_fract_x
_atom_site_fract_y
_atom_site_fract_z
Si Si1 0.826164 0.990923 0.705590
Si Si2 0.162416 0.378600 0.101024
Si Si3 0.672692 0.808409 0.301392
Si Si4 0.670364 0.506846 0.338963
Si Si5 0.327431 0.294101 0.226916
Si Si6 0.158527 0.940297 0.561684
Si Si7 0.662251 0.442042 0.981052
Si Si8 0.340908 0.120398 0.944972
O O1 0.748893 0.854184 0.734543
O O2 0.780290 0.011387 0.628571
O O3 0.000000 0.974729 0.712580
O O4 0.765619 0.124410 0.742973
O O5 0.261991 0.383254 0.166409
O O6 0.152406 0.223147 0.074666
O O7 0.000000 0.434376 0.116683
O O8 0.235249 0.474581 0.044069
O O9 0.500000 0.821606 0.288245
O O10 0.726283 0.648753 0.304832
O O11 0.717728 0.885908 0.369781
O O12 0.500000 0.527488 0.347609
O O13 0.710441 0.375141 0.294488
O O14 0.730107 0.487482 0.414316
O O15 0.500000 0.277058 0.216488
O O16 0.250252 0.974009 0.496062
O O17 0.000000 0.999740 0.546536
O O18 0.500000 0.497991 0.996623
O O19 0.654695 0.278147 0.968832
O O20 0.500000 0.054594 0.946477
#
# Coordination Sequence:
#
# PCOD8167093 Si02
#       8
#     4   4   4   4   4   4   4   4
#     4  10  20  32  45  68  98 125 154 190 228 274
#     4   9  16  26  40  64  94 119 148 190 229 270
#     4   9  17  31  49  70  94 120 150 188 230 275
#     4   8  16  30  49  72  95 117 152 196 231 269
#     4  10  18  30  49  70  92 124 158 191 232 274
#     4   8  15  26  40  59  87 117 146 182 223 262
#     4   8  13  25  44  65  88 115 146 186 231 272
#     4   8  14  24  42  66  88 109 142 185 226 266
#
# _framework density 17.87387
#
# number of rings (size 3 to 8) (size 9 to 14) (size 15 to 20)
#    0.000    3.250    0.000    3.375    0.000    4.000 
#    0.000    4.375    0.000    1.500    0.000    3.500 
#    0.000    0.000    0.000    0.000    0.000    0.000 
#
# Total GULP energy -396517.195732 kJ/mol
# GULP energy per Si atom -12391.162367 kJ/mol
# Density = 1.783319 g / cm^3
# Si number density = 17.873870 Si / 1000 Ang^3
#
#
#
# Elastic Constant Matrix: (Units=GPa)
#
#
# Indices 1 2 3 4 5 6 
#
# 1 61.4983 4.0382 6.6579 0.0000 0.0000 0.0000
# 2 4.0382 16.8348 -9.1055 0.0000 0.0000 0.0000
# 3 6.6579 -9.1055 18.6181 0.0000 0.0000 0.0000
# 4 0.0000 0.0000 0.0000 23.1356 0.0000 0.0000
# 5 0.0000 0.0000 0.0000 0.0000 21.9132 0.0000
# 6 0.0000 0.0000 0.0000 0.0000 0.0000 13.6117
#
#
#
# Elastic Compliance Matrix: (Units=1/GPa)
#
#
# Indices 1 2 3 4 5 6 
#
# 1 0.018241 -0.010747 -0.011779 0.000000 0.000000 0.000000
# 2 -0.010747 0.087096 0.046439 0.000000 0.000000 0.000000
# 3 -0.011779 0.046439 0.080635 0.000000 0.000000 0.000000
# 4 0.000000 0.000000 0.000000 0.043223 0.000000 0.000000
# 5 0.000000 0.000000 0.000000 0.000000 0.045635 0.000000
# 6 0.000000 0.000000 0.000000 0.000000 0.000000 0.073466
#
#
# Mechanical properties :
#
#
# Convention : Reuss Voigt Hill
#
# Bulk Modulus (GPa) = 4.27716 11.12583 7.70149
# Shear Modulus (GPa) = 13.21339 18.08947 15.65143
#
# Velocity S-wave (km/s) = 2.72188 3.18474 2.96237
# Velocity P-wave (km/s) = 3.50376 4.44540 4.00237
#
# Compressibility (1/GPa) = 0.23379985
#
# Stress axis : x y z
#
# Youngs Moduli (GPa) = 54.82009 11.48157 12.40150
#
# Poissons Ratio (x) = 0.12339 0.14608
# Poissons Ratio (y) = 0.58913 -0.57591
# Poissons Ratio (z) = 0.64573 -0.53319
#
# Static dielectric constant tensor:
#      x y z
#    x 3.409490 0.000000 0.000000 
#    y 0.000000 2.780560 0.000000 
#    z 0.000000 0.000000 3.634230 
# 
# 
# High freq. dielectric constant tensor:
#      x y z
#    x 1.683070 0.000000 0.000000 
#    y 0.000000 1.631570 0.000000 
#    z 0.000000 0.000000 1.704380 
# 
# From -- ./inp_files/5007.got.cif
#   From: 2010.03.12/outbox.cif.g09.slc.cpg/sg26_3_cif.got.tgz:5007.got - 2010.04.14 03:33:09.
