data_PCOD8167256
_publ_section_title
;
Structure prediction by ZEFSAII (Michael W. Deem and Ramdas Pophale) SiO2 
 PCOD8167256
Probable space group: P M C 21
;
_chemical_formula_sum "Si O2"
_cell_formula_units_Z 24
_cell_length_a 8.970653
_cell_length_b 9.183644
_cell_length_c 16.432892
_cell_angle_alpha 90.000000
_cell_angle_beta 90.000000
_cell_angle_gamma 90.000000
_cell_volume 1353.795602
_symmetry_space_group_name_H-M "P M C 21"
_symmetry_group_IT_number 26
_symmetry_cell_setting 'orthorhombic'
loop_
_space_group_symop_operation_xyz
x,y,z
-x,-y,1/2+z
-x,y,z
x,-y,1/2+z
loop_
_atom_site_type_symbol
_atom_site_label
_atom_site_fract_x
_atom_site_fract_y
_atom_site_fract_z
Si Si1 0.821636 0.855596 0.639400
Si Si2 0.163433 0.592898 0.742064
Si Si3 0.670820 0.348278 0.818482
Si Si4 0.167380 0.587943 0.077913
Si Si5 0.674465 0.326932 0.002053
Si Si6 0.322714 0.834692 0.164888
O O1 0.772227 0.749765 0.714135
O O2 0.755499 0.796379 0.554730
O O3 0.000000 0.860724 0.631228
O O4 0.754301 0.010423 0.659187
O O5 0.259022 0.509574 0.809652
O O6 0.156748 0.495360 0.662194
O O7 0.000000 0.613959 0.779834
O O8 0.500000 0.376586 0.801346
O O9 0.728832 0.232966 0.751587
O O10 0.700769 0.284185 0.907877
O O11 0.255300 0.486748 0.014419
O O12 0.260203 0.736442 0.090916
O O13 0.000000 0.622494 0.045710
O O14 0.500000 0.332036 0.024525
O O15 0.500000 0.849772 0.156805
#
# Coordination Sequence:
#
# PCOD8167256 Si02
#       6
#     4   4   4   4   4   4
#     4  10  20  34  51  75 103 134 170 208 249 299
#     4   8  16  30  49  70  94 125 163 201 241 289
#     4   9  19  33  51  75 101 128 165 208 252 298
#     4   9  17  31  50  73  98 127 163 203 242 291
#     4  10  19  33  52  75 101 132 168 209 252 298
#     4  10  19  33  53  76 101 134 169 205 250 301
#
# _framework density 17.727934000000001
#
# number of rings (size 3 to 8) (size 9 to 14) (size 15 to 20)
#    0.000    2.667    0.000    3.000    0.000    6.667 
#    0.000    1.667    0.000    6.000    0.000    0.000 
#    0.000    0.000    0.000    0.000    0.000    0.000 
#
# Total GULP energy -297486.964642 kJ/mol
# GULP energy per Si atom -12395.290193 kJ/mol
# Density = 1.768758 g / cm^3
# Si number density = 17.727934 Si / 1000 Ang^3
#
#
#
# Elastic Constant Matrix: (Units=GPa)
#
#
# Indices 1 2 3 4 5 6 
#
# 1 100.1263 57.6140 42.5482 0.0000 0.0000 0.0000
# 2 57.6140 142.3020 46.7037 0.0000 0.0000 0.0000
# 3 42.5482 46.7037 70.1310 0.0000 0.0000 0.0000
# 4 0.0000 0.0000 0.0000 18.7178 0.0000 0.0000
# 5 0.0000 0.0000 0.0000 0.0000 20.6542 0.0000
# 6 0.0000 0.0000 0.0000 0.0000 0.0000 35.1326
#
#
#
# Elastic Compliance Matrix: (Units=1/GPa)
#
#
# Indices 1 2 3 4 5 6 
#
# 1 0.015014 -0.003953 -0.006476 0.000000 0.000000 0.000000
# 2 -0.003953 0.010034 -0.004284 0.000000 0.000000 0.000000
# 3 -0.006476 -0.004284 0.021041 0.000000 0.000000 0.000000
# 4 0.000000 0.000000 0.000000 0.053425 0.000000 0.000000
# 5 0.000000 0.000000 0.000000 0.000000 0.048416 0.000000
# 6 0.000000 0.000000 0.000000 0.000000 0.000000 0.028464
#
#
# Mechanical properties :
#
#
# Convention : Reuss Voigt Hill
#
# Bulk Modulus (GPa) = 60.01524 67.36566 63.69045
# Shear Modulus (GPa) = 23.65471 25.94714 24.80092
#
# Velocity S-wave (km/s) = 3.65679 3.82989 3.74434
# Velocity P-wave (km/s) = 7.19420 7.59208 7.39582
#
# Compressibility (1/GPa) = 0.01666243
#
# Stress axis : x y z
#
# Youngs Moduli (GPa) = 66.60328 99.66375 47.52658
#
# Poissons Ratio (x) = 0.39400 0.30780
# Poissons Ratio (y) = 0.26330 0.20358
# Poissons Ratio (z) = 0.43135 0.42691
#
# Static dielectric constant tensor:
#      x y z
#    x 3.504870 0.000000 0.000000 
#    y 0.000000 3.376930 0.000000 
#    z 0.000000 0.000000 3.166820 
# 
# 
# High freq. dielectric constant tensor:
#      x y z
#    x 1.698180 0.000000 0.000000 
#    y 0.000000 1.678840 0.000000 
#    z 0.000000 0.000000 1.661810 
# 
# From -- ./inp_files/3918.got.cif
#   From: 2010.03.12/outbox.cif.g09.slc.cpg/sg26_2_cif.got.tgz:3918.got - 2010.04.14 03:33:09.
