data_PCOD8167406
_publ_section_title
;
Structure prediction by ZEFSAII (Michael W. Deem and Ramdas Pophale) SiO2 
 PCOD8167406
Probable space group: P M C 21
;
_chemical_formula_sum "Si O2"
_cell_formula_units_Z 32
_cell_length_a 8.944479
_cell_length_b 11.791611
_cell_length_c 14.344337
_cell_angle_alpha 90.000000
_cell_angle_beta 90.000000
_cell_angle_gamma 90.000000
_cell_volume 1512.894598
_symmetry_space_group_name_H-M "P M C 21"
_symmetry_group_IT_number 26
_symmetry_cell_setting 'orthorhombic'
loop_
_space_group_symop_operation_xyz
x,y,z
-x,-y,1/2+z
-x,y,z
x,-y,1/2+z
loop_
_atom_site_type_symbol
_atom_site_label
_atom_site_fract_x
_atom_site_fract_y
_atom_site_fract_z
Si Si1 0.675881 0.003953 0.866550
Si Si2 0.830324 0.792771 0.773536
Si Si3 0.174076 0.420922 0.754633
Si Si4 0.835124 0.302634 0.469359
Si Si5 0.827150 0.838369 0.236558
Si Si6 0.327394 0.104085 0.556259
Si Si7 0.171224 0.560631 0.465757
Si Si8 0.676222 0.376683 0.144195
O O1 0.500000 0.994350 0.850966
O O2 0.755800 0.909574 0.804115
O O3 0.738265 0.124460 0.830210
O O4 0.714691 0.988179 0.976465
O O5 0.826120 0.702352 0.857584
O O6 0.738568 0.737820 0.689717
O O7 0.000000 0.816803 0.741768
O O8 0.201874 0.294198 0.715349
O O9 0.263721 0.509633 0.692817
O O10 0.000000 0.454757 0.749946
O O11 0.231649 0.423572 0.861153
O O12 0.705242 0.228429 0.514810
O O13 0.814350 0.431274 0.499659
O O14 0.000000 0.258374 0.502346
O O15 0.769782 0.913869 0.149232
O O16 0.000000 0.863252 0.253996
O O17 0.500000 0.096622 0.584243
O O18 0.273607 0.631195 0.536478
O O19 0.000000 0.602644 0.472381
O O20 0.500000 0.376449 0.151634
#
# Coordination Sequence:
#
# PCOD8167406 Si02
#       8
#     4   4   4   4   4   4   4   4
#     4  10  22  41  63  89 121 156 197 252 310 358
#     4  10  19  37  62  85 112 151 199 246 294 349
#     4  10  22  42  63  87 120 162 208 253 298 354
#     4   9  17  32  58  85 111 148 197 248 290 343
#     4  11  23  40  64  91 120 159 207 254 299 360
#     4  10  21  37  60  89 121 158 197 246 306 363
#     4  10  20  37  58  82 117 160 202 245 297 356
#     4  12  24  36  56  90 126 160 197 244 306 369
#
# _framework density 21.151506999999999
#
# number of rings (size 3 to 8) (size 9 to 14) (size 15 to 20)
#    0.000    1.750    1.250    3.375    0.000    7.000 
#    2.250    0.000    0.000    0.000    0.000    0.000 
#    0.000    0.000    0.000    0.000    0.000    0.000 
#
# Total GULP energy -396860.720784 kJ/mol
# GULP energy per Si atom -12401.897524 kJ/mol
# Density = 2.110337 g / cm^3
# Si number density = 21.151507 Si / 1000 Ang^3
#
#
#
# Elastic Constant Matrix: (Units=GPa)
#
#
# Indices 1 2 3 4 5 6 
#
# 1 106.1311 19.1187 36.0200 0.0000 0.0000 0.0000
# 2 19.1187 30.1829 0.0042 0.0000 0.0000 0.0000
# 3 36.0200 0.0042 88.9059 0.0000 0.0000 0.0000
# 4 0.0000 0.0000 0.0000 28.5901 0.0000 0.0000
# 5 0.0000 0.0000 0.0000 0.0000 31.3786 0.0000
# 6 0.0000 0.0000 0.0000 0.0000 0.0000 27.9907
#
#
#
# Elastic Compliance Matrix: (Units=1/GPa)
#
#
# Indices 1 2 3 4 5 6 
#
# 1 0.012590 -0.007974 -0.005100 0.000000 0.000000 0.000000
# 2 -0.007974 0.038182 0.003229 0.000000 0.000000 0.000000
# 3 -0.005100 0.003229 0.013314 0.000000 0.000000 0.000000
# 4 0.000000 0.000000 0.000000 0.034977 0.000000 0.000000
# 5 0.000000 0.000000 0.000000 0.000000 0.031869 0.000000
# 6 0.000000 0.000000 0.000000 0.000000 0.000000 0.035726
#
#
# Mechanical properties :
#
#
# Convention : Reuss Voigt Hill
#
# Bulk Modulus (GPa) = 22.52525 37.27842 29.90183
# Shear Modulus (GPa) = 24.85744 28.93035 26.89390
#
# Velocity S-wave (km/s) = 3.43185 3.70235 3.56966
# Velocity P-wave (km/s) = 5.13576 5.99493 5.58190
#
# Compressibility (1/GPa) = 0.04439463
#
# Stress axis : x y z
#
# Youngs Moduli (GPa) = 79.42956 26.19050 75.10843
#
# Poissons Ratio (x) = 0.20884 0.38308
# Poissons Ratio (y) = 0.63337 -0.24251
# Poissons Ratio (z) = 0.40512 -0.08456
#
# Static dielectric constant tensor:
#      x y z
#    x 3.726400 0.000000 0.000000 
#    y 0.000000 3.606020 0.000000 
#    z 0.000000 0.000000 3.943290 
# 
# 
# High freq. dielectric constant tensor:
#      x y z
#    x 1.823430 0.000000 0.000000 
#    y 0.000000 1.812140 0.000000 
#    z 0.000000 0.000000 1.837740 
# 
# From -- ./inp_files/4232.got.cif
#   From: 2010.03.12/outbox.cif.g09.slc.cpg/sg26_3_cif.got.tgz:4232.got - 2010.04.14 03:33:09.
