data_PCOD8167513
_publ_section_title
;
Structure prediction by ZEFSAII (Michael W. Deem and Ramdas Pophale) SiO2 
 PCOD8167513
Probable space group: P M C 21
;
_chemical_formula_sum "Si O2"
_cell_formula_units_Z 32
_cell_length_a 8.787488
_cell_length_b 12.131261
_cell_length_c 14.192179
_cell_angle_alpha 90.000000
_cell_angle_beta 90.000000
_cell_angle_gamma 90.000000
_cell_volume 1512.933264
_symmetry_space_group_name_H-M "P M C 21"
_symmetry_group_IT_number 26
_symmetry_cell_setting 'orthorhombic'
loop_
_space_group_symop_operation_xyz
x,y,z
-x,-y,1/2+z
-x,y,z
x,-y,1/2+z
loop_
_atom_site_type_symbol
_atom_site_label
_atom_site_fract_x
_atom_site_fract_y
_atom_site_fract_z
Si Si1 0.180474 0.904037 0.633490
Si Si2 0.668173 0.756739 0.332836
Si Si3 0.821694 0.597592 0.475628
Si Si4 0.330321 0.032901 0.946451
Si Si5 0.172925 0.186650 0.450417
Si Si6 0.322021 0.678437 0.667913
Si Si7 0.171750 0.147932 0.669263
Si Si8 0.675422 0.603547 0.871790
O O1 0.253825 0.898833 0.530530
O O2 0.241924 0.796704 0.688491
O O3 0.000000 0.896522 0.622910
O O4 0.227954 0.020642 0.680988
O O5 0.500000 0.701738 0.334281
O O6 0.778565 0.691158 0.401354
O O7 0.660005 0.884221 0.360129
O O8 0.730588 0.762275 0.226637
O O9 0.740768 0.616246 0.575910
O O10 0.778242 0.481626 0.429098
O O11 0.000000 0.600554 0.494883
O O12 0.500000 0.992703 0.975745
O O13 0.227219 0.931513 0.912289
O O14 0.185141 0.185992 0.562406
O O15 0.286347 0.275952 0.409238
O O16 0.000000 0.207641 0.416550
O O17 0.500000 0.700769 0.653230
O O18 0.292009 0.600940 0.759109
O O19 0.000000 0.155787 0.706194
O O20 0.500000 0.576565 0.892099
#
# Coordination Sequence:
#
# PCOD8167513 Si02
#       8
#     4   4   4   4   4   4   4   4
#     4  10  20  36  60  92 128 168 212 262 320 378
#     4  11  23  38  61  93 128 170 216 263 317 379
#     4  12  26  45  70  95 127 169 216 269 322 378
#     4  10  20  35  58  89 127 169 210 259 318 379
#     4  10  22  41  63  91 129 169 214 266 321 378
#     4  11  24  43  67  95 127 165 210 263 319 383
#     4   9  21  38  58  91 132 174 215 261 318 381
#     4  11  26  46  69  96 128 168 215 265 323 384
#
# _framework density 21.150967000000001
#
# number of rings (size 3 to 8) (size 9 to 14) (size 15 to 20)
#    0.000    1.500    1.250    4.125    1.750    7.500 
#    0.000    0.000    0.000    0.000    0.000    0.000 
#    0.000    0.000    0.000    0.000    0.000    0.000 
#
# Total GULP energy -396816.853461 kJ/mol
# GULP energy per Si atom -12400.526671 kJ/mol
# Density = 2.110283 g / cm^3
# Si number density = 21.150967 Si / 1000 Ang^3
#
#
#
# Elastic Constant Matrix: (Units=GPa)
#
#
# Indices 1 2 3 4 5 6 
#
# 1 96.2172 14.5578 31.2466 0.0000 0.0000 0.0000
# 2 14.5578 66.5745 27.9212 0.0000 0.0000 0.0000
# 3 31.2466 27.9212 60.7699 0.0000 0.0000 0.0000
# 4 0.0000 0.0000 0.0000 20.6052 0.0000 0.0000
# 5 0.0000 0.0000 0.0000 0.0000 27.4870 0.0000
# 6 0.0000 0.0000 0.0000 0.0000 0.0000 36.1197
#
#
#
# Elastic Compliance Matrix: (Units=1/GPa)
#
#
# Indices 1 2 3 4 5 6 
#
# 1 0.012477 -0.000047 -0.006394 0.000000 0.000000 0.000000
# 2 -0.000047 0.018606 -0.008525 0.000000 0.000000 0.000000
# 3 -0.006394 -0.008525 0.023660 0.000000 0.000000 0.000000
# 4 0.000000 0.000000 0.000000 0.048531 0.000000 0.000000
# 5 0.000000 0.000000 0.000000 0.000000 0.036381 0.000000
# 6 0.000000 0.000000 0.000000 0.000000 0.000000 0.027686
#
#
# Mechanical properties :
#
#
# Convention : Reuss Voigt Hill
#
# Bulk Modulus (GPa) = 40.30275 41.22366 40.76321
# Shear Modulus (GPa) = 24.32596 26.83145 25.57870
#
# Velocity S-wave (km/s) = 3.39501 3.56556 3.48133
# Velocity P-wave (km/s) = 5.87063 6.04016 5.95599
#
# Compressibility (1/GPa) = 0.02481220
#
# Stress axis : x y z
#
# Youngs Moduli (GPa) = 80.15012 53.74540 42.26580
#
# Poissons Ratio (x) = 0.00251 0.27024
# Poissons Ratio (y) = 0.00374 0.36031
# Poissons Ratio (z) = 0.51246 0.45817
#
# Static dielectric constant tensor:
#      x y z
#    x 3.990830 0.000000 0.000000 
#    y 0.000000 3.752500 0.000000 
#    z 0.000000 0.000000 3.749570 
# 
# 
# High freq. dielectric constant tensor:
#      x y z
#    x 1.840010 0.000000 0.000000 
#    y 0.000000 1.822800 0.000000 
#    z 0.000000 0.000000 1.829300 
# 
# From -- ./inp_files/4175.got.cif
#   From: 2010.03.12/outbox.cif.g09.slc.cpg/sg26_3_cif.got.tgz:4175.got - 2010.04.14 03:33:09.
