data_PCOD8167128
_publ_section_title
;
Structure prediction by ZEFSAII (Michael W. Deem and Ramdas Pophale) SiO2 
 PCOD8167128
Probable space group: P M C 21
;
_chemical_formula_sum "Si O2"
_cell_formula_units_Z 32
_cell_length_a 8.943864
_cell_length_b 10.391557
_cell_length_c 19.100237
_cell_angle_alpha 90.000000
_cell_angle_beta 90.000000
_cell_angle_gamma 90.000000
_cell_volume 1775.188873
_symmetry_space_group_name_H-M "P M C 21"
_symmetry_group_IT_number 26
_symmetry_cell_setting 'orthorhombic'
loop_
_space_group_symop_operation_xyz
x,y,z
-x,-y,1/2+z
-x,y,z
x,-y,1/2+z
loop_
_atom_site_type_symbol
_atom_site_label
_atom_site_fract_x
_atom_site_fract_y
_atom_site_fract_z
Si Si1 0.323293 0.623234 0.012040
Si Si2 0.676440 0.873586 0.098595
Si Si3 0.675708 0.506132 0.738438
Si Si4 0.176211 0.522354 0.880987
Si Si5 0.324849 0.378676 0.095423
Si Si6 0.824110 0.764706 0.228436
Si Si7 0.677278 0.127993 0.019354
Si Si8 0.173157 0.772926 0.387186
O O1 0.500000 0.616787 0.000580
O O2 0.276580 0.752174 0.051843
O O3 0.258944 0.502597 0.055597
O O4 0.242654 0.621025 0.937154
O O5 0.500000 0.877267 0.113116
O O6 0.760768 0.868173 0.173226
O O7 0.733266 0.998791 0.057036
O O8 0.500000 0.488022 0.750778
O O9 0.753668 0.562206 0.806988
O O10 0.710299 0.609839 0.677704
O O11 0.741491 0.369575 0.714689
O O12 0.222314 0.375452 0.898662
O O13 0.000000 0.537624 0.875620
O O14 0.500000 0.377618 0.082008
O O15 0.256093 0.247586 0.064096
O O16 0.790753 0.814252 0.307296
O O17 0.000000 0.743107 0.218064
O O18 0.500000 0.129645 0.016242
O O19 0.736203 0.135490 0.939799
O O20 0.000000 0.790115 0.404208
#
# Coordination Sequence:
#
# PCOD8167128 Si02
#       8
#     4   4   4   4   4   4   4   4
#     4  10  18  33  54  77 103 135 174 215 260 311
#     4  10  21  36  54  79 108 137 177 223 265 313
#     4  10  18  32  54  79 108 141 174 220 271 312
#     4  10  20  33  50  80 111 137 175 221 265 316
#     4   9  17  31  53  79 103 130 172 217 261 311
#     4  10  20  34  53  78 108 140 178 219 261 317
#     4  10  20  35  55  79 105 136 175 219 262 312
#     4   9  19  34  51  75 106 136 171 214 257 310
#
# _framework density 18.026250999999998
#
# number of rings (size 3 to 8) (size 9 to 14) (size 15 to 20)
#    0.000    2.250    2.500    1.875    0.000    3.500 
#    0.000    2.500    0.000    6.000    0.000    0.000 
#    0.000    0.000    0.000    0.000    0.000    0.000 
#
# Total GULP energy -396812.841280 kJ/mol
# GULP energy per Si atom -12400.401290 kJ/mol
# Density = 1.798522 g / cm^3
# Si number density = 18.026251 Si / 1000 Ang^3
#
#
#
# Elastic Constant Matrix: (Units=GPa)
#
#
# Indices 1 2 3 4 5 6 
#
# 1 52.3236 30.2674 45.2818 0.0000 0.0000 0.0000
# 2 30.2674 108.7201 70.1169 0.0000 0.0000 0.0000
# 3 45.2818 70.1169 145.4672 0.0000 0.0000 0.0000
# 4 0.0000 0.0000 0.0000 30.0240 0.0000 0.0000
# 5 0.0000 0.0000 0.0000 0.0000 25.8154 0.0000
# 6 0.0000 0.0000 0.0000 0.0000 0.0000 14.8716
#
#
#
# Elastic Compliance Matrix: (Units=1/GPa)
#
#
# Indices 1 2 3 4 5 6 
#
# 1 0.026826 -0.003022 -0.006894 0.000000 0.000000 0.000000
# 2 -0.003022 0.013688 -0.005657 0.000000 0.000000 0.000000
# 3 -0.006894 -0.005657 0.011747 0.000000 0.000000 0.000000
# 4 0.000000 0.000000 0.000000 0.033307 0.000000 0.000000
# 5 0.000000 0.000000 0.000000 0.000000 0.038737 0.000000
# 6 0.000000 0.000000 0.000000 0.000000 0.000000 0.067242
#
#
# Mechanical properties :
#
#
# Convention : Reuss Voigt Hill
#
# Bulk Modulus (GPa) = 47.35984 66.42703 56.89343
# Shear Modulus (GPa) = 21.76465 24.86519 23.31492
#
# Velocity S-wave (km/s) = 3.47852 3.71804 3.60027
# Velocity P-wave (km/s) = 6.51638 7.44056 6.99375
#
# Compressibility (1/GPa) = 0.02111494
#
# Stress axis : x y z
#
# Youngs Moduli (GPa) = 37.27701 73.05903 85.12838
#
# Poissons Ratio (x) = 0.22081 0.58686
# Poissons Ratio (y) = 0.11266 0.48155
# Poissons Ratio (z) = 0.25698 0.41328
#
# Static dielectric constant tensor:
#      x y z
#    x 3.144650 0.000000 0.000000 
#    y 0.000000 3.248620 0.000000 
#    z 0.000000 0.000000 3.457170 
# 
# 
# High freq. dielectric constant tensor:
#      x y z
#    x 1.686990 0.000000 0.000000 
#    y 0.000000 1.668740 0.000000 
#    z 0.000000 0.000000 1.712840 
# 
# From -- ./inp_files/5053.got.cif
#   From: 2010.03.12/outbox.cif.g09.slc.cpg/sg26_3_cif.got.tgz:5053.got - 2010.04.14 03:33:09.
