data_PCOD8167797
_publ_section_title
;
Structure prediction by ZEFSAII (Michael W. Deem and Ramdas Pophale) SiO2 
 PCOD8167797
Probable space group: P C C 2
;
_chemical_formula_sum "Si O2"
_cell_formula_units_Z 30
_cell_length_a 9.255058
_cell_length_b 8.655907
_cell_length_c 18.867817
_cell_angle_alpha 90.000000
_cell_angle_beta 90.000000
_cell_angle_gamma 90.000000
_cell_volume 1511.518203
_symmetry_space_group_name_H-M "P C C 2"
_symmetry_group_IT_number 27
_symmetry_cell_setting 'orthorhombic'
loop_
_space_group_symop_operation_xyz
x,y,z
-x,-y,z
-x,y,1/2+z
x,-y,1/2+z
loop_
_atom_site_type_symbol
_atom_site_label
_atom_site_fract_x
_atom_site_fract_y
_atom_site_fract_z
Si Si1 0.825082 0.163643 0.354200
Si Si2 0.500261 0.185695 0.654980
Si Si3 0.708244 0.833095 0.538816
Si Si4 0.000000 0.000000 0.237506
Si Si5 0.805132 0.860452 0.117732
Si Si6 0.009591 0.816266 0.492775
Si Si7 0.371196 0.102431 0.389892
Si Si8 0.463208 0.678014 0.305276
O O1 0.921036 0.238125 0.417898
O O2 0.689138 0.279462 0.343840
O O3 0.777855 0.988610 0.376640
O O4 0.919138 0.132539 0.283787
O O5 0.391756 0.257014 0.595398
O O6 0.664151 0.239267 0.638681
O O7 0.445162 0.251788 0.728046
O O8 0.500000 0.000000 0.656655
O O9 0.604306 0.870085 0.472994
O O10 0.848753 0.743895 0.506179
O O11 0.762086 0.984419 0.578008
O O12 0.890491 0.902915 0.189052
O O13 0.897274 0.760798 0.061067
O O14 0.000000 0.000000 0.491766
O O15 0.393011 0.259106 0.345532
O O16 0.500000 0.000000 0.358849
O O17 0.500000 0.500000 0.300649
#
# Coordination Sequence:
#
# PCOD8167797 Si02
#       8
#     4   4   4   2   4   4   4   4
#     4  11  20  33  61  90 117 157 193 254 305 367
#     4  10  20  35  59  88 115 153 197 243 300 354
#     4  10  17  31  56  91 120 146 180 246 310 356
#     4  12  18  28  54  94 124 146 192 242 316 358
#     4  10  18  29  52  87 124 145 176 245 301 359
#     4  10  17  31  51  94 125 139 181 247 313 354
#     4  10  18  33  58  84 111 144 197 245 292 354
#     4  11  25  40  54  82 122 162 205 248 296 359
#
# _framework density 19.847593
#
# number of rings (size 3 to 8) (size 9 to 14) (size 15 to 20)
#    0.000    1.600    5.333    4.800    1.867    0.000 
#    0.000    0.667    0.000    7.200    0.000    0.000 
#    0.000    0.000    0.000    0.000    0.000    0.000 
#
# Total GULP energy -371692.363928 kJ/mol
# GULP energy per Si atom -12389.745464 kJ/mol
# Density = 1.980242 g / cm^3
# Si number density = 19.847593 Si / 1000 Ang^3
#
#
#
# Elastic Constant Matrix: (Units=GPa)
#
#
# Indices 1 2 3 4 5 6 
#
# 1 130.4633 26.1165 66.8103 0.0000 0.0000 0.0000
# 2 26.1165 22.6791 26.7953 0.0000 0.0000 0.0000
# 3 66.8103 26.7953 163.3710 0.0000 0.0000 0.0000
# 4 0.0000 0.0000 0.0000 0.3667 0.0000 0.0000
# 5 0.0000 0.0000 0.0000 0.0000 53.6557 0.0000
# 6 0.0000 0.0000 0.0000 0.0000 0.0000 12.7695
#
#
#
# Elastic Compliance Matrix: (Units=1/GPa)
#
#
# Indices 1 2 3 4 5 6 
#
# 1 0.011041 -0.009153 -0.003014 0.000000 0.000000 0.000000
# 2 -0.009153 0.062280 -0.006472 0.000000 0.000000 0.000000
# 3 -0.003014 -0.006472 0.008415 0.000000 0.000000 0.000000
# 4 0.000000 0.000000 0.000000 2.726761 0.000000 0.000000
# 5 0.000000 0.000000 0.000000 0.000000 0.018637 0.000000
# 6 0.000000 0.000000 0.000000 0.000000 0.000000 0.078312
#
#
# Mechanical properties :
#
#
# Convention : Reuss Voigt Hill
#
# Bulk Modulus (GPa) = 22.49288 61.77305 42.13296
# Shear Modulus (GPa) = 1.69059 26.47780 14.08420
#
# Velocity S-wave (km/s) = 0.92392 3.65644 2.66675
# Velocity P-wave (km/s) = 3.53491 7.00123 5.54585
#
# Compressibility (1/GPa) = 0.04445851
#
# Stress axis : x y z
#
# Youngs Moduli (GPa) = 90.57407 16.05641 118.83567
#
# Poissons Ratio (x) = 0.14697 0.35815
# Poissons Ratio (y) = 0.82905 0.76907
# Poissons Ratio (z) = 0.27297 0.10391
#
# Static dielectric constant tensor:
#      x y z
#    x 4.533290 0.000000 0.000000 
#    y 0.000000 2.873870 0.000000 
#    z 0.000000 0.000000 4.068020 
# 
# 
# High freq. dielectric constant tensor:
#      x y z
#    x 1.796370 0.000000 0.000000 
#    y 0.000000 1.678570 0.000000 
#    z 0.000000 0.000000 1.800370 
# 
# From -- ./inp_files/4777.got.cif
#   From: 2010.03.12/outbox.cif.g09.slc.cpg/sg27_3_cif.got.tgz:4777.got - 2010.04.14 03:36:05.
