data_PCOD8167073
_publ_section_title
;
Structure prediction by ZEFSAII (Michael W. Deem and Ramdas Pophale) SiO2 
 PCOD8167073
Probable space group: P M C 21
;
_chemical_formula_sum "Si O2"
_cell_formula_units_Z 32
_cell_length_a 14.850512
_cell_length_b 17.017386
_cell_length_c 5.286600
_cell_angle_alpha 90.000000
_cell_angle_beta 90.000000
_cell_angle_gamma 90.000000
_cell_volume 1336.013137
_symmetry_space_group_name_H-M "P M C 21"
_symmetry_group_IT_number 26
_symmetry_cell_setting 'orthorhombic'
loop_
_space_group_symop_operation_xyz
x,y,z
-x,-y,1/2+z
-x,y,z
x,-y,1/2+z
loop_
_atom_site_type_symbol
_atom_site_label
_atom_site_fract_x
_atom_site_fract_y
_atom_site_fract_z
Si Si1 0.848596 0.221080 0.535670
Si Si2 0.147968 0.286004 0.032837
Si Si3 0.605936 0.952903 0.655951
Si Si4 0.147825 0.465649 0.878823
Si Si5 0.647825 0.465649 0.758104
Si Si6 0.894064 0.047097 0.480975
Si Si7 0.348596 0.221080 0.101258
Si Si8 0.647968 0.286004 0.604091
O O1 0.899828 0.262609 0.298208
O O2 0.840233 0.128484 0.489191
O O3 0.751238 0.260455 0.569510
O O4 0.899418 0.238430 0.801331
O O5 0.251237 0.260454 0.067420
O O6 0.138937 0.376993 0.970978
O O7 0.500000 0.934716 0.651102
O O8 0.659767 0.871516 0.647735
O O9 0.634865 0.003775 0.413165
O O10 0.102021 0.481636 0.603404
O O11 0.250000 0.492114 0.818463
O O12 0.602020 0.518364 0.533523
O O13 0.638937 0.376993 0.665948
O O14 0.000000 0.065284 0.485824
O O15 0.865135 0.003775 0.223761
O O16 0.399828 0.262609 0.338720
O O17 0.399418 0.238431 0.835598
#
# Coordination Sequence:
#
# PCOD8167073 Si02
#       8
#     4   4   4   4   4   4   4   4
#     4  10  19  32  49  69  99 130 152 196 248 286
#     4  10  19  32  45  73 108 129 156 193 239 292
#     4  10  21  38  56  72  91 120 164 209 243 283
#     4  10  18  26  43  66 100 137 163 189 222 274
#     4  10  18  26  43  66 100 137 163 189 222 274
#     4  10  21  38  56  72  91 120 164 209 243 283
#     4  10  19  32  49  69  99 130 152 196 248 286
#     4  10  19  32  45  73 108 129 156 193 239 292
#
# _framework density 23.951861000000001
#
# number of rings (size 3 to 8) (size 9 to 14) (size 15 to 20)
#    0.000    2.000    2.500    3.000    7.000    0.000 
#    0.000   15.000    0.000    0.000    0.000    0.000 
#    0.000   34.000    0.000    0.000    0.000    0.000 
#
# Total GULP energy -396439.611714 kJ/mol
# GULP energy per Si atom -12388.737866 kJ/mol
# Density = 2.389735 g / cm^3
# Si number density = 23.951861 Si / 1000 Ang^3
#
#
#
# Elastic Constant Matrix: (Units=GPa)
#
#
# Indices 1 2 3 4 5 6 
#
# 1 14.9537 4.5365 -3.2181 0.0000 0.0000 0.0000
# 2 4.5365 197.0562 99.8718 0.0000 0.0000 0.0000
# 3 -3.2181 99.8718 305.2310 0.0000 0.0000 0.0000
# 4 0.0000 0.0000 0.0000 56.6558 0.0000 0.0000
# 5 0.0000 0.0000 0.0000 0.0000 -3.2494 0.0000
# 6 0.0000 0.0000 0.0000 0.0000 0.0000 -8.5605
#
#
#
# Elastic Compliance Matrix: (Units=1/GPa)
#
#
# Indices 1 2 3 4 5 6 
#
# 1 0.067890 -0.002309 0.001471 0.000000 0.000000 0.000000
# 2 -0.002309 0.006162 -0.002041 0.000000 0.000000 0.000000
# 3 0.001471 -0.002041 0.003959 0.000000 0.000000 0.000000
# 4 0.000000 0.000000 0.000000 0.017650 0.000000 0.000000
# 5 0.000000 0.000000 0.000000 0.000000 -0.307752 0.000000
# 6 0.000000 0.000000 0.000000 0.000000 0.000000 -0.116816
#
#
# Mechanical properties :
#
#
# Convention : Reuss Voigt Hill
#
# Bulk Modulus (GPa) = 13.83975 79.95792 46.89884
# Shear Modulus (GPa) = -16.71880 36.70591 9.99355
#
# Velocity S-wave (km/s) = -2.64487 3.91895 2.04485
# Velocity P-wave (km/s) = 1.88053 7.34389 5.01978
#
# Compressibility (1/GPa) = 0.07225562
#
# Stress axis : x y z
#
# Youngs Moduli (GPa) = 14.72969 162.28413 252.56417
#
# Poissons Ratio (x) = 0.37463 -0.37155
# Poissons Ratio (y) = 0.03400 0.51537
# Poissons Ratio (z) = -0.02167 0.33115
#
# Static dielectric constant tensor:
#      x y z
#    x 3.442340 0.000000 0.000000 
#    y 0.000000 4.069020 0.000000 
#    z 0.000000 0.000000 8.703020 
# 
# 
# High freq. dielectric constant tensor:
#      x y z
#    x 1.879370 0.000000 0.000000 
#    y 0.000000 1.950270 0.000000 
#    z 0.000000 0.000000 2.001700 
# 
# From -- ./inp_files/792.got.cif
#   From: 2010.03.12/outbox.cif.g09.slc.cpg/sg26_1_cif.got.tgz:792.got - 2010.04.14 03:33:09.
