data_PCOD8167085
_publ_section_title
;
Structure prediction by ZEFSAII (Michael W. Deem and Ramdas Pophale) SiO2 
 PCOD8167085
Probable space group: P M C 21
;
_chemical_formula_sum "Si O2"
_cell_formula_units_Z 22
_cell_length_a 16.361074
_cell_length_b 16.198128
_cell_length_c 5.269854
_cell_angle_alpha 90.000000
_cell_angle_beta 90.000000
_cell_angle_gamma 90.000000
_cell_volume 1396.610230
_symmetry_space_group_name_H-M "P M C 21"
_symmetry_group_IT_number 26
_symmetry_cell_setting 'orthorhombic'
loop_
_space_group_symop_operation_xyz
x,y,z
-x,-y,1/2+z
-x,y,z
x,-y,1/2+z
loop_
_atom_site_type_symbol
_atom_site_label
_atom_site_fract_x
_atom_site_fract_y
_atom_site_fract_z
Si Si1 0.405681 0.829845 0.779760
Si Si2 0.247443 0.910657 0.863267
Si Si3 0.402402 0.546460 0.304838
Si Si4 0.594508 0.730238 0.290159
Si Si5 0.821355 0.096138 0.864077
Si Si6 0.000000 0.948411 0.297630
O O1 0.500000 0.860235 0.766122
O O2 0.346118 0.908642 0.827705
O O3 0.373776 0.788226 0.519050
O O4 0.391442 0.767272 0.011619
O O5 0.204932 0.861815 0.628729
O O6 0.211536 0.002118 0.892794
O O7 0.222669 0.862069 0.121970
O O8 0.500000 0.547881 0.298618
O O9 0.369600 0.501366 0.556942
O O10 0.365547 0.639290 0.300912
O O11 0.500000 0.719020 0.348985
O O12 0.918640 0.105101 0.835044
O O13 0.000000 0.019501 0.509709
#
# Coordination Sequence:
#
# PCOD8167085 Si02
#       6
#     4   4   4   4   4   2
#     4  10  19  30  42  54  75 110 145 175 202 235
#     4  10  18  30  42  59  80 102 134 172 209 233
#     4   9  15  23  37  56  75  93 118 163 214 244
#     4   9  17  28  40  55  74 100 136 171 204 241
#     4  10  19  30  45  64  82 100 125 172 205 246
#     4  12  16  30  48  68  84 100 120 154 212 258
#
# _framework density 15.752425000000001
#
# number of rings (size 3 to 8) (size 9 to 14) (size 15 to 20)
#    0.000    2.182    3.636    2.182    0.000    4.364 
#    0.000    3.636    0.000    0.000    0.000    0.000 
#    0.000    0.000    0.000    0.000    0.000    0.000 
#
# Total GULP energy -272542.460372 kJ/mol
# GULP energy per Si atom -12388.293653 kJ/mol
# Density = 1.571657 g / cm^3
# Si number density = 15.752425 Si / 1000 Ang^3
#
#
#
# Elastic Constant Matrix: (Units=GPa)
#
#
# Indices 1 2 3 4 5 6 
#
# 1 63.7887 5.9567 4.8384 0.0000 0.0000 0.0000
# 2 5.9567 17.7432 -5.3248 0.0000 0.0000 0.0000
# 3 4.8384 -5.3248 120.7246 0.0000 0.0000 0.0000
# 4 0.0000 0.0000 0.0000 15.1732 0.0000 0.0000
# 5 0.0000 0.0000 0.0000 0.0000 17.7836 0.0000
# 6 0.0000 0.0000 0.0000 0.0000 0.0000 0.6995
#
#
#
# Elastic Compliance Matrix: (Units=1/GPa)
#
#
# Indices 1 2 3 4 5 6 
#
# 1 0.016281 -0.005738 -0.000906 0.000000 0.000000 0.000000
# 2 -0.005738 0.059138 0.002838 0.000000 0.000000 0.000000
# 3 -0.000906 0.002838 0.008445 0.000000 0.000000 0.000000
# 4 0.000000 0.000000 0.000000 0.065906 0.000000 0.000000
# 5 0.000000 0.000000 0.000000 0.000000 0.056231 0.000000
# 6 0.000000 0.000000 0.000000 0.000000 0.000000 1.429619
#
#
# Mechanical properties :
#
#
# Convention : Reuss Voigt Hill
#
# Bulk Modulus (GPa) = 13.11408 23.68857 18.40132
# Shear Modulus (GPa) = 2.99644 19.85033 11.42339
#
# Velocity S-wave (km/s) = 1.38070 3.55370 2.69584
# Velocity P-wave (km/s) = 3.29924 5.64881 4.62569
#
# Compressibility (1/GPa) = 0.07625395
#
# Stress axis : x y z
#
# Youngs Moduli (GPa) = 61.42037 16.90967 118.41611
#
# Poissons Ratio (x) = 0.09702 0.10724
# Poissons Ratio (y) = 0.35241 -0.33610
# Poissons Ratio (z) = 0.05562 -0.04800
#
# Static dielectric constant tensor:
#      x y z
#    x 2.861850 0.000000 0.000000 
#    y 0.000000 2.666800 0.000000 
#    z 0.000000 0.000000 4.077440 
# 
# 
# High freq. dielectric constant tensor:
#      x y z
#    x 1.566630 0.000000 0.000000 
#    y 0.000000 1.543290 0.000000 
#    z 0.000000 0.000000 1.647190 
# 
# From -- ./inp_files/576.got.cif
#   From: 2010.03.12/outbox.cif.g09.slc.cpg/sg26_1_cif.got.tgz:576.got - 2010.04.14 03:33:09.
