data_PCOD8167918
_publ_section_title
;
Structure prediction by ZEFSAII (Michael W. Deem and Ramdas Pophale) SiO2 
 PCOD8167918
Probable space group: P C C 2
;
_chemical_formula_sum "Si O2"
_cell_formula_units_Z 24
_cell_length_a 8.830133
_cell_length_b 9.749080
_cell_length_c 13.114956
_cell_angle_alpha 90.000000
_cell_angle_beta 90.000000
_cell_angle_gamma 90.000000
_cell_volume 1129.009814
_symmetry_space_group_name_H-M "P C C 2"
_symmetry_group_IT_number 27
_symmetry_cell_setting 'orthorhombic'
loop_
_space_group_symop_operation_xyz
x,y,z
-x,-y,z
-x,y,1/2+z
x,-y,1/2+z
loop_
_atom_site_type_symbol
_atom_site_label
_atom_site_fract_x
_atom_site_fract_y
_atom_site_fract_z
Si Si1 0.500000 0.000000 0.629140
Si Si2 0.728824 0.623871 0.849479
Si Si3 0.014157 0.218410 0.060472
Si Si4 0.361148 0.733752 0.557202
Si Si5 0.000000 0.500000 0.968993
Si Si6 0.797904 0.108198 0.231928
Si Si7 0.000000 0.000000 0.888903
Si Si8 0.500000 0.500000 0.197356
O O1 0.554175 0.121419 0.556342
O O2 0.366093 0.057502 0.699126
O O3 0.798798 0.747893 0.787932
O O4 0.639178 0.532862 0.769916
O O5 0.859748 0.531824 0.897076
O O6 0.625689 0.677683 0.942545
O O7 0.189177 0.236626 0.095017
O O8 0.914440 0.129456 0.138179
O O9 0.951440 0.372036 0.041083
O O10 0.005514 0.138289 0.953897
O O11 0.449170 0.628947 0.630121
O O12 0.855733 0.994983 0.312783
#
# Coordination Sequence:
#
# PCOD8167918 Si02
#       8
#     2   4   4   4   2   4   2   2
#     4  12  26  46  72 104 144 192 230 308 356 436
#     4  11  26  46  69 108 137 188 238 284 365 425
#     4  11  26  46  73 105 139 189 239 300 351 419
#     4  11  25  49  69 107 147 185 242 291 360 430
#     4  10  24  46  76 104 138 180 242 306 342 426
#     4  12  26  44  71 107 138 186 241 287 365 422
#     4  12  22  50  70 100 146 180 238 298 346 430
#     4  12  26  46  74 102 154 188 228 300 358 438
#
# _framework density 21.257566000000001
#
# number of rings (size 3 to 8) (size 9 to 14) (size 15 to 20)
#    0.000    0.667    5.000    3.000    7.000    3.333 
#    0.000    0.000    0.000    0.000    0.000    0.000 
#    0.000    0.000    0.000    0.000    0.000    0.000 
#
# Total GULP energy -297582.839602 kJ/mol
# GULP energy per Si atom -12399.284983 kJ/mol
# Density = 2.120918 g / cm^3
# Si number density = 21.257566 Si / 1000 Ang^3
#
#
#
# Elastic Constant Matrix: (Units=GPa)
#
#
# Indices 1 2 3 4 5 6 
#
# 1 100.8276 57.3446 48.1491 0.0000 0.0000 0.0000
# 2 57.3446 128.7248 46.7697 0.0000 0.0000 0.0000
# 3 48.1491 46.7697 116.0604 0.0000 0.0000 0.0000
# 4 0.0000 0.0000 0.0000 21.6026 0.0000 0.0000
# 5 0.0000 0.0000 0.0000 0.0000 40.1878 0.0000
# 6 0.0000 0.0000 0.0000 0.0000 0.0000 43.9475
#
#
#
# Elastic Compliance Matrix: (Units=1/GPa)
#
#
# Indices 1 2 3 4 5 6 
#
# 1 0.014760 -0.005097 -0.004069 0.000000 0.000000 0.000000
# 2 -0.005097 0.010861 -0.002262 0.000000 0.000000 0.000000
# 3 -0.004069 -0.002262 0.011216 0.000000 0.000000 0.000000
# 4 0.000000 0.000000 0.000000 0.046291 0.000000 0.000000
# 5 0.000000 0.000000 0.000000 0.000000 0.024883 0.000000
# 6 0.000000 0.000000 0.000000 0.000000 0.000000 0.022754
#
#
# Mechanical properties :
#
#
# Convention : Reuss Voigt Hill
#
# Bulk Modulus (GPa) = 71.53042 72.23772 71.88407
# Shear Modulus (GPa) = 31.58911 34.03755 32.81333
#
# Velocity S-wave (km/s) = 3.85907 4.00584 3.93314
# Velocity P-wave (km/s) = 7.31977 7.44658 7.38345
#
# Compressibility (1/GPa) = 0.01398007
#
# Stress axis : x y z
#
# Youngs Moduli (GPa) = 67.75083 92.07282 89.15728
#
# Poissons Ratio (x) = 0.46927 0.36283
# Poissons Ratio (y) = 0.34531 0.20170
# Poissons Ratio (z) = 0.27571 0.20829
#
# Static dielectric constant tensor:
#      x y z
#    x 3.526030 0.000000 0.000000 
#    y 0.000000 4.087710 0.000000 
#    z 0.000000 0.000000 4.022650 
# 
# 
# High freq. dielectric constant tensor:
#      x y z
#    x 1.835310 0.000000 0.000000 
#    y 0.000000 1.851510 0.000000 
#    z 0.000000 0.000000 1.843300 
# 
# From -- ./inp_files/2375.got.cif
#   From: 2010.03.12/outbox.cif.g09.slc.cpg/sg27_2_cif.got.tgz:2375.got - 2010.04.14 03:36:05.
