data_PCOD8167393
_publ_section_title
;
Structure prediction by ZEFSAII (Michael W. Deem and Ramdas Pophale) SiO2 
 PCOD8167393
Probable space group: P M C 21
;
_chemical_formula_sum "Si O2"
_cell_formula_units_Z 32
_cell_length_a 8.781213
_cell_length_b 14.625453
_cell_length_c 12.442467
_cell_angle_alpha 90.000000
_cell_angle_beta 90.000000
_cell_angle_gamma 90.000000
_cell_volume 1597.976307
_symmetry_space_group_name_H-M "P M C 21"
_symmetry_group_IT_number 26
_symmetry_cell_setting 'orthorhombic'
loop_
_space_group_symop_operation_xyz
x,y,z
-x,-y,1/2+z
-x,y,z
x,-y,1/2+z
loop_
_atom_site_type_symbol
_atom_site_label
_atom_site_fract_x
_atom_site_fract_y
_atom_site_fract_z
Si Si1 0.821821 0.676476 0.051380
Si Si2 0.325769 0.150901 0.635174
Si Si3 0.822086 0.334542 0.912217
Si Si4 0.679839 0.551293 0.217740
Si Si5 0.172936 0.131644 0.844516
Si Si6 0.825176 0.941839 0.948875
Si Si7 0.819018 0.366932 0.153876
Si Si8 0.821220 0.236042 0.333996
O O1 0.787526 0.763230 0.126545
O O2 0.733003 0.591688 0.102946
O O3 0.000000 0.653321 0.053503
O O4 0.758438 0.700615 0.932364
O O5 0.500000 0.182175 0.623409
O O6 0.293737 0.109978 0.751791
O O7 0.285353 0.074075 0.548804
O O8 0.737522 0.391446 0.820206
O O9 0.788264 0.226682 0.902811
O O10 0.000000 0.355877 0.900422
O O11 0.761475 0.362833 0.030681
O O12 0.500000 0.549333 0.222646
O O13 0.745279 0.449385 0.220680
O O14 0.000000 0.132188 0.800283
O O15 0.195716 0.047731 0.924753
O O16 0.776059 0.870780 0.852852
O O17 0.000000 0.919885 0.980460
O O18 0.765521 0.275061 0.218872
O O19 0.000000 0.377299 0.155933
O O20 0.000000 0.246214 0.339571
#
# Coordination Sequence:
#
# PCOD8167393 Si02
#       8
#     4   4   4   4   4   4   4   4
#     4  10  19  36  61  85 111 149 199 249 295 352
#     4  11  21  34  54  84 119 157 196 244 306 358
#     4  10  22  40  63  90 121 158 202 251 303 365
#     4  12  25  39  58  87 119 155 197 249 309 365
#     4  10  20  36  61  89 118 157 204 252 301 355
#     4   9  19  36  60  89 119 157 204 252 297 354
#     4  10  22  40  61  86 118 160 204 248 303 363
#     4   8  17  35  60  88 117 149 194 249 298 346
#
# _framework density 20.025327000000001
#
# number of rings (size 3 to 8) (size 9 to 14) (size 15 to 20)
#    0.000    2.000    1.250    3.375    1.750    2.000 
#    0.000    6.250    0.000    1.500    0.000    0.000 
#    0.000    0.000    0.000    0.000    0.000    0.000 
#
# Total GULP energy -396658.989655 kJ/mol
# GULP energy per Si atom -12395.593427 kJ/mol
# Density = 1.997975 g / cm^3
# Si number density = 20.025327 Si / 1000 Ang^3
#
#
#
# Elastic Constant Matrix: (Units=GPa)
#
#
# Indices 1 2 3 4 5 6 
#
# 1 60.0083 29.8819 32.8419 0.0000 0.0000 0.0000
# 2 29.8819 117.9457 43.8761 0.0000 0.0000 0.0000
# 3 32.8419 43.8761 95.2110 0.0000 0.0000 0.0000
# 4 0.0000 0.0000 0.0000 20.6540 0.0000 0.0000
# 5 0.0000 0.0000 0.0000 0.0000 12.8935 0.0000
# 6 0.0000 0.0000 0.0000 0.0000 0.0000 10.2164
#
#
#
# Elastic Compliance Matrix: (Units=1/GPa)
#
#
# Indices 1 2 3 4 5 6 
#
# 1 0.021526 -0.003248 -0.005928 0.000000 0.000000 0.000000
# 2 -0.003248 0.010723 -0.003821 0.000000 0.000000 0.000000
# 3 -0.005928 -0.003821 0.014309 0.000000 0.000000 0.000000
# 4 0.000000 0.000000 0.000000 0.048417 0.000000 0.000000
# 5 0.000000 0.000000 0.000000 0.000000 0.077558 0.000000
# 6 0.000000 0.000000 0.000000 0.000000 0.000000 0.097882
#
#
# Mechanical properties :
#
#
# Convention : Reuss Voigt Hill
#
# Bulk Modulus (GPa) = 48.63183 54.04055 51.33619
# Shear Modulus (GPa) = 16.48725 19.85713 18.17219
#
# Velocity S-wave (km/s) = 2.87247 3.15239 3.01568
# Velocity P-wave (km/s) = 5.94469 6.34781 6.14955
#
# Compressibility (1/GPa) = 0.02056266
#
# Stress axis : x y z
#
# Youngs Moduli (GPa) = 46.45446 93.25865 69.88768
#
# Poissons Ratio (x) = 0.30295 0.41432
# Poissons Ratio (y) = 0.15090 0.26703
# Poissons Ratio (z) = 0.27540 0.35633
#
# Static dielectric constant tensor:
#      x y z
#    x 3.383480 0.000000 0.000000 
#    y 0.000000 3.672470 0.000000 
#    z 0.000000 0.000000 3.826640 
# 
# 
# High freq. dielectric constant tensor:
#      x y z
#    x 1.755370 0.000000 0.000000 
#    y 0.000000 1.783130 0.000000 
#    z 0.000000 0.000000 1.780930 
# 
# From -- ./inp_files/2967.got.cif
#   From: 2010.03.12/outbox.cif.g09.slc.cpg/sg26_2_cif.got.tgz:2967.got - 2010.04.14 03:33:09.
