data_PCOD8167350
_publ_section_title
;
Structure prediction by ZEFSAII (Michael W. Deem and Ramdas Pophale) SiO2 
 PCOD8167350
Probable space group: P M C 21
;
_chemical_formula_sum "Si O2"
_cell_formula_units_Z 24
_cell_length_a 8.473888
_cell_length_b 9.203934
_cell_length_c 16.515936
_cell_angle_alpha 90.000000
_cell_angle_beta 90.000000
_cell_angle_gamma 90.000000
_cell_volume 1288.129145
_symmetry_space_group_name_H-M "P M C 21"
_symmetry_group_IT_number 26
_symmetry_cell_setting 'orthorhombic'
loop_
_space_group_symop_operation_xyz
x,y,z
-x,-y,1/2+z
-x,y,z
x,-y,1/2+z
loop_
_atom_site_type_symbol
_atom_site_label
_atom_site_fract_x
_atom_site_fract_y
_atom_site_fract_z
Si Si1 0.174476 0.918742 0.340890
Si Si2 0.827154 0.099141 0.177893
Si Si3 0.187313 0.361830 0.273804
Si Si4 0.683212 0.325772 0.743530
Si Si5 0.187461 0.172154 0.590502
Si Si6 0.316501 0.815769 0.918911
O O1 0.265157 0.769248 0.321411
O O2 0.000000 0.882915 0.375651
O O3 0.157248 0.008784 0.259629
O O4 0.269498 0.015385 0.405837
O O5 0.746319 0.252532 0.202433
O O6 0.000000 0.136034 0.143807
O O7 0.743761 0.990488 0.113572
O O8 0.282827 0.508715 0.265327
O O9 0.219431 0.291912 0.361269
O O10 0.000000 0.386660 0.265086
O O11 0.500000 0.301224 0.726822
O O12 0.778250 0.284284 0.662734
O O13 0.274972 0.227448 0.510689
O O14 0.000000 0.165593 0.577032
O O15 0.500000 0.793704 0.901779
#
# Coordination Sequence:
#
# PCOD8167350 Si02
#       6
#     4   4   4   4   4   4
#     4   9  17  33  54  75  99 136 178 212 252 316
#     4   7  14  29  52  75  95 124 171 215 247 296
#     4  10  19  35  56  78 105 143 182 217 262 326
#     4  11  21  34  53  81 111 140 176 225 272 313
#     4  10  19  35  56  78 104 140 181 221 265 323
#     4  11  21  34  53  81 110 137 174 228 276 310
#
# _framework density 18.631672999999999
#
# number of rings (size 3 to 8) (size 9 to 14) (size 15 to 20)
#    0.000    2.333    0.000    6.500    0.000    0.000 
#    0.000    4.167    0.000    2.000    0.000    0.000 
#    0.000    0.000    0.000    0.000    0.000    0.000 
#
# Total GULP energy -297401.360174 kJ/mol
# GULP energy per Si atom -12391.723341 kJ/mol
# Density = 1.858927 g / cm^3
# Si number density = 18.631673 Si / 1000 Ang^3
#
#
#
# Elastic Constant Matrix: (Units=GPa)
#
#
# Indices 1 2 3 4 5 6 
#
# 1 73.5615 9.4282 1.2911 0.0000 0.0000 0.0000
# 2 9.4282 111.9758 22.8062 0.0000 0.0000 0.0000
# 3 1.2911 22.8062 65.2993 0.0000 0.0000 0.0000
# 4 0.0000 0.0000 0.0000 18.6539 0.0000 0.0000
# 5 0.0000 0.0000 0.0000 0.0000 24.3787 0.0000
# 6 0.0000 0.0000 0.0000 0.0000 0.0000 26.4291
#
#
#
# Elastic Compliance Matrix: (Units=1/GPa)
#
#
# Indices 1 2 3 4 5 6 
#
# 1 0.013744 -0.001186 0.000143 0.000000 0.000000 0.000000
# 2 -0.001186 0.009717 -0.003370 0.000000 0.000000 0.000000
# 3 0.000143 -0.003370 0.016488 0.000000 0.000000 0.000000
# 4 0.000000 0.000000 0.000000 0.053608 0.000000 0.000000
# 5 0.000000 0.000000 0.000000 0.000000 0.041019 0.000000
# 6 0.000000 0.000000 0.000000 0.000000 0.000000 0.037837
#
#
# Mechanical properties :
#
#
# Convention : Reuss Voigt Hill
#
# Bulk Modulus (GPa) = 32.13265 35.32085 33.72675
# Shear Modulus (GPa) = 26.09401 28.37973 27.23687
#
# Velocity S-wave (km/s) = 3.74641 3.90705 3.82757
# Velocity P-wave (km/s) = 5.99982 6.27312 6.13799
#
# Compressibility (1/GPa) = 0.03112099
#
# Stress axis : x y z
#
# Youngs Moduli (GPa) = 72.76112 102.91467 60.64888
#
# Poissons Ratio (x) = 0.12208 -0.00865
# Poissons Ratio (y) = 0.08631 0.20440
# Poissons Ratio (z) = -0.01037 0.34684
#
# Static dielectric constant tensor:
#      x y z
#    x 3.333790 0.000000 0.000000 
#    y 0.000000 3.570350 0.000000 
#    z 0.000000 0.000000 3.313390 
# 
# 
# High freq. dielectric constant tensor:
#      x y z
#    x 1.718090 0.000000 0.000000 
#    y 0.000000 1.717790 0.000000 
#    z 0.000000 0.000000 1.700040 
# 
# From -- ./inp_files/3920.got.cif
#   From: 2010.03.12/outbox.cif.g09.slc.cpg/sg26_2_cif.got.tgz:3920.got - 2010.04.14 03:33:09.
