data_PCOD8167672
_publ_section_title
;
Structure prediction by ZEFSAII (Michael W. Deem and Ramdas Pophale) SiO2 
 PCOD8167672
Probable space group: P M C 21
;
_chemical_formula_sum "Si O2"
_cell_formula_units_Z 18
_cell_length_a 22.643539
_cell_length_b 7.273760
_cell_length_c 5.022573
_cell_angle_alpha 90.000000
_cell_angle_beta 90.000000
_cell_angle_gamma 90.000000
_cell_volume 827.236197
_symmetry_space_group_name_H-M "P M C 21"
_symmetry_group_IT_number 26
_symmetry_cell_setting 'orthorhombic'
loop_
_space_group_symop_operation_xyz
x,y,z
-x,-y,1/2+z
-x,y,z
x,-y,1/2+z
loop_
_atom_site_type_symbol
_atom_site_label
_atom_site_fract_x
_atom_site_fract_y
_atom_site_fract_z
Si Si1 0.067747 0.120590 0.460870
Si Si2 0.500000 0.119879 0.474960
Si Si3 0.390199 0.621249 0.877792
Si Si4 0.172640 0.377628 0.387641
Si Si5 0.280903 0.122910 0.459348
O O1 0.106275 0.302216 0.414181
O O2 0.000000 0.184087 0.435270
O O3 0.082398 0.038555 0.749263
O O4 0.558315 0.235400 0.426580
O O5 0.500000 0.054161 0.779278
O O6 0.395928 0.549405 0.577653
O O7 0.327260 0.715317 0.915328
O O8 0.183799 0.540090 0.596738
O O9 0.215918 0.206355 0.431057
O O10 0.290089 0.042243 0.752747
#
# Coordination Sequence:
#
# PCOD8167672 Si02
#       5
#     4   2   4   4   4
#     4  10  21  39  61  85 116 156 198 240 291 353
#     4  12  24  42  64  92 124 162 204 240 290 356
#     4  12  24  42  64  92 124 157 198 249 301 345
#     4  12  24  39  60  89 121 154 195 246 298 349
#     4  12  24  42  64  88 119 159 201 243 294 356
#
# _framework density 21.759201000000001
#
# number of rings (size 3 to 8) (size 9 to 14) (size 15 to 20)
#    0.000    0.444    0.000   10.000    0.000    0.889 
#    0.000    0.000    0.000    0.000    0.000    0.000 
#    0.000    0.000    0.000    0.000    0.000    0.000 
#
# Total GULP energy -223407.675752 kJ/mol
# GULP energy per Si atom -12411.537542 kJ/mol
# Density = 2.170968 g / cm^3
# Si number density = 21.759201 Si / 1000 Ang^3
#
#
#
# Elastic Constant Matrix: (Units=GPa)
#
#
# Indices 1 2 3 4 5 6 
#
# 1 100.4310 31.8323 17.4566 0.0000 0.0000 0.0000
# 2 31.8323 74.5944 11.4108 0.0000 0.0000 0.0000
# 3 17.4566 11.4108 72.7595 0.0000 0.0000 0.0000
# 4 0.0000 0.0000 0.0000 51.4296 0.0000 0.0000
# 5 0.0000 0.0000 0.0000 0.0000 28.8784 0.0000
# 6 0.0000 0.0000 0.0000 0.0000 0.0000 73.0385
#
#
#
# Elastic Compliance Matrix: (Units=1/GPa)
#
#
# Indices 1 2 3 4 5 6 
#
# 1 0.011818 -0.004723 -0.002095 0.000000 0.000000 0.000000
# 2 -0.004723 0.015623 -0.001317 0.000000 0.000000 0.000000
# 3 -0.002095 -0.001317 0.014453 0.000000 0.000000 0.000000
# 4 0.000000 0.000000 0.000000 0.019444 0.000000 0.000000
# 5 0.000000 0.000000 0.000000 0.000000 0.034628 0.000000
# 6 0.000000 0.000000 0.000000 0.000000 0.000000 0.013691
#
#
# Mechanical properties :
#
#
# Convention : Reuss Voigt Hill
#
# Bulk Modulus (GPa) = 39.02477 41.02048 40.02262
# Shear Modulus (GPa) = 37.18360 43.14165 40.16263
#
# Velocity S-wave (km/s) = 4.13833 4.45757 4.30091
# Velocity P-wave (km/s) = 6.38812 6.73692 6.56484
#
# Compressibility (1/GPa) = 0.02562475
#
# Stress axis : x y z
#
# Youngs Moduli (GPa) = 84.61584 64.00947 69.18961
#
# Poissons Ratio (x) = 0.30230 0.14494
# Poissons Ratio (y) = 0.39962 0.09112
# Poissons Ratio (z) = 0.17725 0.08430
#
# Static dielectric constant tensor:
#      x y z
#    x 4.242910 0.000000 0.000000 
#    y 0.000000 3.740340 0.000000 
#    z 0.000000 0.000000 4.208920 
# 
# 
# High freq. dielectric constant tensor:
#      x y z
#    x 1.871410 0.000000 0.000000 
#    y 0.000000 1.856360 0.000000 
#    z 0.000000 0.000000 1.872970 
# 
# From -- ./inp_files/922.got.cif
#   From: 2010.03.12/outbox.cif.g09.slc.cpg/sg26_1_cif.got.tgz:922.got - 2010.04.14 03:33:09.
