data_PCOD8167208
_publ_section_title
;
Structure prediction by ZEFSAII (Michael W. Deem and Ramdas Pophale) SiO2 
 PCOD8167208
Probable space group: P M C 21
;
_chemical_formula_sum "Si O2"
_cell_formula_units_Z 22
_cell_length_a 28.317584
_cell_length_b 8.345153
_cell_length_c 4.996137
_cell_angle_alpha 90.000000
_cell_angle_beta 90.000000
_cell_angle_gamma 90.000000
_cell_volume 1180.659972
_symmetry_space_group_name_H-M "P M C 21"
_symmetry_group_IT_number 26
_symmetry_cell_setting 'orthorhombic'
loop_
_space_group_symop_operation_xyz
x,y,z
-x,-y,1/2+z
-x,y,z
x,-y,1/2+z
loop_
_atom_site_type_symbol
_atom_site_label
_atom_site_fract_x
_atom_site_fract_y
_atom_site_fract_z
Si Si1 0.779549 0.395991 0.622780
Si Si2 0.949589 0.894497 0.135724
Si Si3 0.600850 0.109353 0.525077
Si Si4 0.849448 0.110053 0.527891
Si Si5 0.500000 0.897612 0.133398
Si Si6 0.329579 0.396234 0.623516
O O1 0.792247 0.534823 0.412404
O O2 0.808612 0.236599 0.571829
O O3 0.724971 0.346409 0.597802
O O4 0.900810 0.800378 0.069210
O O5 0.000000 0.800797 0.085744
O O6 0.948585 0.949160 0.443907
O O7 0.549016 0.194316 0.563680
O O8 0.641016 0.237940 0.571130
O O9 0.606216 0.039203 0.228280
O O10 0.844658 0.038579 0.231580
O O11 0.500000 0.942230 0.446834
O O12 0.342140 0.535813 0.414179
#
# Coordination Sequence:
#
# PCOD8167208 Si02
#       6
#     4   4   4   4   2   4
#     4  10  21  36  51  68  99 136 159 190 249 300
#     4   8  14  25  42  66  94 120 148 190 241 280
#     4  10  19  33  54  76  98 128 164 200 237 283
#     4  10  19  31  51  76  96 120 164 209 233 273
#     4   8  16  30  48  72 100 126 154 192 242 288
#     4  10  21  36  51  71 100 131 162 198 243 290
#
# _framework density 18.633645000000001
#
# number of rings (size 3 to 8) (size 9 to 14) (size 15 to 20)
#    0.000    2.545    0.000    2.182    0.000    1.455 
#    0.000    0.909    0.000    1.091    0.000    0.000 
#    0.000    0.000    0.000    0.000    0.000    0.000 
#
# Total GULP energy -272603.987471 kJ/mol
# GULP energy per Si atom -12391.090340 kJ/mol
# Density = 1.859123 g / cm^3
# Si number density = 18.633645 Si / 1000 Ang^3
#
#
#
# Elastic Constant Matrix: (Units=GPa)
#
#
# Indices 1 2 3 4 5 6 
#
# 1 115.0558 49.0359 15.2157 0.0000 0.0000 0.0000
# 2 49.0359 45.3139 -0.4631 0.0000 0.0000 0.0000
# 3 15.2157 -0.4631 65.9948 0.0000 0.0000 0.0000
# 4 0.0000 0.0000 0.0000 11.5121 0.0000 0.0000
# 5 0.0000 0.0000 0.0000 0.0000 23.2197 0.0000
# 6 0.0000 0.0000 0.0000 0.0000 0.0000 -6.3116
#
#
#
# Elastic Compliance Matrix: (Units=1/GPa)
#
#
# Indices 1 2 3 4 5 6 
#
# 1 0.017168 -0.018620 -0.004089 0.000000 0.000000 0.000000
# 2 -0.018620 0.042264 0.004589 0.000000 0.000000 0.000000
# 3 -0.004089 0.004589 0.016128 0.000000 0.000000 0.000000
# 4 0.000000 0.000000 0.000000 0.086865 0.000000 0.000000
# 5 0.000000 0.000000 0.000000 0.000000 0.043067 0.000000
# 6 0.000000 0.000000 0.000000 0.000000 0.000000 -0.158437
#
#
# Mechanical properties :
#
#
# Convention : Reuss Voigt Hill
#
# Bulk Modulus (GPa) = 25.43129 39.32684 32.37907
# Shear Modulus (GPa) = 51.86779 16.52244 34.19512
#
# Velocity S-wave (km/s) = 5.28167 2.98098 4.28849
# Velocity P-wave (km/s) = 7.13248 5.74451 6.47579
#
# Compressibility (1/GPa) = 0.03932164
#
# Stress axis : x y z
#
# Youngs Moduli (GPa) = 58.24888 23.66067 62.00538
#
# Poissons Ratio (x) = 0.44055 0.25353
# Poissons Ratio (y) = 1.08457 -0.28457
# Poissons Ratio (z) = 0.23817 -0.10859
#
# Static dielectric constant tensor:
#      x y z
#    x 3.916830 0.000000 0.000000 
#    y 0.000000 2.741810 0.000000 
#    z 0.000000 0.000000 3.724470 
# 
# 
# High freq. dielectric constant tensor:
#      x y z
#    x 1.749090 0.000000 0.000000 
#    y 0.000000 1.650710 0.000000 
#    z 0.000000 0.000000 1.750630 
# 
# From -- ./inp_files/1021.got.cif
#   From: 2010.03.12/outbox.cif.g09.slc.cpg/sg26_1_cif.got.tgz:1021.got - 2010.04.14 03:33:09.
