data_PCOD8167331
_publ_section_title
;
Structure prediction by ZEFSAII (Michael W. Deem and Ramdas Pophale) SiO2 
 PCOD8167331
Probable space group: P M C 21
;
_chemical_formula_sum "Si O2"
_cell_formula_units_Z 32
_cell_length_a 8.292951
_cell_length_b 12.453719
_cell_length_c 14.568815
_cell_angle_alpha 90.000000
_cell_angle_beta 90.000000
_cell_angle_gamma 90.000000
_cell_volume 1504.639262
_symmetry_space_group_name_H-M "P M C 21"
_symmetry_group_IT_number 26
_symmetry_cell_setting 'orthorhombic'
loop_
_space_group_symop_operation_xyz
x,y,z
-x,-y,1/2+z
-x,y,z
x,-y,1/2+z
loop_
_atom_site_type_symbol
_atom_site_label
_atom_site_fract_x
_atom_site_fract_y
_atom_site_fract_z
Si Si1 0.317826 0.267205 0.013170
Si Si2 0.807628 0.892198 0.988823
Si Si3 0.813698 0.096228 0.879946
Si Si4 0.809112 0.365022 0.184101
Si Si5 0.183784 0.455219 0.917008
Si Si6 0.191757 0.818142 0.185698
Si Si7 0.311767 0.413788 0.720009
Si Si8 0.811870 0.689189 0.882991
O O1 0.500000 0.224194 0.013351
O O2 0.244951 0.270649 0.115008
O O3 0.208605 0.196877 0.946331
O O4 0.309663 0.388806 0.976942
O O5 0.755415 0.888667 0.096466
O O6 0.000000 0.894223 0.985124
O O7 0.733744 0.787583 0.938417
O O8 0.734832 0.994094 0.932882
O O9 0.740401 0.123064 0.778567
O O10 0.000000 0.072046 0.865329
O O11 0.731985 0.481616 0.157975
O O12 0.738998 0.323486 0.281164
O O13 0.000000 0.378365 0.184600
O O14 0.204272 0.426950 0.810614
O O15 0.220956 0.579631 0.938191
O O16 0.000000 0.426967 0.945292
O O17 0.265019 0.699011 0.172921
O O18 0.000000 0.806388 0.191254
O O19 0.500000 0.413038 0.744327
O O20 0.000000 0.711403 0.872319
#
# Coordination Sequence:
#
# PCOD8167331 Si02
#       8
#     4   4   4   4   4   4   4   4
#     4  12  24  37  56  86 122 160 203 250 307 364
#     4   9  19  36  60  91 118 151 205 261 302 352
#     4  10  21  38  60  86 119 158 205 251 302 366
#     4  10  21  37  59  86 121 163 204 249 304 369
#     4  10  19  34  57  85 118 159 203 245 300 361
#     4  10  20  35  59  87 117 158 205 253 304 360
#     4  11  21  35  56  86 124 160 198 247 306 364
#     4   8  17  34  57  87 119 149 191 250 303 350
#
# _framework density 21.267555999999999
#
# number of rings (size 3 to 8) (size 9 to 14) (size 15 to 20)
#    0.000    2.000    1.250    3.750    1.750    1.000 
#    0.000    4.375    0.000    6.750    0.000    0.000 
#    0.000    0.000    0.000    0.000    0.000    0.000 
#
# Total GULP energy -396632.837105 kJ/mol
# GULP energy per Si atom -12394.776160 kJ/mol
# Density = 2.121915 g / cm^3
# Si number density = 21.267556 Si / 1000 Ang^3
#
#
#
# Elastic Constant Matrix: (Units=GPa)
#
#
# Indices 1 2 3 4 5 6 
#
# 1 40.4667 13.9117 3.8097 0.0000 0.0000 0.0000
# 2 13.9117 124.2250 75.9853 0.0000 0.0000 0.0000
# 3 3.8097 75.9853 127.1452 0.0000 0.0000 0.0000
# 4 0.0000 0.0000 0.0000 33.6395 0.0000 0.0000
# 5 0.0000 0.0000 0.0000 0.0000 13.1403 0.0000
# 6 0.0000 0.0000 0.0000 0.0000 0.0000 6.2501
#
#
#
# Elastic Compliance Matrix: (Units=1/GPa)
#
#
# Indices 1 2 3 4 5 6 
#
# 1 0.025883 -0.003821 0.001508 0.000000 0.000000 0.000000
# 2 -0.003821 0.013252 -0.007805 0.000000 0.000000 0.000000
# 3 0.001508 -0.007805 0.012485 0.000000 0.000000 0.000000
# 4 0.000000 0.000000 0.000000 0.029727 0.000000 0.000000
# 5 0.000000 0.000000 0.000000 0.000000 0.076102 0.000000
# 6 0.000000 0.000000 0.000000 0.000000 0.000000 0.159997
#
#
# Mechanical properties :
#
#
# Convention : Reuss Voigt Hill
#
# Bulk Modulus (GPa) = 31.86414 53.25003 42.55709
# Shear Modulus (GPa) = 14.36188 23.81467 19.08827
#
# Velocity S-wave (km/s) = 2.60146 3.34992 2.99913
# Velocity P-wave (km/s) = 4.90291 6.32891 5.66099
#
# Compressibility (1/GPa) = 0.03138324
#
# Stress axis : x y z
#
# Youngs Moduli (GPa) = 38.63494 75.45942 80.09915
#
# Poissons Ratio (x) = 0.28833 -0.12079
# Poissons Ratio (y) = 0.14762 0.62520
# Poissons Ratio (z) = -0.05826 0.58899
#
# Static dielectric constant tensor:
#      x y z
#    x 3.343040 0.000000 0.000000 
#    y 0.000000 4.031050 0.000000 
#    z 0.000000 0.000000 4.094080 
# 
# 
# High freq. dielectric constant tensor:
#      x y z
#    x 1.795910 0.000000 0.000000 
#    y 0.000000 1.828480 0.000000 
#    z 0.000000 0.000000 1.840610 
# 
# From -- ./inp_files/4228.got.cif
#   From: 2010.03.12/outbox.cif.g09.slc.cpg/sg26_3_cif.got.tgz:4228.got - 2010.04.14 03:33:09.
