data_PCOD8167581
_publ_section_title
;
Structure prediction by ZEFSAII (Michael W. Deem and Ramdas Pophale) SiO2 
 PCOD8167581
Probable space group: P M C 21
;
_chemical_formula_sum "Si O2"
_cell_formula_units_Z 24
_cell_length_a 8.310443
_cell_length_b 15.229546
_cell_length_c 9.229169
_cell_angle_alpha 90.000000
_cell_angle_beta 90.000000
_cell_angle_gamma 90.000000
_cell_volume 1168.083074
_symmetry_space_group_name_H-M "P M C 21"
_symmetry_group_IT_number 26
_symmetry_cell_setting 'orthorhombic'
loop_
_space_group_symop_operation_xyz
x,y,z
-x,-y,1/2+z
-x,y,z
x,-y,1/2+z
loop_
_atom_site_type_symbol
_atom_site_label
_atom_site_fract_x
_atom_site_fract_y
_atom_site_fract_z
Si Si1 0.814966 0.923176 0.286430
Si Si2 0.315209 0.071631 0.476330
Si Si3 0.812978 0.427879 0.951045
Si Si4 0.685139 0.582240 0.768018
Si Si5 0.191140 0.254701 0.426482
Si Si6 0.810269 0.272196 0.752389
O O1 0.763115 0.822488 0.318560
O O2 0.000000 0.939907 0.328597
O O3 0.700221 0.986312 0.376647
O O4 0.794204 0.942261 0.116894
O O5 0.500000 0.084038 0.521482
O O6 0.252117 0.156809 0.389200
O O7 0.715679 0.433239 0.099143
O O8 0.000000 0.412504 0.986541
O O9 0.794588 0.518000 0.863659
O O10 0.739098 0.348667 0.853988
O O11 0.500000 0.562968 0.802273
O O12 0.730489 0.681548 0.808588
O O13 0.253831 0.281239 0.587600
O O14 0.000000 0.258322 0.413979
O O15 0.000000 0.282299 0.745308
#
# Coordination Sequence:
#
# PCOD8167581 Si02
#       6
#     4   4   4   4   4   4
#     4  10  20  38  60  84 115 157 201 242 290 354
#     4  11  22  37  57  87 121 154 194 249 302 344
#     4  11  22  40  63  87 115 155 200 241 287 352
#     4  12  25  40  58  88 123 154 191 245 299 344
#     4  10  20  39  63  86 113 154 200 242 290 355
#     4   8  18  36  61  86 109 142 194 245 284 333
#
# _framework density 20.546482999999998
#
# number of rings (size 3 to 8) (size 9 to 14) (size 15 to 20)
#    0.000    1.667    0.000    6.500    0.000    2.667 
#    0.000   14.167    0.000    0.000    0.000    0.000 
#    0.000    0.000    0.000    0.000    0.000    0.000 
#
# Total GULP energy -297708.256826 kJ/mol
# GULP energy per Si atom -12404.510701 kJ/mol
# Density = 2.049972 g / cm^3
# Si number density = 20.546483 Si / 1000 Ang^3
#
#
#
# Elastic Constant Matrix: (Units=GPa)
#
#
# Indices 1 2 3 4 5 6 
#
# 1 70.2215 20.1042 14.2434 0.0000 0.0000 0.0000
# 2 20.1042 91.2769 26.7708 0.0000 0.0000 0.0000
# 3 14.2434 26.7708 61.7560 0.0000 0.0000 0.0000
# 4 0.0000 0.0000 0.0000 42.2699 0.0000 0.0000
# 5 0.0000 0.0000 0.0000 0.0000 27.0421 0.0000
# 6 0.0000 0.0000 0.0000 0.0000 0.0000 24.3215
#
#
#
# Elastic Compliance Matrix: (Units=1/GPa)
#
#
# Indices 1 2 3 4 5 6 
#
# 1 0.015504 -0.002711 -0.002401 0.000000 0.000000 0.000000
# 2 -0.002711 0.013025 -0.005021 0.000000 0.000000 0.000000
# 3 -0.002401 -0.005021 0.018923 0.000000 0.000000 0.000000
# 4 0.000000 0.000000 0.000000 0.023657 0.000000 0.000000
# 5 0.000000 0.000000 0.000000 0.000000 0.036979 0.000000
# 6 0.000000 0.000000 0.000000 0.000000 0.000000 0.041116
#
#
# Mechanical properties :
#
#
# Convention : Reuss Voigt Hill
#
# Bulk Modulus (GPa) = 36.78231 38.38792 37.58512
# Shear Modulus (GPa) = 28.00609 29.53575 28.77092
#
# Velocity S-wave (km/s) = 3.69597 3.79556 3.74610
# Velocity P-wave (km/s) = 6.01286 6.15893 6.08633
#
# Compressibility (1/GPa) = 0.02718698
#
# Stress axis : x y z
#
# Youngs Moduli (GPa) = 64.50092 76.77307 52.84535
#
# Poissons Ratio (x) = 0.20811 0.12687
# Poissons Ratio (y) = 0.17484 0.26535
# Poissons Ratio (z) = 0.15485 0.38550
#
# Static dielectric constant tensor:
#      x y z
#    x 3.483350 0.000000 0.000000 
#    y 0.000000 3.917860 0.000000 
#    z 0.000000 0.000000 3.705040 
# 
# 
# High freq. dielectric constant tensor:
#      x y z
#    x 1.796080 0.000000 0.000000 
#    y 0.000000 1.815310 0.000000 
#    z 0.000000 0.000000 1.794320 
# 
# From -- ./inp_files/1439.got.cif
#   From: 2010.03.12/outbox.cif.g09.slc.cpg/sg26_1_cif.got.tgz:1439.got - 2010.04.14 03:33:09.
