data_PCOD8167159
_publ_section_title
;
Structure prediction by ZEFSAII (Michael W. Deem and Ramdas Pophale) SiO2 
 PCOD8167159
Probable space group: P M C 21
;
_chemical_formula_sum "Si O2"
_cell_formula_units_Z 20
_cell_length_a 7.705551
_cell_length_b 14.560774
_cell_length_c 8.700981
_cell_angle_alpha 90.000000
_cell_angle_beta 90.000000
_cell_angle_gamma 90.000000
_cell_volume 976.239511
_symmetry_space_group_name_H-M "P M C 21"
_symmetry_group_IT_number 26
_symmetry_cell_setting 'orthorhombic'
loop_
_space_group_symop_operation_xyz
x,y,z
-x,-y,1/2+z
-x,y,z
x,-y,1/2+z
loop_
_atom_site_type_symbol
_atom_site_label
_atom_site_fract_x
_atom_site_fract_y
_atom_site_fract_z
Si Si1 0.199277 0.922825 0.869620
Si Si2 0.802300 0.709167 0.357002
Si Si3 0.500000 0.412331 0.728515
Si Si4 0.500000 0.611658 0.865523
Si Si5 0.206793 0.897952 0.206802
Si Si6 0.308235 0.249892 0.184606
O O1 0.213907 0.837719 0.755054
O O2 0.000000 0.945252 0.898724
O O3 0.285072 0.014254 0.797206
O O4 0.285640 0.899478 0.034064
O O5 0.674957 0.630402 0.297719
O O6 0.731989 0.805240 0.289430
O O7 0.802080 0.713108 0.541717
O O8 0.000000 0.688020 0.303646
O O9 0.500000 0.403474 0.545931
O O10 0.500000 0.518131 0.771548
O O11 0.671564 0.669639 0.813556
O O12 0.000000 0.902047 0.203471
O O13 0.500000 0.220796 0.125483
#
# Coordination Sequence:
#
# PCOD8167159 Si02
#       6
#     4   4   2   2   4   4
#     4  10  18  34  56  83 123 163 212 256 302 368
#     4  11  22  40  66  94 126 164 208 253 309 370
#     4  12  22  46  67  92 123 162 200 256 314 370
#     4  10  24  42  69  86 131 160 196 262 318 358
#     4   9  19  33  55  86 120 167 207 257 312 354
#     4  10  21  39  58  91 118 168 201 246 312 358
#
# _framework density 20.486775000000002
#
# number of rings (size 3 to 8) (size 9 to 14) (size 15 to 20)
#    0.600    1.200    1.000    4.200    0.000    3.200 
#    1.800    6.000    0.000    0.000    0.000    0.000 
#    0.000    0.000    0.000    0.000    0.000    0.000 
#
# Total GULP energy -247948.053901 kJ/mol
# GULP energy per Si atom -12397.402695 kJ/mol
# Density = 2.044015 g / cm^3
# Si number density = 20.486775 Si / 1000 Ang^3
#
#
#
# Elastic Constant Matrix: (Units=GPa)
#
#
# Indices 1 2 3 4 5 6 
#
# 1 55.1578 12.9401 6.5918 0.0000 0.0000 0.0000
# 2 12.9401 94.0640 -0.5045 0.0000 0.0000 0.0000
# 3 6.5918 -0.5045 90.7067 0.0000 0.0000 0.0000
# 4 0.0000 0.0000 0.0000 43.3894 0.0000 0.0000
# 5 0.0000 0.0000 0.0000 0.0000 24.3367 0.0000
# 6 0.0000 0.0000 0.0000 0.0000 0.0000 23.4030
#
#
#
# Elastic Compliance Matrix: (Units=1/GPa)
#
#
# Indices 1 2 3 4 5 6 
#
# 1 0.018908 -0.002609 -0.001389 0.000000 0.000000 0.000000
# 2 -0.002609 0.010991 0.000251 0.000000 0.000000 0.000000
# 3 -0.001389 0.000251 0.011127 0.000000 0.000000 0.000000
# 4 0.000000 0.000000 0.000000 0.023047 0.000000 0.000000
# 5 0.000000 0.000000 0.000000 0.000000 0.041090 0.000000
# 6 0.000000 0.000000 0.000000 0.000000 0.000000 0.042730
#
#
# Mechanical properties :
#
#
# Convention : Reuss Voigt Hill
#
# Bulk Modulus (GPa) = 29.82133 30.88703 30.35418
# Shear Modulus (GPa) = 30.01865 32.95255 31.48560
#
# Velocity S-wave (km/s) = 3.83204 4.01494 3.92455
# Velocity P-wave (km/s) = 5.84528 6.04998 5.94851
#
# Compressibility (1/GPa) = 0.03353304
#
# Stress axis : x y z
#
# Youngs Moduli (GPa) = 52.88848 90.98146 89.87272
#
# Poissons Ratio (x) = 0.23733 0.12479
# Poissons Ratio (y) = 0.13796 -0.02253
# Poissons Ratio (z) = 0.07344 -0.02281
#
# Static dielectric constant tensor:
#      x y z
#    x 3.381350 0.000000 0.000000 
#    y 0.000000 3.714930 0.000000 
#    z 0.000000 0.000000 3.870800 
# 
# 
# High freq. dielectric constant tensor:
#      x y z
#    x 1.776810 0.000000 0.000000 
#    y 0.000000 1.798940 0.000000 
#    z 0.000000 0.000000 1.814700 
# 
# From -- ./inp_files/1319.got.cif
#   From: 2010.03.12/outbox.cif.g09.slc.cpg/sg26_1_cif.got.tgz:1319.got - 2010.04.14 03:33:09.
