data_PCOD8167346
_publ_section_title
;
Structure prediction by ZEFSAII (Michael W. Deem and Ramdas Pophale) SiO2 
 PCOD8167346
Probable space group: P M C 21
;
_chemical_formula_sum "Si O2"
_cell_formula_units_Z 24
_cell_length_a 8.702150
_cell_length_b 10.219037
_cell_length_c 14.010995
_cell_angle_alpha 90.000000
_cell_angle_beta 90.000000
_cell_angle_gamma 90.000000
_cell_volume 1245.964058
_symmetry_space_group_name_H-M "P M C 21"
_symmetry_group_IT_number 26
_symmetry_cell_setting 'orthorhombic'
loop_
_space_group_symop_operation_xyz
x,y,z
-x,-y,1/2+z
-x,y,z
x,-y,1/2+z
loop_
_atom_site_type_symbol
_atom_site_label
_atom_site_fract_x
_atom_site_fract_y
_atom_site_fract_z
Si Si1 0.675522 0.978689 0.215000
Si Si2 0.822110 0.867744 0.397514
Si Si3 0.682039 0.625671 0.497365
Si Si4 0.682588 0.723551 0.698779
Si Si5 0.317478 0.637363 0.903238
Si Si6 0.324324 0.100859 0.505177
O O1 0.500000 0.983678 0.252454
O O2 0.781782 0.904797 0.289732
O O3 0.687089 0.894733 0.118882
O O4 0.738285 0.125887 0.199592
O O5 0.725457 0.741442 0.426382
O O6 0.000000 0.833672 0.406068
O O7 0.782752 0.986650 0.466972
O O8 0.500000 0.616308 0.502673
O O9 0.748914 0.651953 0.604110
O O10 0.751751 0.491375 0.454142
O O11 0.500000 0.721664 0.694695
O O12 0.743113 0.649991 0.794009
O O13 0.500000 0.629560 0.902581
O O14 0.262667 0.762648 0.963544
O O15 0.500000 0.074455 0.472329
#
# Coordination Sequence:
#
# PCOD8167346 Si02
#       6
#     4   4   4   4   4   4
#     4  10  19  34  60  86 112 145 190 242 287 335
#     4  12  24  36  54  83 117 152 189 231 281 342
#     4  10  20  36  58  84 114 151 191 235 286 339
#     4   9  16  30  56  87 113 143 184 235 287 335
#     4   9  18  32  57  88 116 140 183 242 292 339
#     4  10  19  36  61  88 110 141 189 243 289 332
#
# _framework density 19.262194000000001
#
# number of rings (size 3 to 8) (size 9 to 14) (size 15 to 20)
#    0.000    2.000    3.333    1.500    0.000    2.000 
#    0.000    5.833    0.000    2.000    0.000    0.000 
#    0.000    0.000    0.000    0.000    0.000    0.000 
#
# Total GULP energy -297604.022366 kJ/mol
# GULP energy per Si atom -12400.167599 kJ/mol
# Density = 1.921835 g / cm^3
# Si number density = 19.262194 Si / 1000 Ang^3
#
#
#
# Elastic Constant Matrix: (Units=GPa)
#
#
# Indices 1 2 3 4 5 6 
#
# 1 13.8456 7.6815 17.4469 0.0000 0.0000 0.0000
# 2 7.6815 134.9793 55.7831 0.0000 0.0000 0.0000
# 3 17.4469 55.7831 124.9912 0.0000 0.0000 0.0000
# 4 0.0000 0.0000 0.0000 36.7505 0.0000 0.0000
# 5 0.0000 0.0000 0.0000 0.0000 11.8850 0.0000
# 6 0.0000 0.0000 0.0000 0.0000 0.0000 2.0285
#
#
#
# Elastic Compliance Matrix: (Units=1/GPa)
#
#
# Indices 1 2 3 4 5 6 
#
# 1 0.087641 0.000084 -0.012271 0.000000 0.000000 0.000000
# 2 0.000084 0.009084 -0.004066 0.000000 0.000000 0.000000
# 3 -0.012271 -0.004066 0.011528 0.000000 0.000000 0.000000
# 4 0.000000 0.000000 0.000000 0.027210 0.000000 0.000000
# 5 0.000000 0.000000 0.000000 0.000000 0.084140 0.000000
# 6 0.000000 0.000000 0.000000 0.000000 0.000000 0.492974
#
#
# Mechanical properties :
#
#
# Convention : Reuss Voigt Hill
#
# Bulk Modulus (GPa) = 13.20183 48.40434 30.80309
# Shear Modulus (GPa) = 6.49070 22.99311 14.74191
#
# Velocity S-wave (km/s) = 1.83765 3.45873 2.76946
# Velocity P-wave (km/s) = 3.37213 6.41359 5.12374
#
# Compressibility (1/GPa) = 0.07574708
#
# Stress axis : x y z
#
# Youngs Moduli (GPa) = 11.41019 110.08256 86.74578
#
# Poissons Ratio (x) = -0.00920 1.06443
# Poissons Ratio (y) = -0.00095 0.35270
# Poissons Ratio (z) = 0.14001 0.44758
#
# Static dielectric constant tensor:
#      x y z
#    x 2.990390 0.000000 0.000000 
#    y 0.000000 3.702920 0.000000 
#    z 0.000000 0.000000 3.811360 
# 
# 
# High freq. dielectric constant tensor:
#      x y z
#    x 1.695610 0.000000 0.000000 
#    y 0.000000 1.748420 0.000000 
#    z 0.000000 0.000000 1.767510 
# 
# From -- ./inp_files/3922.got.cif
#   From: 2010.03.12/outbox.cif.g09.slc.cpg/sg26_2_cif.got.tgz:3922.got - 2010.04.14 03:33:09.
