data_PCOD8167602
_publ_section_title
;
Structure prediction by ZEFSAII (Michael W. Deem and Ramdas Pophale) SiO2 
 PCOD8167602
Probable space group: P M C 21
;
_chemical_formula_sum "Si O2"
_cell_formula_units_Z 32
_cell_length_a 8.790787
_cell_length_b 11.876548
_cell_length_c 15.052526
_cell_angle_alpha 90.000000
_cell_angle_beta 90.000000
_cell_angle_gamma 90.000000
_cell_volume 1571.546992
_symmetry_space_group_name_H-M "P M C 21"
_symmetry_group_IT_number 26
_symmetry_cell_setting 'orthorhombic'
loop_
_space_group_symop_operation_xyz
x,y,z
-x,-y,1/2+z
-x,y,z
x,-y,1/2+z
loop_
_atom_site_type_symbol
_atom_site_label
_atom_site_fract_x
_atom_site_fract_y
_atom_site_fract_z
Si Si1 0.821569 0.994091 0.363340
Si Si2 0.320091 0.145653 0.217502
Si Si3 0.824692 0.525489 0.041542
Si Si4 0.324504 0.462627 0.865357
Si Si5 0.829564 0.249019 0.801100
Si Si6 0.831558 0.230934 0.598084
Si Si7 0.821894 0.389591 0.216759
Si Si8 0.677021 0.008689 0.553610
O O1 0.774677 0.878091 0.316304
O O2 0.000000 0.016340 0.360220
O O3 0.743257 0.095177 0.309576
O O4 0.768933 0.984638 0.464511
O O5 0.500000 0.143353 0.223800
O O6 0.264430 0.272316 0.205740
O O7 0.264015 0.073185 0.132275
O O8 0.797355 0.659486 0.039708
O O9 0.777837 0.469688 0.134811
O O10 0.000000 0.497087 0.019449
O O11 0.712629 0.477070 0.968321
O O12 0.500000 0.487089 0.846341
O O13 0.287991 0.332688 0.846578
O O14 0.225179 0.547925 0.806961
O O15 0.828531 0.275605 0.697748
O O16 0.000000 0.267210 0.840076
O O17 0.704629 0.137542 0.581526
O O18 0.000000 0.181750 0.575772
O O19 0.000000 0.364567 0.221133
O O20 0.500000 0.990077 0.535211
#
# Coordination Sequence:
#
# PCOD8167602 Si02
#       8
#     4   4   4   4   4   4   4   4
#     4  11  24  42  68  95 124 169 218 264 310 372
#     4  11  25  44  64  93 133 170 208 261 325 382
#     4  10  23  43  67  93 124 166 215 266 311 368
#     4  12  26  41  64  96 132 169 206 258 322 384
#     4  10  21  42  68  94 123 160 214 266 311 370
#     4  10  20  41  69  93 120 159 214 266 311 371
#     4  11  24  45  69  92 125 169 217 265 312 371
#     4  11  25  42  63  94 133 168 204 260 322 382
#
# _framework density 20.362100999999999
#
# number of rings (size 3 to 8) (size 9 to 14) (size 15 to 20)
#    0.000    1.250    2.500    2.625    3.500    4.500 
#    0.000    0.000    0.000    0.000    0.000    0.000 
#    0.000    0.000    0.000    0.000    0.000    0.000 
#
# Total GULP energy -396951.098343 kJ/mol
# GULP energy per Si atom -12404.721823 kJ/mol
# Density = 2.031576 g / cm^3
# Si number density = 20.362101 Si / 1000 Ang^3
#
#
#
# Elastic Constant Matrix: (Units=GPa)
#
#
# Indices 1 2 3 4 5 6 
#
# 1 73.6188 34.4157 33.4451 0.0000 0.0000 0.0000
# 2 34.4157 89.4279 17.9952 0.0000 0.0000 0.0000
# 3 33.4451 17.9952 83.6087 0.0000 0.0000 0.0000
# 4 0.0000 0.0000 0.0000 28.4055 0.0000 0.0000
# 5 0.0000 0.0000 0.0000 0.0000 28.3959 0.0000
# 6 0.0000 0.0000 0.0000 0.0000 0.0000 34.7157
#
#
#
# Elastic Compliance Matrix: (Units=1/GPa)
#
#
# Indices 1 2 3 4 5 6 
#
# 1 0.019387 -0.006167 -0.006428 0.000000 0.000000 0.000000
# 2 -0.006167 0.013650 -0.000471 0.000000 0.000000 0.000000
# 3 -0.006428 -0.000471 0.014633 0.000000 0.000000 0.000000
# 4 0.000000 0.000000 0.000000 0.035204 0.000000 0.000000
# 5 0.000000 0.000000 0.000000 0.000000 0.035216 0.000000
# 6 0.000000 0.000000 0.000000 0.000000 0.000000 0.028805
#
#
# Mechanical properties :
#
#
# Convention : Reuss Voigt Hill
#
# Bulk Modulus (GPa) = 46.42912 46.48529 46.45720
# Shear Modulus (GPa) = 27.74573 29.02338 28.38456
#
# Velocity S-wave (km/s) = 3.69537 3.77949 3.73767
# Velocity P-wave (km/s) = 6.40772 6.47495 6.44142
#
# Compressibility (1/GPa) = 0.02153821
#
# Stress axis : x y z
#
# Youngs Moduli (GPa) = 51.58152 73.25757 68.33857
#
# Poissons Ratio (x) = 0.45181 0.43926
# Poissons Ratio (y) = 0.31813 0.03218
# Poissons Ratio (z) = 0.33155 0.03450
#
# Static dielectric constant tensor:
#      x y z
#    x 3.615280 0.000000 0.000000 
#    y 0.000000 3.734770 0.000000 
#    z 0.000000 0.000000 3.781220 
# 
# 
# High freq. dielectric constant tensor:
#      x y z
#    x 1.793040 0.000000 0.000000 
#    y 0.000000 1.805920 0.000000 
#    z 0.000000 0.000000 1.802640 
# 
# From -- ./inp_files/4322.got.cif
#   From: 2010.03.12/outbox.cif.g09.slc.cpg/sg26_3_cif.got.tgz:4322.got - 2010.04.14 03:33:09.
