data_PCOD8167171
_publ_section_title
;
Structure prediction by ZEFSAII (Michael W. Deem and Ramdas Pophale) SiO2 
 PCOD8167171
Probable space group: P M C 21
;
_chemical_formula_sum "Si O2"
_cell_formula_units_Z 32
_cell_length_a 8.921867
_cell_length_b 11.779684
_cell_length_c 15.401333
_cell_angle_alpha 90.000000
_cell_angle_beta 90.000000
_cell_angle_gamma 90.000000
_cell_volume 1618.630413
_symmetry_space_group_name_H-M "P M C 21"
_symmetry_group_IT_number 26
_symmetry_cell_setting 'orthorhombic'
loop_
_space_group_symop_operation_xyz
x,y,z
-x,-y,1/2+z
-x,y,z
x,-y,1/2+z
loop_
_atom_site_type_symbol
_atom_site_label
_atom_site_fract_x
_atom_site_fract_y
_atom_site_fract_z
Si Si1 0.824439 0.742363 0.934010
Si Si2 0.829276 0.741641 0.128881
Si Si3 0.325665 0.864892 0.282869
Si Si4 0.172202 0.488007 0.177297
Si Si5 0.323025 0.731801 0.616525
Si Si6 0.325275 0.873110 0.781781
Si Si7 0.177633 0.498906 0.374120
Si Si8 0.178008 0.739172 0.439948
O O1 0.751952 0.832034 0.869566
O O2 0.759054 0.615326 0.918567
O O3 0.000000 0.739665 0.915273
O O4 0.789880 0.783160 0.031810
O O5 0.716117 0.799286 0.195166
O O6 0.810466 0.606358 0.128042
O O7 0.000000 0.773323 0.154769
O O8 0.500000 0.845377 0.302809
O O9 0.229017 0.821405 0.363188
O O10 0.287051 0.995882 0.267348
O O11 0.273527 0.398135 0.127014
O O12 0.232661 0.501540 0.274902
O O13 0.000000 0.445964 0.175482
O O14 0.500000 0.740780 0.606915
O O15 0.263837 0.804092 0.698685
O O16 0.248458 0.783067 0.529864
O O17 0.500000 0.851100 0.792953
O O18 0.238832 0.611395 0.421826
O O19 0.000000 0.503371 0.377947
O O20 0.000000 0.743411 0.446169
#
# Coordination Sequence:
#
# PCOD8167171 Si02
#       8
#     4   4   4   4   4   4   4   4
#     4  10  20  36  61  90 117 148 193 241 283 342
#     4  10  21  38  60  89 122 153 191 242 295 349
#     4  11  24  42  61  82 113 156 201 245 292 349
#     4  10  18  35  62  88 119 157 191 233 291 350
#     4  11  23  39  59  89 123 157 197 241 289 352
#     4  10  24  43  59  79 116 159 196 241 297 347
#     4   9  17  33  60  89 117 150 186 231 291 347
#     4  11  22  40  64  90 119 154 193 242 300 354
#
# _framework density 19.769801000000001
#
# number of rings (size 3 to 8) (size 9 to 14) (size 15 to 20)
#    0.000    1.750    2.500    1.875    0.000    5.500 
#    0.000    6.250    0.000    0.000    0.000    0.000 
#    0.000    0.000    0.000    0.000    0.000    0.000 
#
# Total GULP energy -396909.427724 kJ/mol
# GULP energy per Si atom -12403.419616 kJ/mol
# Density = 1.972480 g / cm^3
# Si number density = 19.769801 Si / 1000 Ang^3
#
#
#
# Elastic Constant Matrix: (Units=GPa)
#
#
# Indices 1 2 3 4 5 6 
#
# 1 58.0419 35.8819 41.9922 0.0000 0.0000 0.0000
# 2 35.8819 80.2540 42.5075 0.0000 0.0000 0.0000
# 3 41.9922 42.5075 137.2272 0.0000 0.0000 0.0000
# 4 0.0000 0.0000 0.0000 10.9673 0.0000 0.0000
# 5 0.0000 0.0000 0.0000 0.0000 32.0599 0.0000
# 6 0.0000 0.0000 0.0000 0.0000 0.0000 29.2016
#
#
#
# Elastic Compliance Matrix: (Units=1/GPa)
#
#
# Indices 1 2 3 4 5 6 
#
# 1 0.026743 -0.009119 -0.005359 0.000000 0.000000 0.000000
# 2 -0.009119 0.018015 -0.002790 0.000000 0.000000 0.000000
# 3 -0.005359 -0.002790 0.009791 0.000000 0.000000 0.000000
# 4 0.000000 0.000000 0.000000 0.091180 0.000000 0.000000
# 5 0.000000 0.000000 0.000000 0.000000 0.031192 0.000000
# 6 0.000000 0.000000 0.000000 0.000000 0.000000 0.034245
#
#
# Mechanical properties :
#
#
# Convention : Reuss Voigt Hill
#
# Bulk Modulus (GPa) = 49.96378 57.36514 53.66446
# Shear Modulus (GPa) = 19.81198 24.78854 22.30026
#
# Velocity S-wave (km/s) = 3.16908 3.54483 3.36221
# Velocity P-wave (km/s) = 6.22241 6.77008 6.50201
#
# Compressibility (1/GPa) = 0.02001450
#
# Stress axis : x y z
#
# Youngs Moduli (GPa) = 37.39269 55.50882 102.13128
#
# Poissons Ratio (x) = 0.50616 0.54732
# Poissons Ratio (y) = 0.34097 0.28495
# Poissons Ratio (z) = 0.20039 0.15487
#
# Static dielectric constant tensor:
#      x y z
#    x 3.392960 0.000000 0.000000 
#    y 0.000000 3.604050 0.000000 
#    z 0.000000 0.000000 3.746870 
# 
# 
# High freq. dielectric constant tensor:
#      x y z
#    x 1.751040 0.000000 0.000000 
#    y 0.000000 1.766400 0.000000 
#    z 0.000000 0.000000 1.787450 
# 
# From -- ./inp_files/4221.got.cif
#   From: 2010.03.12/outbox.cif.g09.slc.cpg/sg26_3_cif.got.tgz:4221.got - 2010.04.14 03:33:09.
