data_PCOD8167378
_publ_section_title
;
Structure prediction by ZEFSAII (Michael W. Deem and Ramdas Pophale) SiO2 
 PCOD8167378
Probable space group: P M C 21
;
_chemical_formula_sum "Si O2"
_cell_formula_units_Z 32
_cell_length_a 8.791002
_cell_length_b 14.611748
_cell_length_c 12.361234
_cell_angle_alpha 90.000000
_cell_angle_beta 90.000000
_cell_angle_gamma 90.000000
_cell_volume 1587.824066
_symmetry_space_group_name_H-M "P M C 21"
_symmetry_group_IT_number 26
_symmetry_cell_setting 'orthorhombic'
loop_
_space_group_symop_operation_xyz
x,y,z
-x,-y,1/2+z
-x,y,z
x,-y,1/2+z
loop_
_atom_site_type_symbol
_atom_site_label
_atom_site_fract_x
_atom_site_fract_y
_atom_site_fract_z
Si Si1 0.819735 0.134952 0.919190
Si Si2 0.680237 0.830363 0.649271
Si Si3 0.177810 0.553170 0.126299
Si Si4 0.320082 0.047487 0.352763
Si Si5 0.330269 0.374259 0.197031
Si Si6 0.330703 0.349089 0.442678
Si Si7 0.179399 0.735147 0.235967
Si Si8 0.821963 0.176217 0.517092
O O1 0.765961 0.225955 0.852311
O O2 0.000000 0.130228 0.930222
O O3 0.760975 0.050410 0.847478
O O4 0.748965 0.132619 0.038075
O O5 0.500000 0.835203 0.642810
O O6 0.736524 0.892451 0.750033
O O7 0.733809 0.725884 0.666605
O O8 0.212044 0.449760 0.157839
O O9 0.232109 0.629816 0.215233
O O10 0.000000 0.564358 0.103684
O O11 0.269946 0.569315 0.016774
O O12 0.500000 0.035035 0.351402
O O13 0.271376 0.092306 0.466919
O O14 0.500000 0.388616 0.147883
O O15 0.338769 0.388554 0.323938
O O16 0.500000 0.317124 0.479309
O O17 0.213815 0.264990 0.444824
O O18 0.000000 0.738761 0.231685
O O19 0.236954 0.801393 0.138624
O O20 0.000000 0.153095 0.512221
#
# Coordination Sequence:
#
# PCOD8167378 Si02
#       8
#     4   4   4   4   4   4   4   4
#     4  11  24  41  62  90 124 163 205 253 311 369
#     4  10  23  44  63  87 125 162 204 252 306 371
#     4  10  21  37  59  89 122 160 206 257 310 367
#     4  11  23  41  62  88 120 159 203 252 306 369
#     4  10  21  39  61  86 119 160 205 254 304 366
#     4  10  19  36  58  84 117 157 202 250 306 364
#     4   8  19  39  58  83 122 157 194 247 304 361
#     4  10  19  35  61  89 115 150 199 255 307 359
#
# _framework density 20.153365999999998
#
# number of rings (size 3 to 8) (size 9 to 14) (size 15 to 20)
#    0.000    2.000    1.250    2.625    1.750    3.500 
#    0.000    9.375    0.000    0.000    0.000    0.000 
#    0.000    0.000    0.000    0.000    0.000    0.000 
#
# Total GULP energy -396693.419161 kJ/mol
# GULP energy per Si atom -12396.669349 kJ/mol
# Density = 2.010750 g / cm^3
# Si number density = 20.153366 Si / 1000 Ang^3
#
#
#
# Elastic Constant Matrix: (Units=GPa)
#
#
# Indices 1 2 3 4 5 6 
#
# 1 29.5380 21.4757 26.4891 0.0000 0.0000 0.0000
# 2 21.4757 119.9229 46.9030 0.0000 0.0000 0.0000
# 3 26.4891 46.9030 89.6772 0.0000 0.0000 0.0000
# 4 0.0000 0.0000 0.0000 23.4372 0.0000 0.0000
# 5 0.0000 0.0000 0.0000 0.0000 27.4675 0.0000
# 6 0.0000 0.0000 0.0000 0.0000 0.0000 33.7412
#
#
#
# Elastic Compliance Matrix: (Units=1/GPa)
#
#
# Indices 1 2 3 4 5 6 
#
# 1 0.047383 -0.003786 -0.012016 0.000000 0.000000 0.000000
# 2 -0.003786 0.010786 -0.004523 0.000000 0.000000 0.000000
# 3 -0.012016 -0.004523 0.017066 0.000000 0.000000 0.000000
# 4 0.000000 0.000000 0.000000 0.042667 0.000000 0.000000
# 5 0.000000 0.000000 0.000000 0.000000 0.036407 0.000000
# 6 0.000000 0.000000 0.000000 0.000000 0.000000 0.029637
#
#
# Mechanical properties :
#
#
# Convention : Reuss Voigt Hill
#
# Bulk Modulus (GPa) = 28.91411 47.65265 38.28338
# Shear Modulus (GPa) = 21.17536 26.54719 23.86127
#
# Velocity S-wave (km/s) = 3.24498 3.63334 3.44464
# Velocity P-wave (km/s) = 5.33086 6.42635 5.90407
#
# Compressibility (1/GPa) = 0.03458519
#
# Stress axis : x y z
#
# Youngs Moduli (GPa) = 21.10465 92.71662 58.59597
#
# Poissons Ratio (x) = 0.35099 0.70410
# Poissons Ratio (y) = 0.07989 0.26502
# Poissons Ratio (z) = 0.25360 0.41934
#
# Static dielectric constant tensor:
#      x y z
#    x 3.579450 0.000000 0.000000 
#    y 0.000000 3.742070 0.000000 
#    z 0.000000 0.000000 3.843470 
# 
# 
# High freq. dielectric constant tensor:
#      x y z
#    x 1.778820 0.000000 0.000000 
#    y 0.000000 1.787200 0.000000 
#    z 0.000000 0.000000 1.783960 
# 
# From -- ./inp_files/2981.got.cif
#   From: 2010.03.12/outbox.cif.g09.slc.cpg/sg26_2_cif.got.tgz:2981.got - 2010.04.14 03:33:09.
