data_PCOD8167009
_publ_section_title
;
Structure prediction by ZEFSAII (Michael W. Deem and Ramdas Pophale) SiO2 
 PCOD8167009
Probable space group: P M M 2
;
_chemical_formula_sum "Si O2"
_cell_formula_units_Z 32
_cell_length_a 9.189511
_cell_length_b 9.979397
_cell_length_c 20.745145
_cell_angle_alpha 90.000000
_cell_angle_beta 90.000000
_cell_angle_gamma 90.000000
_cell_volume 1902.449672
_symmetry_space_group_name_H-M "P M M 2"
_symmetry_group_IT_number 25
_symmetry_cell_setting 'orthorhombic'
loop_
_space_group_symop_operation_xyz
x,y,z
-x,-y,z
-x,y,z
x,-y,z
loop_
_atom_site_type_symbol
_atom_site_label
_atom_site_fract_x
_atom_site_fract_y
_atom_site_fract_z
Si Si1 0.173139 0.150067 0.148840
Si Si2 0.835459 0.659832 0.654359
Si Si3 0.664137 0.659269 0.530458
Si Si4 0.663601 0.659852 0.778749
Si Si5 0.171040 0.654675 0.402945
Si Si6 0.826280 0.649554 0.042288
Si Si7 0.172840 0.850137 0.292237
Si Si8 0.838038 0.659412 0.900428
O O1 0.240174 0.252136 0.096488
O O2 0.228212 0.189546 0.220581
O O3 0.000000 0.156988 0.146779
O O4 0.225601 0.000000 0.131787
O O5 0.835789 0.500000 0.653565
O O6 0.749551 0.716515 0.592372
O O7 0.756415 0.713943 0.718446
O O8 0.000000 0.715030 0.653047
O O9 0.500000 0.716259 0.530435
O O10 0.662211 0.500000 0.533612
O O11 0.746714 0.706798 0.466314
O O12 0.500000 0.715240 0.772886
O O13 0.664014 0.500000 0.779094
O O14 0.732881 0.716434 0.844900
O O15 0.206903 0.500000 0.387789
O O16 0.232006 0.742529 0.343527
O O17 0.000000 0.675502 0.414442
O O18 0.766221 0.500000 0.055817
O O19 0.000000 0.647513 0.044345
O O20 0.777703 0.700753 0.971181
O O21 0.000000 0.847973 0.292541
O O22 0.227670 0.000000 0.310109
O O23 0.845718 0.500000 0.897070
O O24 0.000000 0.718084 0.889060
#
# Coordination Sequence:
#
# PCOD8167009 Si02
#       8
#     4   4   4   4   4   4   4   4
#     4   8  13  21  33  51  76 102 126 157 199 240
#     4   9  15  22  33  49  71 101 134 164 194 232
#     4   9  16  25  36  51  74 103 132 163 200 239
#     4   9  15  21  30  46  69  98 131 163 194 231
#     4   9  16  25  38  57  79 103 133 167 200 236
#     4   8  13  20  31  48  71 100 131 161 195 236
#     4   8  14  24  37  54  78 106 132 161 201 244
#     4   8  13  21  31  44  66  96 127 158 193 232
#
# _framework density 16.820419000000001
#
# number of rings (size 3 to 8) (size 9 to 14) (size 15 to 20)
#    0.000    3.500    0.000    2.625    0.000    5.000 
#    0.000    2.500    0.000    0.375    0.000    0.875 
#    0.000    6.500    0.000    8.500    0.000    9.375 
#
# Total GULP energy -396575.385404 kJ/mol
# GULP energy per Si atom -12392.980794 kJ/mol
# Density = 1.678213 g / cm^3
# Si number density = 16.820419 Si / 1000 Ang^3
#
#
#
# Elastic Constant Matrix: (Units=GPa)
#
#
# Indices 1 2 3 4 5 6 
#
# 1 75.3561 20.7223 59.6126 0.0000 0.0000 0.0000
# 2 20.7223 43.7110 59.3644 0.0000 0.0000 0.0000
# 3 59.6126 59.3644 185.1698 0.0000 0.0000 0.0000
# 4 0.0000 0.0000 0.0000 3.7625 0.0000 0.0000
# 5 0.0000 0.0000 0.0000 0.0000 6.1211 0.0000
# 6 0.0000 0.0000 0.0000 0.0000 0.0000 3.9237
#
#
#
# Elastic Compliance Matrix: (Units=1/GPa)
#
#
# Indices 1 2 3 4 5 6 
#
# 1 0.017838 -0.001164 -0.005369 0.000000 0.000000 0.000000
# 2 -0.001164 0.040596 -0.012640 0.000000 0.000000 0.000000
# 3 -0.005369 -0.012640 0.011181 0.000000 0.000000 0.000000
# 4 0.000000 0.000000 0.000000 0.265779 0.000000 0.000000
# 5 0.000000 0.000000 0.000000 0.000000 0.163369 0.000000
# 6 0.000000 0.000000 0.000000 0.000000 0.000000 0.254861
#
#
# Mechanical properties :
#
#
# Convention : Reuss Voigt Hill
#
# Bulk Modulus (GPa) = 31.98154 64.84841 48.41497
# Shear Modulus (GPa) = 6.23135 13.73063 9.98099
#
# Velocity S-wave (km/s) = 1.92683 2.86021 2.43859
# Velocity P-wave (km/s) = 4.89949 7.03881 6.06423
#
# Compressibility (1/GPa) = 0.03126804
#
# Stress axis : x y z
#
# Youngs Moduli (GPa) = 56.05954 24.63286 89.43426
#
# Poissons Ratio (x) = 0.02868 0.48021
# Poissons Ratio (y) = 0.06527 1.13046
# Poissons Ratio (z) = 0.30101 0.31136
#
# Static dielectric constant tensor:
#      x y z
#    x 2.927820 0.000000 0.000000 
#    y 0.000000 2.761490 0.000000 
#    z 0.000000 0.000000 3.555410 
# 
# 
# High freq. dielectric constant tensor:
#      x y z
#    x 1.613600 0.000000 0.000000 
#    y 0.000000 1.583410 0.000000 
#    z 0.000000 0.000000 1.667370 
# 
# From -- ./inp_files/6295.got.cif
#   From: 2010.03.12/outbox.cif.g09.slc.cpg/sg25_4_cif.got.tgz:6295.got - 2010.04.14 03:30:10.
