data_PCOD8167352
_publ_section_title
;
Structure prediction by ZEFSAII (Michael W. Deem and Ramdas Pophale) SiO2 
 PCOD8167352
Probable space group: P M C 21
;
_chemical_formula_sum "Si O2"
_cell_formula_units_Z 32
_cell_length_a 9.179551
_cell_length_b 14.520334
_cell_length_c 12.299307
_cell_angle_alpha 90.000000
_cell_angle_beta 90.000000
_cell_angle_gamma 90.000000
_cell_volume 1639.376432
_symmetry_space_group_name_H-M "P M C 21"
_symmetry_group_IT_number 26
_symmetry_cell_setting 'orthorhombic'
loop_
_space_group_symop_operation_xyz
x,y,z
-x,-y,1/2+z
-x,y,z
x,-y,1/2+z
loop_
_atom_site_type_symbol
_atom_site_label
_atom_site_fract_x
_atom_site_fract_y
_atom_site_fract_z
Si Si1 0.334090 0.448363 0.637760
Si Si2 0.161390 0.136959 0.746174
Si Si3 0.667066 0.303906 0.811615
Si Si4 0.672055 0.954656 0.428344
Si Si5 0.671255 0.770526 0.538459
Si Si6 0.671383 0.355353 0.227061
Si Si7 0.161244 0.128126 0.499650
Si Si8 0.172987 0.335754 0.453944
O O1 0.500000 0.433950 0.598446
O O2 0.312060 0.403984 0.758265
O O3 0.297654 0.555192 0.653215
O O4 0.232078 0.404410 0.546105
O O5 0.228579 0.238559 0.742054
O O6 0.267462 0.069164 0.810097
O O7 0.150745 0.101234 0.624774
O O8 0.000000 0.139226 0.799353
O O9 0.500000 0.269641 0.800919
O O10 0.714098 0.298120 0.938530
O O11 0.500000 0.955650 0.424249
O O12 0.727628 0.874777 0.512845
O O13 0.725489 0.056824 0.450711
O O14 0.500000 0.772301 0.550464
O O15 0.730852 0.730219 0.652846
O O16 0.500000 0.347131 0.254898
O O17 0.761534 0.361520 0.337352
O O18 0.220029 0.231277 0.481254
O O19 0.000000 0.117152 0.446842
O O20 0.000000 0.346500 0.450702
#
# Coordination Sequence:
#
# PCOD8167352 Si02
#       8
#     4   4   4   4   4   4   4   4
#     4  10  21  36  62  91 116 151 200 250 297 352
#     4  10  19  35  56  80 113 152 194 240 295 356
#     4   9  17  32  56  84 111 144 192 249 297 342
#     4  10  21  36  58  87 117 153 200 252 302 353
#     4   8  17  35  56  82 118 150 187 244 300 350
#     4  10  22  39  62  89 121 160 201 245 300 358
#     4  10  22  39  58  82 115 158 200 244 297 356
#     4  11  24  42  60  85 125 160 198 246 300 363
#
# _framework density 19.519617
#
# number of rings (size 3 to 8) (size 9 to 14) (size 15 to 20)
#    0.000    2.250    1.250    1.875    1.750    3.500 
#    0.000    5.625    0.000    0.000    0.000    0.000 
#    0.000    0.000    0.000    0.000    0.000    0.000 
#
# Total GULP energy -396628.202082 kJ/mol
# GULP energy per Si atom -12394.631315 kJ/mol
# Density = 1.947519 g / cm^3
# Si number density = 19.519617 Si / 1000 Ang^3
#
#
#
# Elastic Constant Matrix: (Units=GPa)
#
#
# Indices 1 2 3 4 5 6 
#
# 1 79.9467 47.4474 36.6344 0.0000 0.0000 0.0000
# 2 47.4474 96.4061 39.4090 0.0000 0.0000 0.0000
# 3 36.6344 39.4090 91.2960 0.0000 0.0000 0.0000
# 4 0.0000 0.0000 0.0000 26.9399 0.0000 0.0000
# 5 0.0000 0.0000 0.0000 0.0000 28.8536 0.0000
# 6 0.0000 0.0000 0.0000 0.0000 0.0000 20.8204
#
#
#
# Elastic Compliance Matrix: (Units=1/GPa)
#
#
# Indices 1 2 3 4 5 6 
#
# 1 0.018996 -0.007569 -0.004355 0.000000 0.000000 0.000000
# 2 -0.007569 0.015611 -0.003702 0.000000 0.000000 0.000000
# 3 -0.004355 -0.003702 0.014299 0.000000 0.000000 0.000000
# 4 0.000000 0.000000 0.000000 0.037120 0.000000 0.000000
# 5 0.000000 0.000000 0.000000 0.000000 0.034658 0.000000
# 6 0.000000 0.000000 0.000000 0.000000 0.000000 0.048030
#
#
# Mechanical properties :
#
#
# Convention : Reuss Voigt Hill
#
# Bulk Modulus (GPa) = 56.64271 57.18115 56.91193
# Shear Modulus (GPa) = 24.28961 24.93333 24.61147
#
# Velocity S-wave (km/s) = 3.53139 3.57788 3.55471
# Velocity P-wave (km/s) = 6.76084 6.81367 6.78731
#
# Compressibility (1/GPa) = 0.01765452
#
# Stress axis : x y z
#
# Youngs Moduli (GPa) = 52.64245 64.05767 69.93544
#
# Poissons Ratio (x) = 0.48483 0.30460
# Poissons Ratio (y) = 0.39844 0.25887
# Poissons Ratio (z) = 0.22928 0.23711
#
# Static dielectric constant tensor:
#      x y z
#    x 3.543780 0.000000 0.000000 
#    y 0.000000 3.625520 0.000000 
#    z 0.000000 0.000000 3.591570 
# 
# 
# High freq. dielectric constant tensor:
#      x y z
#    x 1.747840 0.000000 0.000000 
#    y 0.000000 1.758350 0.000000 
#    z 0.000000 0.000000 1.758080 
# 
# From -- ./inp_files/2971.got.cif
#   From: 2010.03.12/outbox.cif.g09.slc.cpg/sg26_2_cif.got.tgz:2971.got - 2010.04.14 03:33:09.
