data_PCOD8167746
_publ_section_title
;
Structure prediction by ZEFSAII (Michael W. Deem and Ramdas Pophale) SiO2 
 PCOD8167746
Probable space group: P M C 21
;
_chemical_formula_sum "Si O2"
_cell_formula_units_Z 20
_cell_length_a 13.896747
_cell_length_b 4.945277
_cell_length_c 10.249569
_cell_angle_alpha 90.000000
_cell_angle_beta 90.000000
_cell_angle_gamma 90.000000
_cell_volume 704.383829
_symmetry_space_group_name_H-M "P M C 21"
_symmetry_group_IT_number 26
_symmetry_cell_setting 'orthorhombic'
loop_
_space_group_symop_operation_xyz
x,y,z
-x,-y,1/2+z
-x,y,z
x,-y,1/2+z
loop_
_atom_site_type_symbol
_atom_site_label
_atom_site_fract_x
_atom_site_fract_y
_atom_site_fract_z
Si Si1 0.607188 0.069832 0.413730
Si Si2 0.892272 0.562328 0.433404
Si Si3 0.389994 0.425157 0.745550
Si Si4 0.892787 0.800660 0.171301
Si Si5 0.257517 0.176437 0.101774
O O1 0.500000 0.977169 0.446949
O O2 0.642255 0.874300 0.294177
O O3 0.663244 0.037426 0.549499
O O4 0.613683 0.380712 0.372386
O O5 0.879164 0.547619 0.274555
O O6 0.878318 0.291710 0.520141
O O7 0.811330 0.768488 0.479250
O O8 0.000000 0.673290 0.463526
O O9 0.500000 0.424524 0.687228
O O10 0.310111 0.548082 0.648054
O O11 0.000000 0.922828 0.190220
O O12 0.812953 0.029024 0.206227
#
# Coordination Sequence:
#
# PCOD8167746 Si02
#       5
#     4   4   4   4   4
#     4  10  24  44  67 101 145 189 237 300 369 440
#     4  10  24  44  69 101 146 193 247 315 381 450
#     4  10  24  44  66 100 145 189 237 299 368 440
#     4  10  24  46  69 104 147 197 252 314 383 450
#     4  12  24  38  73 102 139 188 255 306 371 450
#
# _framework density 28.393611
#
# number of rings (size 3 to 8) (size 9 to 14) (size 15 to 20)
#    0.000    1.600    0.000    2.400    8.400    1.600 
#    0.000   10.000    0.000    0.000    0.000    0.000 
#    0.000    0.000    0.000    0.000    0.000    0.000 
#
# Total GULP energy -247793.186220 kJ/mol
# GULP energy per Si atom -12389.659311 kJ/mol
# Density = 2.832899 g / cm^3
# Si number density = 28.393611 Si / 1000 Ang^3
#
#
#
# Elastic Constant Matrix: (Units=GPa)
#
#
# Indices 1 2 3 4 5 6 
#
# 1 135.0366 -3.7543 29.7504 0.0000 0.0000 0.0000
# 2 -3.7543 42.1008 6.0863 0.0000 0.0000 0.0000
# 3 29.7504 6.0863 98.0346 0.0000 0.0000 0.0000
# 4 0.0000 0.0000 0.0000 33.6729 0.0000 0.0000
# 5 0.0000 0.0000 0.0000 0.0000 29.2671 0.0000
# 6 0.0000 0.0000 0.0000 0.0000 0.0000 29.2533
#
#
#
# Elastic Compliance Matrix: (Units=1/GPa)
#
#
# Indices 1 2 3 4 5 6 
#
# 1 0.007984 0.001072 -0.002489 0.000000 0.000000 0.000000
# 2 0.001072 0.024112 -0.001822 0.000000 0.000000 0.000000
# 3 -0.002489 -0.001822 0.011069 0.000000 0.000000 0.000000
# 4 0.000000 0.000000 0.000000 0.029697 0.000000 0.000000
# 5 0.000000 0.000000 0.000000 0.000000 0.034168 0.000000
# 6 0.000000 0.000000 0.000000 0.000000 0.000000 0.034184
#
#
# Mechanical properties :
#
#
# Convention : Reuss Voigt Hill
#
# Bulk Modulus (GPa) = 27.25925 37.70408 32.48166
# Shear Modulus (GPa) = 31.26532 34.64462 32.95497
#
# Velocity S-wave (km/s) = 3.32194 3.49686 3.41052
# Velocity P-wave (km/s) = 4.93306 5.44169 5.19360
#
# Compressibility (1/GPa) = 0.03668480
#
# Stress axis : x y z
#
# Youngs Moduli (GPa) = 125.25629 41.47393 90.34206
#
# Poissons Ratio (x) = -0.04445 0.22489
# Poissons Ratio (y) = -0.13425 0.16462
# Poissons Ratio (z) = 0.31180 0.07557
#
# Static dielectric constant tensor:
#      x y z
#    x 5.741040 0.000000 0.000000 
#    y 0.000000 4.753290 0.000000 
#    z 0.000000 0.000000 4.925060 
# 
# 
# High freq. dielectric constant tensor:
#      x y z
#    x 2.183740 0.000000 0.000000 
#    y 0.000000 2.125820 0.000000 
#    z 0.000000 0.000000 2.139240 
# 
# From -- ./inp_files/3428.got.cif
#   From: 2010.03.12/outbox.cif.g09.slc.cpg/sg26_2_cif.got.tgz:3428.got - 2010.04.14 03:33:09.
