data_PCOD8167437
_publ_section_title
;
Structure prediction by ZEFSAII (Michael W. Deem and Ramdas Pophale) SiO2 
 PCOD8167437
Probable space group: P M C 21
;
_chemical_formula_sum "Si O2"
_cell_formula_units_Z 32
_cell_length_a 9.050283
_cell_length_b 11.633309
_cell_length_c 14.316428
_cell_angle_alpha 90.000000
_cell_angle_beta 90.000000
_cell_angle_gamma 90.000000
_cell_volume 1507.301381
_symmetry_space_group_name_H-M "P M C 21"
_symmetry_group_IT_number 26
_symmetry_cell_setting 'orthorhombic'
loop_
_space_group_symop_operation_xyz
x,y,z
-x,-y,1/2+z
-x,y,z
x,-y,1/2+z
loop_
_atom_site_type_symbol
_atom_site_label
_atom_site_fract_x
_atom_site_fract_y
_atom_site_fract_z
Si Si1 0.669531 0.361342 0.658840
Si Si2 0.835222 0.321324 0.973231
Si Si3 0.828529 0.916396 0.552468
Si Si4 0.325007 0.597662 0.758475
Si Si5 0.324250 0.011835 0.384971
Si Si6 0.331430 0.546077 0.964226
Si Si7 0.172506 0.170978 0.247936
Si Si8 0.832678 0.199359 0.787423
O O1 0.500000 0.340013 0.687420
O O2 0.721338 0.482693 0.703183
O O3 0.689700 0.361110 0.546611
O O4 0.765152 0.253322 0.693549
O O5 0.740182 0.429765 0.001514
O O6 0.831508 0.302643 0.861855
O O7 0.000000 0.344292 0.009543
O O8 0.770211 0.209028 0.022906
O O9 0.732867 0.007678 0.492760
O O10 0.805870 0.923377 0.664167
O O11 0.000000 0.931394 0.523415
O O12 0.500000 0.620099 0.751440
O O13 0.267258 0.589805 0.865961
O O14 0.237849 0.706149 0.715278
O O15 0.500000 0.014048 0.384078
O O16 0.264251 0.905666 0.324635
O O17 0.261970 0.127963 0.338396
O O18 0.500000 0.514354 0.947476
O O19 0.000000 0.184288 0.271421
O O20 0.000000 0.155632 0.768467
#
# Coordination Sequence:
#
# PCOD8167437 Si02
#       8
#     4   4   4   4   4   4   4   4
#     4  10  20  35  56  84 117 155 196 239 292 352
#     4   9  17  31  54  82 112 145 188 238 283 339
#     4   9  20  39  62  90 118 151 199 251 298 350
#     4  10  21  37  56  84 123 158 197 246 296 353
#     4  11  23  40  64  90 118 153 196 246 300 358
#     4  10  20  33  52  81 117 155 192 235 289 349
#     4  11  23  41  64  88 120 159 202 249 299 355
#     4  10  20  36  58  83 113 148 192 242 291 344
#
# _framework density 21.229994999999999
#
# number of rings (size 3 to 8) (size 9 to 14) (size 15 to 20)
#    0.000    2.000    1.250    3.375    0.000    4.500 
#    2.250    0.000    0.000    0.000    0.000    0.000 
#    0.000    0.000    0.000    0.000    0.000    0.000 
#
# Total GULP energy -396774.483543 kJ/mol
# GULP energy per Si atom -12399.202611 kJ/mol
# Density = 2.118167 g / cm^3
# Si number density = 21.229995 Si / 1000 Ang^3
#
#
#
# Elastic Constant Matrix: (Units=GPa)
#
#
# Indices 1 2 3 4 5 6 
#
# 1 89.3869 15.0020 19.1801 0.0000 0.0000 0.0000
# 2 15.0020 29.9046 -5.6756 0.0000 0.0000 0.0000
# 3 19.1801 -5.6756 78.4862 0.0000 0.0000 0.0000
# 4 0.0000 0.0000 0.0000 27.9787 0.0000 0.0000
# 5 0.0000 0.0000 0.0000 0.0000 28.0785 0.0000
# 6 0.0000 0.0000 0.0000 0.0000 0.0000 28.8966
#
#
#
# Elastic Compliance Matrix: (Units=1/GPa)
#
#
# Indices 1 2 3 4 5 6 
#
# 1 0.013229 -0.007351 -0.003764 0.000000 0.000000 0.000000
# 2 -0.007351 0.037990 0.004544 0.000000 0.000000 0.000000
# 3 -0.003764 0.004544 0.013990 0.000000 0.000000 0.000000
# 4 0.000000 0.000000 0.000000 0.035742 0.000000 0.000000
# 5 0.000000 0.000000 0.000000 0.000000 0.035614 0.000000
# 6 0.000000 0.000000 0.000000 0.000000 0.000000 0.034606
#
#
# Mechanical properties :
#
#
# Convention : Reuss Voigt Hill
#
# Bulk Modulus (GPa) = 19.20685 28.31007 23.75846
# Shear Modulus (GPa) = 24.79317 28.27548 26.53433
#
# Velocity S-wave (km/s) = 3.42107 3.65343 3.53916
# Velocity P-wave (km/s) = 4.96706 5.58217 5.28357
#
# Compressibility (1/GPa) = 0.05206476
#
# Stress axis : x y z
#
# Youngs Moduli (GPa) = 75.59278 26.32292 71.48180
#
# Poissons Ratio (x) = 0.19350 0.26908
# Poissons Ratio (y) = 0.55567 -0.32478
# Poissons Ratio (z) = 0.28456 -0.11960
#
# Static dielectric constant tensor:
#      x y z
#    x 3.659660 0.000000 0.000000 
#    y 0.000000 3.531880 0.000000 
#    z 0.000000 0.000000 3.980580 
# 
# 
# High freq. dielectric constant tensor:
#      x y z
#    x 1.822210 0.000000 0.000000 
#    y 0.000000 1.813650 0.000000 
#    z 0.000000 0.000000 1.838850 
# 
# From -- ./inp_files/4245.got.cif
#   From: 2010.03.12/outbox.cif.g09.slc.cpg/sg26_3_cif.got.tgz:4245.got - 2010.04.14 03:33:09.
