data_PCOD8167710
_publ_section_title
;
Structure prediction by ZEFSAII (Michael W. Deem and Ramdas Pophale) SiO2 
 PCOD8167710
Probable space group: P M C 21
;
_chemical_formula_sum "Si O2"
_cell_formula_units_Z 24
_cell_length_a 8.927517
_cell_length_b 11.971234
_cell_length_c 11.737879
_cell_angle_alpha 90.000000
_cell_angle_beta 90.000000
_cell_angle_gamma 90.000000
_cell_volume 1254.466979
_symmetry_space_group_name_H-M "P M C 21"
_symmetry_group_IT_number 26
_symmetry_cell_setting 'orthorhombic'
loop_
_space_group_symop_operation_xyz
x,y,z
-x,-y,1/2+z
-x,y,z
x,-y,1/2+z
loop_
_atom_site_type_symbol
_atom_site_label
_atom_site_fract_x
_atom_site_fract_y
_atom_site_fract_z
Si Si1 0.172395 0.719437 0.039800
Si Si2 0.324773 0.092086 0.407350
Si Si3 0.324734 0.235426 0.189605
Si Si4 0.827562 0.426858 0.317991
Si Si5 0.677791 0.655476 0.271580
Si Si6 0.322323 0.157161 0.944254
O O1 0.262572 0.671050 0.145152
O O2 0.000000 0.734877 0.073047
O O3 0.238355 0.838820 0.003794
O O4 0.194124 0.631518 0.938951
O O5 0.500000 0.098799 0.436518
O O6 0.290259 0.139611 0.282092
O O7 0.263335 0.965823 0.411780
O O8 0.500000 0.264144 0.185585
O O9 0.237468 0.348718 0.218455
O O10 0.263402 0.191362 0.069058
O O11 0.737337 0.541212 0.324496
O O12 0.000000 0.451300 0.289744
O O13 0.500000 0.651957 0.269092
O O14 0.738210 0.755939 0.350812
O O15 0.500000 0.156823 0.944675
#
# Coordination Sequence:
#
# PCOD8167710 Si02
#       6
#     4   4   4   4   4   4
#     4  10  22  40  59  83 117 154 191 233 286 344
#     4   9  18  35  61  86 113 149 189 233 285 339
#     4   9  18  35  59  86 114 147 188 232 283 341
#     4  10  22  40  59  81 114 151 191 236 288 343
#     4  11  23  37  59  88 117 148 192 240 285 340
#     4   9  20  35  57  90 117 143 187 240 285 331
#
# _framework density 19.131630999999999
#
# number of rings (size 3 to 8) (size 9 to 14) (size 15 to 20)
#    0.000    2.333    0.000    1.500    4.667    2.000 
#    0.000    3.333    0.000    0.000    0.000    0.000 
#    0.000    0.000    0.000    0.000    0.000    0.000 
#
# Total GULP energy -297689.293645 kJ/mol
# GULP energy per Si atom -12403.720569 kJ/mol
# Density = 1.908809 g / cm^3
# Si number density = 19.131631 Si / 1000 Ang^3
#
#
#
# Elastic Constant Matrix: (Units=GPa)
#
#
# Indices 1 2 3 4 5 6 
#
# 1 74.7860 51.9260 36.5530 0.0000 0.0000 0.0000
# 2 51.9260 157.9437 46.6650 0.0000 0.0000 0.0000
# 3 36.5530 46.6650 86.1957 0.0000 0.0000 0.0000
# 4 0.0000 0.0000 0.0000 22.1194 0.0000 0.0000
# 5 0.0000 0.0000 0.0000 0.0000 21.3669 0.0000
# 6 0.0000 0.0000 0.0000 0.0000 0.0000 11.9106
#
#
#
# Elastic Compliance Matrix: (Units=1/GPa)
#
#
# Indices 1 2 3 4 5 6 
#
# 1 0.019417 -0.004703 -0.005688 0.000000 0.000000 0.000000
# 2 -0.004703 0.008676 -0.002703 0.000000 0.000000 0.000000
# 3 -0.005688 -0.002703 0.015477 0.000000 0.000000 0.000000
# 4 0.000000 0.000000 0.000000 0.045209 0.000000 0.000000
# 5 0.000000 0.000000 0.000000 0.000000 0.046801 0.000000
# 6 0.000000 0.000000 0.000000 0.000000 0.000000 0.083959
#
#
# Mechanical properties :
#
#
# Convention : Reuss Voigt Hill
#
# Bulk Modulus (GPa) = 57.52931 65.46815 61.49873
# Shear Modulus (GPa) = 19.87905 23.33147 21.60526
#
# Velocity S-wave (km/s) = 3.22695 3.49596 3.36414
# Velocity P-wave (km/s) = 6.63474 7.11265 6.87785
#
# Compressibility (1/GPa) = 0.01738244
#
# Stress axis : x y z
#
# Youngs Moduli (GPa) = 51.50109 115.25958 64.61289
#
# Poissons Ratio (x) = 0.54207 0.36752
# Poissons Ratio (y) = 0.24221 0.17463
# Poissons Ratio (z) = 0.29294 0.31151
#
# Static dielectric constant tensor:
#      x y z
#    x 3.374370 0.000000 0.000000 
#    y 0.000000 3.737790 0.000000 
#    z 0.000000 0.000000 3.549550 
# 
# 
# High freq. dielectric constant tensor:
#      x y z
#    x 1.729070 0.000000 0.000000 
#    y 0.000000 1.754330 0.000000 
#    z 0.000000 0.000000 1.749570 
# 
# From -- ./inp_files/2797.got.cif
#   From: 2010.03.12/outbox.cif.g09.slc.cpg/sg26_2_cif.got.tgz:2797.got - 2010.04.14 03:33:09.
