data_PCOD8167727
_publ_section_title
;
Structure prediction by ZEFSAII (Michael W. Deem and Ramdas Pophale) SiO2 
 PCOD8167727
Probable space group: P M C 21
;
_chemical_formula_sum "Si O2"
_cell_formula_units_Z 24
_cell_length_a 8.541699
_cell_length_b 11.816982
_cell_length_c 11.727661
_cell_angle_alpha 90.000000
_cell_angle_beta 90.000000
_cell_angle_gamma 90.000000
_cell_volume 1183.756130
_symmetry_space_group_name_H-M "P M C 21"
_symmetry_group_IT_number 26
_symmetry_cell_setting 'orthorhombic'
loop_
_space_group_symop_operation_xyz
x,y,z
-x,-y,1/2+z
-x,y,z
x,-y,1/2+z
loop_
_atom_site_type_symbol
_atom_site_label
_atom_site_fract_x
_atom_site_fract_y
_atom_site_fract_z
Si Si1 0.680742 0.772047 0.353350
Si Si2 0.817283 0.918206 0.165454
Si Si3 0.820671 0.568342 0.223229
Si Si4 0.818353 0.833566 0.590769
Si Si5 0.179055 0.285609 0.505286
Si Si6 0.321051 0.331261 0.267794
O O1 0.500000 0.741840 0.337302
O O2 0.723407 0.881729 0.278084
O O3 0.782470 0.664669 0.315279
O O4 0.714339 0.797703 0.484331
O O5 0.778252 0.835005 0.060685
O O6 0.000000 0.912260 0.196268
O O7 0.763036 0.043099 0.131743
O O8 0.792365 0.615160 0.096477
O O9 0.709718 0.462022 0.241405
O O10 0.000000 0.531613 0.241502
O O11 0.792465 0.746156 0.692868
O O12 0.000000 0.834723 0.555748
O O13 0.292740 0.306495 0.400296
O O14 0.000000 0.286675 0.462799
O O15 0.500000 0.303176 0.238245
#
# Coordination Sequence:
#
# PCOD8167727 Si02
#       6
#     4   4   4   4   4   4
#     4  11  23  40  64  95 129 160 199 258 320 367
#     4   9  21  42  67  91 119 164 214 253 297 365
#     4  10  22  43  68  90 119 165 214 252 300 372
#     4  11  24  42  65  91 124 167 214 254 296 366
#     4   9  20  41  66  91 118 158 210 257 303 364
#     4  12  26  40  60  94 131 162 201 258 318 364
#
# _framework density 20.274448
#
# number of rings (size 3 to 8) (size 9 to 14) (size 15 to 20)
#    0.000    1.667    0.000    5.000    4.667    4.667 
#    0.000    0.000    0.000    0.000    0.000    0.000 
#    0.000    0.000    0.000    0.000    0.000    0.000 
#
# Total GULP energy -297770.910412 kJ/mol
# GULP energy per Si atom -12407.121267 kJ/mol
# Density = 2.022830 g / cm^3
# Si number density = 20.274448 Si / 1000 Ang^3
#
#
#
# Elastic Constant Matrix: (Units=GPa)
#
#
# Indices 1 2 3 4 5 6 
#
# 1 66.3474 11.6196 27.5321 0.0000 0.0000 0.0000
# 2 11.6196 110.0872 47.2726 0.0000 0.0000 0.0000
# 3 27.5321 47.2726 111.0771 0.0000 0.0000 0.0000
# 4 0.0000 0.0000 0.0000 20.4403 0.0000 0.0000
# 5 0.0000 0.0000 0.0000 0.0000 28.4901 0.0000
# 6 0.0000 0.0000 0.0000 0.0000 0.0000 22.8889
#
#
#
# Elastic Compliance Matrix: (Units=1/GPa)
#
#
# Indices 1 2 3 4 5 6 
#
# 1 0.016800 0.000018 -0.004172 0.000000 0.000000 0.000000
# 2 0.000018 0.011115 -0.004735 0.000000 0.000000 0.000000
# 3 -0.004172 -0.004735 0.012052 0.000000 0.000000 0.000000
# 4 0.000000 0.000000 0.000000 0.048923 0.000000 0.000000
# 5 0.000000 0.000000 0.000000 0.000000 0.035100 0.000000
# 6 0.000000 0.000000 0.000000 0.000000 0.000000 0.043689
#
#
# Mechanical properties :
#
#
# Convention : Reuss Voigt Hill
#
# Bulk Modulus (GPa) = 45.06543 51.15113 48.10828
# Shear Modulus (GPa) = 25.92649 27.76970 26.84810
#
# Velocity S-wave (km/s) = 3.57988 3.70495 3.64295
# Velocity P-wave (km/s) = 6.27402 6.60199 6.44009
#
# Compressibility (1/GPa) = 0.02218996
#
# Stress axis : x y z
#
# Youngs Moduli (GPa) = 59.52301 89.96864 82.97436
#
# Poissons Ratio (x) = -0.00164 0.34616
# Poissons Ratio (y) = -0.00109 0.39287
# Poissons Ratio (z) = 0.24833 0.42599
#
# Static dielectric constant tensor:
#      x y z
#    x 3.544000 0.000000 0.000000 
#    y 0.000000 3.763860 0.000000 
#    z 0.000000 0.000000 3.582920 
# 
# 
# High freq. dielectric constant tensor:
#      x y z
#    x 1.790420 0.000000 0.000000 
#    y 0.000000 1.799240 0.000000 
#    z 0.000000 0.000000 1.795970 
# 
# From -- ./inp_files/2809.got.cif
#   From: 2010.03.12/outbox.cif.g09.slc.cpg/sg26_2_cif.got.tgz:2809.got - 2010.04.14 03:33:09.
