data_PCOD8167640
_publ_section_title
;
Structure prediction by ZEFSAII (Michael W. Deem and Ramdas Pophale) SiO2 
 PCOD8167640
Probable space group: P M C 21
;
_chemical_formula_sum "Si O2"
_cell_formula_units_Z 32
_cell_length_a 8.922791
_cell_length_b 12.131746
_cell_length_c 14.784013
_cell_angle_alpha 90.000000
_cell_angle_beta 90.000000
_cell_angle_gamma 90.000000
_cell_volume 1600.355126
_symmetry_space_group_name_H-M "P M C 21"
_symmetry_group_IT_number 26
_symmetry_cell_setting 'orthorhombic'
loop_
_space_group_symop_operation_xyz
x,y,z
-x,-y,1/2+z
-x,y,z
x,-y,1/2+z
loop_
_atom_site_type_symbol
_atom_site_label
_atom_site_fract_x
_atom_site_fract_y
_atom_site_fract_z
Si Si1 0.326551 0.376752 0.473760
Si Si2 0.324609 0.227544 0.639398
Si Si3 0.174789 0.223109 0.336929
Si Si4 0.822528 0.780312 0.330948
Si Si5 0.173844 0.228659 0.126814
Si Si6 0.674825 0.633579 0.478155
Si Si7 0.667074 0.996822 0.840033
Si Si8 0.665358 0.986889 0.625814
O O1 0.500000 0.352841 0.453142
O O2 0.278885 0.321199 0.568380
O O3 0.230484 0.329003 0.391374
O O4 0.290970 0.504672 0.481664
O O5 0.500000 0.231395 0.665637
O O6 0.230315 0.247208 0.729828
O O7 0.286030 0.108943 0.592956
O O8 0.213682 0.243340 0.231950
O O9 0.000000 0.206056 0.350516
O O10 0.254387 0.113813 0.376164
O O11 0.767781 0.682724 0.395260
O O12 0.757581 0.894929 0.370423
O O13 0.000000 0.787984 0.332460
O O14 0.217632 0.105368 0.093212
O O15 0.000000 0.247013 0.105777
O O16 0.271071 0.317495 0.073389
O O17 0.500000 0.658425 0.464247
O O18 0.500000 0.002525 0.881566
O O19 0.661769 0.993869 0.733088
O O20 0.500000 0.955630 0.588937
#
# Coordination Sequence:
#
# PCOD8167640 Si02
#       8
#     4   4   4   4   4   4   4   4
#     4  10  23  41  60  82 110 150 201 245 279 331
#     4   9  19  38  61  86 115 147 186 233 283 336
#     4  10  21  37  59  88 122 153 183 230 289 343
#     4  11  22  37  59  87 118 150 185 232 291 347
#     4  10  21  37  57  83 116 150 185 231 285 340
#     4  11  24  41  59  80 109 150 200 246 284 332
#     4   9  17  33  58  86 117 151 188 229 275 337
#     4   8  15  30  55  84 113 145 180 222 276 338
#
# _framework density 19.995563000000001
#
# number of rings (size 3 to 8) (size 9 to 14) (size 15 to 20)
#    0.000    2.250    0.000    3.375    0.000    8.000 
#    0.000    7.500    0.000    0.000    0.000    0.000 
#    0.000    0.000    0.000    0.000    0.000    0.000 
#
# Total GULP energy -396847.028604 kJ/mol
# GULP energy per Si atom -12401.469644 kJ/mol
# Density = 1.995005 g / cm^3
# Si number density = 19.995563 Si / 1000 Ang^3
#
#
#
# Elastic Constant Matrix: (Units=GPa)
#
#
# Indices 1 2 3 4 5 6 
#
# 1 123.2914 68.9466 54.6086 0.0000 0.0000 0.0000
# 2 68.9466 147.7485 61.3045 0.0000 0.0000 0.0000
# 3 54.6086 61.3045 86.5271 0.0000 0.0000 0.0000
# 4 0.0000 0.0000 0.0000 44.4186 0.0000 0.0000
# 5 0.0000 0.0000 0.0000 0.0000 28.2355 0.0000
# 6 0.0000 0.0000 0.0000 0.0000 0.0000 21.8930
#
#
#
# Elastic Compliance Matrix: (Units=1/GPa)
#
#
# Indices 1 2 3 4 5 6 
#
# 1 0.012492 -0.003623 -0.005317 0.000000 0.000000 0.000000
# 2 -0.003623 0.010637 -0.005250 0.000000 0.000000 0.000000
# 3 -0.005317 -0.005250 0.018632 0.000000 0.000000 0.000000
# 4 0.000000 0.000000 0.000000 0.022513 0.000000 0.000000
# 5 0.000000 0.000000 0.000000 0.000000 0.035416 0.000000
# 6 0.000000 0.000000 0.000000 0.000000 0.000000 0.045677
#
#
# Mechanical properties :
#
#
# Convention : Reuss Voigt Hill
#
# Bulk Modulus (GPa) = 74.72959 80.80961 77.76960
# Shear Modulus (GPa) = 28.05708 30.42322 29.24015
#
# Velocity S-wave (km/s) = 3.74995 3.90487 3.82819
# Velocity P-wave (km/s) = 7.49691 7.79950 7.64970
#
# Compressibility (1/GPa) = 0.01338158
#
# Stress axis : x y z
#
# Youngs Moduli (GPa) = 80.05113 94.00817 53.67082
#
# Poissons Ratio (x) = 0.34062 0.28536
# Poissons Ratio (y) = 0.29005 0.28176
# Poissons Ratio (z) = 0.42561 0.49353
#
# Static dielectric constant tensor:
#      x y z
#    x 3.659300 0.000000 0.000000 
#    y 0.000000 3.756010 0.000000 
#    z 0.000000 0.000000 3.469330 
# 
# 
# High freq. dielectric constant tensor:
#      x y z
#    x 1.781180 0.000000 0.000000 
#    y 0.000000 1.781450 0.000000 
#    z 0.000000 0.000000 1.775720 
# 
# From -- ./inp_files/4242.got.cif
#   From: 2010.03.12/outbox.cif.g09.slc.cpg/sg26_3_cif.got.tgz:4242.got - 2010.04.14 03:33:09.
