data_PCOD8167598
_publ_section_title
;
Structure prediction by ZEFSAII (Michael W. Deem and Ramdas Pophale) SiO2 
 PCOD8167598
Probable space group: P M C 21
;
_chemical_formula_sum "Si O2"
_cell_formula_units_Z 32
_cell_length_a 8.770858
_cell_length_b 11.934014
_cell_length_c 15.195287
_cell_angle_alpha 90.000000
_cell_angle_beta 90.000000
_cell_angle_gamma 90.000000
_cell_volume 1590.514124
_symmetry_space_group_name_H-M "P M C 21"
_symmetry_group_IT_number 26
_symmetry_cell_setting 'orthorhombic'
loop_
_space_group_symop_operation_xyz
x,y,z
-x,-y,1/2+z
-x,y,z
x,-y,1/2+z
loop_
_atom_site_type_symbol
_atom_site_label
_atom_site_fract_x
_atom_site_fract_y
_atom_site_fract_z
Si Si1 0.680028 0.140438 0.164060
Si Si2 0.827777 0.478817 0.495236
Si Si3 0.821560 0.615879 0.668601
Si Si4 0.178397 0.014158 0.808679
Si Si5 0.177020 0.000161 0.007495
Si Si6 0.326144 0.233842 0.745503
Si Si7 0.675795 0.529014 0.318073
Si Si8 0.170795 0.245116 0.571833
O O1 0.500000 0.136607 0.166908
O O2 0.733551 0.267919 0.160238
O O3 0.741044 0.082977 0.252914
O O4 0.733155 0.075963 0.076601
O O5 0.777758 0.538199 0.585845
O O6 0.710734 0.511823 0.419997
O O7 0.817231 0.344900 0.502194
O O8 0.000000 0.515361 0.470281
O O9 0.776859 0.551427 0.757525
O O10 0.000000 0.641483 0.672142
O O11 0.211303 0.133975 0.766459
O O12 0.000000 0.988148 0.805809
O O13 0.238429 0.020380 0.908832
O O14 0.207637 0.870075 0.023626
O O15 0.000000 0.032179 0.016257
O O16 0.500000 0.194227 0.758658
O O17 0.285829 0.340901 0.803748
O O18 0.297616 0.268041 0.645065
O O19 0.500000 0.502965 0.297566
O O20 0.000000 0.243010 0.613117
#
# Coordination Sequence:
#
# PCOD8167598 Si02
#       8
#     4   4   4   4   4   4   4   4
#     4  12  26  43  64  94 132 168 206 259 325 381
#     4  10  23  41  66  96 123 164 216 263 312 374
#     4  11  24  44  67  92 126 170 219 262 309 374
#     4  11  24  42  66  94 126 167 215 263 309 370
#     4  10  23  42  66  95 125 165 214 260 310 372
#     4  11  23  40  63  93 127 165 207 257 319 377
#     4  11  25  42  63  95 132 168 207 261 323 377
#     4  10  20  40  67  93 121 159 210 265 315 367
#
# _framework density 20.119281000000001
#
# number of rings (size 3 to 8) (size 9 to 14) (size 15 to 20)
#    0.000    1.250    2.500    2.625    3.500    4.000 
#    0.000    0.000    0.000    0.000    0.000    0.000 
#    0.000    0.000    0.000    0.000    0.000    0.000 
#
# Total GULP energy -396925.889556 kJ/mol
# GULP energy per Si atom -12403.934049 kJ/mol
# Density = 2.007349 g / cm^3
# Si number density = 20.119281 Si / 1000 Ang^3
#
#
#
# Elastic Constant Matrix: (Units=GPa)
#
#
# Indices 1 2 3 4 5 6 
#
# 1 75.9508 35.3641 34.8903 0.0000 0.0000 0.0000
# 2 35.3641 98.8296 18.9270 0.0000 0.0000 0.0000
# 3 34.8903 18.9270 91.8928 0.0000 0.0000 0.0000
# 4 0.0000 0.0000 0.0000 25.6077 0.0000 0.0000
# 5 0.0000 0.0000 0.0000 0.0000 299.1093 0.0000
# 6 0.0000 0.0000 0.0000 0.0000 0.0000 29.1825
#
#
#
# Elastic Compliance Matrix: (Units=1/GPa)
#
#
# Indices 1 2 3 4 5 6 
#
# 1 0.018403 -0.005462 -0.005862 0.000000 0.000000 0.000000
# 2 -0.005462 0.012155 -0.000430 0.000000 0.000000 0.000000
# 3 -0.005862 -0.000430 0.013197 0.000000 0.000000 0.000000
# 4 0.000000 0.000000 0.000000 0.039051 0.000000 0.000000
# 5 0.000000 0.000000 0.000000 0.000000 0.003343 0.000000
# 6 0.000000 0.000000 0.000000 0.000000 0.000000 0.034267
#
#
# Mechanical properties :
#
#
# Convention : Reuss Voigt Hill
#
# Bulk Modulus (GPa) = 49.39191 49.44845 49.42018
# Shear Modulus (GPa) = 33.18446 82.61268 57.89857
#
# Velocity S-wave (km/s) = 4.06567 6.41487 5.37030
# Velocity P-wave (km/s) = 6.82952 8.91619 7.94169
#
# Compressibility (1/GPa) = 0.02024623
#
# Stress axis : x y z
#
# Youngs Moduli (GPa) = 54.33960 82.26859 75.77752
#
# Poissons Ratio (x) = 0.44938 0.44422
# Poissons Ratio (y) = 0.29682 0.03256
# Poissons Ratio (z) = 0.31855 0.03534
#
# Static dielectric constant tensor:
#      x y z
#    x 2.405760 0.000000 0.000000 
#    y 0.000000 3.744880 0.000000 
#    z 0.000000 0.000000 3.779930 
# 
# 
# High freq. dielectric constant tensor:
#      x y z
#    x 1.785650 0.000000 0.000000 
#    y 0.000000 1.799340 0.000000 
#    z 0.000000 0.000000 1.790150 
# 
# From -- ./inp_files/4255.got.cif
#   From: 2010.03.12/outbox.cif.g09.slc.cpg/sg26_3_cif.got.tgz:4255.got - 2010.04.14 03:33:09.
