data_PCOD8167563
_publ_section_title
;
Structure prediction by ZEFSAII (Michael W. Deem and Ramdas Pophale) SiO2 
 PCOD8167563
Probable space group: P M C 21
;
_chemical_formula_sum "Si O2"
_cell_formula_units_Z 24
_cell_length_a 8.581708
_cell_length_b 9.469411
_cell_length_c 15.079288
_cell_angle_alpha 90.000000
_cell_angle_beta 90.000000
_cell_angle_gamma 90.000000
_cell_volume 1225.399040
_symmetry_space_group_name_H-M "P M C 21"
_symmetry_group_IT_number 26
_symmetry_cell_setting 'orthorhombic'
loop_
_space_group_symop_operation_xyz
x,y,z
-x,-y,1/2+z
-x,y,z
x,-y,1/2+z
loop_
_atom_site_type_symbol
_atom_site_label
_atom_site_fract_x
_atom_site_fract_y
_atom_site_fract_z
Si Si1 0.817281 0.663365 0.240060
Si Si2 0.320549 0.160827 0.588144
Si Si3 0.682400 0.845948 0.395231
Si Si4 0.321519 0.165405 0.384250
Si Si5 0.183771 0.144464 0.081018
Si Si6 0.817977 0.653447 0.734516
O O1 0.786480 0.737385 0.146343
O O2 0.722636 0.740821 0.316831
O O3 0.749256 0.504621 0.235378
O O4 0.000000 0.668521 0.262138
O O5 0.500000 0.176804 0.616888
O O6 0.295218 0.205632 0.486559
O O7 0.272000 0.999741 0.603117
O O8 0.500000 0.842606 0.417789
O O9 0.775577 0.799612 0.483032
O O10 0.731970 0.004261 0.367083
O O11 0.500000 0.186056 0.356111
O O12 0.217119 0.269149 0.326562
O O13 0.248703 0.258965 0.151183
O O14 0.000000 0.119596 0.090319
O O15 0.000000 0.640039 0.722103
#
# Coordination Sequence:
#
# PCOD8167563 Si02
#       6
#     4   4   4   4   4   4
#     4  11  23  38  55  80 113 150 186 226 276 331
#     4  10  21  38  58  84 113 144 185 233 277 326
#     4  10  21  38  59  85 112 142 183 233 280 330
#     4   9  20  37  58  82 109 140 180 227 276 326
#     4  10  20  37  60  85 111 145 186 230 277 329
#     4  10  23  38  54  80 114 147 184 227 274 328
#
# _framework density 19.585457999999999
#
# number of rings (size 3 to 8) (size 9 to 14) (size 15 to 20)
#    0.000    2.000    0.000    4.000    0.000   10.667 
#    0.000    5.000    0.000    0.000    0.000    0.000 
#    0.000    0.000    0.000    0.000    0.000    0.000 
#
# Total GULP energy -297698.206499 kJ/mol
# GULP energy per Si atom -12404.091937 kJ/mol
# Density = 1.954088 g / cm^3
# Si number density = 19.585458 Si / 1000 Ang^3
#
#
#
# Elastic Constant Matrix: (Units=GPa)
#
#
# Indices 1 2 3 4 5 6 
#
# 1 30.5858 11.2533 11.8096 0.0000 0.0000 0.0000
# 2 11.2533 120.2639 70.8449 0.0000 0.0000 0.0000
# 3 11.8096 70.8449 109.3395 0.0000 0.0000 0.0000
# 4 0.0000 0.0000 0.0000 4.8742 0.0000 0.0000
# 5 0.0000 0.0000 0.0000 0.0000 35.2848 0.0000
# 6 0.0000 0.0000 0.0000 0.0000 0.0000 20.6912
#
#
#
# Elastic Compliance Matrix: (Units=1/GPa)
#
#
# Indices 1 2 3 4 5 6 
#
# 1 0.034322 -0.001662 -0.002630 0.000000 0.000000 0.000000
# 2 -0.001662 0.013528 -0.008586 0.000000 0.000000 0.000000
# 3 -0.002630 -0.008586 0.014993 0.000000 0.000000 0.000000
# 4 0.000000 0.000000 0.000000 0.205164 0.000000 0.000000
# 5 0.000000 0.000000 0.000000 0.000000 0.028341 0.000000
# 6 0.000000 0.000000 0.000000 0.000000 0.000000 0.048330
#
#
# Mechanical properties :
#
#
# Convention : Reuss Voigt Hill
#
# Bulk Modulus (GPa) = 26.96370 49.77832 38.37101
# Shear Modulus (GPa) = 13.06177 23.25546 18.15862
#
# Velocity S-wave (km/s) = 2.58527 3.44958 3.04821
# Velocity P-wave (km/s) = 4.76535 6.42941 5.65888
#
# Compressibility (1/GPa) = 0.03708689
#
# Stress axis : x y z
#
# Youngs Moduli (GPa) = 29.13582 73.91846 66.69744
#
# Poissons Ratio (x) = 0.12287 0.17542
# Poissons Ratio (y) = 0.04843 0.57266
# Poissons Ratio (z) = 0.07663 0.63466
#
# Static dielectric constant tensor:
#      x y z
#    x 3.485780 0.000000 0.000000 
#    y 0.000000 3.702960 0.000000 
#    z 0.000000 0.000000 3.642060 
# 
# 
# High freq. dielectric constant tensor:
#      x y z
#    x 1.762530 0.000000 0.000000 
#    y 0.000000 1.759990 0.000000 
#    z 0.000000 0.000000 1.772990 
# 
# From -- ./inp_files/3913.got.cif
#   From: 2010.03.12/outbox.cif.g09.slc.cpg/sg26_2_cif.got.tgz:3913.got - 2010.04.14 03:33:09.
