data_PCOD8167216
_publ_section_title
;
Structure prediction by ZEFSAII (Michael W. Deem and Ramdas Pophale) SiO2 
 PCOD8167216
Probable space group: P M C 21
;
_chemical_formula_sum "Si O2"
_cell_formula_units_Z 24
_cell_length_a 8.601678
_cell_length_b 9.270293
_cell_length_c 16.772851
_cell_angle_alpha 90.000000
_cell_angle_beta 90.000000
_cell_angle_gamma 90.000000
_cell_volume 1337.468403
_symmetry_space_group_name_H-M "P M C 21"
_symmetry_group_IT_number 26
_symmetry_cell_setting 'orthorhombic'
loop_
_space_group_symop_operation_xyz
x,y,z
-x,-y,1/2+z
-x,y,z
x,-y,1/2+z
loop_
_atom_site_type_symbol
_atom_site_label
_atom_site_fract_x
_atom_site_fract_y
_atom_site_fract_z
Si Si1 0.316085 0.327114 0.757650
Si Si2 0.820829 0.190755 0.429095
Si Si3 0.817297 0.832991 0.106605
Si Si4 0.683722 0.649617 0.781031
Si Si5 0.320433 0.086271 0.185324
Si Si6 0.179173 0.071829 0.828392
O O1 0.500000 0.321677 0.768622
O O2 0.270476 0.265255 0.671006
O O3 0.252120 0.490040 0.764652
O O4 0.232918 0.239285 0.830687
O O5 0.759820 0.215423 0.518840
O O6 0.733821 0.294769 0.367904
O O7 0.000000 0.232453 0.422620
O O8 0.798285 0.019408 0.409247
O O9 0.000000 0.811476 0.116263
O O10 0.776712 0.004070 0.116637
O O11 0.500000 0.652962 0.780006
O O12 0.743089 0.753616 0.708480
O O13 0.500000 0.089448 0.159843
O O14 0.298684 0.993130 0.264822
O O15 0.000000 0.062004 0.799005
#
# Coordination Sequence:
#
# PCOD8167216 Si02
#       6
#     4   4   4   4   4   4
#     4  10  19  32  49  72  99 128 159 195 235 283
#     4   9  19  33  50  71  96 123 158 200 241 281
#     4  10  19  32  49  72  97 124 158 198 239 283
#     4   9  19  33  50  71  97 126 160 196 235 282
#     4   9  16  29  48  69  90 119 156 192 228 275
#     4   9  16  29  48  69  91 120 155 193 232 276
#
# _framework density 17.944351000000001
#
# number of rings (size 3 to 8) (size 9 to 14) (size 15 to 20)
#    0.000    2.667    0.000    4.000    0.000    4.000 
#    0.000    1.667    0.000    8.000    0.000    0.000 
#    0.000    0.000    0.000    0.000    0.000    0.000 
#
# Total GULP energy -297316.111703 kJ/mol
# GULP energy per Si atom -12388.171321 kJ/mol
# Density = 1.790351 g / cm^3
# Si number density = 17.944351 Si / 1000 Ang^3
#
#
#
# Elastic Constant Matrix: (Units=GPa)
#
#
# Indices 1 2 3 4 5 6 
#
# 1 32.5048 22.3863 13.2177 0.0000 0.0000 0.0000
# 2 22.3863 144.8079 43.8715 0.0000 0.0000 0.0000
# 3 13.2177 43.8715 78.7362 0.0000 0.0000 0.0000
# 4 0.0000 0.0000 0.0000 19.7256 0.0000 0.0000
# 5 0.0000 0.0000 0.0000 0.0000 18.3923 0.0000
# 6 0.0000 0.0000 0.0000 0.0000 0.0000 21.2736
#
#
#
# Elastic Compliance Matrix: (Units=1/GPa)
#
#
# Indices 1 2 3 4 5 6 
#
# 1 0.035197 -0.004393 -0.003461 0.000000 0.000000 0.000000
# 2 -0.004393 0.008856 -0.004197 0.000000 0.000000 0.000000
# 3 -0.003461 -0.004197 0.015620 0.000000 0.000000 0.000000
# 4 0.000000 0.000000 0.000000 0.050696 0.000000 0.000000
# 5 0.000000 0.000000 0.000000 0.000000 0.054371 0.000000
# 6 0.000000 0.000000 0.000000 0.000000 0.000000 0.047007
#
#
# Mechanical properties :
#
#
# Convention : Reuss Voigt Hill
#
# Bulk Modulus (GPa) = 28.11203 46.11111 37.11157
# Shear Modulus (GPa) = 20.18515 23.64984 21.91750
#
# Velocity S-wave (km/s) = 3.35755 3.63430 3.49867
# Velocity P-wave (km/s) = 5.54357 6.58509 6.08665
#
# Compressibility (1/GPa) = 0.03557196
#
# Stress axis : x y z
#
# Youngs Moduli (GPa) = 28.41115 112.91235 64.01878
#
# Poissons Ratio (x) = 0.49599 0.22158
# Poissons Ratio (y) = 0.12480 0.26871
# Poissons Ratio (z) = 0.09833 0.47393
#
# Static dielectric constant tensor:
#      x y z
#    x 3.239770 0.000000 0.000000 
#    y 0.000000 3.870720 0.000000 
#    z 0.000000 0.000000 3.267900 
# 
# 
# High freq. dielectric constant tensor:
#      x y z
#    x 1.697390 0.000000 0.000000 
#    y 0.000000 1.693020 0.000000 
#    z 0.000000 0.000000 1.666920 
# 
# From -- ./inp_files/4870.got.cif
#   From: 2010.03.12/outbox.cif.g09.slc.cpg/sg26_3_cif.got.tgz:4870.got - 2010.04.14 03:33:09.
