data_PCOD8167122
_publ_section_title
;
Structure prediction by ZEFSAII (Michael W. Deem and Ramdas Pophale) SiO2 
 PCOD8167122
Probable space group: P M C 21
;
_chemical_formula_sum "Si O2"
_cell_formula_units_Z 18
_cell_length_a 15.498887
_cell_length_b 15.257419
_cell_length_c 5.063024
_cell_angle_alpha 90.000000
_cell_angle_beta 90.000000
_cell_angle_gamma 90.000000
_cell_volume 1197.268540
_symmetry_space_group_name_H-M "P M C 21"
_symmetry_group_IT_number 26
_symmetry_cell_setting 'orthorhombic'
loop_
_space_group_symop_operation_xyz
x,y,z
-x,-y,1/2+z
-x,y,z
x,-y,1/2+z
loop_
_atom_site_type_symbol
_atom_site_label
_atom_site_fract_x
_atom_site_fract_y
_atom_site_fract_z
Si Si1 0.500000 0.557865 0.552470
Si Si2 0.813888 0.060345 0.541875
Si Si3 0.500000 0.943334 0.942784
Si Si4 0.000000 0.054201 0.446174
Si Si5 0.403811 0.723699 0.472538
Si Si6 0.657436 0.184902 0.474359
O O1 0.500000 0.477687 0.349743
O O2 0.414692 0.618591 0.511352
O O3 0.750098 0.141320 0.509921
O O4 0.910253 0.103228 0.516680
O O5 0.799007 0.014970 0.823968
O O6 0.414405 0.889102 0.999922
O O7 0.500000 0.974471 0.640428
O O8 0.000000 0.967665 0.634786
O O9 0.500000 0.767409 0.485243
O O10 0.344327 0.766229 0.695481
O O11 0.358496 0.741193 0.194334
#
# Coordination Sequence:
#
# PCOD8167122 Si02
#       6
#     2   4   2   2   4   4
#     4  10  18  32  50  66  82 112 150 172 202 256
#     4  10  19  31  45  63  82 116 157 193 225 253
#     4  12  20  26  36  52  76 112 150 180 194 226
#     4   8  16  30  46  60  80 104 148 200 234 256
#     4  10  20  32  45  61  86 116 140 167 221 249
#     4  12  19  32  41  59  88 117 146 178 214 265
#
# _framework density 15.034219999999999
#
# number of rings (size 3 to 8) (size 9 to 14) (size 15 to 20)
#    0.667    0.889    2.222    5.333    0.000    0.000 
#    0.000    0.000    0.000    0.000    0.000    0.000 
#    0.000    0.000    0.000   20.000    0.000    0.000 
#
# Total GULP energy -223125.886601 kJ/mol
# GULP energy per Si atom -12395.882589 kJ/mol
# Density = 1.500000 g / cm^3
# Si number density = 15.034220 Si / 1000 Ang^3
#
#
#
# Elastic Constant Matrix: (Units=GPa)
#
#
# Indices 1 2 3 4 5 6 
#
# 1 90.3027 24.6762 2.8236 0.0000 0.0000 0.0000
# 2 24.6762 49.2587 3.2586 0.0000 0.0000 0.0000
# 3 2.8236 3.2586 64.1142 0.0000 0.0000 0.0000
# 4 0.0000 0.0000 0.0000 30.7151 0.0000 0.0000
# 5 0.0000 0.0000 0.0000 0.0000 17.7114 0.0000
# 6 0.0000 0.0000 0.0000 0.0000 0.0000 12.0121
#
#
#
# Elastic Compliance Matrix: (Units=1/GPa)
#
#
# Indices 1 2 3 4 5 6 
#
# 1 0.012834 -0.006413 -0.000239 0.000000 0.000000 0.000000
# 2 -0.006413 0.023574 -0.000916 0.000000 0.000000 0.000000
# 3 -0.000239 -0.000916 0.015654 0.000000 0.000000 0.000000
# 4 0.000000 0.000000 0.000000 0.032557 0.000000 0.000000
# 5 0.000000 0.000000 0.000000 0.000000 0.056461 0.000000
# 6 0.000000 0.000000 0.000000 0.000000 0.000000 0.083249
#
#
# Mechanical properties :
#
#
# Convention : Reuss Voigt Hill
#
# Bulk Modulus (GPa) = 27.08129 29.46582 28.27356
# Shear Modulus (GPa) = 19.85899 23.61552 21.73726
#
# Velocity S-wave (km/s) = 3.63839 3.96761 3.80656
# Velocity P-wave (km/s) = 5.97517 6.37424 6.17793
#
# Compressibility (1/GPa) = 0.03692587
#
# Stress axis : x y z
#
# Youngs Moduli (GPa) = 77.91895 42.41904 63.88042
#
# Poissons Ratio (x) = 0.27205 0.01528
# Poissons Ratio (y) = 0.49972 0.05850
# Poissons Ratio (z) = 0.01864 0.03884
#
# Static dielectric constant tensor:
#      x y z
#    x 2.994980 0.000000 0.000000 
#    y 0.000000 2.574690 0.000000 
#    z 0.000000 0.000000 3.046880 
# 
# 
# High freq. dielectric constant tensor:
#      x y z
#    x 1.557600 0.000000 0.000000 
#    y 0.000000 1.533920 0.000000 
#    z 0.000000 0.000000 1.602970 
# 
# From -- ./inp_files/559.got.cif
#   From: 2010.03.12/outbox.cif.g09.slc.cpg/sg26_1_cif.got.tgz:559.got - 2010.04.14 03:33:09.
