data_PCOD8167906
_publ_section_title
;
Structure prediction by ZEFSAII (Michael W. Deem and Ramdas Pophale) SiO2 
 PCOD8167906
Probable space group: P C C 2
;
_chemical_formula_sum "Si O2"
_cell_formula_units_Z 30
_cell_length_a 12.111507
_cell_length_b 14.581068
_cell_length_c 8.412913
_cell_angle_alpha 90.000000
_cell_angle_beta 90.000000
_cell_angle_gamma 90.000000
_cell_volume 1485.709559
_symmetry_space_group_name_H-M "P C C 2"
_symmetry_group_IT_number 27
_symmetry_cell_setting 'orthorhombic'
loop_
_space_group_symop_operation_xyz
x,y,z
-x,-y,z
-x,y,1/2+z
x,-y,1/2+z
loop_
_atom_site_type_symbol
_atom_site_label
_atom_site_fract_x
_atom_site_fract_y
_atom_site_fract_z
Si Si1 0.359711 0.419968 0.940260
Si Si2 0.867490 0.085384 0.826392
Si Si3 0.405118 0.389935 0.309851
Si Si4 0.246399 0.249879 0.437058
Si Si5 0.820096 0.289766 0.293878
Si Si6 0.062395 0.630145 0.812795
Si Si7 0.000000 0.500000 0.569882
Si Si8 0.893435 0.109683 0.453035
O O1 0.464114 0.388351 0.835322
O O2 0.344112 0.528742 0.908317
O O3 0.253189 0.364262 0.884586
O O4 0.381541 0.401662 0.124437
O O5 0.762755 0.141595 0.897695
O O6 0.880124 0.098018 0.639700
O O7 0.977106 0.122194 0.915410
O O8 0.846272 0.978851 0.861738
O O9 0.360981 0.292984 0.377795
O O10 0.229270 0.268325 0.621967
O O11 0.151761 0.291029 0.321096
O O12 0.942290 0.329349 0.278498
O O13 0.823122 0.196809 0.396341
O O14 0.088942 0.557531 0.673096
O O15 0.072034 0.571910 0.972924
#
# Coordination Sequence:
#
# PCOD8167906 Si02
#       8
#     4   4   4   4   4   4   2   4
#     4  11  24  42  63  87 119 159 206 252 300 351
#     4  11  22  38  59  86 121 158 198 245 300 359
#     4  11  24  42  63  87 119 159 206 252 300 351
#     4  12  24  38  61  87 120 156 202 247 297 358
#     4  12  24  38  61  87 120 156 202 247 297 358
#     4  11  24  36  53  80 118 156 199 234 293 348
#     4  10  24  38  48  74 120 162 192 238 288 356
#     4  11  22  38  59  86 121 158 198 245 300 359
#
# _framework density 20.192371999999999
#
# number of rings (size 3 to 8) (size 9 to 14) (size 15 to 20)
#    0.000    0.800    2.667    7.200    7.467    0.000 
#    0.000    0.000    0.000    0.800    0.000    5.600 
#    0.000    0.000    0.000    0.000    0.000    0.000 
#
# Total GULP energy -372038.642505 kJ/mol
# GULP energy per Si atom -12401.288083 kJ/mol
# Density = 2.014641 g / cm^3
# Si number density = 20.192372 Si / 1000 Ang^3
#
#
#
# Elastic Constant Matrix: (Units=GPa)
#
#
# Indices 1 2 3 4 5 6 
#
# 1 38.1917 10.4757 -8.2165 0.0000 0.0000 0.0000
# 2 10.4757 91.5002 7.2871 0.0000 0.0000 0.0000
# 3 -8.2165 7.2871 122.7980 0.0000 0.0000 0.0000
# 4 0.0000 0.0000 0.0000 40.6564 0.0000 0.0000
# 5 0.0000 0.0000 0.0000 0.0000 20.9851 0.0000
# 6 0.0000 0.0000 0.0000 0.0000 0.0000 32.1628
#
#
#
# Elastic Compliance Matrix: (Units=1/GPa)
#
#
# Indices 1 2 3 4 5 6 
#
# 1 0.027531 -0.003314 0.002039 0.000000 0.000000 0.000000
# 2 -0.003314 0.011380 -0.000897 0.000000 0.000000 0.000000
# 3 0.002039 -0.000897 0.008333 0.000000 0.000000 0.000000
# 4 0.000000 0.000000 0.000000 0.024596 0.000000 0.000000
# 5 0.000000 0.000000 0.000000 0.000000 0.047653 0.000000
# 6 0.000000 0.000000 0.000000 0.000000 0.000000 0.031092
#
#
# Mechanical properties :
#
#
# Convention : Reuss Voigt Hill
#
# Bulk Modulus (GPa) = 23.31049 30.17582 26.74316
# Shear Modulus (GPa) = 29.54551 34.95709 32.25130
#
# Velocity S-wave (km/s) = 3.82933 4.16529 4.00084
# Velocity P-wave (km/s) = 5.57862 6.17328 5.88347
#
# Compressibility (1/GPa) = 0.04289914
#
# Stress axis : x y z
#
# Youngs Moduli (GPa) = 36.32206 87.87466 120.00326
#
# Poissons Ratio (x) = 0.29125 -0.24467
# Poissons Ratio (y) = 0.12039 0.10765
# Poissons Ratio (z) = -0.07405 0.07883
#
# Static dielectric constant tensor:
#      x y z
#    x 3.519480 0.000000 0.000000 
#    y 0.000000 4.027260 0.000000 
#    z 0.000000 0.000000 3.921450 
# 
# 
# High freq. dielectric constant tensor:
#      x y z
#    x 1.748030 0.000000 0.000000 
#    y 0.000000 1.794400 0.000000 
#    z 0.000000 0.000000 1.816930 
# 
# From -- ./inp_files/1461.got.cif
#   From: 2010.03.12/outbox.cif.g09.slc.cpg/sg27_1_cif.got.tgz:1461.got - 2010.04.14 03:36:05.
