data_PCOD8167409
_publ_section_title
;
Structure prediction by ZEFSAII (Michael W. Deem and Ramdas Pophale) SiO2 
 PCOD8167409
Probable space group: P M C 21
;
_chemical_formula_sum "Si O2"
_cell_formula_units_Z 32
_cell_length_a 9.169326
_cell_length_b 11.973576
_cell_length_c 15.324531
_cell_angle_alpha 90.000000
_cell_angle_beta 90.000000
_cell_angle_gamma 90.000000
_cell_volume 1682.474462
_symmetry_space_group_name_H-M "P M C 21"
_symmetry_group_IT_number 26
_symmetry_cell_setting 'orthorhombic'
loop_
_space_group_symop_operation_xyz
x,y,z
-x,-y,1/2+z
-x,y,z
x,-y,1/2+z
loop_
_atom_site_type_symbol
_atom_site_label
_atom_site_fract_x
_atom_site_fract_y
_atom_site_fract_z
Si Si1 0.333472 0.975423 0.937020
Si Si2 0.826849 0.359610 0.774349
Si Si3 0.173460 0.473780 0.423515
Si Si4 0.827538 0.105615 0.785305
Si Si5 0.835510 0.979969 0.609399
Si Si6 0.665988 0.740671 0.856036
Si Si7 0.165012 0.747796 0.687681
Si Si8 0.172911 0.488974 0.117330
O O1 0.500000 0.015906 0.932427
O O2 0.320267 0.844049 0.920733
O O3 0.243454 0.048837 0.869043
O O4 0.274120 0.988651 0.033859
O O5 0.773297 0.425476 0.860785
O O6 0.769321 0.232803 0.777461
O O7 0.765333 0.421229 0.687283
O O8 0.000000 0.360794 0.770199
O O9 0.232921 0.358323 0.388108
O O10 0.237078 0.489590 0.520922
O O11 0.000000 0.467432 0.423568
O O12 0.000000 0.101766 0.799897
O O13 0.782355 0.039236 0.698328
O O14 0.832006 0.846208 0.617225
O O15 0.000000 0.020016 0.586907
O O16 0.500000 0.699330 0.847330
O O17 0.725597 0.782830 0.763681
O O18 0.223097 0.634424 0.644454
O O19 0.000000 0.731885 0.724036
O O20 0.000000 0.496207 0.113670
#
# Coordination Sequence:
#
# PCOD8167409 Si02
#       8
#     4   4   4   4   4   4   4   4
#     4  11  25  41  58  82 118 162 195 232 293 356
#     4   9  18  33  55  86 119 146 181 233 288 338
#     4  10  20  35  60  85 112 151 188 233 287 339
#     4  10  21  38  61  89 118 149 194 247 290 338
#     4  10  22  37  61  91 114 147 197 251 292 335
#     4  11  23  39  58  82 115 154 196 240 283 339
#     4  10  19  37  63  87 110 145 195 246 293 340
#     4   9  18  32  56  88 114 142 184 232 286 341
#
# _framework density 19.019607000000001
#
# number of rings (size 3 to 8) (size 9 to 14) (size 15 to 20)
#    0.000    2.000    2.500    0.750    3.500    2.500 
#    0.000    1.250    0.000    0.000    0.000    0.000 
#    0.000    0.000    0.000    0.000    0.000    0.000 
#
# Total GULP energy -396819.830246 kJ/mol
# GULP energy per Si atom -12400.619695 kJ/mol
# Density = 1.897632 g / cm^3
# Si number density = 19.019607 Si / 1000 Ang^3
#
#
#
# Elastic Constant Matrix: (Units=GPa)
#
#
# Indices 1 2 3 4 5 6 
#
# 1 41.1154 30.7774 38.7169 0.0000 0.0000 0.0000
# 2 30.7774 115.3132 39.8198 0.0000 0.0000 0.0000
# 3 38.7169 39.8198 120.0866 0.0000 0.0000 0.0000
# 4 0.0000 0.0000 0.0000 28.3977 0.0000 0.0000
# 5 0.0000 0.0000 0.0000 0.0000 12.7661 0.0000
# 6 0.0000 0.0000 0.0000 0.0000 0.0000 16.8057
#
#
#
# Elastic Compliance Matrix: (Units=1/GPa)
#
#
# Indices 1 2 3 4 5 6 
#
# 1 0.039245 -0.006895 -0.010367 0.000000 0.000000 0.000000
# 2 -0.006895 0.011005 -0.001426 0.000000 0.000000 0.000000
# 3 -0.010367 -0.001426 0.012142 0.000000 0.000000 0.000000
# 4 0.000000 0.000000 0.000000 0.035214 0.000000 0.000000
# 5 0.000000 0.000000 0.000000 0.000000 0.078332 0.000000
# 6 0.000000 0.000000 0.000000 0.000000 0.000000 0.059504
#
#
# Mechanical properties :
#
#
# Convention : Reuss Voigt Hill
#
# Bulk Modulus (GPa) = 39.97280 55.01592 47.49436
# Shear Modulus (GPa) = 17.78371 22.74065 20.26218
#
# Velocity S-wave (km/s) = 3.06113 3.46156 3.26748
# Velocity P-wave (km/s) = 5.79278 6.70561 6.26584
#
# Compressibility (1/GPa) = 0.02501701
#
# Stress axis : x y z
#
# Youngs Moduli (GPa) = 25.48108 90.86987 82.35540
#
# Poissons Ratio (x) = 0.62653 0.85374
# Poissons Ratio (y) = 0.17569 0.11745
# Poissons Ratio (z) = 0.26415 0.12959
#
# Static dielectric constant tensor:
#      x y z
#    x 3.201480 0.000000 0.000000 
#    y 0.000000 3.642180 0.000000 
#    z 0.000000 0.000000 3.673680 
# 
# 
# High freq. dielectric constant tensor:
#      x y z
#    x 1.703260 0.000000 0.000000 
#    y 0.000000 1.752770 0.000000 
#    z 0.000000 0.000000 1.746790 
# 
# From -- ./inp_files/4120.got.cif
#   From: 2010.03.12/outbox.cif.g09.slc.cpg/sg26_3_cif.got.tgz:4120.got - 2010.04.14 03:33:09.
