data_PCOD8167268
_publ_section_title
;
Structure prediction by ZEFSAII (Michael W. Deem and Ramdas Pophale) SiO2 
 PCOD8167268
Probable space group: P M C 21
;
_chemical_formula_sum "Si O2"
_cell_formula_units_Z 26
_cell_length_a 32.299371
_cell_length_b 8.463408
_cell_length_c 5.052966
_cell_angle_alpha 90.000000
_cell_angle_beta 90.000000
_cell_angle_gamma 90.000000
_cell_volume 1381.292706
_symmetry_space_group_name_H-M "P M C 21"
_symmetry_group_IT_number 26
_symmetry_cell_setting 'orthorhombic'
loop_
_space_group_symop_operation_xyz
x,y,z
-x,-y,1/2+z
-x,y,z
x,-y,1/2+z
loop_
_atom_site_type_symbol
_atom_site_label
_atom_site_fract_x
_atom_site_fract_y
_atom_site_fract_z
Si Si1 0.104633 0.102013 0.405390
Si Si2 0.256102 0.601217 0.950390
Si Si3 0.648555 0.602458 0.912027
Si Si4 0.047579 0.398332 0.407112
Si Si5 0.800763 0.102057 0.450468
Si Si6 0.411119 0.107679 0.413699
Si Si7 0.500000 0.098877 0.513874
O O1 0.075529 0.248423 0.467448
O O2 0.151931 0.160010 0.428027
O O3 0.095216 0.963507 0.614164
O O4 0.245838 0.464320 0.740325
O O5 0.303707 0.654149 0.929100
O O6 0.228307 0.751370 0.888545
O O7 0.637730 0.530566 0.627427
O O8 0.622465 0.758777 0.963327
O O9 0.057780 0.534659 0.618203
O O10 0.000000 0.344426 0.432255
O O11 0.791329 0.963681 0.241520
O O12 0.456993 0.188705 0.444809
O O13 0.405435 0.966678 0.624223
O O14 0.500000 0.057143 0.824997
#
# Coordination Sequence:
#
# PCOD8167268 Si02
#       7
#     4   4   4   4   4   4   2
#     4  10  21  36  54  78 106 136 169 209 258 304
#     4  10  21  36  54  75 102 137 171 204 252 307
#     4  10  21  36  51  74 107 134 163 210 257 298
#     4  10  21  36  54  78 106 136 173 214 251 295
#     4  10  21  36  54  78 106 132 168 216 254 294
#     4  10  19  33  54  76  98 132 173 207 246 300
#     4   8  16  30  48  72 100 126 162 210 248 288
#
# _framework density 18.822949000000001
#
# number of rings (size 3 to 8) (size 9 to 14) (size 15 to 20)
#    0.000    2.154    0.000    2.769    0.000    3.077 
#    0.000    0.769    0.000    0.000    0.000    0.000 
#    0.000    0.000    0.000    0.000    0.000    0.000 
#
# Total GULP energy -322460.686743 kJ/mol
# GULP energy per Si atom -12402.334106 kJ/mol
# Density = 1.878011 g / cm^3
# Si number density = 18.822949 Si / 1000 Ang^3
#
#
#
# Elastic Constant Matrix: (Units=GPa)
#
#
# Indices 1 2 3 4 5 6 
#
# 1 104.9723 71.8654 26.2412 0.0000 0.0000 0.0000
# 2 71.8654 79.0956 6.8572 0.0000 0.0000 0.0000
# 3 26.2412 6.8572 81.1529 0.0000 0.0000 0.0000
# 4 0.0000 0.0000 0.0000 12.5772 0.0000 0.0000
# 5 0.0000 0.0000 0.0000 0.0000 22.9264 0.0000
# 6 0.0000 0.0000 0.0000 0.0000 0.0000 40.8863
#
#
#
# Elastic Compliance Matrix: (Units=1/GPa)
#
#
# Indices 1 2 3 4 5 6 
#
# 1 0.028814 -0.025560 -0.007157 0.000000 0.000000 0.000000
# 2 -0.025560 0.035409 0.005273 0.000000 0.000000 0.000000
# 3 -0.007157 0.005273 0.014191 0.000000 0.000000 0.000000
# 4 0.000000 0.000000 0.000000 0.079509 0.000000 0.000000
# 5 0.000000 0.000000 0.000000 0.000000 0.043618 0.000000
# 6 0.000000 0.000000 0.000000 0.000000 0.000000 0.024458
#
#
# Mechanical properties :
#
#
# Convention : Reuss Voigt Hill
#
# Bulk Modulus (GPa) = 42.50630 52.79428 47.65029
# Shear Modulus (GPa) = 17.31726 25.96177 21.63951
#
# Velocity S-wave (km/s) = 3.03645 3.71787 3.39430
# Velocity P-wave (km/s) = 5.90970 6.82193 6.38214
#
# Compressibility (1/GPa) = 0.02352592
#
# Stress axis : x y z
#
# Youngs Moduli (GPa) = 34.70533 28.24139 70.46580
#
# Poissons Ratio (x) = 0.72184 0.50436
# Poissons Ratio (y) = 0.88705 -0.37156
# Poissons Ratio (z) = 0.24840 -0.14891
#
# Static dielectric constant tensor:
#      x y z
#    x 3.595280 0.000000 0.000000 
#    y 0.000000 2.997210 0.000000 
#    z 0.000000 0.000000 3.651740 
# 
# 
# High freq. dielectric constant tensor:
#      x y z
#    x 1.737830 0.000000 0.000000 
#    y 0.000000 1.703780 0.000000 
#    z 0.000000 0.000000 1.754650 
# 
# From -- ./inp_files/1057.got.cif
#   From: 2010.03.12/outbox.cif.g09.slc.cpg/sg26_1_cif.got.tgz:1057.got - 2010.04.14 03:33:09.
