data_PCOD8167837
_publ_section_title
;
Structure prediction by ZEFSAII (Michael W. Deem and Ramdas Pophale) SiO2 
 PCOD8167837
Probable space group: P C C 2
;
_chemical_formula_sum "Si O2"
_cell_formula_units_Z 16
_cell_length_a 7.916445
_cell_length_b 9.337158
_cell_length_c 8.127472
_cell_angle_alpha 90.000000
_cell_angle_beta 90.000000
_cell_angle_gamma 90.000000
_cell_volume 600.759142
_symmetry_space_group_name_H-M "P C C 2"
_symmetry_group_IT_number 27
_symmetry_cell_setting 'orthorhombic'
loop_
_space_group_symop_operation_xyz
x,y,z
-x,-y,z
-x,y,1/2+z
x,-y,1/2+z
loop_
_atom_site_type_symbol
_atom_site_label
_atom_site_fract_x
_atom_site_fract_y
_atom_site_fract_z
Si Si1 0.760117 0.720701 0.204450
Si Si2 0.318403 0.960251 0.504265
Si Si3 0.143249 0.804629 0.206232
Si Si4 0.189198 0.540983 0.008803
O O1 0.716400 0.633157 0.368897
O O2 0.941410 0.799889 0.211217
O O3 0.642787 0.858732 0.166262
O O4 0.726951 0.609837 0.054143
O O5 0.213763 0.863426 0.377107
O O6 0.500000 0.000000 0.430177
O O7 0.208036 0.098678 0.552951
O O8 0.195869 0.639266 0.173788
O O9 0.000000 0.500000 0.950611
#
# Coordination Sequence:
#
# PCOD8167837 Si02
#       4
#     4   4   4   4
#     4  11  22  41  71 104 137 178 231 289 350 416
#     4  12  26  44  66 100 145 190 234 286 345 415
#     4  11  23  41  66  99 136 184 235 288 346 414
#     4  10  20  38  69 105 136 170 228 295 349 407
#
# _framework density 26.632971000000001
#
# number of rings (size 3 to 8) (size 9 to 14) (size 15 to 20)
#    0.000    1.000    0.000    9.750    0.000    2.000 
#    0.000    2.500    0.000   18.000    0.000    0.000 
#    0.000    0.000    0.000    0.000    0.000    0.000 
#
# Total GULP energy -198270.615018 kJ/mol
# GULP energy per Si atom -12391.913439 kJ/mol
# Density = 2.657235 g / cm^3
# Si number density = 26.632971 Si / 1000 Ang^3
#
#
#
# Elastic Constant Matrix: (Units=GPa)
#
#
# Indices 1 2 3 4 5 6 
#
# 1 48.9075 42.1130 39.3798 0.0000 0.0000 0.0000
# 2 42.1130 151.6358 27.3732 0.0000 0.0000 0.0000
# 3 39.3798 27.3732 74.7058 0.0000 0.0000 0.0000
# 4 0.0000 0.0000 0.0000 67.6306 0.0000 0.0000
# 5 0.0000 0.0000 0.0000 0.0000 15.9501 0.0000
# 6 0.0000 0.0000 0.0000 0.0000 0.0000 15.4655
#
#
#
# Elastic Compliance Matrix: (Units=1/GPa)
#
#
# Indices 1 2 3 4 5 6 
#
# 1 0.043981 -0.008598 -0.020033 0.000000 0.000000 0.000000
# 2 -0.008598 0.008743 0.001329 0.000000 0.000000 0.000000
# 3 -0.020033 0.001329 0.023459 0.000000 0.000000 0.000000
# 4 0.000000 0.000000 0.000000 0.014786 0.000000 0.000000
# 5 0.000000 0.000000 0.000000 0.000000 0.062696 0.000000
# 6 0.000000 0.000000 0.000000 0.000000 0.000000 0.064660
#
#
# Mechanical properties :
#
#
# Convention : Reuss Voigt Hill
#
# Bulk Modulus (GPa) = 46.34405 54.77568 50.55987
# Shear Modulus (GPa) = 17.84933 30.90145 24.37539
#
# Velocity S-wave (km/s) = 2.59162 3.40997 3.02856
# Velocity P-wave (km/s) = 5.13752 6.00961 5.59060
#
# Compressibility (1/GPa) = 0.02157774
#
# Stress axis : x y z
#
# Youngs Moduli (GPa) = 22.73704 114.37989 42.62739
#
# Poissons Ratio (x) = 0.98347 0.85397
# Poissons Ratio (y) = 0.19550 -0.05665
# Poissons Ratio (z) = 0.45550 -0.15200
#
# Static dielectric constant tensor:
#      x y z
#    x 4.036110 0.000000 0.000000 
#    y 0.000000 5.498190 0.000000 
#    z 0.000000 0.000000 4.842900 
# 
# 
# High freq. dielectric constant tensor:
#      x y z
#    x 2.003550 0.000000 0.000000 
#    y 0.000000 2.113620 0.000000 
#    z 0.000000 0.000000 2.082620 
# 
# From -- ./inp_files/946.got.cif
#   From: 2010.03.12/outbox.cif.g09.slc.cpg/sg27_1_cif.got.tgz:946.got - 2010.04.14 03:36:05.
