data_PCOD8167221
_publ_section_title
;
Structure prediction by ZEFSAII (Michael W. Deem and Ramdas Pophale) SiO2 
 PCOD8167221
Probable space group: P M C 21
;
_chemical_formula_sum "Si O2"
_cell_formula_units_Z 24
_cell_length_a 9.988261
_cell_length_b 8.848032
_cell_length_c 15.573770
_cell_angle_alpha 90.000000
_cell_angle_beta 90.000000
_cell_angle_gamma 90.000000
_cell_volume 1376.354552
_symmetry_space_group_name_H-M "P M C 21"
_symmetry_group_IT_number 26
_symmetry_cell_setting 'orthorhombic'
loop_
_space_group_symop_operation_xyz
x,y,z
-x,-y,1/2+z
-x,y,z
x,-y,1/2+z
loop_
_atom_site_type_symbol
_atom_site_label
_atom_site_fract_x
_atom_site_fract_y
_atom_site_fract_z
Si Si1 0.845229 0.618891 0.696190
Si Si2 0.351512 0.812057 0.100663
Si Si3 0.154369 0.584422 0.359069
Si Si4 0.351513 0.812053 0.291698
Si Si5 0.845631 0.584417 0.033308
Si Si6 0.348338 0.099839 0.196183
O O1 0.809915 0.524610 0.780627
O O2 0.809911 0.524592 0.611760
O O3 0.758068 0.768685 0.696186
O O4 0.000000 0.667685 0.696186
O O5 0.500000 0.782941 0.062374
O O6 0.342062 0.738239 0.196180
O O7 0.241933 0.736936 0.038728
O O8 0.327083 0.993246 0.111474
O O9 0.241933 0.736938 0.353634
O O10 0.192060 0.500022 0.446193
O O11 0.000000 0.634379 0.357165
O O12 0.500000 0.782931 0.329987
O O13 0.327088 0.993243 0.280890
O O14 0.000000 0.634370 0.035208
O O15 0.500000 0.164807 0.196182
#
# Coordination Sequence:
#
# PCOD8167221 Si02
#       6
#     4   4   4   4   4   4
#     4  10  19  32  50  74 100 128 163 204 248 294
#     4   8  16  32  52  72  95 127 167 201 241 294
#     4  10  20  33  51  76 102 130 167 206 245 294
#     4   8  16  32  52  72  95 127 167 201 241 294
#     4  10  20  33  51  76 102 130 167 206 245 294
#     4   8  17  32  52  74  98 130 165 204 246 294
#
# _framework density 17.437369
#
# number of rings (size 3 to 8) (size 9 to 14) (size 15 to 20)
#    1.000    2.000    1.667    0.000    0.000    3.333 
#    0.000    1.667    0.000   10.000    0.000    0.000 
#    0.000    0.000    0.000    0.000    0.000    0.000 
#
# Total GULP energy -297368.432975 kJ/mol
# GULP energy per Si atom -12390.351374 kJ/mol
# Density = 1.739768 g / cm^3
# Si number density = 17.437369 Si / 1000 Ang^3
#
#
#
# Elastic Constant Matrix: (Units=GPa)
#
#
# Indices 1 2 3 4 5 6 
#
# 1 82.4291 51.1295 22.3802 0.0000 0.0000 0.0000
# 2 51.1295 67.7109 22.2220 0.0000 0.0000 0.0000
# 3 22.3802 22.2220 78.5900 0.0000 0.0000 0.0000
# 4 0.0000 0.0000 0.0000 3.7828 0.0000 0.0000
# 5 0.0000 0.0000 0.0000 0.0000 19.2000 0.0000
# 6 0.0000 0.0000 0.0000 0.0000 0.0000 37.3144
#
#
#
# Elastic Compliance Matrix: (Units=1/GPa)
#
#
# Indices 1 2 3 4 5 6 
#
# 1 0.023052 -0.016812 -0.001811 0.000000 0.000000 0.000000
# 2 -0.016812 0.028541 -0.003283 0.000000 0.000000 0.000000
# 3 -0.001811 -0.003283 0.014168 0.000000 0.000000 0.000000
# 4 0.000000 0.000000 0.000000 0.264355 0.000000 0.000000
# 5 0.000000 0.000000 0.000000 0.000000 0.052083 0.000000
# 6 0.000000 0.000000 0.000000 0.000000 0.000000 0.026799
#
#
# Mechanical properties :
#
#
# Convention : Reuss Voigt Hill
#
# Bulk Modulus (GPa) = 45.55857 46.68815 46.12336
# Shear Modulus (GPa) = 10.86657 20.92599 15.89628
#
# Velocity S-wave (km/s) = 2.49906 3.46795 3.02258
# Velocity P-wave (km/s) = 5.87459 6.54740 6.22010
#
# Compressibility (1/GPa) = 0.02194977
#
# Stress axis : x y z
#
# Youngs Moduli (GPa) = 43.38063 35.03692 70.58131
#
# Poissons Ratio (x) = 0.58906 0.12779
# Poissons Ratio (y) = 0.72934 0.23169
# Poissons Ratio (z) = 0.07854 0.11501
#
# Static dielectric constant tensor:
#      x y z
#    x 3.186030 0.000000 0.000000 
#    y 0.000000 2.958620 0.000000 
#    z 0.000000 0.000000 3.055560 
# 
# 
# High freq. dielectric constant tensor:
#      x y z
#    x 1.680370 0.000000 0.000000 
#    y 0.000000 1.656780 0.000000 
#    z 0.000000 0.000000 1.647760 
# 
# From -- ./inp_files/4859.got.cif
#   From: 2010.03.12/outbox.cif.g09.slc.cpg/sg26_3_cif.got.tgz:4859.got - 2010.04.14 03:33:09.
