data_PCOD8167491
_publ_section_title
;
Structure prediction by ZEFSAII (Michael W. Deem and Ramdas Pophale) SiO2 
 PCOD8167491
Probable space group: P M C 21
;
_chemical_formula_sum "Si O2"
_cell_formula_units_Z 32
_cell_length_a 9.243641
_cell_length_b 11.240371
_cell_length_c 15.856036
_cell_angle_alpha 90.000000
_cell_angle_beta 90.000000
_cell_angle_gamma 90.000000
_cell_volume 1647.473127
_symmetry_space_group_name_H-M "P M C 21"
_symmetry_group_IT_number 26
_symmetry_cell_setting 'orthorhombic'
loop_
_space_group_symop_operation_xyz
x,y,z
-x,-y,1/2+z
-x,y,z
x,-y,1/2+z
loop_
_atom_site_type_symbol
_atom_site_label
_atom_site_fract_x
_atom_site_fract_y
_atom_site_fract_z
Si Si1 0.665974 0.039068 0.118240
Si Si2 0.164887 0.448497 0.246624
Si Si3 0.668132 0.903535 0.944423
Si Si4 0.661461 0.440414 0.978106
Si Si5 0.829005 0.721065 0.598138
Si Si6 0.660006 0.659951 0.293702
Si Si7 0.167985 0.342577 0.430326
Si Si8 0.330561 0.076614 0.796585
O O1 0.500000 0.084452 0.121662
O O2 0.776648 0.146093 0.111758
O O3 0.707751 0.971699 0.204148
O O4 0.689179 0.955793 0.037570
O O5 0.221170 0.356085 0.177764
O O6 0.248208 0.573099 0.233853
O O7 0.188845 0.384473 0.335082
O O8 0.000000 0.481921 0.231556
O O9 0.500000 0.872895 0.927137
O O10 0.762630 0.785809 0.940343
O O11 0.729836 0.993321 0.872228
O O12 0.500000 0.453509 0.017005
O O13 0.648874 0.407101 0.881405
O O14 0.748801 0.563810 0.990673
O O15 0.749523 0.332161 0.017677
O O16 0.000000 0.720538 0.583773
O O17 0.500000 0.674955 0.253788
O O18 0.735051 0.789800 0.302917
O O19 0.000000 0.338410 0.456646
O O20 0.500000 0.086449 0.812308
#
# Coordination Sequence:
#
# PCOD8167491 Si02
#       8
#     4   4   4   4   4   4   4   4
#     4  10  21  36  55  79 106 140 183 226 269 323
#     4   9  20  36  53  77 109 141 173 217 269 325
#     4  10  20  35  55  79 109 143 181 225 269 320
#     4  10  20  35  56  80 106 139 180 224 270 321
#     4  11  22  36  54  78 109 141 177 222 272 323
#     4   9  18  34  56  80 105 137 179 223 268 321
#     4  10  20  36  56  79 109 142 178 219 270 328
#     4   9  18  34  55  78 107 141 177 222 271 317
#
# _framework density 19.423686
#
# number of rings (size 3 to 8) (size 9 to 14) (size 15 to 20)
#    0.000    2.250    0.000    2.625    0.000    5.500 
#    0.000    2.500    0.000    0.000    0.000    0.000 
#    0.000    0.000    0.000    0.000    0.000    0.000 
#
# Total GULP energy -396766.419064 kJ/mol
# GULP energy per Si atom -12398.950596 kJ/mol
# Density = 1.937948 g / cm^3
# Si number density = 19.423686 Si / 1000 Ang^3
#
#
#
# Elastic Constant Matrix: (Units=GPa)
#
#
# Indices 1 2 3 4 5 6 
#
# 1 94.8559 64.5594 24.3714 0.0000 0.0000 0.0000
# 2 64.5594 146.6757 23.2749 0.0000 0.0000 0.0000
# 3 24.3714 23.2749 56.4019 0.0000 0.0000 0.0000
# 4 0.0000 0.0000 0.0000 16.0812 0.0000 0.0000
# 5 0.0000 0.0000 0.0000 0.0000 15.9051 0.0000
# 6 0.0000 0.0000 0.0000 0.0000 0.0000 30.0147
#
#
#
# Elastic Compliance Matrix: (Units=1/GPa)
#
#
# Indices 1 2 3 4 5 6 
#
# 1 0.015961 -0.006346 -0.004278 0.000000 0.000000 0.000000
# 2 -0.006346 0.009819 -0.001310 0.000000 0.000000 0.000000
# 3 -0.004278 -0.001310 0.020119 0.000000 0.000000 0.000000
# 4 0.000000 0.000000 0.000000 0.062185 0.000000 0.000000
# 5 0.000000 0.000000 0.000000 0.000000 0.062873 0.000000
# 6 0.000000 0.000000 0.000000 0.000000 0.000000 0.033317
#
#
# Mechanical properties :
#
#
# Convention : Reuss Voigt Hill
#
# Bulk Modulus (GPa) = 45.39071 58.03834 51.71452
# Shear Modulus (GPa) = 21.23287 24.78205 23.00746
#
# Velocity S-wave (km/s) = 3.30986 3.57580 3.44540
# Velocity P-wave (km/s) = 6.16655 6.85518 6.51997
#
# Compressibility (1/GPa) = 0.02203094
#
# Stress axis : x y z
#
# Youngs Moduli (GPa) = 62.65365 101.84424 49.70481
#
# Poissons Ratio (x) = 0.64634 0.21263
# Poissons Ratio (y) = 0.39762 0.06509
# Poissons Ratio (z) = 0.26802 0.13338
#
# Static dielectric constant tensor:
#      x y z
#    x 3.574330 0.000000 0.000000 
#    y 0.000000 3.633160 0.000000 
#    z 0.000000 0.000000 3.672150 
# 
# 
# High freq. dielectric constant tensor:
#      x y z
#    x 1.743450 0.000000 0.000000 
#    y 0.000000 1.767600 0.000000 
#    z 0.000000 0.000000 1.752040 
# 
# From -- ./inp_files/4226.got.cif
#   From: 2010.03.12/outbox.cif.g09.slc.cpg/sg26_3_cif.got.tgz:4226.got - 2010.04.14 03:33:09.
