data_PCOD8167264
_publ_section_title
;
Structure prediction by ZEFSAII (Michael W. Deem and Ramdas Pophale) SiO2 
 PCOD8167264
Probable space group: P M C 21
;
_chemical_formula_sum "Si O2"
_cell_formula_units_Z 24
_cell_length_a 8.662895
_cell_length_b 9.535145
_cell_length_c 15.316792
_cell_angle_alpha 90.000000
_cell_angle_beta 90.000000
_cell_angle_gamma 90.000000
_cell_volume 1265.197039
_symmetry_space_group_name_H-M "P M C 21"
_symmetry_group_IT_number 26
_symmetry_cell_setting 'orthorhombic'
loop_
_space_group_symop_operation_xyz
x,y,z
-x,-y,1/2+z
-x,y,z
x,-y,1/2+z
loop_
_atom_site_type_symbol
_atom_site_label
_atom_site_fract_x
_atom_site_fract_y
_atom_site_fract_z
Si Si1 0.681410 0.348672 0.439080
Si Si2 0.184047 0.647976 0.438926
Si Si3 0.816764 0.844275 0.285646
Si Si4 0.815709 0.162489 0.290945
Si Si5 0.819373 0.337120 0.624425
Si Si6 0.179529 0.655659 0.632511
O O1 0.500000 0.360187 0.429351
O O2 0.755490 0.495954 0.410553
O O3 0.745902 0.227334 0.377769
O O4 0.725094 0.305639 0.537215
O O5 0.246617 0.763833 0.371273
O O6 0.247591 0.687109 0.535754
O O7 0.000000 0.638555 0.439225
O O8 0.756872 0.767684 0.198463
O O9 0.000000 0.838303 0.286944
O O10 0.756567 0.002868 0.285558
O O11 0.747433 0.243703 0.206108
O O12 0.000000 0.171812 0.295522
O O13 0.788161 0.494731 0.658236
O O14 0.000000 0.315511 0.604113
O O15 0.000000 0.688519 0.629393
#
# Coordination Sequence:
#
# PCOD8167264 Si02
#       6
#     4   4   4   4   4   4
#     4  11  22  35  51  75 103 139 180 215 252 301
#     4   9  17  34  56  78 102 132 170 216 260 305
#     4   9  18  31  55  85 107 130 168 211 259 312
#     4  10  19  33  53  80 109 137 167 209 259 311
#     4   9  17  33  54  76 101 134 173 217 259 301
#     4   8  15  28  51  76 100 130 166 206 253 300
#
# _framework density 18.969377000000001
#
# number of rings (size 3 to 8) (size 9 to 14) (size 15 to 20)
#    0.000    2.667    0.000    3.500    0.000    4.000 
#    0.000   14.167    0.000    0.000    0.000    0.000 
#    0.000    0.000    0.000    0.000    0.000    0.000 
#
# Total GULP energy -297566.134796 kJ/mol
# GULP energy per Si atom -12398.588950 kJ/mol
# Density = 1.892620 g / cm^3
# Si number density = 18.969377 Si / 1000 Ang^3
#
#
#
# Elastic Constant Matrix: (Units=GPa)
#
#
# Indices 1 2 3 4 5 6 
#
# 1 32.6873 24.1395 21.9020 0.0000 0.0000 0.0000
# 2 24.1395 147.6863 93.2320 0.0000 0.0000 0.0000
# 3 21.9020 93.2320 126.4836 0.0000 0.0000 0.0000
# 4 0.0000 0.0000 0.0000 24.8493 0.0000 0.0000
# 5 0.0000 0.0000 0.0000 0.0000 6.3725 0.0000
# 6 0.0000 0.0000 0.0000 0.0000 0.0000 4.8148
#
#
#
# Elastic Compliance Matrix: (Units=1/GPa)
#
#
# Indices 1 2 3 4 5 6 
#
# 1 0.035606 -0.003605 -0.003508 0.000000 0.000000 0.000000
# 2 -0.003605 0.013029 -0.008979 0.000000 0.000000 0.000000
# 3 -0.003508 -0.008979 0.015132 0.000000 0.000000 0.000000
# 4 0.000000 0.000000 0.000000 0.040243 0.000000 0.000000
# 5 0.000000 0.000000 0.000000 0.000000 0.156924 0.000000
# 6 0.000000 0.000000 0.000000 0.000000 0.000000 0.207695
#
#
# Mechanical properties :
#
#
# Convention : Reuss Voigt Hill
#
# Bulk Modulus (GPa) = 31.66382 65.04492 48.35437
# Shear Modulus (GPa) = 9.77821 18.37956 14.07888
#
# Velocity S-wave (km/s) = 2.27287 3.11610 2.72727
# Velocity P-wave (km/s) = 4.85965 6.87828 5.95512
#
# Compressibility (1/GPa) = 0.03158179
#
# Stress axis : x y z
#
# Youngs Moduli (GPa) = 28.08518 76.75185 66.08299
#
# Poissons Ratio (x) = 0.27671 0.23183
# Poissons Ratio (y) = 0.10125 0.59339
# Poissons Ratio (z) = 0.09853 0.68919
#
# Static dielectric constant tensor:
#      x y z
#    x 2.974640 0.000000 0.000000 
#    y 0.000000 3.584040 0.000000 
#    z 0.000000 0.000000 3.812060 
# 
# 
# High freq. dielectric constant tensor:
#      x y z
#    x 1.687800 0.000000 0.000000 
#    y 0.000000 1.735440 0.000000 
#    z 0.000000 0.000000 1.753270 
# 
# From -- ./inp_files/3916.got.cif
#   From: 2010.03.12/outbox.cif.g09.slc.cpg/sg26_2_cif.got.tgz:3916.got - 2010.04.14 03:33:09.
