data_PCOD8167946
_publ_section_title
;
Structure prediction by ZEFSAII (Michael W. Deem and Ramdas Pophale) SiO2 
 PCOD8167946
Probable space group: P C C 2
;
_chemical_formula_sum "Si O2"
_cell_formula_units_Z 12
_cell_length_a 8.099602
_cell_length_b 4.903180
_cell_length_c 13.730516
_cell_angle_alpha 90.000000
_cell_angle_beta 90.000000
_cell_angle_gamma 90.000000
_cell_volume 545.291056
_symmetry_space_group_name_H-M "P C C 2"
_symmetry_group_IT_number 27
_symmetry_cell_setting 'orthorhombic'
loop_
_space_group_symop_operation_xyz
x,y,z
-x,-y,z
-x,y,1/2+z
x,-y,1/2+z
loop_
_atom_site_type_symbol
_atom_site_label
_atom_site_fract_x
_atom_site_fract_y
_atom_site_fract_z
Si Si1 0.680913 0.606391 0.618590
Si Si2 0.386520 0.256425 0.405547
Si Si3 0.182722 0.114463 0.221450
O O1 0.500000 0.500000 0.644558
O O2 0.705483 0.645514 0.503329
O O3 0.815228 0.386288 0.655366
O O4 0.698615 0.891191 0.673865
O O5 0.500000 0.500000 0.363170
O O6 0.245310 0.182834 0.329265
O O7 0.500000 0.000000 0.431971
O O8 0.000000 0.000000 0.228699
#
# Coordination Sequence:
#
# PCOD8167946 Si02
#       3
#     4   4   4
#     4  11  23  43  68  94 127 170 220 264 310 377
#     4  11  23  41  68  96 125 170 222 265 309 374
#     4  12  25  42  66  98 134 168 206 265 329 381
#
# _framework density 22.006596999999999
#
# number of rings (size 3 to 8) (size 9 to 14) (size 15 to 20)
#    0.000    0.667    0.000   11.000    0.000    1.333 
#    0.000   10.000    0.000    0.000    0.000    0.000 
#    0.000    0.000    0.000    0.000    0.000    0.000 
#
# Total GULP energy -148899.522990 kJ/mol
# GULP energy per Si atom -12408.293583 kJ/mol
# Density = 2.195651 g / cm^3
# Si number density = 22.006597 Si / 1000 Ang^3
#
#
#
# Elastic Constant Matrix: (Units=GPa)
#
#
# Indices 1 2 3 4 5 6 
#
# 1 90.6387 19.1343 62.5191 0.0000 0.0000 0.0000
# 2 19.1343 122.2414 49.3975 0.0000 0.0000 0.0000
# 3 62.5191 49.3975 164.9189 0.0000 0.0000 0.0000
# 4 0.0000 0.0000 0.0000 40.3359 0.0000 0.0000
# 5 0.0000 0.0000 0.0000 0.0000 13.4793 0.0000
# 6 0.0000 0.0000 0.0000 0.0000 0.0000 42.1996
#
#
#
# Elastic Compliance Matrix: (Units=1/GPa)
#
#
# Indices 1 2 3 4 5 6 
#
# 1 0.014939 -0.000057 -0.005646 0.000000 0.000000 0.000000
# 2 -0.000057 0.009307 -0.002766 0.000000 0.000000 0.000000
# 3 -0.005646 -0.002766 0.009033 0.000000 0.000000 0.000000
# 4 0.000000 0.000000 0.000000 0.024792 0.000000 0.000000
# 5 0.000000 0.000000 0.000000 0.000000 0.074188 0.000000
# 6 0.000000 0.000000 0.000000 0.000000 0.000000 0.023697
#
#
# Mechanical properties :
#
#
# Convention : Reuss Voigt Hill
#
# Bulk Modulus (GPa) = 61.19747 71.10010 66.14878
# Shear Modulus (GPa) = 28.03610 35.65284 31.84447
#
# Velocity S-wave (km/s) = 3.57317 4.02941 3.80813
# Velocity P-wave (km/s) = 6.70018 7.35030 7.03276
#
# Compressibility (1/GPa) = 0.01634055
#
# Stress axis : x y z
#
# Youngs Moduli (GPa) = 66.93682 107.44304 110.70953
#
# Poissons Ratio (x) = 0.00610 0.62511
# Poissons Ratio (y) = 0.00380 0.30625
# Poissons Ratio (z) = 0.37795 0.29721
#
# Static dielectric constant tensor:
#      x y z
#    x 3.633580 0.000000 0.000000 
#    y 0.000000 4.480270 0.000000 
#    z 0.000000 0.000000 3.982500 
# 
# 
# High freq. dielectric constant tensor:
#      x y z
#    x 1.845810 0.000000 0.000000 
#    y 0.000000 1.895110 0.000000 
#    z 0.000000 0.000000 1.878640 
# 
# From -- ./inp_files/1775.got.cif
#   From: 2010.03.12/outbox.cif.g09.slc.cpg/sg27_1_cif.got.tgz:1775.got - 2010.04.14 03:36:05.
