data_PCOD8167211
_publ_section_title
;
Structure prediction by ZEFSAII (Michael W. Deem and Ramdas Pophale) SiO2 
 PCOD8167211
Probable space group: P M C 21
;
_chemical_formula_sum "Si O2"
_cell_formula_units_Z 32
_cell_length_a 9.173571
_cell_length_b 11.868739
_cell_length_c 14.460054
_cell_angle_alpha 90.000000
_cell_angle_beta 90.000000
_cell_angle_gamma 90.000000
_cell_volume 1574.392169
_symmetry_space_group_name_H-M "P M C 21"
_symmetry_group_IT_number 26
_symmetry_cell_setting 'orthorhombic'
loop_
_space_group_symop_operation_xyz
x,y,z
-x,-y,1/2+z
-x,y,z
x,-y,1/2+z
loop_
_atom_site_type_symbol
_atom_site_label
_atom_site_fract_x
_atom_site_fract_y
_atom_site_fract_z
Si Si1 0.668099 0.126391 0.969700
Si Si2 0.838191 0.176561 0.657535
Si Si3 0.165890 0.711812 0.345877
Si Si4 0.331813 0.512480 0.248432
Si Si5 0.172199 0.584784 0.076570
Si Si6 0.333128 0.960819 0.663531
Si Si7 0.332423 0.655671 0.905367
Si Si8 0.326952 0.902648 0.863668
O O1 0.500000 0.144395 0.940891
O O2 0.762276 0.232073 0.935828
O O3 0.723865 0.007345 0.926923
O O4 0.687119 0.128085 0.080627
O O5 0.832165 0.192281 0.767740
O O6 0.785779 0.290377 0.609371
O O7 0.000000 0.145405 0.624677
O O8 0.734281 0.076789 0.627300
O O9 0.257937 0.604936 0.314087
O O10 0.000000 0.673784 0.367654
O O11 0.500000 0.545591 0.230987
O O12 0.249054 0.500512 0.149799
O O13 0.319501 0.393631 0.301620
O O14 0.000000 0.560677 0.076495
O O15 0.238479 0.575428 0.973885
O O16 0.500000 0.988834 0.681872
O O17 0.262723 0.917103 0.759322
O O18 0.500000 0.652784 0.938809
O O19 0.268770 0.783582 0.904301
O O20 0.500000 0.893421 0.859207
#
# Coordination Sequence:
#
# PCOD8167211 Si02
#       8
#     4   4   4   4   4   4   4   4
#     4  10  19  32  53  82 111 146 187 223 277 343
#     4   9  18  32  51  77 108 144 185 227 272 328
#     4  10  20  35  55  78 109 144 183 234 286 334
#     4  10  21  38  61  86 113 149 196 244 287 338
#     4  10  21  37  59  87 117 151 193 240 291 344
#     4  10  19  31  52  80 111 148 184 226 280 339
#     4  10  21  39  61  85 115 153 196 241 287 342
#     4   9  18  34  54  81 116 147 184 235 284 332
#
# _framework density 20.325303999999999
#
# number of rings (size 3 to 8) (size 9 to 14) (size 15 to 20)
#    0.000    2.250    1.250    2.625    0.000    5.000 
#    2.250    1.250    0.000    0.000    0.000    0.000 
#    0.000    0.000    0.000    0.000    0.000    0.000 
#
# Total GULP energy -396751.132945 kJ/mol
# GULP energy per Si atom -12398.472905 kJ/mol
# Density = 2.027904 g / cm^3
# Si number density = 20.325304 Si / 1000 Ang^3
#
#
#
# Elastic Constant Matrix: (Units=GPa)
#
#
# Indices 1 2 3 4 5 6 
#
# 1 78.4602 13.0831 23.9135 0.0000 0.0000 0.0000
# 2 13.0831 35.3245 3.6160 0.0000 0.0000 0.0000
# 3 23.9135 3.6160 93.7678 0.0000 0.0000 0.0000
# 4 0.0000 0.0000 0.0000 25.4601 0.0000 0.0000
# 5 0.0000 0.0000 0.0000 0.0000 25.0426 0.0000
# 6 0.0000 0.0000 0.0000 0.0000 0.0000 17.8146
#
#
#
# Elastic Compliance Matrix: (Units=1/GPa)
#
#
# Indices 1 2 3 4 5 6 
#
# 1 0.014672 -0.005071 -0.003546 0.000000 0.000000 0.000000
# 2 -0.005071 0.030174 0.000130 0.000000 0.000000 0.000000
# 3 -0.003546 0.000130 0.011564 0.000000 0.000000 0.000000
# 4 0.000000 0.000000 0.000000 0.039277 0.000000 0.000000
# 5 0.000000 0.000000 0.000000 0.000000 0.039932 0.000000
# 6 0.000000 0.000000 0.000000 0.000000 0.000000 0.056134
#
#
# Mechanical properties :
#
#
# Convention : Reuss Voigt Hill
#
# Bulk Modulus (GPa) = 25.35842 32.08640 28.72241
# Shear Modulus (GPa) = 22.53552 24.79280 23.66416
#
# Velocity S-wave (km/s) = 3.33339 3.49635 3.41584
# Velocity P-wave (km/s) = 5.22673 5.66745 5.45155
#
# Compressibility (1/GPa) = 0.03943464
#
# Stress axis : x y z
#
# Youngs Moduli (GPa) = 68.15847 33.14130 86.47514
#
# Poissons Ratio (x) = 0.16806 0.30665
# Poissons Ratio (y) = 0.34563 -0.01121
# Poissons Ratio (z) = 0.24170 -0.00430
#
# Static dielectric constant tensor:
#      x y z
#    x 3.503190 0.000000 0.000000 
#    y 0.000000 3.442930 0.000000 
#    z 0.000000 0.000000 3.778740 
# 
# 
# High freq. dielectric constant tensor:
#      x y z
#    x 1.776960 0.000000 0.000000 
#    y 0.000000 1.773520 0.000000 
#    z 0.000000 0.000000 1.799280 
# 
# From -- ./inp_files/4145.got.cif
#   From: 2010.03.12/outbox.cif.g09.slc.cpg/sg26_3_cif.got.tgz:4145.got - 2010.04.14 03:33:09.
