data_PCOD8167971
_publ_section_title
;
Structure prediction by ZEFSAII (Michael W. Deem and Ramdas Pophale) SiO2 
 PCOD8167971
Probable space group: P M A 2
;
_chemical_formula_sum "Si O2"
_cell_formula_units_Z 32
_cell_length_a 13.730182
_cell_length_b 20.844889
_cell_length_c 5.191313
_cell_angle_alpha 90.000000
_cell_angle_beta 90.000000
_cell_angle_gamma 90.000000
_cell_volume 1485.775167
_symmetry_space_group_name_H-M "P M A 2"
_symmetry_group_IT_number 28
_symmetry_cell_setting 'orthorhombic'
loop_
_space_group_symop_operation_xyz
x,y,z
-x,-y,z
1/2-x,y,z
1/2+x,-y,z
loop_
_atom_site_type_symbol
_atom_site_label
_atom_site_fract_x
_atom_site_fract_y
_atom_site_fract_z
Si Si1 0.862844 0.019616 0.857700
Si Si2 0.141164 0.652640 0.841848
Si Si3 0.479246 0.678744 0.341320
Si Si4 0.365947 0.123536 0.904530
Si Si5 0.042215 0.182046 0.405636
Si Si6 0.363544 0.902297 0.347825
Si Si7 0.614048 0.495586 0.814348
Si Si8 0.089483 0.451773 0.314231
O O1 0.750000 0.010928 0.915242
O O2 0.883224 0.047842 0.577170
O O3 0.909910 0.948699 0.871879
O O4 0.901997 0.065802 0.083444
O O5 0.250000 0.680896 0.865675
O O6 0.098784 0.674224 0.569130
O O7 0.148010 0.576165 0.863843
O O8 0.075793 0.680855 0.069397
O O9 0.544618 0.741880 0.367172
O O10 0.553870 0.620096 0.359292
O O11 0.250000 0.124804 0.871366
O O12 0.413654 0.167167 0.684930
O O13 0.392690 0.148724 0.187187
O O14 0.929178 0.160286 0.392644
O O15 0.250000 0.881426 0.337604
O O16 0.500000 0.500000 0.754050
O O17 0.649924 0.541284 0.047787
O O18 0.658088 0.524561 0.549278
O O19 0.000000 0.500000 0.257472
#
# Coordination Sequence:
#
# PCOD8167971 Si02
#       8
#     4   4   4   4   4   4   4   4
#     4   9  19  37  64  92 123 168 209 262 320 357
#     4  12  23  36  58  89 122 154 200 262 308 363
#     4  12  23  40  57  89 119 165 215 238 302 399
#     4  11  24  45  68  94 123 156 217 277 316 367
#     4  12  26  40  64  96 124 178 210 247 321 388
#     4  10  21  38  59  92 137 170 206 254 305 374
#     4  10  16  32  57  83 103 145 188 240 307 340
#     4  10  16  32  61  81 103 146 195 245 290 336
#
# _framework density 21.537580999999999
#
# number of rings (size 3 to 8) (size 9 to 14) (size 15 to 20)
#    0.000    1.250    5.000    3.000    0.000    6.000 
#    0.000    1.250    0.000    4.500    0.000    0.000 
#    0.000    0.000    0.000    0.000    0.000    0.000 
#
# Total GULP energy -396776.792192 kJ/mol
# GULP energy per Si atom -12399.274756 kJ/mol
# Density = 2.148856 g / cm^3
# Si number density = 21.537581 Si / 1000 Ang^3
#
#
#
# Elastic Constant Matrix: (Units=GPa)
#
#
# Indices 1 2 3 4 5 6 
#
# 1 60.1304 7.4767 2.3216 0.0000 0.0000 0.0000
# 2 7.4767 100.8482 -3.0752 0.0000 0.0000 0.0000
# 3 2.3216 -3.0752 125.2998 0.0000 0.0000 0.0000
# 4 0.0000 0.0000 0.0000 25.9461 0.0000 0.0000
# 5 0.0000 0.0000 0.0000 0.0000 113.8956 0.0000
# 6 0.0000 0.0000 0.0000 0.0000 0.0000 8.3199
#
#
#
# Elastic Compliance Matrix: (Units=1/GPa)
#
#
# Indices 1 2 3 4 5 6 
#
# 1 0.016800 -0.001256 -0.000342 0.000000 0.000000 0.000000
# 2 -0.001256 0.010017 0.000269 0.000000 0.000000 0.000000
# 3 -0.000342 0.000269 0.007994 0.000000 0.000000 0.000000
# 4 0.000000 0.000000 0.000000 0.038541 0.000000 0.000000
# 5 0.000000 0.000000 0.000000 0.000000 0.008780 0.000000
# 6 0.000000 0.000000 0.000000 0.000000 0.000000 0.120193
#
#
# Mechanical properties :
#
#
# Convention : Reuss Voigt Hill
#
# Bulk Modulus (GPa) = 31.10121 33.30271 32.20196
# Shear Modulus (GPa) = 23.18020 48.26934 35.72477
#
# Velocity S-wave (km/s) = 3.28421 4.73923 4.07715
# Velocity P-wave (km/s) = 5.37152 6.74116 6.09493
#
# Compressibility (1/GPa) = 0.03215309
#
# Stress axis : x y z
#
# Youngs Moduli (GPa) = 59.52415 99.82815 125.09689
#
# Poissons Ratio (x) = 0.12538 0.04279
# Poissons Ratio (y) = 0.07476 -0.03367
# Poissons Ratio (z) = 0.02036 -0.02687
#
# Static dielectric constant tensor:
#      x y z
#    x 3.457870 0.000000 0.000000 
#    y 0.000000 3.750230 0.000000 
#    z 0.000000 0.000000 4.454230 
# 
# 
# High freq. dielectric constant tensor:
#      x y z
#    x 1.835070 0.000000 0.000000 
#    y 0.000000 1.827590 0.000000 
#    z 0.000000 0.000000 1.876040 
# 
# From -- ./inp_files/865.got.cif
#   From: 2010.03.12/outbox.cif.g09.slc.cpg/sg28_1_cif.got.tgz:865.got - 2010.04.14 03:39:34.
