data_PCOD8167311
_publ_section_title
;
Structure prediction by ZEFSAII (Michael W. Deem and Ramdas Pophale) SiO2 
 PCOD8167311
Probable space group: P M C 21
;
_chemical_formula_sum "Si O2"
_cell_formula_units_Z 28
_cell_length_a 17.916206
_cell_length_b 9.197343
_cell_length_c 8.663737
_cell_angle_alpha 90.000000
_cell_angle_beta 90.000000
_cell_angle_gamma 90.000000
_cell_volume 1427.623508
_symmetry_space_group_name_H-M "P M C 21"
_symmetry_group_IT_number 26
_symmetry_cell_setting 'orthorhombic'
loop_
_space_group_symop_operation_xyz
x,y,z
-x,-y,1/2+z
-x,y,z
x,-y,1/2+z
loop_
_atom_site_type_symbol
_atom_site_label
_atom_site_fract_x
_atom_site_fract_y
_atom_site_fract_z
Si Si1 0.215054 0.108737 0.208950
Si Si2 0.661822 0.611506 0.211535
Si Si3 0.500000 0.582211 0.250539
Si Si4 0.500000 0.691402 0.579039
Si Si5 0.216609 0.194612 0.562929
Si Si6 0.337103 0.697137 0.561203
Si Si7 0.083544 0.310198 0.158498
Si Si8 0.915703 0.603567 0.007260
O O1 0.224258 0.136792 0.389674
O O2 0.138140 0.173945 0.142060
O O3 0.213956 0.936934 0.183429
O O4 0.282242 0.176677 0.112387
O O5 0.575002 0.656007 0.181280
O O6 0.712126 0.705730 0.097454
O O7 0.682871 0.642663 0.389265
O O8 0.672040 0.440207 0.175972
O O9 0.500000 0.583281 0.434131
O O10 0.500000 0.409445 0.228318
O O11 0.420143 0.774308 0.572235
O O12 0.140819 0.285626 0.589502
O O13 0.089803 0.381916 0.325331
O O14 0.107302 0.437223 0.040918
O O15 0.000000 0.253143 0.124805
O O16 0.000000 0.635107 0.067910
#
# Coordination Sequence:
#
# PCOD8167311 Si02
#       8
#     4   4   2   2   4   4   4   4
#     4  11  23  37  53  76 107 142 179 218 263 313
#     4  10  19  34  56  81 108 138 175 217 262 311
#     4   8  16  30  51  78 105 134 170 214 260 308
#     4   8  16  30  51  78 105 134 170 214 260 308
#     4  11  23  37  53  76 107 142 179 218 263 313
#     4  10  19  34  56  81 108 138 175 217 262 311
#     4   9  19  36  57  80 105 134 171 214 259 309
#     4   9  19  36  57  80 105 134 171 214 259 309
#
# _framework density 19.613014
#
# number of rings (size 3 to 8) (size 9 to 14) (size 15 to 20)
#    0.000    2.286    0.000    2.571    0.000    6.286 
#    0.000    0.714    0.000    0.000    0.000    0.000 
#    0.000    0.000    0.000    0.000    0.000    0.000 
#
# Total GULP energy -347078.778022 kJ/mol
# GULP energy per Si atom -12395.670644 kJ/mol
# Density = 1.956837 g / cm^3
# Si number density = 19.613014 Si / 1000 Ang^3
#
#
#
# Elastic Constant Matrix: (Units=GPa)
#
#
# Indices 1 2 3 4 5 6 
#
# 1 105.3895 31.2972 22.0404 0.0000 0.0000 0.0000
# 2 31.2972 55.1871 -1.8234 0.0000 0.0000 0.0000
# 3 22.0404 -1.8234 36.5554 0.0000 0.0000 0.0000
# 4 0.0000 0.0000 0.0000 31.6152 0.0000 0.0000
# 5 0.0000 0.0000 0.0000 0.0000 29.1419 0.0000
# 6 0.0000 0.0000 0.0000 0.0000 0.0000 8.4925
#
#
#
# Elastic Compliance Matrix: (Units=1/GPa)
#
#
# Indices 1 2 3 4 5 6 
#
# 1 0.013689 -0.008049 -0.008655 0.000000 0.000000 0.000000
# 2 -0.008049 0.022883 0.005994 0.000000 0.000000 0.000000
# 3 -0.008655 0.005994 0.032873 0.000000 0.000000 0.000000
# 4 0.000000 0.000000 0.000000 0.031630 0.000000 0.000000
# 5 0.000000 0.000000 0.000000 0.000000 0.034315 0.000000
# 6 0.000000 0.000000 0.000000 0.000000 0.000000 0.117751
#
#
# Mechanical properties :
#
#
# Convention : Reuss Voigt Hill
#
# Bulk Modulus (GPa) = 20.82216 33.35116 27.08666
# Shear Modulus (GPa) = 17.20762 23.55777 20.38269
#
# Velocity S-wave (km/s) = 2.96524 3.46949 3.22723
# Velocity P-wave (km/s) = 4.72896 5.75251 5.26566
#
# Compressibility (1/GPa) = 0.04802576
#
# Stress axis : x y z
#
# Youngs Moduli (GPa) = 73.05152 43.70064 30.41997
#
# Poissons Ratio (x) = 0.35175 0.26328
# Poissons Ratio (y) = 0.58800 -0.18235
# Poissons Ratio (z) = 0.63226 -0.26196
#
# Static dielectric constant tensor:
#      x y z
#    x 4.051870 0.000000 0.000000 
#    y 0.000000 3.262260 0.000000 
#    z 0.000000 0.000000 3.549180 
# 
# 
# High freq. dielectric constant tensor:
#      x y z
#    x 1.785300 0.000000 0.000000 
#    y 0.000000 1.729020 0.000000 
#    z 0.000000 0.000000 1.767630 
# 
# From -- ./inp_files/2414.got.cif
#   From: 2010.03.12/outbox.cif.g09.slc.cpg/sg26_2_cif.got.tgz:2414.got - 2010.04.14 03:33:09.
