data_PCOD8167983
_publ_section_title
;
Structure prediction by ZEFSAII (Michael W. Deem and Ramdas Pophale) SiO2 
 PCOD8167983
Probable space group: P M A 2
;
_chemical_formula_sum "Si O2"
_cell_formula_units_Z 32
_cell_length_a 8.700898
_cell_length_b 9.383911
_cell_length_c 20.691700
_cell_angle_alpha 90.000000
_cell_angle_beta 90.000000
_cell_angle_gamma 90.000000
_cell_volume 1689.445284
_symmetry_space_group_name_H-M "P M A 2"
_symmetry_group_IT_number 28
_symmetry_cell_setting 'orthorhombic'
loop_
_space_group_symop_operation_xyz
x,y,z
-x,-y,z
1/2-x,y,z
1/2+x,-y,z
loop_
_atom_site_type_symbol
_atom_site_label
_atom_site_fract_x
_atom_site_fract_y
_atom_site_fract_z
Si Si1 0.569550 0.843723 0.871230
Si Si2 0.067583 0.656504 0.984448
Si Si3 0.430708 0.148779 0.239185
Si Si4 0.070447 0.344071 0.491283
Si Si5 0.070623 0.345757 0.747460
Si Si6 0.070432 0.346434 0.350564
Si Si7 0.931633 0.341859 0.617567
Si Si8 0.568056 0.846579 0.092479
O O1 0.750000 0.852509 0.886610
O O2 0.485657 0.760335 0.927976
O O3 0.535320 0.761347 0.805246
O O4 0.500000 0.000000 0.865426
O O5 0.250000 0.646055 0.985642
O O6 0.000000 0.500000 0.973224
O O7 0.007195 0.720476 0.051612
O O8 0.250000 0.138178 0.245961
O O9 0.501315 0.257687 0.291391
O O10 0.476849 0.190817 0.166259
O O11 0.500000 0.000000 0.259110
O O12 0.250000 0.354843 0.505897
O O13 0.037686 0.272276 0.420992
O O14 0.000000 0.500000 0.487289
O O15 0.990471 0.261593 0.551987
O O16 0.250000 0.367826 0.735623
O O17 0.000000 0.500000 0.763768
O O18 0.995878 0.272502 0.683590
O O19 0.250000 0.363784 0.340446
O O20 0.000000 0.500000 0.347192
O O21 0.750000 0.342278 0.619115
O O22 0.000000 0.500000 0.616192
O O23 0.750000 0.850902 0.081214
O O24 0.500000 0.000000 0.072004
#
# Coordination Sequence:
#
# PCOD8167983 Si02
#       8
#     4   4   4   4   4   4   4   4
#     4  11  24  41  61  84 111 145 182 219 263 316
#     4  12  25  41  61  85 114 144 178 220 266 315
#     4   9  19  35  54  77 105 139 178 218 261 313
#     4   9  15  25  42  65  97 132 168 212 262 314
#     4  10  20  34  54  80 108 138 174 217 265 314
#     4   9  18  31  48  73 103 135 173 218 266 314
#     4  10  17  26  44  70 101 134 171 214 261 313
#     4  10  20  37  59  82 110 143 181 222 266 319
#
# _framework density 18.941127000000002
#
# number of rings (size 3 to 8) (size 9 to 14) (size 15 to 20)
#    0.000    2.000    0.000    6.000    0.000    5.000 
#    0.000    1.250    0.000    0.750    0.000    1.750 
#    0.000    0.000    0.000    0.000    0.000    0.000 
#
# Total GULP energy -396649.417866 kJ/mol
# GULP energy per Si atom -12395.294308 kJ/mol
# Density = 1.889802 g / cm^3
# Si number density = 18.941127 Si / 1000 Ang^3
#
#
#
# Elastic Constant Matrix: (Units=GPa)
#
#
# Indices 1 2 3 4 5 6 
#
# 1 113.0491 45.0166 64.3274 0.0000 0.0000 0.0000
# 2 45.0166 91.0068 66.2373 0.0000 0.0000 0.0000
# 3 64.3274 66.2373 153.3567 0.0000 0.0000 0.0000
# 4 0.0000 0.0000 0.0000 -4.3859 0.0000 0.0000
# 5 0.0000 0.0000 0.0000 0.0000 28.3921 0.0000
# 6 0.0000 0.0000 0.0000 0.0000 0.0000 26.8049
#
#
#
# Elastic Compliance Matrix: (Units=1/GPa)
#
#
# Indices 1 2 3 4 5 6 
#
# 1 0.012299 -0.003397 -0.003692 0.000000 0.000000 0.000000
# 2 -0.003397 0.016964 -0.005902 0.000000 0.000000 0.000000
# 3 -0.003692 -0.005902 0.010619 0.000000 0.000000 0.000000
# 4 0.000000 0.000000 0.000000 -0.228002 0.000000 0.000000
# 5 0.000000 0.000000 0.000000 0.000000 0.035221 0.000000
# 6 0.000000 0.000000 0.000000 0.000000 0.000000 0.037307
#
#
# Mechanical properties :
#
#
# Convention : Reuss Voigt Hill
#
# Bulk Modulus (GPa) = 71.94184 78.73058 75.33621
# Shear Modulus (GPa) = -58.83972 22.28430 -18.27771
#
# Velocity S-wave (km/s) = -5.57960 3.43374 -3.10977
# Velocity P-wave (km/s) = 1.85608 7.57476 5.19288
#
# Compressibility (1/GPa) = 0.01390012
#
# Stress axis : x y z
#
# Youngs Moduli (GPa) = 81.30704 58.94741 94.17336
#
# Poissons Ratio (x) = 0.20022 0.34768
# Poissons Ratio (y) = 0.27617 0.55585
# Poissons Ratio (z) = 0.30018 0.34793
#
# Static dielectric constant tensor:
#      x y z
#    x 3.573750 0.000000 0.000000 
#    y 0.000000 3.316950 0.000000 
#    z 0.000000 0.000000 4.446390 
# 
# 
# High freq. dielectric constant tensor:
#      x y z
#    x 1.749100 0.000000 0.000000 
#    y 0.000000 1.694360 0.000000 
#    z 0.000000 0.000000 1.766040 
# 
# From -- ./inp_files/7065.got.cif
#   From: 2010.03.12/outbox.cif.g09.slc.cpg/sg28_4_cif.got.tgz:7065.got - 2010.04.14 03:39:34.
