data_PCOD8167376
_publ_section_title
;
Structure prediction by ZEFSAII (Michael W. Deem and Ramdas Pophale) SiO2 
 PCOD8167376
Probable space group: P M C 21
;
_chemical_formula_sum "Si O2"
_cell_formula_units_Z 32
_cell_length_a 9.206819
_cell_length_b 14.331957
_cell_length_c 12.240113
_cell_angle_alpha 90.000000
_cell_angle_beta 90.000000
_cell_angle_gamma 90.000000
_cell_volume 1615.104135
_symmetry_space_group_name_H-M "P M C 21"
_symmetry_group_IT_number 26
_symmetry_cell_setting 'orthorhombic'
loop_
_space_group_symop_operation_xyz
x,y,z
-x,-y,1/2+z
-x,y,z
x,-y,1/2+z
loop_
_atom_site_type_symbol
_atom_site_label
_atom_site_fract_x
_atom_site_fract_y
_atom_site_fract_z
Si Si1 0.668233 0.256603 0.494400
Si Si2 0.668718 0.129617 0.298362
Si Si3 0.829590 0.619177 0.511415
Si Si4 0.338959 0.451695 0.583202
Si Si5 0.661544 0.348752 0.805415
Si Si6 0.166243 0.189970 0.694551
Si Si7 0.165531 0.956521 0.373397
Si Si8 0.170199 0.172827 0.076803
O O1 0.500000 0.247801 0.529576
O O2 0.693368 0.223645 0.369938
O O3 0.716602 0.364769 0.507840
O O4 0.757550 0.189415 0.576401
O O5 0.500000 0.111833 0.276290
O O6 0.748035 0.135724 0.183031
O O7 0.730555 0.045594 0.371845
O O8 0.776335 0.535609 0.588649
O O9 0.743303 0.597389 0.401090
O O10 0.784837 0.719733 0.558859
O O11 0.000000 0.613262 0.490941
O O12 0.500000 0.484355 0.543744
O O13 0.349059 0.419506 0.706719
O O14 0.500000 0.317010 0.841395
O O15 0.756049 0.259201 0.777388
O O16 0.176265 0.089992 0.753259
O O17 0.000000 0.221303 0.679598
O O18 0.215795 0.887003 0.470489
O O19 0.000000 0.988300 0.395354
O O20 0.000000 0.163921 0.099421
#
# Coordination Sequence:
#
# PCOD8167376 Si02
#       8
#     4   4   4   4   4   4   4   4
#     4   9  21  41  59  84 124 161 199 249 306 361
#     4  11  25  41  61  91 124 160 205 255 300 359
#     4  11  22  38  61  90 121 155 203 256 299 355
#     4   9  20  38  59  85 118 161 204 244 304 367
#     4  10  20  36  58  84 117 156 197 245 304 362
#     4  10  19  35  61  88 113 148 199 250 297 354
#     4  10  22  41  62  86 119 159 198 246 306 366
#     4  10  23  44  63  86 124 162 199 245 306 368
#
# _framework density 19.812964999999998
#
# number of rings (size 3 to 8) (size 9 to 14) (size 15 to 20)
#    0.000    2.000    1.250    2.250    1.750    7.000 
#    0.000    3.750    0.000    0.000    0.000    0.000 
#    0.000    0.000    0.000    0.000    0.000    0.000 
#
# Total GULP energy -396790.154761 kJ/mol
# GULP energy per Si atom -12399.692336 kJ/mol
# Density = 1.976787 g / cm^3
# Si number density = 19.812965 Si / 1000 Ang^3
#
#
#
# Elastic Constant Matrix: (Units=GPa)
#
#
# Indices 1 2 3 4 5 6 
#
# 1 99.6142 52.4045 43.6723 0.0000 0.0000 0.0000
# 2 52.4045 108.3256 40.7735 0.0000 0.0000 0.0000
# 3 43.6723 40.7735 87.2117 0.0000 0.0000 0.0000
# 4 0.0000 0.0000 0.0000 19.6233 0.0000 0.0000
# 5 0.0000 0.0000 0.0000 0.0000 35.2081 0.0000
# 6 0.0000 0.0000 0.0000 0.0000 0.0000 32.3371
#
#
#
# Elastic Compliance Matrix: (Units=1/GPa)
#
#
# Indices 1 2 3 4 5 6 
#
# 1 0.015087 -0.005406 -0.005027 0.000000 0.000000 0.000000
# 2 -0.005406 0.013140 -0.003436 0.000000 0.000000 0.000000
# 3 -0.005027 -0.003436 0.015590 0.000000 0.000000 0.000000
# 4 0.000000 0.000000 0.000000 0.050960 0.000000 0.000000
# 5 0.000000 0.000000 0.000000 0.000000 0.028403 0.000000
# 6 0.000000 0.000000 0.000000 0.000000 0.000000 0.030924
#
#
# Mechanical properties :
#
#
# Convention : Reuss Voigt Hill
#
# Bulk Modulus (GPa) = 62.19716 63.20581 62.70149
# Shear Modulus (GPa) = 26.70900 27.98712 27.34806
#
# Velocity S-wave (km/s) = 3.67557 3.76249 3.71928
# Velocity P-wave (km/s) = 7.03373 7.13061 7.08234
#
# Compressibility (1/GPa) = 0.01607790
#
# Stress axis : x y z
#
# Youngs Moduli (GPa) = 66.28257 76.10267 64.14236
#
# Poissons Ratio (x) = 0.41143 0.32247
# Poissons Ratio (y) = 0.35834 0.22040
# Poissons Ratio (z) = 0.33323 0.26149
#
# Static dielectric constant tensor:
#      x y z
#    x 3.683660 0.000000 0.000000 
#    y 0.000000 3.564150 0.000000 
#    z 0.000000 0.000000 3.549020 
# 
# 
# High freq. dielectric constant tensor:
#      x y z
#    x 1.777450 0.000000 0.000000 
#    y 0.000000 1.766700 0.000000 
#    z 0.000000 0.000000 1.771210 
# 
# From -- ./inp_files/2995.got.cif
#   From: 2010.03.12/outbox.cif.g09.slc.cpg/sg26_2_cif.got.tgz:2995.got - 2010.04.14 03:33:09.
