data_PCOD8167194
_publ_section_title
;
Structure prediction by ZEFSAII (Michael W. Deem and Ramdas Pophale) SiO2 
 PCOD8167194
Probable space group: P M C 21
;
_chemical_formula_sum "Si O2"
_cell_formula_units_Z 32
_cell_length_a 9.170186
_cell_length_b 11.416412
_cell_length_c 17.829996
_cell_angle_alpha 90.000000
_cell_angle_beta 90.000000
_cell_angle_gamma 90.000000
_cell_volume 1866.633362
_symmetry_space_group_name_H-M "P M C 21"
_symmetry_group_IT_number 26
_symmetry_cell_setting 'orthorhombic'
loop_
_space_group_symop_operation_xyz
x,y,z
-x,-y,1/2+z
-x,y,z
x,-y,1/2+z
loop_
_atom_site_type_symbol
_atom_site_label
_atom_site_fract_x
_atom_site_fract_y
_atom_site_fract_z
Si Si1 0.830530 0.756311 0.886900
Si Si2 0.667702 0.899611 0.586498
Si Si3 0.335515 0.659641 0.105858
Si Si4 0.340101 0.448365 0.440995
Si Si5 0.665805 0.341939 0.026330
Si Si6 0.173467 0.131872 0.540950
Si Si7 0.833654 0.545771 0.656668
Si Si8 0.831961 0.215366 0.222547
O O1 0.768370 0.623943 0.889009
O O2 0.791218 0.819833 0.808313
O O3 0.000000 0.738073 0.894568
O O4 0.773647 0.834113 0.956669
O O5 0.500000 0.939590 0.596622
O O6 0.680076 0.798852 0.522241
O O7 0.724616 0.852473 0.666731
O O8 0.767058 0.004087 0.558103
O O9 0.500000 0.690507 0.130553
O O10 0.241739 0.778588 0.101317
O O11 0.264781 0.570957 0.167349
O O12 0.329971 0.595290 0.026509
O O13 0.500000 0.425760 0.407468
O O14 0.307660 0.589406 0.446785
O O15 0.500000 0.373010 0.054579
O O16 0.790010 0.384965 0.082067
O O17 0.000000 0.133198 0.548841
O O18 0.811871 0.642810 0.721564
O O19 0.000000 0.503706 0.650058
O O20 0.000000 0.182884 0.203156
#
# Coordination Sequence:
#
# PCOD8167194 Si02
#       8
#     4   4   4   4   4   4   4   4
#     4   9  18  31  47  68  94 123 155 194 239 288
#     4  10  19  31  48  70  95 125 164 204 242 284
#     4   9  16  27  43  64  91 118 146 183 226 272
#     4   8  14  25  42  64  88 113 142 179 225 273
#     4   8  15  27  42  62  89 117 144 180 225 271
#     4  10  19  31  48  70  95 125 164 203 239 281
#     4   9  15  24  42  66  89 113 143 181 226 273
#     4   9  18  32  48  68  95 124 156 196 242 290
#
# _framework density 17.143163999999999
#
# number of rings (size 3 to 8) (size 9 to 14) (size 15 to 20)
#    0.000    3.000    0.000    2.250    0.000    5.000 
#    0.000    0.000    0.000    1.500    0.000    8.750 
#    0.000    0.000    0.000    0.000    0.000    0.000 
#
# Total GULP energy -396436.022439 kJ/mol
# GULP energy per Si atom -12388.625701 kJ/mol
# Density = 1.710415 g / cm^3
# Si number density = 17.143164 Si / 1000 Ang^3
#
#
#
# Elastic Constant Matrix: (Units=GPa)
#
#
# Indices 1 2 3 4 5 6 
#
# 1 83.1492 44.8927 27.5575 0.0000 0.0000 0.0000
# 2 44.8927 105.5302 28.8925 0.0000 0.0000 0.0000
# 3 27.5575 28.8925 46.6078 0.0000 0.0000 0.0000
# 4 0.0000 0.0000 0.0000 15.7529 0.0000 0.0000
# 5 0.0000 0.0000 0.0000 0.0000 15.7826 0.0000
# 6 0.0000 0.0000 0.0000 0.0000 0.0000 32.3330
#
#
#
# Elastic Compliance Matrix: (Units=1/GPa)
#
#
# Indices 1 2 3 4 5 6 
#
# 1 0.017233 -0.005470 -0.006798 0.000000 0.000000 0.000000
# 2 -0.005470 0.013149 -0.004917 0.000000 0.000000 0.000000
# 3 -0.006798 -0.004917 0.028524 0.000000 0.000000 0.000000
# 4 0.000000 0.000000 0.000000 0.063480 0.000000 0.000000
# 5 0.000000 0.000000 0.000000 0.000000 0.063361 0.000000
# 6 0.000000 0.000000 0.000000 0.000000 0.000000 0.030928
#
#
# Mechanical properties :
#
#
# Convention : Reuss Voigt Hill
#
# Bulk Modulus (GPa) = 40.75841 48.66361 44.71101
# Shear Modulus (GPa) = 19.28836 21.70332 20.49584
#
# Velocity S-wave (km/s) = 3.35794 3.56196 3.46145
# Velocity P-wave (km/s) = 6.23388 6.73535 6.48946
#
# Compressibility (1/GPa) = 0.02453481
#
# Stress axis : x y z
#
# Youngs Moduli (GPa) = 58.02903 76.05164 35.05876
#
# Poissons Ratio (x) = 0.41597 0.23835
# Poissons Ratio (y) = 0.31739 0.17239
# Poissons Ratio (z) = 0.39451 0.37396
#
# Static dielectric constant tensor:
#      x y z
#    x 3.291440 0.000000 0.000000 
#    y 0.000000 3.335900 0.000000 
#    z 0.000000 0.000000 2.978080 
# 
# 
# High freq. dielectric constant tensor:
#      x y z
#    x 1.672950 0.000000 0.000000 
#    y 0.000000 1.655250 0.000000 
#    z 0.000000 0.000000 1.611870 
# 
# From -- ./inp_files/4150.got.cif
#   From: 2010.03.12/outbox.cif.g09.slc.cpg/sg26_3_cif.got.tgz:4150.got - 2010.04.14 03:33:09.
