data_PCOD8167967
_publ_section_title
;
Structure prediction by ZEFSAII (Michael W. Deem and Ramdas Pophale) SiO2 
 PCOD8167967
Probable space group: P M A 2
;
_chemical_formula_sum "Si O2"
_cell_formula_units_Z 24
_cell_length_a 8.696072
_cell_length_b 9.310470
_cell_length_c 15.740847
_cell_angle_alpha 90.000000
_cell_angle_beta 90.000000
_cell_angle_gamma 90.000000
_cell_volume 1274.450082
_symmetry_space_group_name_H-M "P M A 2"
_symmetry_group_IT_number 28
_symmetry_cell_setting 'orthorhombic'
loop_
_space_group_symop_operation_xyz
x,y,z
-x,-y,z
1/2-x,y,z
1/2+x,-y,z
loop_
_atom_site_type_symbol
_atom_site_label
_atom_site_fract_x
_atom_site_fract_y
_atom_site_fract_z
Si Si1 0.927519 0.345097 0.424360
Si Si2 0.071780 0.657154 0.236412
Si Si3 0.932634 0.340395 0.758586
Si Si4 0.931792 0.660162 0.589666
Si Si5 0.569260 0.844013 0.090818
Si Si6 0.568222 0.656981 0.929722
O O1 0.750000 0.358251 0.449746
O O2 0.949238 0.274761 0.331315
O O3 0.000000 0.500000 0.414242
O O4 0.014609 0.261074 0.501768
O O5 0.250000 0.642348 0.213112
O O6 0.000000 0.500000 0.226026
O O7 0.991986 0.768988 0.174920
O O8 0.750000 0.341045 0.757375
O O9 0.000000 0.500000 0.758424
O O10 0.997207 0.261752 0.673415
O O11 0.995384 0.268326 0.845229
O O12 0.750000 0.658182 0.597372
O O13 0.000000 0.500000 0.584592
O O14 0.750000 0.856793 0.098261
O O15 0.500000 0.000000 0.081210
O O16 0.519093 0.753681 0.008766
O O17 0.500000 0.500000 0.945898
O O18 0.750000 0.644710 0.918233
#
# Coordination Sequence:
#
# PCOD8167967 Si02
#       6
#     4   4   4   4   4   4
#     4   9  16  26  41  65  96 130 165 203 245 293
#     4  10  20  34  54  78 106 137 173 214 257 305
#     4  10  17  26  42  65  95 130 164 202 245 294
#     4  10  16  23  37  60  94 131 163 200 243 292
#     4  11  24  39  56  76 102 134 171 214 261 311
#     4  10  20  34  52  76 102 132 168 209 253 301
#
# _framework density 18.83165
#
# number of rings (size 3 to 8) (size 9 to 14) (size 15 to 20)
#    0.000    2.000    0.000    8.500    0.000    6.000 
#    0.000    0.000    0.000    0.000    0.000    1.167 
#    0.000    2.667    0.000    0.000    0.000    0.000 
#
# Total GULP energy -297430.742022 kJ/mol
# GULP energy per Si atom -12392.947584 kJ/mol
# Density = 1.878879 g / cm^3
# Si number density = 18.831650 Si / 1000 Ang^3
#
#
#
# Elastic Constant Matrix: (Units=GPa)
#
#
# Indices 1 2 3 4 5 6 
#
# 1 131.1405 29.9631 80.1838 0.0000 0.0000 0.0000
# 2 29.9631 55.6624 49.9694 0.0000 0.0000 0.0000
# 3 80.1838 49.9694 191.7261 0.0000 0.0000 0.0000
# 4 0.0000 0.0000 0.0000 -0.1796 0.0000 0.0000
# 5 0.0000 0.0000 0.0000 0.0000 42.0631 0.0000
# 6 0.0000 0.0000 0.0000 0.0000 0.0000 17.7797
#
#
#
# Elastic Compliance Matrix: (Units=1/GPa)
#
#
# Indices 1 2 3 4 5 6 
#
# 1 0.010452 -0.002222 -0.003792 0.000000 0.000000 0.000000
# 2 -0.002222 0.023925 -0.005306 0.000000 0.000000 0.000000
# 3 -0.003792 -0.005306 0.008185 0.000000 0.000000 0.000000
# 4 0.000000 0.000000 0.000000 -5.569423 0.000000 0.000000
# 5 0.000000 0.000000 0.000000 0.000000 0.023774 0.000000
# 6 0.000000 0.000000 0.000000 0.000000 0.000000 0.056244
#
#
# Mechanical properties :
#
#
# Convention : Reuss Voigt Hill
#
# Bulk Modulus (GPa) = 50.19859 77.64019 63.91939
# Shear Modulus (GPa) = -0.92292 26.49349 12.78528
#
# Velocity S-wave (km/s) = -0.70083 3.75488 2.60845
# Velocity P-wave (km/s) = 5.10485 7.75351 6.56416
#
# Compressibility (1/GPa) = 0.01992088
#
# Stress axis : x y z
#
# Youngs Moduli (GPa) = 95.67881 41.79705 122.18011
#
# Poissons Ratio (x) = 0.09287 0.46330
# Poissons Ratio (y) = 0.21260 0.64833
# Poissons Ratio (z) = 0.36281 0.22179
#
# Static dielectric constant tensor:
#      x y z
#    x 3.594580 0.000000 0.000000 
#    y 0.000000 2.800690 0.000000 
#    z 0.000000 0.000000 5.035820 
# 
# 
# High freq. dielectric constant tensor:
#      x y z
#    x 1.754380 0.000000 0.000000 
#    y 0.000000 1.647040 0.000000 
#    z 0.000000 0.000000 1.771810 
# 
# From -- ./inp_files/6688.got.cif
#   From: 2010.03.12/outbox.cif.g09.slc.cpg/sg28_4_cif.got.tgz:6688.got - 2010.04.14 03:39:34.
