data_PCOD8167146
_publ_section_title
;
Structure prediction by ZEFSAII (Michael W. Deem and Ramdas Pophale) SiO2 
 PCOD8167146
Probable space group: P M C 21
;
_chemical_formula_sum "Si O2"
_cell_formula_units_Z 32
_cell_length_a 8.826476
_cell_length_b 12.017651
_cell_length_c 14.415944
_cell_angle_alpha 90.000000
_cell_angle_beta 90.000000
_cell_angle_gamma 90.000000
_cell_volume 1529.149753
_symmetry_space_group_name_H-M "P M C 21"
_symmetry_group_IT_number 26
_symmetry_cell_setting 'orthorhombic'
loop_
_space_group_symop_operation_xyz
x,y,z
-x,-y,1/2+z
-x,y,z
x,-y,1/2+z
loop_
_atom_site_type_symbol
_atom_site_label
_atom_site_fract_x
_atom_site_fract_y
_atom_site_fract_z
Si Si1 0.677518 0.915296 0.000000
Si Si2 0.675395 0.394191 0.289192
Si Si3 0.180102 0.114255 0.887358
Si Si4 0.831266 0.287387 0.027944
Si Si5 0.830205 0.176829 0.217911
Si Si6 0.820332 0.496432 0.626496
Si Si7 0.676816 0.047514 0.709563
Si Si8 0.672952 0.661923 0.991185
O O1 0.500000 0.941856 0.993048
O O2 0.716191 0.789532 0.968232
O O3 0.763187 0.999388 0.932623
O O4 0.734486 0.928174 0.105978
O O5 0.500000 0.375025 0.263854
O O6 0.772725 0.285987 0.268183
O O7 0.742508 0.496584 0.228474
O O8 0.695297 0.414593 0.399449
O O9 0.246852 0.223296 0.941539
O O10 0.236723 0.127646 0.781853
O O11 0.000000 0.114726 0.892438
O O12 0.000000 0.322706 0.998956
O O13 0.832834 0.195192 0.108129
O O14 0.752119 0.400865 0.064321
O O15 0.000000 0.147633 0.253185
O O16 0.715677 0.077705 0.240292
O O17 0.777058 0.382712 0.574928
O O18 0.000000 0.506117 0.640310
O O19 0.500000 0.069122 0.719644
O O20 0.500000 0.656925 0.025948
#
# Coordination Sequence:
#
# PCOD8167146 Si02
#       8
#     4   4   4   4   4   4   4   4
#     4  10  22  40  60  85 122 158 194 244 293 351
#     4  10  20  36  61  90 119 154 197 245 300 356
#     4  11  21  36  59  85 117 154 194 239 292 354
#     4   8  17  34  55  80 110 141 180 237 290 332
#     4  10  18  33  57  84 115 149 194 245 286 339
#     4  10  21  39  62  87 117 151 196 249 295 349
#     4  11  22  35  53  83 120 158 194 234 294 358
#     4  10  22  41  61  84 118 157 197 245 296 349
#
# _framework density 20.926660999999999
#
# number of rings (size 3 to 8) (size 9 to 14) (size 15 to 20)
#    0.000    2.000    1.250    3.375    0.000    3.000 
#    2.250    1.875    0.000    0.000    0.000    0.000 
#    0.000    0.000    0.000    0.000    0.000    0.000 
#
# Total GULP energy -396701.828441 kJ/mol
# GULP energy per Si atom -12396.932139 kJ/mol
# Density = 2.087903 g / cm^3
# Si number density = 20.926661 Si / 1000 Ang^3
#
#
#
# Elastic Constant Matrix: (Units=GPa)
#
#
# Indices 1 2 3 4 5 6 
#
# 1 69.5079 12.8006 31.7366 0.0000 0.0000 0.0000
# 2 12.8006 32.9765 3.2929 0.0000 0.0000 0.0000
# 3 31.7366 3.2929 87.3803 0.0000 0.0000 0.0000
# 4 0.0000 0.0000 0.0000 26.9335 0.0000 0.0000
# 5 0.0000 0.0000 0.0000 0.0000 30.7998 0.0000
# 6 0.0000 0.0000 0.0000 0.0000 0.0000 25.7121
#
#
#
# Elastic Compliance Matrix: (Units=1/GPa)
#
#
# Indices 1 2 3 4 5 6 
#
# 1 0.018559 -0.006556 -0.006494 0.000000 0.000000 0.000000
# 2 -0.006556 0.032755 0.001147 0.000000 0.000000 0.000000
# 3 -0.006494 0.001147 0.013760 0.000000 0.000000 0.000000
# 4 0.000000 0.000000 0.000000 0.037129 0.000000 0.000000
# 5 0.000000 0.000000 0.000000 0.000000 0.032468 0.000000
# 6 0.000000 0.000000 0.000000 0.000000 0.000000 0.038892
#
#
# Mechanical properties :
#
#
# Convention : Reuss Voigt Hill
#
# Bulk Modulus (GPa) = 24.23176 31.72498 27.97837
# Shear Modulus (GPa) = 23.68285 26.15805 24.92045
#
# Velocity S-wave (km/s) = 3.36773 3.53935 3.45461
# Velocity P-wave (km/s) = 5.16979 5.64762 5.41398
#
# Compressibility (1/GPa) = 0.04126816
#
# Stress axis : x y z
#
# Youngs Moduli (GPa) = 53.88194 30.52984 72.67697
#
# Poissons Ratio (x) = 0.20014 0.47194
# Poissons Ratio (y) = 0.35323 -0.08334
# Poissons Ratio (z) = 0.34989 -0.03501
#
# Static dielectric constant tensor:
#      x y z
#    x 3.641090 0.000000 0.000000 
#    y 0.000000 3.604400 0.000000 
#    z 0.000000 0.000000 4.053110 
# 
# 
# High freq. dielectric constant tensor:
#      x y z
#    x 1.806670 0.000000 0.000000 
#    y 0.000000 1.800230 0.000000 
#    z 0.000000 0.000000 1.826450 
# 
# From -- ./inp_files/4149.got.cif
#   From: 2010.03.12/outbox.cif.g09.slc.cpg/sg26_3_cif.got.tgz:4149.got - 2010.04.14 03:33:09.
