data_PCOD8167347
_publ_section_title
;
Structure prediction by ZEFSAII (Michael W. Deem and Ramdas Pophale) SiO2 
 PCOD8167347
Probable space group: P M C 21
;
_chemical_formula_sum "Si O2"
_cell_formula_units_Z 32
_cell_length_a 8.941882
_cell_length_b 14.691430
_cell_length_c 12.393890
_cell_angle_alpha 90.000000
_cell_angle_beta 90.000000
_cell_angle_gamma 90.000000
_cell_volume 1628.173350
_symmetry_space_group_name_H-M "P M C 21"
_symmetry_group_IT_number 26
_symmetry_cell_setting 'orthorhombic'
loop_
_space_group_symop_operation_xyz
x,y,z
-x,-y,1/2+z
-x,y,z
x,-y,1/2+z
loop_
_atom_site_type_symbol
_atom_site_label
_atom_site_fract_x
_atom_site_fract_y
_atom_site_fract_z
Si Si1 0.676494 0.940940 0.863240
Si Si2 0.324118 0.139555 0.921576
Si Si3 0.678051 0.825033 0.659481
Si Si4 0.827195 0.443570 0.654540
Si Si5 0.326506 0.377068 0.216325
Si Si6 0.835245 0.362142 0.425088
Si Si7 0.677525 0.269384 0.734436
Si Si8 0.169482 0.824085 0.034071
O O1 0.500000 0.925301 0.872681
O O2 0.739106 0.891195 0.755061
O O3 0.720891 0.047266 0.858682
O O4 0.748901 0.906812 0.974831
O O5 0.500000 0.142940 0.936346
O O6 0.272985 0.225085 0.848601
O O7 0.255530 0.144541 0.042924
O O8 0.500000 0.829170 0.661354
O O9 0.732122 0.721543 0.678650
O O10 0.764971 0.545030 0.656737
O O11 0.799873 0.415607 0.532779
O O12 0.741060 0.372160 0.731840
O O13 0.000000 0.440206 0.688035
O O14 0.500000 0.390447 0.192067
O O15 0.294970 0.388577 0.343038
O O16 0.830510 0.255331 0.446133
O O17 0.000000 0.389174 0.380033
O O18 0.500000 0.272476 0.721087
O O19 0.742787 0.205739 0.640624
O O20 0.000000 0.850327 0.066561
#
# Coordination Sequence:
#
# PCOD8167347 Si02
#       8
#     4   4   4   4   4   4   4   4
#     4  10  19  34  60  87 112 150 195 240 288 346
#     4   9  20  35  57  88 122 154 191 241 296 348
#     4   9  19  35  54  86 123 148 187 245 297 341
#     4  10  22  39  58  83 116 156 197 241 296 357
#     4  11  21  34  57  86 116 151 191 244 295 345
#     4   9  19  36  55  76 107 147 191 240 290 342
#     4  10  20  36  59  87 115 152 199 245 295 350
#     4  10  20  35  56  81 113 150 189 244 295 343
#
# _framework density 19.653926999999999
#
# number of rings (size 3 to 8) (size 9 to 14) (size 15 to 20)
#    0.000    2.250    1.250    2.250    1.750    3.500 
#    0.000    2.500    0.000    5.250    0.000    0.000 
#    0.000    0.000    0.000    0.000    0.000    0.000 
#
# Total GULP energy -396704.719313 kJ/mol
# GULP energy per Si atom -12397.022479 kJ/mol
# Density = 1.960919 g / cm^3
# Si number density = 19.653927 Si / 1000 Ang^3
#
#
#
# Elastic Constant Matrix: (Units=GPa)
#
#
# Indices 1 2 3 4 5 6 
#
# 1 63.9711 34.8657 31.6478 0.0000 0.0000 0.0000
# 2 34.8657 126.2928 54.2309 0.0000 0.0000 0.0000
# 3 31.6478 54.2309 91.1887 0.0000 0.0000 0.0000
# 4 0.0000 0.0000 0.0000 25.0763 0.0000 0.0000
# 5 0.0000 0.0000 0.0000 0.0000 16.3291 0.0000
# 6 0.0000 0.0000 0.0000 0.0000 0.0000 17.2299
#
#
#
# Elastic Compliance Matrix: (Units=1/GPa)
#
#
# Indices 1 2 3 4 5 6 
#
# 1 0.019900 -0.003395 -0.004887 0.000000 0.000000 0.000000
# 2 -0.003395 0.011213 -0.005490 0.000000 0.000000 0.000000
# 3 -0.004887 -0.005490 0.015928 0.000000 0.000000 0.000000
# 4 0.000000 0.000000 0.000000 0.039878 0.000000 0.000000
# 5 0.000000 0.000000 0.000000 0.000000 0.061240 0.000000
# 6 0.000000 0.000000 0.000000 0.000000 0.000000 0.058038
#
#
# Mechanical properties :
#
#
# Convention : Reuss Voigt Hill
#
# Bulk Modulus (GPa) = 51.29430 58.10460 54.69945
# Shear Modulus (GPa) = 20.81235 22.44095 21.62665
#
# Velocity S-wave (km/s) = 3.25767 3.38273 3.32079
# Velocity P-wave (km/s) = 6.34864 6.69964 6.52650
#
# Compressibility (1/GPa) = 0.01949534
#
# Stress axis : x y z
#
# Youngs Moduli (GPa) = 50.25016 89.18296 62.78445
#
# Poissons Ratio (x) = 0.30280 0.30686
# Poissons Ratio (y) = 0.17061 0.34469
# Poissons Ratio (z) = 0.24559 0.48962
#
# Static dielectric constant tensor:
#      x y z
#    x 3.408550 0.000000 0.000000 
#    y 0.000000 3.708040 0.000000 
#    z 0.000000 0.000000 3.625910 
# 
# 
# High freq. dielectric constant tensor:
#      x y z
#    x 1.742860 0.000000 0.000000 
#    y 0.000000 1.769750 0.000000 
#    z 0.000000 0.000000 1.765880 
# 
# From -- ./inp_files/3013.got.cif
#   From: 2010.03.12/outbox.cif.g09.slc.cpg/sg26_2_cif.got.tgz:3013.got - 2010.04.14 03:33:09.
