data_PCOD8167468
_publ_section_title
;
Structure prediction by ZEFSAII (Michael W. Deem and Ramdas Pophale) SiO2 
 PCOD8167468
Probable space group: P M C 21
;
_chemical_formula_sum "Si O2"
_cell_formula_units_Z 32
_cell_length_a 8.895317
_cell_length_b 11.283559
_cell_length_c 16.310654
_cell_angle_alpha 90.000000
_cell_angle_beta 90.000000
_cell_angle_gamma 90.000000
_cell_volume 1637.113948
_symmetry_space_group_name_H-M "P M C 21"
_symmetry_group_IT_number 26
_symmetry_cell_setting 'orthorhombic'
loop_
_space_group_symop_operation_xyz
x,y,z
-x,-y,1/2+z
-x,y,z
x,-y,1/2+z
loop_
_atom_site_type_symbol
_atom_site_label
_atom_site_fract_x
_atom_site_fract_y
_atom_site_fract_z
Si Si1 0.674498 0.175839 0.263160
Si Si2 0.322542 0.432263 0.634884
Si Si3 0.835276 0.803935 0.452401
Si Si4 0.164252 0.935186 0.619563
Si Si5 0.327341 0.077832 0.816345
Si Si6 0.174877 0.187417 0.666720
Si Si7 0.321005 0.434162 0.303181
Si Si8 0.176302 0.533071 0.469745
O O1 0.500000 0.198202 0.257702
O O2 0.727174 0.148170 0.171539
O O3 0.742139 0.299004 0.296936
O O4 0.715676 0.062025 0.319350
O O5 0.500000 0.444570 0.624813
O O6 0.277007 0.295334 0.637893
O O7 0.270266 0.496869 0.719733
O O8 0.246967 0.482924 0.553032
O O9 0.848236 0.882095 0.531652
O O10 0.700301 0.865477 0.404013
O O11 0.788833 0.671548 0.473687
O O12 0.000000 0.805794 0.408354
O O13 0.000000 0.936649 0.662915
O O14 0.218354 0.072036 0.612305
O O15 0.500000 0.093788 0.788911
O O16 0.216960 0.152288 0.758941
O O17 0.000000 0.223408 0.660546
O O18 0.500000 0.442160 0.313265
O O19 0.247596 0.485811 0.385312
O O20 0.000000 0.503300 0.469315
#
# Coordination Sequence:
#
# PCOD8167468 Si02
#       8
#     4   4   4   4   4   4   4   4
#     4   9  19  36  56  80 109 141 181 227 277 332
#     4  11  23  39  61  86 116 155 194 237 286 337
#     4  10  21  37  55  78 109 142 181 228 278 332
#     4   9  19  35  56  81 108 141 180 226 279 335
#     4  10  20  34  55  82 109 140 180 226 277 332
#     4  10  20  36  57  81 111 145 183 227 278 335
#     4  10  22  40  60  83 115 154 193 235 284 338
#     4  11  24  39  58  85 115 150 192 238 285 339
#
# _framework density 19.546593000000001
#
# number of rings (size 3 to 8) (size 9 to 14) (size 15 to 20)
#    0.000    2.000    0.000    3.000    0.000    7.000 
#    0.000    2.500    0.000    0.000    0.000    0.000 
#    0.000    0.000    0.000    0.000    0.000    0.000 
#
# Total GULP energy -396612.429025 kJ/mol
# GULP energy per Si atom -12394.138407 kJ/mol
# Density = 1.950210 g / cm^3
# Si number density = 19.546593 Si / 1000 Ang^3
#
#
#
# Elastic Constant Matrix: (Units=GPa)
#
#
# Indices 1 2 3 4 5 6 
#
# 1 48.1411 49.7022 44.9502 0.0000 0.0000 0.0000
# 2 49.7022 138.5381 76.8249 0.0000 0.0000 0.0000
# 3 44.9502 76.8249 123.2917 0.0000 0.0000 0.0000
# 4 0.0000 0.0000 0.0000 55.5475 0.0000 0.0000
# 5 0.0000 0.0000 0.0000 0.0000 33.2929 0.0000
# 6 0.0000 0.0000 0.0000 0.0000 0.0000 43.5552
#
#
#
# Elastic Compliance Matrix: (Units=1/GPa)
#
#
# Indices 1 2 3 4 5 6 
#
# 1 0.037647 -0.009007 -0.008113 0.000000 0.000000 0.000000
# 2 -0.009007 0.013184 -0.004931 0.000000 0.000000 0.000000
# 3 -0.008113 -0.004931 0.014142 0.000000 0.000000 0.000000
# 4 0.000000 0.000000 0.000000 0.018003 0.000000 0.000000
# 5 0.000000 0.000000 0.000000 0.000000 0.030036 0.000000
# 6 0.000000 0.000000 0.000000 0.000000 0.000000 0.022959
#
#
# Mechanical properties :
#
#
# Convention : Reuss Voigt Hill
#
# Bulk Modulus (GPa) = 47.91693 72.54729 60.23211
# Shear Modulus (GPa) = 26.73356 35.71204 31.22280
#
# Velocity S-wave (km/s) = 3.70223 4.27900 4.00103
# Velocity P-wave (km/s) = 6.54544 7.84913 7.22674
#
# Compressibility (1/GPa) = 0.02086945
#
# Stress axis : x y z
#
# Youngs Moduli (GPa) = 26.56270 75.84701 70.71384
#
# Poissons Ratio (x) = 0.68318 0.57369
# Poissons Ratio (y) = 0.23926 0.34872
# Poissons Ratio (z) = 0.21550 0.37404
#
# Static dielectric constant tensor:
#      x y z
#    x 3.717360 0.000000 0.000000 
#    y 0.000000 3.683860 0.000000 
#    z 0.000000 0.000000 3.431410 
# 
# 
# High freq. dielectric constant tensor:
#      x y z
#    x 1.763010 0.000000 0.000000 
#    y 0.000000 1.779900 0.000000 
#    z 0.000000 0.000000 1.752470 
# 
# From -- ./inp_files/4281.got.cif
#   From: 2010.03.12/outbox.cif.g09.slc.cpg/sg26_3_cif.got.tgz:4281.got - 2010.04.14 03:33:09.
