data_PCOD8167349
_publ_section_title
;
Structure prediction by ZEFSAII (Michael W. Deem and Ramdas Pophale) SiO2 
 PCOD8167349
Probable space group: P M C 21
;
_chemical_formula_sum "Si O2"
_cell_formula_units_Z 24
_cell_length_a 8.441667
_cell_length_b 15.698819
_cell_length_c 9.575457
_cell_angle_alpha 90.000000
_cell_angle_beta 90.000000
_cell_angle_gamma 90.000000
_cell_volume 1268.979800
_symmetry_space_group_name_H-M "P M C 21"
_symmetry_group_IT_number 26
_symmetry_cell_setting 'orthorhombic'
loop_
_space_group_symop_operation_xyz
x,y,z
-x,-y,1/2+z
-x,y,z
x,-y,1/2+z
loop_
_atom_site_type_symbol
_atom_site_label
_atom_site_fract_x
_atom_site_fract_y
_atom_site_fract_z
Si Si1 0.312535 0.566678 0.094020
Si Si2 0.687472 0.065351 0.598082
Si Si3 0.816705 0.075482 0.899990
Si Si4 0.324414 0.250658 0.920046
Si Si5 0.183284 0.425639 0.896087
Si Si6 0.674099 0.750698 0.089161
O O1 0.500000 0.558579 0.065897
O O2 0.284310 0.553550 0.258481
O O3 0.245474 0.660791 0.045427
O O4 0.214547 0.497959 0.009454
O O5 0.500000 0.057158 0.570174
O O6 0.715770 0.053502 0.762799
O O7 0.754613 0.159052 0.547439
O O8 0.785176 0.995712 0.515249
O O9 0.767927 0.165950 0.968611
O O10 0.000000 0.077588 0.859257
O O11 0.500000 0.250926 0.987654
O O12 0.232149 0.335776 0.966793
O O13 0.338144 0.249982 0.754902
O O14 0.000000 0.423116 0.855321
O O15 0.500000 0.750989 0.022508
#
# Coordination Sequence:
#
# PCOD8167349 Si02
#       6
#     4   4   4   4   4   4
#     4  10  19  35  56  78 104 140 180 217 259 318
#     4  10  19  35  56  78 104 140 180 217 259 318
#     4  11  21  34  53  81 110 137 173 224 270 306
#     4   9  17  33  54  75 100 139 180 212 254 320
#     4  11  21  34  53  81 110 137 173 224 270 306
#     4   7  14  29  52  75  96 127 174 216 248 298
#
# _framework density 18.91283
#
# number of rings (size 3 to 8) (size 9 to 14) (size 15 to 20)
#    0.000    2.333    0.000    6.500    0.000    0.000 
#    0.000    4.167    0.000    2.000    0.000    0.000 
#    0.000    0.000    0.000    0.000    0.000    0.000 
#
# Total GULP energy -297402.241312 kJ/mol
# GULP energy per Si atom -12391.760055 kJ/mol
# Density = 1.886978 g / cm^3
# Si number density = 18.912830 Si / 1000 Ang^3
#
#
#
# Elastic Constant Matrix: (Units=GPa)
#
#
# Indices 1 2 3 4 5 6 
#
# 1 79.4248 28.4672 0.2646 0.0000 0.0000 0.0000
# 2 28.4672 180.9944 44.7789 0.0000 0.0000 0.0000
# 3 0.2646 44.7789 37.3423 0.0000 0.0000 0.0000
# 4 0.0000 0.0000 0.0000 31.8805 0.0000 0.0000
# 5 0.0000 0.0000 0.0000 0.0000 23.3777 0.0000
# 6 0.0000 0.0000 0.0000 0.0000 0.0000 26.8127
#
#
#
# Elastic Compliance Matrix: (Units=1/GPa)
#
#
# Indices 1 2 3 4 5 6 
#
# 1 0.013662 -0.003021 0.003526 0.000000 0.000000 0.000000
# 2 -0.003021 0.008524 -0.010200 0.000000 0.000000 0.000000
# 3 0.003526 -0.010200 0.038985 0.000000 0.000000 0.000000
# 4 0.000000 0.000000 0.000000 0.031367 0.000000 0.000000
# 5 0.000000 0.000000 0.000000 0.000000 0.042776 0.000000
# 6 0.000000 0.000000 0.000000 0.000000 0.000000 0.037296
#
#
# Mechanical properties :
#
#
# Convention : Reuss Voigt Hill
#
# Bulk Modulus (GPa) = 23.93447 49.42029 36.67738
# Shear Modulus (GPa) = 24.28059 31.36424 27.82241
#
# Velocity S-wave (km/s) = 3.58692 4.07671 3.83964
# Velocity P-wave (km/s) = 5.46236 6.95318 6.25236
#
# Compressibility (1/GPa) = 0.04178074
#
# Stress axis : x y z
#
# Youngs Moduli (GPa) = 73.19801 117.32080 25.65075
#
# Poissons Ratio (x) = 0.35443 -0.09044
# Poissons Ratio (y) = 0.22113 0.26163
# Poissons Ratio (z) = -0.25809 1.19664
#
# Static dielectric constant tensor:
#      x y z
#    x 3.363480 0.000000 0.000000 
#    y 0.000000 4.105210 0.000000 
#    z 0.000000 0.000000 2.924910 
# 
# 
# High freq. dielectric constant tensor:
#      x y z
#    x 1.729290 0.000000 0.000000 
#    y 0.000000 1.761300 0.000000 
#    z 0.000000 0.000000 1.682220 
# 
# From -- ./inp_files/1447.got.cif
#   From: 2010.03.12/outbox.cif.g09.slc.cpg/sg26_1_cif.got.tgz:1447.got - 2010.04.14 03:33:09.
