data_PCOD8167094
_publ_section_title
;
Structure prediction by ZEFSAII (Michael W. Deem and Ramdas Pophale) SiO2 
 PCOD8167094
Probable space group: P M C 21
;
_chemical_formula_sum "Si O2"
_cell_formula_units_Z 20
_cell_length_a 14.142414
_cell_length_b 16.433394
_cell_length_c 5.231876
_cell_angle_alpha 90.000000
_cell_angle_beta 90.000000
_cell_angle_gamma 90.000000
_cell_volume 1215.929112
_symmetry_space_group_name_H-M "P M C 21"
_symmetry_group_IT_number 26
_symmetry_cell_setting 'orthorhombic'
loop_
_space_group_symop_operation_xyz
x,y,z
-x,-y,1/2+z
-x,y,z
x,-y,1/2+z
loop_
_atom_site_type_symbol
_atom_site_label
_atom_site_fract_x
_atom_site_fract_y
_atom_site_fract_z
Si Si1 0.893522 0.273532 0.105130
Si Si2 0.105969 0.882842 0.329411
Si Si3 0.605483 0.052485 0.274644
Si Si4 0.887411 0.454744 0.023643
Si Si5 0.205077 0.132516 0.323922
O O1 0.825182 0.228001 0.310621
O O2 0.000000 0.281485 0.221053
O O3 0.896975 0.216319 0.852608
O O4 0.851427 0.361705 0.037141
O O5 0.156170 0.917035 0.587794
O O6 0.000000 0.918313 0.306149
O O7 0.166609 0.907994 0.083286
O O8 0.500000 0.090272 0.295457
O O9 0.681569 0.124576 0.309815
O O10 0.620447 0.986343 0.496394
O O11 0.847308 0.495914 0.766734
O O12 0.000000 0.456714 0.018692
#
# Coordination Sequence:
#
# PCOD8167094 Si02
#       5
#     4   4   4   4   4
#     4   8  17  28  44  64  92 127 159 187 221 264
#     4   9  17  28  46  67  91 122 156 187 219 264
#     4  10  21  37  55  73  93 117 147 191 247 292
#     4   9  17  25  36  57  88 124 158 188 219 255
#     4  10  18  30  50  69  90 122 157 191 227 279
#
# _framework density 16.448328
#
# number of rings (size 3 to 8) (size 9 to 14) (size 15 to 20)
#    1.200    1.600    0.000    2.400    2.800    0.000 
#    0.000    0.000    0.000   20.400    0.000    0.000 
#    0.000    1.600    0.000    0.000    0.000    0.000 
#
# Total GULP energy -247766.845863 kJ/mol
# GULP energy per Si atom -12388.342293 kJ/mol
# Density = 1.641089 g / cm^3
# Si number density = 16.448328 Si / 1000 Ang^3
#
#
#
# Elastic Constant Matrix: (Units=GPa)
#
#
# Indices 1 2 3 4 5 6 
#
# 1 98.6938 27.0458 23.3096 0.0000 0.0000 0.0000
# 2 27.0458 39.8102 -0.4650 0.0000 0.0000 0.0000
# 3 23.3096 -0.4650 105.4599 0.0000 0.0000 0.0000
# 4 0.0000 0.0000 0.0000 0.0202 0.0000 0.0000
# 5 0.0000 0.0000 0.0000 0.0000 18.3221 0.0000
# 6 0.0000 0.0000 0.0000 0.0000 0.0000 8.3946
#
#
#
# Elastic Compliance Matrix: (Units=1/GPa)
#
#
# Indices 1 2 3 4 5 6 
#
# 1 0.013329 -0.009090 -0.002986 0.000000 0.000000 0.000000
# 2 -0.009090 0.031320 0.002147 0.000000 0.000000 0.000000
# 3 -0.002986 0.002147 0.010152 0.000000 0.000000 0.000000
# 4 0.000000 0.000000 0.000000 49.551540 0.000000 0.000000
# 5 0.000000 0.000000 0.000000 0.000000 0.054579 0.000000
# 6 0.000000 0.000000 0.000000 0.000000 0.000000 0.119125
#
#
# Mechanical properties :
#
#
# Convention : Reuss Voigt Hill
#
# Bulk Modulus (GPa) = 28.61843 38.19385 33.40614
# Shear Modulus (GPa) = 0.10038 18.28561 9.19299
#
# Velocity S-wave (km/s) = 0.24730 3.33783 2.36667
# Velocity P-wave (km/s) = 4.18549 6.17461 5.27466
#
# Compressibility (1/GPa) = 0.03494251
#
# Stress axis : x y z
#
# Youngs Moduli (GPa) = 75.02673 31.92880 98.50516
#
# Poissons Ratio (x) = 0.29023 0.29414
# Poissons Ratio (y) = 0.68199 -0.21151
# Poissons Ratio (z) = 0.22404 -0.06856
#
# Static dielectric constant tensor:
#      x y z
#    x 2.886380 0.000000 0.000000 
#    y 0.000000 2.884400 0.000000 
#    z 0.000000 0.000000 3.155350 
# 
# 
# High freq. dielectric constant tensor:
#      x y z
#    x 1.589530 0.000000 0.000000 
#    y 0.000000 1.606700 0.000000 
#    z 0.000000 0.000000 1.644960 
# 
# From -- ./inp_files/379.got.cif
#   From: 2010.03.12/outbox.cif.g09.slc.cpg/sg26_1_cif.got.tgz:379.got - 2010.04.14 03:33:09.
