data_PCOD8167061
_publ_section_title
;
Structure prediction by ZEFSAII (Michael W. Deem and Ramdas Pophale) SiO2 
 PCOD8167061
Probable space group: P M C 21
;
_chemical_formula_sum "Si O2"
_cell_formula_units_Z 32
_cell_length_a 18.486933
_cell_length_b 21.236104
_cell_length_c 5.089779
_cell_angle_alpha 90.000000
_cell_angle_beta 90.000000
_cell_angle_gamma 90.000000
_cell_volume 1998.198536
_symmetry_space_group_name_H-M "P M C 21"
_symmetry_group_IT_number 26
_symmetry_cell_setting 'orthorhombic'
loop_
_space_group_symop_operation_xyz
x,y,z
-x,-y,1/2+z
-x,y,z
x,-y,1/2+z
loop_
_atom_site_type_symbol
_atom_site_label
_atom_site_fract_x
_atom_site_fract_y
_atom_site_fract_z
Si Si1 0.723043 0.459536 0.871450
Si Si2 0.860315 0.825035 0.886620
Si Si3 0.916710 0.040655 0.431172
Si Si4 0.730175 0.259183 0.358944
Si Si5 0.580094 0.698839 0.859041
Si Si6 0.917554 0.244500 0.883558
Si Si7 0.419926 0.386128 0.857911
Si Si8 0.786202 0.673395 0.356956
O O1 0.740525 0.489160 0.590662
O O2 0.638982 0.440298 0.896901
O O3 0.775990 0.400209 0.910997
O O4 0.864136 0.900292 0.887307
O O5 0.775358 0.805199 0.901263
O O6 0.897482 0.798708 0.627905
O O7 0.904616 0.797852 0.129573
O O8 0.000000 0.063079 0.409585
O O9 0.899591 0.011929 0.714708
O O10 0.643377 0.248490 0.391140
O O11 0.756083 0.311160 0.568327
O O12 0.742649 0.285695 0.068330
O O13 0.500000 0.729890 0.888572
O O14 0.589224 0.667748 0.574970
O O15 0.591571 0.644643 0.073760
O O16 0.870793 0.308609 0.875620
O O17 0.000000 0.266361 0.899335
O O18 0.500000 0.416671 0.878431
#
# Coordination Sequence:
#
# PCOD8167061 Si02
#       8
#     4   4   4   4   4   4   4   4
#     4  12  22  32  48  63  87 118 152 185 219 279
#     4  10  20  30  49  74  96 123 158 191 219 261
#     4  10  19  30  44  64  98 135 158 179 210 257
#     4  10  17  32  50  67  92 117 149 192 229 266
#     4  10  17  29  49  67  90 119 144 179 231 279
#     4  10  19  32  52  72  92 115 147 198 237 270
#     4  10  20  32  46  64  88 117 148 182 221 272
#     4  10  20  33  48  67  89 114 148 186 238 278
#
# _framework density 16.014424999999999
#
# number of rings (size 3 to 8) (size 9 to 14) (size 15 to 20)
#    0.000    1.750    2.500    3.375    0.000    1.500 
#    0.000    0.000    0.000    0.750    0.000    0.000 
#    0.000    1.000    0.000    0.000    0.000    3.000 
#
# Total GULP energy -396777.476073 kJ/mol
# GULP energy per Si atom -12399.296127 kJ/mol
# Density = 1.597798 g / cm^3
# Si number density = 16.014425 Si / 1000 Ang^3
#
#
#
# Elastic Constant Matrix: (Units=GPa)
#
#
# Indices 1 2 3 4 5 6 
#
# 1 110.9350 49.3350 18.3462 0.0000 0.0000 0.0000
# 2 49.3350 76.5070 7.1546 0.0000 0.0000 0.0000
# 3 18.3462 7.1546 75.0318 0.0000 0.0000 0.0000
# 4 0.0000 0.0000 0.0000 18.1880 0.0000 0.0000
# 5 0.0000 0.0000 0.0000 0.0000 15.1759 0.0000
# 6 0.0000 0.0000 0.0000 0.0000 0.0000 26.6664
#
#
#
# Elastic Compliance Matrix: (Units=1/GPa)
#
#
# Indices 1 2 3 4 5 6 
#
# 1 0.013057 -0.008194 -0.002411 0.000000 0.000000 0.000000
# 2 -0.008194 0.018331 0.000256 0.000000 0.000000 0.000000
# 3 -0.002411 0.000256 0.013893 0.000000 0.000000 0.000000
# 4 0.000000 0.000000 0.000000 0.054981 0.000000 0.000000
# 5 0.000000 0.000000 0.000000 0.000000 0.065894 0.000000
# 6 0.000000 0.000000 0.000000 0.000000 0.000000 0.037500
#
#
# Mechanical properties :
#
#
# Convention : Reuss Voigt Hill
#
# Bulk Modulus (GPa) = 40.68171 45.79394 43.23782
# Shear Modulus (GPa) = 21.50075 24.51527 23.00801
#
# Velocity S-wave (km/s) = 3.66811 3.91682 3.79450
# Velocity P-wave (km/s) = 6.58774 7.00805 6.80114
#
# Compressibility (1/GPa) = 0.02458107
#
# Stress axis : x y z
#
# Youngs Moduli (GPa) = 76.58565 54.55274 71.97923
#
# Poissons Ratio (x) = 0.44703 0.17356
# Poissons Ratio (y) = 0.62757 -0.01841
# Poissons Ratio (z) = 0.18467 -0.01395
#
# Static dielectric constant tensor:
#      x y z
#    x 3.415340 0.000000 0.000000 
#    y 0.000000 2.745350 0.000000 
#    z 0.000000 0.000000 3.279920 
# 
# 
# High freq. dielectric constant tensor:
#      x y z
#    x 1.608790 0.000000 0.000000 
#    y 0.000000 1.572510 0.000000 
#    z 0.000000 0.000000 1.645390 
# 
# From -- ./inp_files/821.got.cif
#   From: 2010.03.12/outbox.cif.g09.slc.cpg/sg26_1_cif.got.tgz:821.got - 2010.04.14 03:33:09.
