data_PCOD8167678
_publ_section_title
;
Structure prediction by ZEFSAII (Michael W. Deem and Ramdas Pophale) SiO2 
 PCOD8167678
Probable space group: P M C 21
;
_chemical_formula_sum "Si O2"
_cell_formula_units_Z 24
_cell_length_a 8.331964
_cell_length_b 10.082702
_cell_length_c 14.054612
_cell_angle_alpha 90.000000
_cell_angle_beta 90.000000
_cell_angle_gamma 90.000000
_cell_volume 1180.709825
_symmetry_space_group_name_H-M "P M C 21"
_symmetry_group_IT_number 26
_symmetry_cell_setting 'orthorhombic'
loop_
_space_group_symop_operation_xyz
x,y,z
-x,-y,1/2+z
-x,y,z
x,-y,1/2+z
loop_
_atom_site_type_symbol
_atom_site_label
_atom_site_fract_x
_atom_site_fract_y
_atom_site_fract_z
Si Si1 0.688267 0.781727 0.731900
Si Si2 0.684024 0.609065 0.043425
Si Si3 0.815731 0.378311 0.927779
Si Si4 0.186980 0.853849 0.934257
Si Si5 0.808681 0.483168 0.730557
Si Si6 0.810362 0.126417 0.036226
O O1 0.500000 0.777625 0.749961
O O2 0.771609 0.850026 0.822744
O O3 0.751894 0.633465 0.715301
O O4 0.728192 0.871182 0.639846
O O5 0.500000 0.565996 0.031703
O O6 0.733909 0.616880 0.153466
O O7 0.799157 0.497483 0.001221
O O8 0.710078 0.747411 0.991533
O O9 0.736999 0.424824 0.828768
O O10 0.000000 0.347312 0.908466
O O11 0.737689 0.245883 0.972065
O O12 0.000000 0.822325 0.947658
O O13 0.234263 0.994110 0.979502
O O14 0.000000 0.481090 0.727854
O O15 0.000000 0.142166 0.051663
#
# Coordination Sequence:
#
# PCOD8167678 Si02
#       6
#     4   4   4   4   4   4
#     4  12  24  39  63  95 130 167 207 259 326 381
#     4  12  24  38  61  94 128 164 209 264 319 372
#     4  10  21  39  65  92 120 161 212 266 310 369
#     4  11  24  43  66  92 127 173 217 261 310 378
#     4  11  22  38  64  94 127 167 215 262 312 377
#     4  10  23  43  67  93 124 166 218 262 311 377
#
# _framework density 20.326756
#
# number of rings (size 3 to 8) (size 9 to 14) (size 15 to 20)
#    0.000    1.000    3.333    4.000    0.000    3.333 
#    0.000    3.333    0.000    0.000    0.000    0.000 
#    0.000    0.000    0.000    0.000    0.000    0.000 
#
# Total GULP energy -297672.259325 kJ/mol
# GULP energy per Si atom -12403.010805 kJ/mol
# Density = 2.028049 g / cm^3
# Si number density = 20.326756 Si / 1000 Ang^3
#
#
#
# Elastic Constant Matrix: (Units=GPa)
#
#
# Indices 1 2 3 4 5 6 
#
# 1 50.8597 10.8379 19.8564 0.0000 0.0000 0.0000
# 2 10.8379 113.8620 54.5382 0.0000 0.0000 0.0000
# 3 19.8564 54.5382 146.8150 0.0000 0.0000 0.0000
# 4 0.0000 0.0000 0.0000 37.1373 0.0000 0.0000
# 5 0.0000 0.0000 0.0000 0.0000 12.8497 0.0000
# 6 0.0000 0.0000 0.0000 0.0000 0.0000 14.2416
#
#
#
# Elastic Compliance Matrix: (Units=1/GPa)
#
#
# Indices 1 2 3 4 5 6 
#
# 1 0.020813 -0.000770 -0.002529 0.000000 0.000000 0.000000
# 2 -0.000770 0.010712 -0.003875 0.000000 0.000000 0.000000
# 3 -0.002529 -0.003875 0.008593 0.000000 0.000000 0.000000
# 4 0.000000 0.000000 0.000000 0.026927 0.000000 0.000000
# 5 0.000000 0.000000 0.000000 0.000000 0.077823 0.000000
# 6 0.000000 0.000000 0.000000 0.000000 0.000000 0.070217
#
#
# Mechanical properties :
#
#
# Convention : Reuss Voigt Hill
#
# Bulk Modulus (GPa) = 38.80429 53.55577 46.18003
# Shear Modulus (GPa) = 21.00642 27.93268 24.46955
#
# Velocity S-wave (km/s) = 3.21820 3.71102 3.47336
# Velocity P-wave (km/s) = 5.73940 6.69080 6.23328
#
# Compressibility (1/GPa) = 0.02577035
#
# Stress axis : x y z
#
# Youngs Moduli (GPa) = 48.04617 93.35363 116.37579
#
# Poissons Ratio (x) = 0.07186 0.29432
# Poissons Ratio (y) = 0.03698 0.45097
# Poissons Ratio (z) = 0.12151 0.36176
#
# Static dielectric constant tensor:
#      x y z
#    x 3.571120 0.000000 0.000000 
#    y 0.000000 3.724410 0.000000 
#    z 0.000000 0.000000 4.012270 
# 
# 
# High freq. dielectric constant tensor:
#      x y z
#    x 1.789570 0.000000 0.000000 
#    y 0.000000 1.785890 0.000000 
#    z 0.000000 0.000000 1.814640 
# 
# From -- ./inp_files/3953.got.cif
#   From: 2010.03.12/outbox.cif.g09.slc.cpg/sg26_2_cif.got.tgz:3953.got - 2010.04.14 03:33:09.
