data_PCOD8167172
_publ_section_title
;
Structure prediction by ZEFSAII (Michael W. Deem and Ramdas Pophale) SiO2 
 PCOD8167172
Probable space group: P M C 21
;
_chemical_formula_sum "Si O2"
_cell_formula_units_Z 32
_cell_length_a 8.851275
_cell_length_b 11.844767
_cell_length_c 15.393146
_cell_angle_alpha 90.000000
_cell_angle_beta 90.000000
_cell_angle_gamma 90.000000
_cell_volume 1613.837284
_symmetry_space_group_name_H-M "P M C 21"
_symmetry_group_IT_number 26
_symmetry_cell_setting 'orthorhombic'
loop_
_space_group_symop_operation_xyz
x,y,z
-x,-y,1/2+z
-x,y,z
x,-y,1/2+z
loop_
_atom_site_type_symbol
_atom_site_label
_atom_site_fract_x
_atom_site_fract_y
_atom_site_fract_z
Si Si1 0.171780 0.735798 0.458560
Si Si2 0.177872 0.740441 0.954954
Si Si3 0.826466 0.730147 0.654100
Si Si4 0.823625 0.096337 0.305353
Si Si5 0.676993 0.855720 0.301833
Si Si6 0.174846 0.497170 0.387064
Si Si7 0.178063 0.716305 0.146917
Si Si8 0.677105 0.501289 0.705933
O O1 0.210076 0.772503 0.556857
O O2 0.280762 0.802498 0.394322
O O3 0.194952 0.600770 0.453463
O O4 0.000000 0.768164 0.434019
O O5 0.240103 0.834232 0.888422
O O6 0.240647 0.616304 0.930692
O O7 0.000000 0.734522 0.943641
O O8 0.221513 0.771963 0.053832
O O9 0.793990 0.833287 0.718180
O O10 0.720074 0.627149 0.679264
O O11 0.000000 0.689669 0.661732
O O12 0.000000 0.066443 0.316220
O O13 0.727338 0.984306 0.298388
O O14 0.500000 0.847355 0.288838
O O15 0.753263 0.789168 0.223559
O O16 0.273537 0.526048 0.303541
O O17 0.000000 0.482747 0.358995
O O18 0.240609 0.589096 0.144447
O O19 0.000000 0.711380 0.160400
O O20 0.500000 0.484389 0.696735
#
# Coordination Sequence:
#
# PCOD8167172 Si02
#       8
#     4   4   4   4   4   4   4   4
#     4  10  21  38  65  94 118 155 203 249 298 355
#     4   9  19  37  65  95 117 147 200 252 297 346
#     4  10  21  40  67  93 119 156 205 252 295 352
#     4  10  21  41  66  89 116 154 204 255 297 352
#     4  12  26  42  59  85 123 162 200 249 307 365
#     4  10  18  35  62  90 121 156 194 244 300 358
#     4  11  22  40  65  90 118 158 206 255 295 350
#     4  12  23  35  57  92 130 164 194 238 305 368
#
# _framework density 19.828516
#
# number of rings (size 3 to 8) (size 9 to 14) (size 15 to 20)
#    0.000    1.500    2.500    3.375    0.000    4.000 
#    0.000    8.750    0.000    0.000    0.000    0.000 
#    0.000    0.000    0.000    0.000    0.000    0.000 
#
# Total GULP energy -396891.857827 kJ/mol
# GULP energy per Si atom -12402.870557 kJ/mol
# Density = 1.978339 g / cm^3
# Si number density = 19.828516 Si / 1000 Ang^3
#
#
#
# Elastic Constant Matrix: (Units=GPa)
#
#
# Indices 1 2 3 4 5 6 
#
# 1 98.2154 40.1575 45.8160 0.0000 0.0000 0.0000
# 2 40.1575 99.3846 40.9345 0.0000 0.0000 0.0000
# 3 45.8160 40.9345 130.4281 0.0000 0.0000 0.0000
# 4 0.0000 0.0000 0.0000 12.6876 0.0000 0.0000
# 5 0.0000 0.0000 0.0000 0.0000 3.9591 0.0000
# 6 0.0000 0.0000 0.0000 0.0000 0.0000 15.9296
#
#
#
# Elastic Compliance Matrix: (Units=1/GPa)
#
#
# Indices 1 2 3 4 5 6 
#
# 1 0.013433 -0.004002 -0.003463 0.000000 0.000000 0.000000
# 2 -0.004002 0.012748 -0.002595 0.000000 0.000000 0.000000
# 3 -0.003463 -0.002595 0.009698 0.000000 0.000000 0.000000
# 4 0.000000 0.000000 0.000000 0.078817 0.000000 0.000000
# 5 0.000000 0.000000 0.000000 0.000000 0.252580 0.000000
# 6 0.000000 0.000000 0.000000 0.000000 0.000000 0.062776
#
#
# Mechanical properties :
#
#
# Convention : Reuss Voigt Hill
#
# Bulk Modulus (GPa) = 63.45316 64.64936 64.05126
# Shear Modulus (GPa) = 10.97876 19.92327 15.45101
#
# Velocity S-wave (km/s) = 2.35560 3.17326 2.79450
# Velocity P-wave (km/s) = 6.28243 6.78978 6.54103
#
# Compressibility (1/GPa) = 0.01575966
#
# Stress axis : x y z
#
# Youngs Moduli (GPa) = 74.44245 78.44546 103.11443
#
# Poissons Ratio (x) = 0.31390 0.35707
# Poissons Ratio (y) = 0.29789 0.26760
# Poissons Ratio (z) = 0.25778 0.20358
#
# Static dielectric constant tensor:
#      x y z
#    x 3.388790 0.000000 0.000000 
#    y 0.000000 3.656150 0.000000 
#    z 0.000000 0.000000 3.827260 
# 
# 
# High freq. dielectric constant tensor:
#      x y z
#    x 1.749990 0.000000 0.000000 
#    y 0.000000 1.772980 0.000000 
#    z 0.000000 0.000000 1.787710 
# 
# From -- ./inp_files/4209.got.cif
#   From: 2010.03.12/outbox.cif.g09.slc.cpg/sg26_3_cif.got.tgz:4209.got - 2010.04.14 03:33:09.
