data_PCOD8167059
_publ_section_title
;
Structure prediction by ZEFSAII (Michael W. Deem and Ramdas Pophale) SiO2 
 PCOD8167059
Probable space group: P M C 21
;
_chemical_formula_sum "Si O2"
_cell_formula_units_Z 32
_cell_length_a 8.906848
_cell_length_b 9.599394
_cell_length_c 21.645245
_cell_angle_alpha 90.000000
_cell_angle_beta 90.000000
_cell_angle_gamma 90.000000
_cell_volume 1850.675877
_symmetry_space_group_name_H-M "P M C 21"
_symmetry_group_IT_number 26
_symmetry_cell_setting 'orthorhombic'
loop_
_space_group_symop_operation_xyz
x,y,z
-x,-y,1/2+z
-x,y,z
x,-y,1/2+z
loop_
_atom_site_type_symbol
_atom_site_label
_atom_site_fract_x
_atom_site_fract_y
_atom_site_fract_z
Si Si1 0.171708 0.288053 0.641290
Si Si2 0.824437 0.554994 0.429511
Si Si3 0.671413 0.701109 0.886867
Si Si4 0.825452 0.810105 0.775662
Si Si5 0.329886 0.631113 0.018365
Si Si6 0.324108 0.075722 0.731558
Si Si7 0.170147 0.497632 0.745059
Si Si8 0.327005 0.291535 0.832861
O O1 0.234616 0.303371 0.572701
O O2 0.262106 0.166851 0.675491
O O3 0.187070 0.436493 0.675775
O O4 0.000000 0.239893 0.637073
O O5 0.776938 0.436537 0.378746
O O6 0.741463 0.516491 0.494198
O O7 0.766910 0.698266 0.397428
O O8 0.000000 0.560568 0.441699
O O9 0.500000 0.669013 0.866867
O O10 0.742081 0.818255 0.842509
O O11 0.675117 0.740286 0.960160
O O12 0.793529 0.661737 0.743198
O O13 0.000000 0.839254 0.785788
O O14 0.756683 0.926658 0.731006
O O15 0.500000 0.603210 0.040161
O O16 0.500000 0.055794 0.721307
O O17 0.288961 0.148034 0.797684
O O18 0.288461 0.417624 0.787062
O O19 0.000000 0.470251 0.769479
O O20 0.500000 0.301249 0.850945
#
# Coordination Sequence:
#
# PCOD8167059 Si02
#       8
#     4   4   4   4   4   4   4   4
#     4  10  19  33  52  75 101 131 169 211 254 301
#     4  10  17  27  47  74  99 125 158 203 249 292
#     4   9  18  30  48  74 101 128 160 204 248 295
#     4  11  20  32  51  76 104 134 171 210 252 304
#     4   9  18  31  49  74 101 130 166 207 249 301
#     4  10  22  35  49  71 105 141 172 208 255 306
#     4   9  18  30  48  72  98 127 161 204 247 294
#     4  10  18  30  48  72  99 130 163 201 248 297
#
# _framework density 17.290980000000001
#
# number of rings (size 3 to 8) (size 9 to 14) (size 15 to 20)
#    0.750    1.500    1.250    3.000    0.000    2.500 
#    0.000    0.000    0.000    1.500    0.000    7.000 
#    0.000    0.000    0.000    0.000    0.000    0.000 
#
# Total GULP energy -396533.729981 kJ/mol
# GULP energy per Si atom -12391.679062 kJ/mol
# Density = 1.725162 g / cm^3
# Si number density = 17.290980 Si / 1000 Ang^3
#
#
#
# Elastic Constant Matrix: (Units=GPa)
#
#
# Indices 1 2 3 4 5 6 
#
# 1 92.8909 30.3621 25.3563 0.0000 0.0000 0.0000
# 2 30.3621 72.8018 21.4816 0.0000 0.0000 0.0000
# 3 25.3563 21.4816 65.7613 0.0000 0.0000 0.0000
# 4 0.0000 0.0000 0.0000 17.9136 0.0000 0.0000
# 5 0.0000 0.0000 0.0000 0.0000 29.0491 0.0000
# 6 0.0000 0.0000 0.0000 0.0000 0.0000 23.4703
#
#
#
# Elastic Compliance Matrix: (Units=1/GPa)
#
#
# Indices 1 2 3 4 5 6 
#
# 1 0.013209 -0.004433 -0.003645 0.000000 0.000000 0.000000
# 2 -0.004433 0.016689 -0.003742 0.000000 0.000000 0.000000
# 3 -0.003645 -0.003742 0.017834 0.000000 0.000000 0.000000
# 4 0.000000 0.000000 0.000000 0.055823 0.000000 0.000000
# 5 0.000000 0.000000 0.000000 0.000000 0.034425 0.000000
# 6 0.000000 0.000000 0.000000 0.000000 0.000000 0.042607
#
#
# Mechanical properties :
#
#
# Convention : Reuss Voigt Hill
#
# Bulk Modulus (GPa) = 41.50846 42.87266 42.19056
# Shear Modulus (GPa) = 23.55603 24.37020 23.96312
#
# Velocity S-wave (km/s) = 3.69498 3.75829 3.72677
# Velocity P-wave (km/s) = 6.50091 6.60921 6.55528
#
# Compressibility (1/GPa) = 0.02409147
#
# Stress axis : x y z
#
# Youngs Moduli (GPa) = 75.70355 59.91927 56.07137
#
# Poissons Ratio (x) = 0.26565 0.20438
# Poissons Ratio (y) = 0.33563 0.20983
# Poissons Ratio (z) = 0.27594 0.22423
#
# Static dielectric constant tensor:
#      x y z
#    x 3.302050 0.000000 0.000000 
#    y 0.000000 2.982390 0.000000 
#    z 0.000000 0.000000 3.089220 
# 
# 
# High freq. dielectric constant tensor:
#      x y z
#    x 1.687110 0.000000 0.000000 
#    y 0.000000 1.629330 0.000000 
#    z 0.000000 0.000000 1.651360 
# 
# From -- ./inp_files/5568.got.cif
#   From: 2010.03.12/outbox.cif.g09.slc.cpg/sg26_3_cif.got.tgz:5568.got - 2010.04.14 03:33:09.
