data_PCOD8167018
_publ_section_title
;
Structure prediction by ZEFSAII (Michael W. Deem and Ramdas Pophale) SiO2 
 PCOD8167018
Probable space group: P M M 2
;
_chemical_formula_sum "Si O2"
_cell_formula_units_Z 32
_cell_length_a 9.770434
_cell_length_b 9.361742
_cell_length_c 20.762165
_cell_angle_alpha 90.000000
_cell_angle_beta 90.000000
_cell_angle_gamma 90.000000
_cell_volume 1899.079570
_symmetry_space_group_name_H-M "P M M 2"
_symmetry_group_IT_number 25
_symmetry_cell_setting 'orthorhombic'
loop_
_space_group_symop_operation_xyz
x,y,z
-x,-y,z
-x,y,z
x,-y,z
loop_
_atom_site_type_symbol
_atom_site_label
_atom_site_fract_x
_atom_site_fract_y
_atom_site_fract_z
Si Si1 0.336611 0.338661 0.159350
Si Si2 0.341355 0.666214 0.913054
Si Si3 0.847313 0.829493 0.531450
Si Si4 0.652377 0.829826 0.420835
Si Si5 0.337001 0.840650 0.279040
Si Si6 0.842889 0.333031 0.793819
Si Si7 0.662592 0.838582 0.037883
Si Si8 0.162818 0.841524 0.672352
O O1 0.500000 0.339090 0.158725
O O2 0.280075 0.500000 0.154886
O O3 0.280257 0.266978 0.224932
O O4 0.279367 0.247621 0.099221
O O5 0.500000 0.696246 0.897034
O O6 0.317675 0.500000 0.929222
O O7 0.250529 0.717185 0.853016
O O8 0.289534 0.757784 0.973582
O O9 0.750339 0.765053 0.475888
O O10 0.790046 0.783241 0.602045
O O11 0.000000 0.768846 0.519985
O O12 0.850534 0.000000 0.528748
O O13 0.500000 0.768029 0.432072
O O14 0.708560 0.785751 0.349965
O O15 0.648110 0.000000 0.424597
O O16 0.500000 0.846881 0.277161
O O17 0.279268 0.000000 0.265312
O O18 0.829547 0.500000 0.782303
O O19 0.784233 0.259730 0.729347
O O20 0.000000 0.288541 0.807842
O O21 0.500000 0.841556 0.041196
O O22 0.721127 0.000000 0.038268
O O23 0.000000 0.846965 0.671501
O O24 0.222252 0.000000 0.684725
#
# Coordination Sequence:
#
# PCOD8167018 Si02
#       8
#     4   4   4   4   4   4   4   4
#     4   9  15  22  34  53  77 105 135 165 198 237
#     4   9  17  29  43  59  82 110 135 161 198 242
#     4   8  13  22  37  56  76  99 129 163 197 234
#     4   8  13  21  34  53  77 103 129 159 197 238
#     4   8  13  21  33  50  73 100 129 162 199 236
#     4   9  17  29  45  63  81 104 136 169 198 234
#     4   9  16  25  38  57  81 107 134 166 202 237
#     4   8  14  25  41  60  81 104 131 166 205 239
#
# _framework density 16.850266999999999
#
# number of rings (size 3 to 8) (size 9 to 14) (size 15 to 20)
#    0.000    3.500    0.000    2.250    0.000    3.500 
#    0.000    0.625    0.000    1.500    0.000    0.875 
#    0.000    3.000    0.000    0.000    0.000    0.000 
#
# Total GULP energy -396587.231583 kJ/mol
# GULP energy per Si atom -12393.350987 kJ/mol
# Density = 1.681191 g / cm^3
# Si number density = 16.850267 Si / 1000 Ang^3
#
#
#
# Elastic Constant Matrix: (Units=GPa)
#
#
# Indices 1 2 3 4 5 6 
#
# 1 35.4674 20.3319 48.3984 0.0000 0.0000 0.0000
# 2 20.3319 73.9562 71.6151 0.0000 0.0000 0.0000
# 3 48.3984 71.6151 191.1929 0.0000 0.0000 0.0000
# 4 0.0000 0.0000 0.0000 15.9889 0.0000 0.0000
# 5 0.0000 0.0000 0.0000 0.0000 8.3857 0.0000
# 6 0.0000 0.0000 0.0000 0.0000 0.0000 7.9943
#
#
#
# Elastic Compliance Matrix: (Units=1/GPa)
#
#
# Indices 1 2 3 4 5 6 
#
# 1 0.043266 -0.002023 -0.010195 0.000000 0.000000 0.000000
# 2 -0.002023 0.021312 -0.007471 0.000000 0.000000 0.000000
# 3 -0.010195 -0.007471 0.010609 0.000000 0.000000 0.000000
# 4 0.000000 0.000000 0.000000 0.062544 0.000000 0.000000
# 5 0.000000 0.000000 0.000000 0.000000 0.119251 0.000000
# 6 0.000000 0.000000 0.000000 0.000000 0.000000 0.125089
#
#
# Mechanical properties :
#
#
# Convention : Reuss Voigt Hill
#
# Bulk Modulus (GPa) = 27.92440 64.58970 46.25705
# Shear Modulus (GPa) = 11.53711 17.15851 14.34781
#
# Velocity S-wave (km/s) = 2.61949 3.19453 2.92119
# Velocity P-wave (km/s) = 5.07514 7.21259 6.23612
#
# Compressibility (1/GPa) = 0.03581098
#
# Stress axis : x y z
#
# Youngs Moduli (GPa) = 23.11288 46.92220 94.25667
#
# Poissons Ratio (x) = 0.09490 0.96092
# Poissons Ratio (y) = 0.04675 0.70417
# Poissons Ratio (z) = 0.23563 0.35055
#
# Static dielectric constant tensor:
#      x y z
#    x 2.773480 0.000000 0.000000 
#    y 0.000000 3.049830 0.000000 
#    z 0.000000 0.000000 3.545760 
# 
# 
# High freq. dielectric constant tensor:
#      x y z
#    x 1.587770 0.000000 0.000000 
#    y 0.000000 1.624270 0.000000 
#    z 0.000000 0.000000 1.667970 
# 
# From -- ./inp_files/6290.got.cif
#   From: 2010.03.12/outbox.cif.g09.slc.cpg/sg25_4_cif.got.tgz:6290.got - 2010.04.14 03:30:10.
