data_PCOD8167361
_publ_section_title
;
Structure prediction by ZEFSAII (Michael W. Deem and Ramdas Pophale) SiO2 
 PCOD8167361
Probable space group: P M C 21
;
_chemical_formula_sum "Si O2"
_cell_formula_units_Z 32
_cell_length_a 9.471716
_cell_length_b 15.844565
_cell_length_c 10.861936
_cell_angle_alpha 90.000000
_cell_angle_beta 90.000000
_cell_angle_gamma 90.000000
_cell_volume 1630.107433
_symmetry_space_group_name_H-M "P M C 21"
_symmetry_group_IT_number 26
_symmetry_cell_setting 'orthorhombic'
loop_
_space_group_symop_operation_xyz
x,y,z
-x,-y,1/2+z
-x,y,z
x,-y,1/2+z
loop_
_atom_site_type_symbol
_atom_site_label
_atom_site_fract_x
_atom_site_fract_y
_atom_site_fract_z
Si Si1 0.832869 0.233977 0.837020
Si Si2 0.664414 0.471561 0.471754
Si Si3 0.341308 0.669213 0.781744
Si Si4 0.843719 0.641364 0.126657
Si Si5 0.659582 0.657255 0.497279
Si Si6 0.841813 0.785464 0.924687
Si Si7 0.337528 0.068765 0.782415
Si Si8 0.662341 0.057600 0.503790
O O1 0.790976 0.311047 0.748065
O O2 0.764650 0.148534 0.788159
O O3 0.000000 0.220196 0.849910
O O4 0.762377 0.264773 0.964164
O O5 0.500000 0.469577 0.503562
O O6 0.706879 0.413917 0.356064
O O7 0.741687 0.435877 0.593520
O O8 0.710695 0.567450 0.440987
O O9 0.500000 0.694873 0.821048
O O10 0.332342 0.643853 0.641770
O O11 0.242383 0.750363 0.806447
O O12 0.000000 0.603943 0.146274
O O13 0.846093 0.710870 0.021207
O O14 0.500000 0.679599 0.455220
O O15 0.762797 0.863349 0.985782
O O16 0.000000 0.812990 0.885900
O O17 0.500000 0.097649 0.796306
O O18 0.316146 0.025069 0.646355
O O19 0.295865 0.009809 0.898266
O O20 0.500000 0.084849 0.484770
#
# Coordination Sequence:
#
# PCOD8167361 Si02
#       8
#     4   4   4   4   4   4   4   4
#     4  11  23  39  58  84 118 155 194 238 290 352
#     4   9  19  34  57  84 109 145 192 240 286 337
#     4   9  19  36  54  80 115 148 189 240 291 345
#     4   9  19  35  55  80 112 146 185 232 279 334
#     4  10  22  37  56  83 116 152 193 245 296 347
#     4  10  19  35  59  84 111 146 188 232 283 344
#     4  10  22  40  62  88 119 155 199 247 301 360
#     4  10  21  38  61  89 118 153 196 246 300 357
#
# _framework density 19.630607999999999
#
# number of rings (size 3 to 8) (size 9 to 14) (size 15 to 20)
#    0.000    2.250    1.250    0.750    1.750    4.000 
#    0.000    2.500    0.000    0.000    0.000    0.000 
#    0.000    0.000    0.000    0.000    0.000    0.000 
#
# Total GULP energy -396662.855619 kJ/mol
# GULP energy per Si atom -12395.714238 kJ/mol
# Density = 1.958593 g / cm^3
# Si number density = 19.630608 Si / 1000 Ang^3
#
#
#
# Elastic Constant Matrix: (Units=GPa)
#
#
# Indices 1 2 3 4 5 6 
#
# 1 80.1990 41.5722 33.3991 0.0000 0.0000 0.0000
# 2 41.5722 67.1041 39.8267 0.0000 0.0000 0.0000
# 3 33.3991 39.8267 89.3302 0.0000 0.0000 0.0000
# 4 0.0000 0.0000 0.0000 25.9669 0.0000 0.0000
# 5 0.0000 0.0000 0.0000 0.0000 21.3521 0.0000
# 6 0.0000 0.0000 0.0000 0.0000 0.0000 20.9223
#
#
#
# Elastic Compliance Matrix: (Units=1/GPa)
#
#
# Indices 1 2 3 4 5 6 
#
# 1 0.018767 -0.010147 -0.002493 0.000000 0.000000 0.000000
# 2 -0.010147 0.025751 -0.007687 0.000000 0.000000 0.000000
# 3 -0.002493 -0.007687 0.015553 0.000000 0.000000 0.000000
# 4 0.000000 0.000000 0.000000 0.038510 0.000000 0.000000
# 5 0.000000 0.000000 0.000000 0.000000 0.046834 0.000000
# 6 0.000000 0.000000 0.000000 0.000000 0.000000 0.047796
#
#
# Mechanical properties :
#
#
# Convention : Reuss Voigt Hill
#
# Bulk Modulus (GPa) = 51.49866 51.80325 51.65095
# Shear Modulus (GPa) = 20.80414 21.77063 21.28738
#
# Velocity S-wave (km/s) = 3.25896 3.33380 3.29659
# Velocity P-wave (km/s) = 6.36018 6.42380 6.39207
#
# Compressibility (1/GPa) = 0.01941798
#
# Stress axis : x y z
#
# Youngs Moduli (GPa) = 53.28525 38.83411 64.29441
#
# Poissons Ratio (x) = 0.39405 0.16027
# Poissons Ratio (y) = 0.54068 0.49421
# Poissons Ratio (z) = 0.13283 0.29851
#
# Static dielectric constant tensor:
#      x y z
#    x 3.750740 0.000000 0.000000 
#    y 0.000000 3.410920 0.000000 
#    z 0.000000 0.000000 3.649550 
# 
# 
# High freq. dielectric constant tensor:
#      x y z
#    x 1.763690 0.000000 0.000000 
#    y 0.000000 1.750190 0.000000 
#    z 0.000000 0.000000 1.766130 
# 
# From -- ./inp_files/3003.got.cif
#   From: 2010.03.12/outbox.cif.g09.slc.cpg/sg26_2_cif.got.tgz:3003.got - 2010.04.14 03:33:09.
