data_PCOD8167717
_publ_section_title
;
Structure prediction by ZEFSAII (Michael W. Deem and Ramdas Pophale) SiO2 
 PCOD8167717
Probable space group: P M C 21
;
_chemical_formula_sum "Si O2"
_cell_formula_units_Z 32
_cell_length_a 8.696078
_cell_length_b 11.951892
_cell_length_c 14.925687
_cell_angle_alpha 90.000000
_cell_angle_beta 90.000000
_cell_angle_gamma 90.000000
_cell_volume 1551.295085
_symmetry_space_group_name_H-M "P M C 21"
_symmetry_group_IT_number 26
_symmetry_cell_setting 'orthorhombic'
loop_
_space_group_symop_operation_xyz
x,y,z
-x,-y,1/2+z
-x,y,z
x,-y,1/2+z
loop_
_atom_site_type_symbol
_atom_site_label
_atom_site_fract_x
_atom_site_fract_y
_atom_site_fract_z
Si Si1 0.672683 0.465262 0.062220
Si Si2 0.827636 0.754006 0.593781
Si Si3 0.318641 0.846410 0.198445
Si Si4 0.172357 0.766104 0.798678
Si Si5 0.325606 0.449310 0.364056
Si Si6 0.180518 0.601947 0.218021
Si Si7 0.181051 0.000620 0.048416
Si Si8 0.321350 0.014236 0.355426
O O1 0.500000 0.468662 0.100933
O O2 0.722086 0.336978 0.045162
O O3 0.784029 0.527041 0.131339
O O4 0.682155 0.524118 0.967760
O O5 0.827137 0.723016 0.697711
O O6 0.759519 0.877511 0.578790
O O7 0.000000 0.747848 0.553946
O O8 0.500000 0.829591 0.193016
O O9 0.239213 0.726917 0.203184
O O10 0.265670 0.907939 0.107895
O O11 0.271631 0.916219 0.287037
O O12 0.227082 0.662910 0.857703
O O13 0.288886 0.868725 0.807181
O O14 0.000000 0.801992 0.828073
O O15 0.500000 0.427583 0.332302
O O16 0.257920 0.550743 0.306279
O O17 0.000000 0.603887 0.233594
O O18 0.000000 0.987339 0.064482
O O19 0.219729 0.988188 0.944361
O O20 0.500000 0.004862 0.380533
#
# Coordination Sequence:
#
# PCOD8167717 Si02
#       8
#     4   4   4   4   4   4   4   4
#     4  11  25  43  67  95 129 170 214 265 319 383
#     4  10  22  41  66  96 128 163 211 265 320 380
#     4  11  25  45  67  93 130 172 216 266 321 384
#     4  11  22  41  68  96 127 166 214 268 321 380
#     4  11  25  44  66  96 130 170 216 264 321 384
#     4  12  26  44  67  94 130 172 214 266 324 383
#     4  11  24  43  67  96 130 170 214 266 321 381
#     4  11  25  43  66  96 130 171 215 264 319 383
#
# _framework density 20.627925000000001
#
# number of rings (size 3 to 8) (size 9 to 14) (size 15 to 20)
#    0.000    1.000    2.500    3.375    3.500    5.000 
#    0.000    0.000    0.000    0.000    0.000    0.000 
#    0.000    0.000    0.000    0.000    0.000    0.000 
#
# Total GULP energy -396973.088188 kJ/mol
# GULP energy per Si atom -12405.409006 kJ/mol
# Density = 2.058098 g / cm^3
# Si number density = 20.627925 Si / 1000 Ang^3
#
#
#
# Elastic Constant Matrix: (Units=GPa)
#
#
# Indices 1 2 3 4 5 6 
#
# 1 68.1146 15.3135 22.3444 0.0000 0.0000 0.0000
# 2 15.3135 104.4379 6.3931 0.0000 0.0000 0.0000
# 3 22.3444 6.3931 63.5060 0.0000 0.0000 0.0000
# 4 0.0000 0.0000 0.0000 29.3378 0.0000 0.0000
# 5 0.0000 0.0000 0.0000 0.0000 28.1538 0.0000
# 6 0.0000 0.0000 0.0000 0.0000 0.0000 37.3845
#
#
#
# Elastic Compliance Matrix: (Units=1/GPa)
#
#
# Indices 1 2 3 4 5 6 
#
# 1 0.017062 -0.002148 -0.005787 0.000000 0.000000 0.000000
# 2 -0.002148 0.009905 -0.000241 0.000000 0.000000 0.000000
# 3 -0.005787 -0.000241 0.017807 0.000000 0.000000 0.000000
# 4 0.000000 0.000000 0.000000 0.034086 0.000000 0.000000
# 5 0.000000 0.000000 0.000000 0.000000 0.035519 0.000000
# 6 0.000000 0.000000 0.000000 0.000000 0.000000 0.026749
#
#
# Mechanical properties :
#
#
# Convention : Reuss Voigt Hill
#
# Bulk Modulus (GPa) = 35.18432 36.01784 35.60108
# Shear Modulus (GPa) = 29.94828 31.77572 30.86200
#
# Velocity S-wave (km/s) = 3.81443 3.92908 3.87218
# Velocity P-wave (km/s) = 6.04098 6.17108 6.10638
#
# Compressibility (1/GPa) = 0.02842175
#
# Stress axis : x y z
#
# Youngs Moduli (GPa) = 58.60845 100.96171 56.15757
#
# Poissons Ratio (x) = 0.21682 0.32499
# Poissons Ratio (y) = 0.12587 0.01356
# Poissons Ratio (z) = 0.33918 0.02438
#
# Static dielectric constant tensor:
#      x y z
#    x 3.933470 0.000000 0.000000 
#    y 0.000000 3.822790 0.000000 
#    z 0.000000 0.000000 3.671940 
# 
# 
# High freq. dielectric constant tensor:
#      x y z
#    x 1.816990 0.000000 0.000000 
#    y 0.000000 1.820720 0.000000 
#    z 0.000000 0.000000 1.809730 
# 
# From -- ./inp_files/4240.got.cif
#   From: 2010.03.12/outbox.cif.g09.slc.cpg/sg26_3_cif.got.tgz:4240.got - 2010.04.14 03:33:09.
