data_PCOD8167277
_publ_section_title
;
Structure prediction by ZEFSAII (Michael W. Deem and Ramdas Pophale) SiO2 
 PCOD8167277
Probable space group: P M C 21
;
_chemical_formula_sum "Si O2"
_cell_formula_units_Z 32
_cell_length_a 8.823627
_cell_length_b 11.381208
_cell_length_c 16.361550
_cell_angle_alpha 90.000000
_cell_angle_beta 90.000000
_cell_angle_gamma 90.000000
_cell_volume 1643.084676
_symmetry_space_group_name_H-M "P M C 21"
_symmetry_group_IT_number 26
_symmetry_cell_setting 'orthorhombic'
loop_
_space_group_symop_operation_xyz
x,y,z
-x,-y,1/2+z
-x,y,z
x,-y,1/2+z
loop_
_atom_site_type_symbol
_atom_site_label
_atom_site_fract_x
_atom_site_fract_y
_atom_site_fract_z
Si Si1 0.322046 0.417278 0.942620
Si Si2 0.826744 0.782180 0.361694
Si Si3 0.329443 0.068184 0.990422
Si Si4 0.176309 0.853375 0.042451
Si Si5 0.677003 0.311671 0.422004
Si Si6 0.673097 0.720806 0.603148
Si Si7 0.825914 0.943628 0.212245
Si Si8 0.179312 0.799561 0.760999
O O1 0.500000 0.391171 0.931548
O O2 0.225270 0.353196 0.870906
O O3 0.281764 0.552253 0.929939
O O4 0.270519 0.370802 0.033062
O O5 0.703656 0.849447 0.414797
O O6 0.808198 0.832269 0.271340
O O7 0.000000 0.797602 0.392243
O O8 0.500000 0.018352 0.983808
O O9 0.309385 0.145298 0.072148
O O10 0.207939 0.963592 0.983154
O O11 0.249329 0.895863 0.128644
O O12 0.000000 0.822297 0.047334
O O13 0.264650 0.741970 0.007344
O O14 0.500000 0.290577 0.412571
O O15 0.756633 0.251452 0.345005
O O16 0.500000 0.691677 0.625965
O O17 0.771525 0.714196 0.686063
O O18 0.000000 0.971201 0.192278
O O19 0.757363 0.066387 0.247195
O O20 0.000000 0.799228 0.768772
#
# Coordination Sequence:
#
# PCOD8167277 Si02
#       8
#     4   4   4   4   4   4   4   4
#     4   9  21  42  61  80 115 155 198 245 291 350
#     4  10  19  34  59  86 114 150 191 238 290 343
#     4  10  19  33  55  85 118 151 190 232 288 350
#     4  11  21  37  58  82 118 155 192 241 294 347
#     4  11  24  42  60  83 117 159 201 245 300 354
#     4   9  18  35  59  85 114 150 192 240 286 342
#     4   9  20  36  55  85 122 150 180 232 295 353
#     4  11  21  37  61  90 120 152 192 239 298 359
#
# _framework density 19.475563999999999
#
# number of rings (size 3 to 8) (size 9 to 14) (size 15 to 20)
#    0.000    2.000    1.250    3.375    0.000    4.000 
#    2.250    4.375    0.000    0.000    0.000    0.000 
#    0.000    0.000    0.000    0.000    0.000    0.000 
#
# Total GULP energy -396652.766130 kJ/mol
# GULP energy per Si atom -12395.398942 kJ/mol
# Density = 1.943124 g / cm^3
# Si number density = 19.475564 Si / 1000 Ang^3
#
#
#
# Elastic Constant Matrix: (Units=GPa)
#
#
# Indices 1 2 3 4 5 6 
#
# 1 63.4084 44.7692 39.4555 0.0000 0.0000 0.0000
# 2 44.7692 130.7135 67.4507 0.0000 0.0000 0.0000
# 3 39.4555 67.4507 101.3630 0.0000 0.0000 0.0000
# 4 0.0000 0.0000 0.0000 25.7400 0.0000 0.0000
# 5 0.0000 0.0000 0.0000 0.0000 29.0793 0.0000
# 6 0.0000 0.0000 0.0000 0.0000 0.0000 28.5928
#
#
#
# Elastic Compliance Matrix: (Units=1/GPa)
#
#
# Indices 1 2 3 4 5 6 
#
# 1 0.022698 -0.004896 -0.005577 0.000000 0.000000 0.000000
# 2 -0.004896 0.012707 -0.006550 0.000000 0.000000 0.000000
# 3 -0.005577 -0.006550 0.016395 0.000000 0.000000 0.000000
# 4 0.000000 0.000000 0.000000 0.038850 0.000000 0.000000
# 5 0.000000 0.000000 0.000000 0.000000 0.034389 0.000000
# 6 0.000000 0.000000 0.000000 0.000000 0.000000 0.034974
#
#
# Mechanical properties :
#
#
# Convention : Reuss Voigt Hill
#
# Bulk Modulus (GPa) = 56.32629 66.53730 61.43179
# Shear Modulus (GPa) = 25.00284 26.26971 25.63628
#
# Velocity S-wave (km/s) = 3.58691 3.67666 3.63206
# Velocity P-wave (km/s) = 6.79256 7.22928 7.01432
#
# Compressibility (1/GPa) = 0.01775370
#
# Stress axis : x y z
#
# Youngs Moduli (GPa) = 44.05674 78.69568 60.99407
#
# Poissons Ratio (x) = 0.38531 0.34017
# Poissons Ratio (y) = 0.21571 0.39951
# Poissons Ratio (z) = 0.24571 0.51546
#
# Static dielectric constant tensor:
#      x y z
#    x 3.477590 0.000000 0.000000 
#    y 0.000000 3.670780 0.000000 
#    z 0.000000 0.000000 3.576950 
# 
# 
# High freq. dielectric constant tensor:
#      x y z
#    x 1.751220 0.000000 0.000000 
#    y 0.000000 1.750590 0.000000 
#    z 0.000000 0.000000 1.755710 
# 
# From -- ./inp_files/5092.got.cif
#   From: 2010.03.12/outbox.cif.g09.slc.cpg/sg26_3_cif.got.tgz:5092.got - 2010.04.14 03:33:09.
