data_PCOD8167292
_publ_section_title
;
Structure prediction by ZEFSAII (Michael W. Deem and Ramdas Pophale) SiO2 
 PCOD8167292
Probable space group: P M C 21
;
_chemical_formula_sum "Si O2"
_cell_formula_units_Z 32
_cell_length_a 14.589870
_cell_length_b 12.949513
_cell_length_c 9.559667
_cell_angle_alpha 90.000000
_cell_angle_beta 90.000000
_cell_angle_gamma 90.000000
_cell_volume 1806.124245
_symmetry_space_group_name_H-M "P M C 21"
_symmetry_group_IT_number 26
_symmetry_cell_setting 'orthorhombic'
loop_
_space_group_symop_operation_xyz
x,y,z
-x,-y,1/2+z
-x,y,z
x,-y,1/2+z
loop_
_atom_site_type_symbol
_atom_site_label
_atom_site_fract_x
_atom_site_fract_y
_atom_site_fract_z
Si Si1 0.695058 0.302499 0.088870
Si Si2 0.286634 0.288880 0.587155
Si Si3 0.328065 0.432028 0.350658
Si Si4 0.604684 0.907548 0.030857
Si Si5 0.402509 0.364032 0.830732
Si Si6 0.100874 0.390153 0.648377
Si Si7 0.604899 0.110294 0.208270
Si Si8 0.161136 0.567080 0.452272
O O1 0.674322 0.397654 0.190736
O O2 0.683156 0.194641 0.170191
O O3 0.618779 0.298216 0.968315
O O4 0.795083 0.327936 0.021389
O O5 0.337607 0.332398 0.449390
O O6 0.319678 0.170685 0.595492
O O7 0.321776 0.351913 0.720086
O O8 0.176641 0.307580 0.590424
O O9 0.410277 0.513938 0.368533
O O10 0.237577 0.491902 0.393077
O O11 0.500000 0.869008 0.058652
O O12 0.622085 0.925110 0.866910
O O13 0.622346 0.014822 0.107034
O O14 0.500000 0.325411 0.771727
O O15 0.108429 0.502286 0.572259
O O16 0.101323 0.401806 0.817446
O O17 0.000000 0.345577 0.610973
O O18 0.500000 0.152257 0.191727
#
# Coordination Sequence:
#
# PCOD8167292 Si02
#       8
#     4   4   4   4   4   4   4   4
#     4  11  19  35  53  75 111 149 181 227 266 317
#     4  11  21  37  55  76 110 146 185 226 278 329
#     4  10  19  34  51  71 110 146 186 217 261 317
#     4  10  22  38  56  78 109 145 186 234 277 323
#     4  11  22  31  48  77 111 150 185 218 260 320
#     4  11  21  35  57  84 111 147 188 230 276 327
#     4  10  22  37  55  81 108 144 191 233 273 323
#     4  10  19  35  53  80 114 147 180 225 269 328
#
# _framework density 17.717496000000001
#
# number of rings (size 3 to 8) (size 9 to 14) (size 15 to 20)
#    0.000    1.500    5.000    2.625    1.750    3.000 
#    0.000    0.000    0.000    0.000    0.000    4.375 
#    0.000    0.000    0.000    0.000    0.000    0.000 
#
# Total GULP energy -396534.830497 kJ/mol
# GULP energy per Si atom -12391.713453 kJ/mol
# Density = 1.767717 g / cm^3
# Si number density = 17.717496 Si / 1000 Ang^3
#
#
#
# Elastic Constant Matrix: (Units=GPa)
#
#
# Indices 1 2 3 4 5 6 
#
# 1 92.9855 33.7207 32.3125 0.0000 0.0000 0.0000
# 2 33.7207 74.6216 26.8095 0.0000 0.0000 0.0000
# 3 32.3125 26.8095 94.0727 0.0000 0.0000 0.0000
# 4 0.0000 0.0000 0.0000 29.4804 0.0000 0.0000
# 5 0.0000 0.0000 0.0000 0.0000 16.2298 0.0000
# 6 0.0000 0.0000 0.0000 0.0000 0.0000 21.0258
#
#
#
# Elastic Compliance Matrix: (Units=1/GPa)
#
#
# Indices 1 2 3 4 5 6 
#
# 1 0.013714 -0.005019 -0.003280 0.000000 0.000000 0.000000
# 2 -0.005019 0.016766 -0.003054 0.000000 0.000000 0.000000
# 3 -0.003280 -0.003054 0.012627 0.000000 0.000000 0.000000
# 4 0.000000 0.000000 0.000000 0.033921 0.000000 0.000000
# 5 0.000000 0.000000 0.000000 0.000000 0.061615 0.000000
# 6 0.000000 0.000000 0.000000 0.000000 0.000000 0.047561
#
#
# Mechanical properties :
#
#
# Convention : Reuss Voigt Hill
#
# Bulk Modulus (GPa) = 49.01742 49.70725 49.36233
# Shear Modulus (GPa) = 23.17912 24.60301 23.89107
#
# Velocity S-wave (km/s) = 3.62091 3.73047 3.67610
# Velocity P-wave (km/s) = 6.72365 6.83166 6.77787
#
# Compressibility (1/GPa) = 0.02040091
#
# Stress axis : x y z
#
# Youngs Moduli (GPa) = 72.91640 59.64378 79.19376
#
# Poissons Ratio (x) = 0.29934 0.25978
# Poissons Ratio (y) = 0.36595 0.24188
# Poissons Ratio (z) = 0.23919 0.18217
#
# Static dielectric constant tensor:
#      x y z
#    x 3.106990 0.000000 0.000000 
#    y 0.000000 3.101810 0.000000 
#    z 0.000000 0.000000 3.620050 
# 
# 
# High freq. dielectric constant tensor:
#      x y z
#    x 1.655790 0.000000 0.000000 
#    y 0.000000 1.656810 0.000000 
#    z 0.000000 0.000000 1.709930 
# 
# From -- ./inp_files/2231.got.cif
#   From: 2010.03.12/outbox.cif.g09.slc.cpg/sg26_2_cif.got.tgz:2231.got - 2010.04.14 03:33:09.
