data_PCOD8167165
_publ_section_title
;
Structure prediction by ZEFSAII (Michael W. Deem and Ramdas Pophale) SiO2 
 PCOD8167165
Probable space group: P M C 21
;
_chemical_formula_sum "Si O2"
_cell_formula_units_Z 28
_cell_length_a 16.264891
_cell_length_b 9.955188
_cell_length_c 8.584810
_cell_angle_alpha 90.000000
_cell_angle_beta 90.000000
_cell_angle_gamma 90.000000
_cell_volume 1390.052845
_symmetry_space_group_name_H-M "P M C 21"
_symmetry_group_IT_number 26
_symmetry_cell_setting 'orthorhombic'
loop_
_space_group_symop_operation_xyz
x,y,z
-x,-y,1/2+z
-x,y,z
x,-y,1/2+z
loop_
_atom_site_type_symbol
_atom_site_label
_atom_site_fract_x
_atom_site_fract_y
_atom_site_fract_z
Si Si1 0.594375 0.913909 0.226780
Si Si2 0.177863 0.909410 0.693531
Si Si3 0.000000 0.073277 0.224483
Si Si4 0.178283 0.810608 0.040452
Si Si5 0.657826 0.671142 0.051914
Si Si6 0.000000 0.816385 0.057550
Si Si7 0.338670 0.165901 0.051768
Si Si8 0.403183 0.586677 0.718205
O O1 0.500000 0.917025 0.279262
O O2 0.649638 0.873725 0.373454
O O3 0.620136 0.059948 0.168686
O O4 0.608274 0.807737 0.088110
O O5 0.195415 0.878356 0.873616
O O6 0.241122 0.825621 0.586894
O O7 0.083874 0.864272 0.650866
O O8 0.188628 0.069466 0.665811
O O9 0.000000 0.085785 0.409247
O O10 0.000000 0.912643 0.206411
O O11 0.244688 0.695236 0.072921
O O12 0.087568 0.737489 0.053381
O O13 0.639841 0.630633 0.876320
O O14 0.630498 0.558661 0.173187
O O15 0.380949 0.309506 0.081112
O O16 0.500000 0.577722 0.743449
#
# Coordination Sequence:
#
# PCOD8167165 Si02
#       8
#     4   4   2   4   4   2   4   4
#     4  12  24  39  59  88 117 157 201 255 312 356
#     4  10  18  35  57  94 125 157 195 238 297 351
#     4   8  16  28  54  85 127 158 186 234 286 354
#     4  10  19  36  61  93 127 160 199 242 302 357
#     4  12  25  43  64  84 117 157 206 256 304 366
#     4   8  16  30  56  89 125 160 192 238 290 360
#     4  12  23  39  61  88 125 155 199 254 300 366
#     4  12  25  43  61  84 115 159 207 254 306 366
#
# _framework density 20.14312
#
# number of rings (size 3 to 8) (size 9 to 14) (size 15 to 20)
#    0.000    1.143    2.857    5.143    0.000    0.000 
#    0.000    0.000    0.000    1.714    0.000    0.000 
#    0.000    0.000    0.000    0.000    0.000    0.000 
#
# Total GULP energy -347148.348025 kJ/mol
# GULP energy per Si atom -12398.155287 kJ/mol
# Density = 2.009727 g / cm^3
# Si number density = 20.143120 Si / 1000 Ang^3
#
#
#
# Elastic Constant Matrix: (Units=GPa)
#
#
# Indices 1 2 3 4 5 6 
#
# 1 138.2366 36.0207 -2.3203 0.0000 0.0000 0.0000
# 2 36.0207 54.9987 -6.8301 0.0000 0.0000 0.0000
# 3 -2.3203 -6.8301 36.4379 0.0000 0.0000 0.0000
# 4 0.0000 0.0000 0.0000 23.9007 0.0000 0.0000
# 5 0.0000 0.0000 0.0000 0.0000 28.3017 0.0000
# 6 0.0000 0.0000 0.0000 0.0000 0.0000 31.0506
#
#
#
# Elastic Compliance Matrix: (Units=1/GPa)
#
#
# Indices 1 2 3 4 5 6 
#
# 1 0.008732 -0.005785 -0.000528 0.000000 0.000000 0.000000
# 2 -0.005785 0.022448 0.003839 0.000000 0.000000 0.000000
# 3 -0.000528 0.003839 0.028130 0.000000 0.000000 0.000000
# 4 0.000000 0.000000 0.000000 0.041840 0.000000 0.000000
# 5 0.000000 0.000000 0.000000 0.000000 0.035334 0.000000
# 6 0.000000 0.000000 0.000000 0.000000 0.000000 0.032205
#
#
# Mechanical properties :
#
#
# Convention : Reuss Voigt Hill
#
# Bulk Modulus (GPa) = 18.39496 31.49042 24.94269
# Shear Modulus (GPa) = 26.07462 30.17080 28.12271
#
# Velocity S-wave (km/s) = 3.60177 3.87437 3.74056
# Velocity P-wave (km/s) = 5.14286 5.97341 5.57362
#
# Compressibility (1/GPa) = 0.05436271
#
# Stress axis : x y z
#
# Youngs Moduli (GPa) = 114.51505 44.54787 35.54928
#
# Poissons Ratio (x) = 0.25770 0.01878
# Poissons Ratio (y) = 0.66245 -0.13649
# Poissons Ratio (z) = 0.06050 -0.17104
#
# Static dielectric constant tensor:
#      x y z
#    x 4.216220 0.000000 0.000000 
#    y 0.000000 3.464680 0.000000 
#    z 0.000000 0.000000 3.650710 
# 
# 
# High freq. dielectric constant tensor:
#      x y z
#    x 1.812530 0.000000 0.000000 
#    y 0.000000 1.741620 0.000000 
#    z 0.000000 0.000000 1.793360 
# 
# From -- ./inp_files/2418.got.cif
#   From: 2010.03.12/outbox.cif.g09.slc.cpg/sg26_2_cif.got.tgz:2418.got - 2010.04.14 03:33:09.
