data_PCOD8167111
_publ_section_title
;
Structure prediction by ZEFSAII (Michael W. Deem and Ramdas Pophale) SiO2 
 PCOD8167111
Probable space group: P M C 21
;
_chemical_formula_sum "Si O2"
_cell_formula_units_Z 28
_cell_length_a 10.137917
_cell_length_b 11.543112
_cell_length_c 13.429589
_cell_angle_alpha 90.000000
_cell_angle_beta 90.000000
_cell_angle_gamma 90.000000
_cell_volume 1571.572289
_symmetry_space_group_name_H-M "P M C 21"
_symmetry_group_IT_number 26
_symmetry_cell_setting 'orthorhombic'
loop_
_space_group_symop_operation_xyz
x,y,z
-x,-y,1/2+z
-x,y,z
x,-y,1/2+z
loop_
_atom_site_type_symbol
_atom_site_label
_atom_site_fract_x
_atom_site_fract_y
_atom_site_fract_z
Si Si1 0.153781 0.347151 0.898360
Si Si2 0.842489 0.587676 0.814294
Si Si3 0.151850 0.302123 0.114044
Si Si4 0.646204 0.774040 0.880521
Si Si5 0.849716 0.904035 0.356707
Si Si6 0.353358 0.012415 0.504054
Si Si7 0.740174 0.075702 0.203776
O O1 0.209947 0.460030 0.842293
O O2 0.179874 0.231539 0.833111
O O3 0.000000 0.369821 0.910864
O O4 0.221114 0.332184 0.008258
O O5 0.799316 0.609878 0.699949
O O6 0.762192 0.679183 0.881857
O O7 0.000000 0.607485 0.829828
O O8 0.171813 0.169785 0.146688
O O9 0.000000 0.322028 0.096316
O O10 0.500000 0.716466 0.881366
O O11 0.650186 0.859245 0.784635
O O12 0.668135 0.851734 0.979198
O O13 0.755529 0.937968 0.447248
O O14 0.000000 0.918041 0.394520
O O15 0.831089 0.980891 0.258559
O O16 0.500000 0.974683 0.468460
O O17 0.345570 0.993141 0.622583
#
# Coordination Sequence:
#
# PCOD8167111 Si02
#       7
#     4   4   4   4   4   4   4
#     4   9  17  32  51  75 107 136 167 215 264 306
#     4   9  18  33  53  74  98 135 178 213 254 311
#     4   9  16  29  51  74  99 134 170 210 259 306
#     4   9  19  34  52  74 102 134 172 221 264 306
#     4  10  20  33  53  82 110 135 172 221 267 312
#     4  10  20  34  53  77 107 142 174 212 266 324
#     4  10  18  31  53  78 103 138 173 214 260 325
#
# _framework density 17.816552000000001
#
# number of rings (size 3 to 8) (size 9 to 14) (size 15 to 20)
#    0.000    2.571    1.429    0.857    0.000    4.571 
#    2.571    0.714    0.000    0.000    0.000    0.000 
#    0.000    0.000    0.000    0.000    0.000    0.000 
#
# Total GULP energy -346959.049973 kJ/mol
# GULP energy per Si atom -12391.394642 kJ/mol
# Density = 1.777600 g / cm^3
# Si number density = 17.816552 Si / 1000 Ang^3
#
#
#
# Elastic Constant Matrix: (Units=GPa)
#
#
# Indices 1 2 3 4 5 6 
#
# 1 69.9185 40.2618 12.8506 0.0000 0.0000 0.0000
# 2 40.2618 135.3487 62.2075 0.0000 0.0000 0.0000
# 3 12.8506 62.2075 85.4941 0.0000 0.0000 0.0000
# 4 0.0000 0.0000 0.0000 29.9485 0.0000 0.0000
# 5 0.0000 0.0000 0.0000 0.0000 17.1824 0.0000
# 6 0.0000 0.0000 0.0000 0.0000 0.0000 16.5204
#
#
#
# Elastic Compliance Matrix: (Units=1/GPa)
#
#
# Indices 1 2 3 4 5 6 
#
# 1 0.017428 -0.005980 0.001732 0.000000 0.000000 0.000000
# 2 -0.005980 0.013153 -0.008671 0.000000 0.000000 0.000000
# 3 0.001732 -0.008671 0.017746 0.000000 0.000000 0.000000
# 4 0.000000 0.000000 0.000000 0.033391 0.000000 0.000000
# 5 0.000000 0.000000 0.000000 0.000000 0.058199 0.000000
# 6 0.000000 0.000000 0.000000 0.000000 0.000000 0.060531
#
#
# Mechanical properties :
#
#
# Convention : Reuss Voigt Hill
#
# Bulk Modulus (GPa) = 44.47057 57.93346 51.20201
# Shear Modulus (GPa) = 21.38747 24.42636 22.90692
#
# Velocity S-wave (km/s) = 3.46848 3.70671 3.58957
# Velocity P-wave (km/s) = 6.40741 7.13490 6.78092
#
# Compressibility (1/GPa) = 0.02248678
#
# Stress axis : x y z
#
# Youngs Moduli (GPa) = 57.38013 76.03075 56.35128
#
# Poissons Ratio (x) = 0.45467 -0.09758
# Poissons Ratio (y) = 0.34314 0.48864
# Poissons Ratio (z) = -0.09936 0.65928
#
# Static dielectric constant tensor:
#      x y z
#    x 3.093730 0.000000 0.000000 
#    y 0.000000 3.387200 0.000000 
#    z 0.000000 0.000000 3.544040 
# 
# 
# High freq. dielectric constant tensor:
#      x y z
#    x 1.667620 0.000000 0.000000 
#    y 0.000000 1.683760 0.000000 
#    z 0.000000 0.000000 1.684170 
# 
# From -- ./inp_files/3317.got.cif
#   From: 2010.03.12/outbox.cif.g09.slc.cpg/sg26_2_cif.got.tgz:3317.got - 2010.04.14 03:33:09.
