data_PCOD8167121
_publ_section_title
;
Structure prediction by ZEFSAII (Michael W. Deem and Ramdas Pophale) SiO2 
 PCOD8167121
Probable space group: P M C 21
;
_chemical_formula_sum "Si O2"
_cell_formula_units_Z 32
_cell_length_a 9.369357
_cell_length_b 11.573386
_cell_length_c 17.726824
_cell_angle_alpha 90.000000
_cell_angle_beta 90.000000
_cell_angle_gamma 90.000000
_cell_volume 1922.211442
_symmetry_space_group_name_H-M "P M C 21"
_symmetry_group_IT_number 26
_symmetry_cell_setting 'orthorhombic'
loop_
_space_group_symop_operation_xyz
x,y,z
-x,-y,1/2+z
-x,y,z
x,-y,1/2+z
loop_
_atom_site_type_symbol
_atom_site_label
_atom_site_fract_x
_atom_site_fract_y
_atom_site_fract_z
Si Si1 0.831401 0.828989 0.025120
Si Si2 0.833809 0.990622 0.162227
Si Si3 0.664919 0.189249 0.224506
Si Si4 0.156780 0.391245 0.614209
Si Si5 0.832842 0.879201 0.319777
Si Si6 0.843251 0.367291 0.779960
Si Si7 0.333150 0.078096 0.384995
Si Si8 0.332028 0.452812 0.207635
O O1 0.785453 0.921630 0.088156
O O2 0.789432 0.699621 0.051979
O O3 0.000000 0.837206 0.008506
O O4 0.739998 0.850438 0.951153
O O5 0.790703 0.918158 0.235864
O O6 0.000000 0.018635 0.160430
O O7 0.751668 0.112763 0.164564
O O8 0.500000 0.175837 0.204045
O O9 0.696501 0.150431 0.309625
O O10 0.715242 0.321071 0.216156
O O11 0.142153 0.321566 0.693444
O O12 0.267025 0.497529 0.628447
O O13 0.000000 0.440398 0.591507
O O14 0.792641 0.743196 0.329082
O O15 0.000000 0.899669 0.336002
O O16 0.739951 0.951795 0.379448
O O17 0.732634 0.475122 0.779564
O O18 0.000000 0.409359 0.808235
O O19 0.500000 0.061989 0.401395
O O20 0.500000 0.469680 0.207480
#
# Coordination Sequence:
#
# PCOD8167121 Si02
#       8
#     4   4   4   4   4   4   4   4
#     4  10  18  32  49  70  97 123 152 191 242 287
#     4   9  16  27  48  70  88 115 153 191 227 275
#     4   9  19  33  45  65  99 130 157 192 234 277
#     4   8  15  28  46  69  93 115 146 194 237 272
#     4   9  15  29  48  68  91 118 150 188 236 278
#     4   8  14  26  45  69  92 114 144 190 233 268
#     4  10  21  32  44  67  99 130 157 190 231 283
#     4   9  16  27  45  68  91 117 149 186 228 270
#
# _framework density 16.647493000000001
#
# number of rings (size 3 to 8) (size 9 to 14) (size 15 to 20)
#    0.750    2.250    1.250    0.375    0.000    3.000 
#    0.000    1.250    0.000    1.500    0.000    3.500 
#    0.000    0.000    0.000    0.000    0.000    0.000 
#
# Total GULP energy -396490.116745 kJ/mol
# GULP energy per Si atom -12390.316148 kJ/mol
# Density = 1.660960 g / cm^3
# Si number density = 16.647493 Si / 1000 Ang^3
#
#
#
# Elastic Constant Matrix: (Units=GPa)
#
#
# Indices 1 2 3 4 5 6 
#
# 1 68.1743 51.7107 20.6843 0.0000 0.0000 0.0000
# 2 51.7107 108.3943 17.0268 0.0000 0.0000 0.0000
# 3 20.6843 17.0268 38.0296 0.0000 0.0000 0.0000
# 4 0.0000 0.0000 0.0000 16.4486 0.0000 0.0000
# 5 0.0000 0.0000 0.0000 0.0000 20.6893 0.0000
# 6 0.0000 0.0000 0.0000 0.0000 0.0000 29.2375
#
#
#
# Elastic Compliance Matrix: (Units=1/GPa)
#
#
# Indices 1 2 3 4 5 6 
#
# 1 0.025613 -0.010790 -0.009100 0.000000 0.000000 0.000000
# 2 -0.010790 0.014469 -0.000610 0.000000 0.000000 0.000000
# 3 -0.009100 -0.000610 0.031518 0.000000 0.000000 0.000000
# 4 0.000000 0.000000 0.000000 0.060795 0.000000 0.000000
# 5 0.000000 0.000000 0.000000 0.000000 0.048334 0.000000
# 6 0.000000 0.000000 0.000000 0.000000 0.000000 0.034203
#
#
# Mechanical properties :
#
#
# Convention : Reuss Voigt Hill
#
# Bulk Modulus (GPa) = 32.67869 43.71575 38.19722
# Shear Modulus (GPa) = 18.78771 21.62017 20.20394
#
# Velocity S-wave (km/s) = 3.36305 3.60766 3.48750
# Velocity P-wave (km/s) = 5.89513 6.60835 6.26190
#
# Compressibility (1/GPa) = 0.03060098
#
# Stress axis : x y z
#
# Youngs Moduli (GPa) = 39.04208 69.11490 31.72807
#
# Poissons Ratio (x) = 0.74573 0.28873
# Poissons Ratio (y) = 0.42125 0.01934
# Poissons Ratio (z) = 0.35529 0.04213
#
# Static dielectric constant tensor:
#      x y z
#    x 3.063790 0.000000 0.000000 
#    y 0.000000 3.107060 0.000000 
#    z 0.000000 0.000000 2.782350 
# 
# 
# High freq. dielectric constant tensor:
#      x y z
#    x 1.640640 0.000000 0.000000 
#    y 0.000000 1.638820 0.000000 
#    z 0.000000 0.000000 1.598870 
# 
# From -- ./inp_files/5372.got.cif
#   From: 2010.03.12/outbox.cif.g09.slc.cpg/sg26_3_cif.got.tgz:5372.got - 2010.04.14 03:33:09.
