data_PCOD8167462
_publ_section_title
;
Structure prediction by ZEFSAII (Michael W. Deem and Ramdas Pophale) SiO2 
 PCOD8167462
Probable space group: P M C 21
;
_chemical_formula_sum "Si O2"
_cell_formula_units_Z 32
_cell_length_a 9.952672
_cell_length_b 11.118809
_cell_length_c 15.988447
_cell_angle_alpha 90.000000
_cell_angle_beta 90.000000
_cell_angle_gamma 90.000000
_cell_volume 1769.311268
_symmetry_space_group_name_H-M "P M C 21"
_symmetry_group_IT_number 26
_symmetry_cell_setting 'orthorhombic'
loop_
_space_group_symop_operation_xyz
x,y,z
-x,-y,1/2+z
-x,y,z
x,-y,1/2+z
loop_
_atom_site_type_symbol
_atom_site_label
_atom_site_fract_x
_atom_site_fract_y
_atom_site_fract_z
Si Si1 0.353098 0.281904 0.708070
Si Si2 0.657109 0.222231 0.436010
Si Si3 0.155543 0.429963 0.817775
Si Si4 0.151464 0.158912 0.120531
Si Si5 0.644768 0.442192 0.548173
Si Si6 0.843709 0.706627 0.792660
Si Si7 0.149870 0.625238 0.508324
Si Si8 0.656801 0.063486 0.594294
O O1 0.500000 0.270820 0.752926
O O2 0.239882 0.330564 0.768918
O O3 0.371442 0.372266 0.632938
O O4 0.308917 0.154005 0.669951
O O5 0.500000 0.211821 0.410753
O O6 0.689984 0.352144 0.474923
O O7 0.752649 0.212202 0.354915
O O8 0.694395 0.119463 0.503736
O O9 0.200347 0.566362 0.796885
O O10 0.000000 0.411882 0.794739
O O11 0.186633 0.395309 0.912636
O O12 0.182347 0.244060 0.199810
O O13 0.166353 0.236775 0.035814
O O14 0.000000 0.106887 0.127502
O O15 0.256785 0.053087 0.113187
O O16 0.500000 0.499356 0.524454
O O17 0.752293 0.545234 0.564133
O O18 0.000000 0.719189 0.818994
O O19 0.000000 0.579731 0.527817
O O20 0.500000 0.029601 0.595200
#
# Coordination Sequence:
#
# PCOD8167462 Si02
#       8
#     4   4   4   4   4   4   4   4
#     4   9  19  35  55  79 106 138 178 225 269 317
#     4   9  18  34  57  82 107 138 179 227 270 319
#     4  10  20  34  54  83 114 143 177 218 272 332
#     4  10  22  38  55  79 111 147 186 229 271 321
#     4   9  17  31  53  80 107 136 173 217 269 323
#     4  10  20  35  55  83 114 142 180 226 275 330
#     4  10  20  35  54  77 111 147 178 218 269 325
#     4   9  20  40  59  77 106 143 187 228 269 325
#
# _framework density 18.086134999999999
#
# number of rings (size 3 to 8) (size 9 to 14) (size 15 to 20)
#    0.000    2.500    1.250    2.250    0.000    4.500 
#    2.250    2.500    0.000    0.000    0.000    0.000 
#    0.000    0.000    0.000    0.000    0.000    0.000 
#
# Total GULP energy -396670.800786 kJ/mol
# GULP energy per Si atom -12395.962525 kJ/mol
# Density = 1.804497 g / cm^3
# Si number density = 18.086135 Si / 1000 Ang^3
#
#
#
# Elastic Constant Matrix: (Units=GPa)
#
#
# Indices 1 2 3 4 5 6 
#
# 1 89.2049 67.9601 50.3583 0.0000 0.0000 0.0000
# 2 67.9601 108.0166 52.7264 0.0000 0.0000 0.0000
# 3 50.3583 52.7264 69.9167 0.0000 0.0000 0.0000
# 4 0.0000 0.0000 0.0000 13.4878 0.0000 0.0000
# 5 0.0000 0.0000 0.0000 0.0000 59.1275 0.0000
# 6 0.0000 0.0000 0.0000 0.0000 0.0000 38.9361
#
#
#
# Elastic Compliance Matrix: (Units=1/GPa)
#
#
# Indices 1 2 3 4 5 6 
#
# 1 0.025149 -0.011048 -0.009783 0.000000 0.000000 0.000000
# 2 -0.011048 0.019504 -0.006751 0.000000 0.000000 0.000000
# 3 -0.009783 -0.006751 0.026440 0.000000 0.000000 0.000000
# 4 0.000000 0.000000 0.000000 0.074141 0.000000 0.000000
# 5 0.000000 0.000000 0.000000 0.000000 0.016913 0.000000
# 6 0.000000 0.000000 0.000000 0.000000 0.000000 0.025683
#
#
# Mechanical properties :
#
#
# Convention : Reuss Voigt Hill
#
# Bulk Modulus (GPa) = 62.77421 67.69198 65.23310
# Shear Modulus (GPa) = 20.13652 28.71650 24.42651
#
# Velocity S-wave (km/s) = 3.34034 3.98900 3.67899
# Velocity P-wave (km/s) = 7.04705 7.66322 7.36159
#
# Compressibility (1/GPa) = 0.01593011
#
# Stress axis : x y z
#
# Youngs Moduli (GPa) = 39.76229 51.27040 37.82110
#
# Poissons Ratio (x) = 0.56643 0.36999
# Poissons Ratio (y) = 0.43929 0.25535
# Poissons Ratio (z) = 0.38898 0.34615
#
# Static dielectric constant tensor:
#      x y z
#    x 1.671040 0.000000 0.000000 
#    y 0.000000 3.336480 0.000000 
#    z 0.000000 0.000000 3.620620 
# 
# 
# High freq. dielectric constant tensor:
#      x y z
#    x 1.707340 0.000000 0.000000 
#    y 0.000000 1.683880 0.000000 
#    z 0.000000 0.000000 1.696940 
# 
# From -- ./inp_files/4130.got.cif
#   From: 2010.03.12/outbox.cif.g09.slc.cpg/sg26_3_cif.got.tgz:4130.got - 2010.04.14 03:33:09.
