data_PCOD8167786
_publ_section_title
;
Structure prediction by ZEFSAII (Michael W. Deem and Ramdas Pophale) SiO2 
 PCOD8167786
Probable space group: P C C 2
;
_chemical_formula_sum "Si O2"
_cell_formula_units_Z 32
_cell_length_a 27.732293
_cell_length_b 12.870318
_cell_length_c 5.363363
_cell_angle_alpha 90.000000
_cell_angle_beta 90.000000
_cell_angle_gamma 90.000000
_cell_volume 1914.309917
_symmetry_space_group_name_H-M "P C C 2"
_symmetry_group_IT_number 27
_symmetry_cell_setting 'orthorhombic'
loop_
_space_group_symop_operation_xyz
x,y,z
-x,-y,z
-x,y,1/2+z
x,-y,1/2+z
loop_
_atom_site_type_symbol
_atom_site_label
_atom_site_fract_x
_atom_site_fract_y
_atom_site_fract_z
Si Si1 0.684086 0.774675 0.044680
Si Si2 0.019958 0.117533 0.044680
Si Si3 0.283210 0.870342 0.044680
Si Si4 0.173551 0.890489 0.044680
Si Si5 0.520143 0.383450 0.544775
Si Si6 0.133728 0.119094 0.044680
Si Si7 0.370366 0.433794 0.044772
Si Si8 0.627399 0.030470 0.544681
O O1 0.712896 0.798801 0.298413
O O2 0.669797 0.654817 0.044669
O O3 0.636367 0.846961 0.044683
O O4 0.712896 0.798801 0.790947
O O5 0.076851 0.129451 0.044680
O O6 1.000000 0.173488 0.294680
O O7 0.000000 0.000000 0.044680
O O8 0.230076 0.918224 0.044680
O O9 0.321831 0.964737 0.044680
O O10 0.157226 0.828593 0.295593
O O11 0.145112 0.997701 0.044680
O O12 0.157226 0.828593 0.793767
O O13 0.500000 0.500000 0.544852
O O14 0.499991 0.326684 0.294796
O O15 0.577493 0.380679 0.544703
O O16 0.363577 0.499946 0.294856
O O17 0.597901 0.000001 0.294681
#
# Coordination Sequence:
#
# PCOD8167786 Si02
#       8
#     4   4   4   4   4   4   4   4
#     4  10  21  31  43  68  88 116 157 171 214 290
#     4  10  16  25  35  43  70 102 129 183 239 262
#     4  10  19  31  46  61  88 119 146 189 239 265
#     4  10  18  25  39  54  78 100 135 187 233 269
#     4  10  16  30  49  73  89 119 137 168 214 280
#     4  10  19  24  35  60  71  97 154 179 232 290
#     4  12  21  33  51  69 100 125 143 181 221 249
#     4   8  16  27  44  58  83 109 146 175 217 261
#
# _framework density 16.716207000000001
#
# number of rings (size 3 to 8) (size 9 to 14) (size 15 to 20)
#    0.000    2.000    2.500    5.250   10.500    0.000 
#    0.000    0.000    0.000    0.000    0.000    0.000 
#    0.000   27.000    0.000    0.000    0.000    0.000 
#
# Total GULP energy -396429.325371 kJ/mol
# GULP energy per Si atom -12388.416418 kJ/mol
# Density = 1.667816 g / cm^3
# Si number density = 16.716207 Si / 1000 Ang^3
#
#
#
# Elastic Constant Matrix: (Units=GPa)
#
#
# Indices 1 2 3 4 5 6 
#
# 1 45.9253 16.1618 17.4307 0.0000 0.0000 0.0000
# 2 16.1618 38.5753 25.6154 0.0000 0.0000 0.0000
# 3 17.4307 25.6154 200.7658 0.0000 0.0000 0.0000
# 4 0.0000 0.0000 0.0000 3.5499 0.0000 0.0000
# 5 0.0000 0.0000 0.0000 0.0000 16.3414 0.0000
# 6 0.0000 0.0000 0.0000 0.0000 0.0000 3.2429
#
#
#
# Elastic Compliance Matrix: (Units=1/GPa)
#
#
# Indices 1 2 3 4 5 6 
#
# 1 0.025700 -0.010146 -0.000937 0.000000 0.000000 0.000000
# 2 -0.010146 0.032328 -0.003244 0.000000 0.000000 0.000000
# 3 -0.000937 -0.003244 0.005476 0.000000 0.000000 0.000000
# 4 0.000000 0.000000 0.000000 0.281696 0.000000 0.000000
# 5 0.000000 0.000000 0.000000 0.000000 0.061194 0.000000
# 6 0.000000 0.000000 0.000000 0.000000 0.000000 0.308366
#
#
# Mechanical properties :
#
#
# Convention : Reuss Voigt Hill
#
# Bulk Modulus (GPa) = 28.69268 44.85358 36.77313
# Shear Modulus (GPa) = 6.62225 19.69741 13.15983
#
# Velocity S-wave (km/s) = 1.99253 3.43642 2.80884
# Velocity P-wave (km/s) = 4.74293 6.52962 5.70664
#
# Compressibility (1/GPa) = 0.03485209
#
# Stress axis : x y z
#
# Youngs Moduli (GPa) = 38.90984 30.93289 182.61013
#
# Poissons Ratio (x) = 0.31383 0.17108
# Poissons Ratio (y) = 0.39476 0.59236
# Poissons Ratio (z) = 0.03645 0.10034
#
# Static dielectric constant tensor:
#      x y z
#    x 2.897950 0.000000 0.000000 
#    y 0.000000 2.431970 0.000000 
#    z 0.000000 0.000000 10.275750 
# 
# 
# High freq. dielectric constant tensor:
#      x y z
#    x 1.620970 0.000000 0.000000 
#    y 0.000000 1.551040 0.000000 
#    z 0.000000 0.000000 1.698270 
# 
# From -- ./inp_files/391.got.cif
#   From: 2010.03.12/outbox.cif.g09.slc.cpg/sg27_1_cif.got.tgz:391.got - 2010.04.14 03:36:05.
