data_PCOD8167290
_publ_section_title
;
Structure prediction by ZEFSAII (Michael W. Deem and Ramdas Pophale) SiO2 
 PCOD8167290
Probable space group: P M C 21
;
_chemical_formula_sum "Si O2"
_cell_formula_units_Z 32
_cell_length_a 9.100322
_cell_length_b 7.680996
_cell_length_c 23.507492
_cell_angle_alpha 90.000000
_cell_angle_beta 90.000000
_cell_angle_gamma 90.000000
_cell_volume 1643.162804
_symmetry_space_group_name_H-M "P M C 21"
_symmetry_group_IT_number 26
_symmetry_cell_setting 'orthorhombic'
loop_
_space_group_symop_operation_xyz
x,y,z
-x,-y,1/2+z
-x,y,z
x,-y,1/2+z
loop_
_atom_site_type_symbol
_atom_site_label
_atom_site_fract_x
_atom_site_fract_y
_atom_site_fract_z
Si Si1 0.828498 0.759891 0.687440
Si Si2 0.170885 0.740955 0.819515
Si Si3 0.666340 0.920431 0.515043
Si Si4 0.170819 0.426463 0.014786
Si Si5 0.329004 0.457094 0.618807
Si Si6 0.328735 0.041822 0.887454
Si Si7 0.334130 0.071979 0.633275
Si Si8 0.828781 0.599668 0.385809
O O1 0.790958 0.743333 0.753435
O O2 0.744945 0.608211 0.654925
O O3 0.000000 0.739471 0.675163
O O4 0.777844 0.949452 0.666567
O O5 0.219288 0.552823 0.843152
O O6 0.000000 0.773932 0.831698
O O7 0.259913 0.892086 0.849713
O O8 0.500000 0.844733 0.513280
O O9 0.779838 0.768644 0.530025
O O10 0.704568 0.002902 0.453637
O O11 0.684003 0.061549 0.564778
O O12 0.259422 0.555972 0.055776
O O13 0.000000 0.446154 0.028088
O O14 0.208323 0.467653 0.949306
O O15 0.500000 0.499923 0.612775
O O16 0.302266 0.272206 0.649893
O O17 0.500000 0.050027 0.874136
O O18 0.261324 0.228014 0.870288
O O19 0.500000 0.018896 0.650566
O O20 0.000000 0.646597 0.380312
#
# Coordination Sequence:
#
# PCOD8167290 Si02
#       8
#     4   4   4   4   4   4   4   4
#     4  11  24  42  62  85 116 155 203 250 291 344
#     4  10  23  42  62  84 116 160 201 242 295 349
#     4   9  18  35  57  84 121 158 189 234 295 351
#     4  10  19  33  57  89 120 153 194 239 289 348
#     4  11  23  38  59  86 118 156 193 239 299 354
#     4  10  21  36  59  91 121 153 195 243 292 347
#     4  10  22  39  60  86 118 158 195 237 298 355
#     4   9  20  39  60  85 120 159 194 236 293 350
#
# _framework density 19.474637000000001
#
# number of rings (size 3 to 8) (size 9 to 14) (size 15 to 20)
#    0.000    2.000    1.250    1.500    1.750    4.500 
#    0.000    3.750    0.000    0.000    0.000    0.000 
#    0.000    0.000    0.000    0.000    0.000    0.000 
#
# Total GULP energy -396853.127271 kJ/mol
# GULP energy per Si atom -12401.660227 kJ/mol
# Density = 1.943031 g / cm^3
# Si number density = 19.474637 Si / 1000 Ang^3
#
#
#
# Elastic Constant Matrix: (Units=GPa)
#
#
# Indices 1 2 3 4 5 6 
#
# 1 88.9246 47.5776 44.5309 0.0000 0.0000 0.0000
# 2 47.5776 93.8818 38.1320 0.0000 0.0000 0.0000
# 3 44.5309 38.1320 72.9686 0.0000 0.0000 0.0000
# 4 0.0000 0.0000 0.0000 17.0297 0.0000 0.0000
# 5 0.0000 0.0000 0.0000 0.0000 26.4495 0.0000
# 6 0.0000 0.0000 0.0000 0.0000 0.0000 25.3168
#
#
#
# Elastic Compliance Matrix: (Units=1/GPa)
#
#
# Indices 1 2 3 4 5 6 
#
# 1 0.018601 -0.006114 -0.008157 0.000000 0.000000 0.000000
# 2 -0.006114 0.015531 -0.004385 0.000000 0.000000 0.000000
# 3 -0.008157 -0.004385 0.020974 0.000000 0.000000 0.000000
# 4 0.000000 0.000000 0.000000 0.058721 0.000000 0.000000
# 5 0.000000 0.000000 0.000000 0.000000 0.037808 0.000000
# 6 0.000000 0.000000 0.000000 0.000000 0.000000 0.039499
#
#
# Mechanical properties :
#
#
# Convention : Reuss Voigt Hill
#
# Bulk Modulus (GPa) = 56.19635 57.36178 56.77907
# Shear Modulus (GPa) = 21.33303 22.12817 21.73060
#
# Velocity S-wave (km/s) = 3.31331 3.37450 3.34404
# Velocity P-wave (km/s) = 6.59971 6.68592 6.64296
#
# Compressibility (1/GPa) = 0.01779475
#
# Stress axis : x y z
#
# Youngs Moduli (GPa) = 53.75965 64.38672 47.67760
#
# Poissons Ratio (x) = 0.39364 0.38891
# Poissons Ratio (y) = 0.32867 0.20908
# Poissons Ratio (z) = 0.43852 0.28235
#
# Static dielectric constant tensor:
#      x y z
#    x 3.598970 0.000000 0.000000 
#    y 0.000000 3.455420 0.000000 
#    z 0.000000 0.000000 3.661930 
# 
# 
# High freq. dielectric constant tensor:
#      x y z
#    x 1.763300 0.000000 0.000000 
#    y 0.000000 1.754920 0.000000 
#    z 0.000000 0.000000 1.758760 
# 
# From -- ./inp_files/5574.got.cif
#   From: 2010.03.12/outbox.cif.g09.slc.cpg/sg26_3_cif.got.tgz:5574.got - 2010.04.14 03:33:09.
