data_PCOD8167040
_publ_section_title
;
Structure prediction by ZEFSAII (Michael W. Deem and Ramdas Pophale) SiO2 
 PCOD8167040
Probable space group: P M M 2
;
_chemical_formula_sum "Si O2"
_cell_formula_units_Z 32
_cell_length_a 9.377043
_cell_length_b 9.377041
_cell_length_c 20.602108
_cell_angle_alpha 90.000000
_cell_angle_beta 90.000000
_cell_angle_gamma 90.000000
_cell_volume 1811.521038
_symmetry_space_group_name_H-M "P M M 2"
_symmetry_group_IT_number 25
_symmetry_cell_setting 'orthorhombic'
loop_
_space_group_symop_operation_xyz
x,y,z
-x,-y,z
-x,y,z
x,-y,z
loop_
_atom_site_type_symbol
_atom_site_label
_atom_site_fract_x
_atom_site_fract_y
_atom_site_fract_z
Si Si1 0.838814 0.669488 0.004410
Si Si2 0.666275 0.666275 0.129241
Si Si3 0.165432 0.165432 0.629240
Si Si4 0.334450 0.835088 0.754457
Si Si5 0.333178 0.664851 0.377641
Si Si6 0.335149 0.666822 0.880840
Si Si7 0.330512 0.161186 0.254071
Si Si8 0.835089 0.334449 0.504024
O O1 0.837900 0.500000 0.003681
O O2 0.754858 0.723296 0.067772
O O3 0.000000 0.729367 0.005321
O O4 0.757898 0.726206 0.940608
O O5 0.500000 0.694235 0.115204
O O6 0.694233 0.500000 0.143278
O O7 0.723298 0.754858 0.190709
O O8 0.249588 0.221542 0.691993
O O9 0.221545 0.249589 0.566488
O O10 0.000000 0.196608 0.641658
O O11 0.196604 0.000000 0.616822
O O12 0.500000 0.808342 0.740765
O O13 0.281985 0.747122 0.816647
O O14 0.300453 0.000000 0.767913
O O15 0.500000 0.689507 0.388829
O O16 0.299204 0.500000 0.362437
O O17 0.273794 0.757899 0.317874
O O18 0.252880 0.718013 0.441834
O O19 0.500000 0.700796 0.896043
O O20 0.310493 0.500000 0.869651
O O21 0.500000 0.162103 0.254799
O O22 0.270634 0.000000 0.253160
O O23 0.808349 0.500000 0.517716
O O24 0.000000 0.300446 0.490568
#
# Coordination Sequence:
#
# PCOD8167040 Si02
#       8
#     4   4   4   4   4   4   4   4
#     4   9  17  29  46  69  94 118 148 187 226 264
#     4   9  16  28  48  69  88 116 152 185 220 266
#     4   9  18  32  48  65  88 120 154 185 220 266
#     4   9  18  32  48  67  92 120 150 185 224 266
#     4   9  17  30  48  69  92 118 149 185 224 266
#     4   9  17  30  48  69  92 118 149 185 224 266
#     4   9  17  29  46  69  94 118 148 187 226 264
#     4   9  18  32  48  67  92 120 150 185 224 266
#
# _framework density 17.664714
#
# number of rings (size 3 to 8) (size 9 to 14) (size 15 to 20)
#    0.000    3.000    0.000    0.750    0.000    5.000 
#    0.000    1.250    0.000    7.875    0.000    0.000 
#    0.000    0.000    0.000    0.000    0.000    0.000 
#
# Total GULP energy -396831.043993 kJ/mol
# GULP energy per Si atom -12400.970125 kJ/mol
# Density = 1.762451 g / cm^3
# Si number density = 17.664714 Si / 1000 Ang^3
#
#
#
# Elastic Constant Matrix: (Units=GPa)
#
#
# Indices 1 2 3 4 5 6 
#
# 1 63.6122 33.2406 74.9565 0.0000 0.0000 0.0000
# 2 33.2406 63.6120 74.9569 0.0000 0.0000 0.0000
# 3 74.9565 74.9569 205.8364 0.0000 0.0000 0.0000
# 4 0.0000 0.0000 0.0000 14.2800 0.0000 0.0000
# 5 0.0000 0.0000 0.0000 0.0000 14.2805 0.0000
# 6 0.0000 0.0000 0.0000 0.0000 0.0000 14.7429
#
#
#
# Elastic Compliance Matrix: (Units=1/GPa)
#
#
# Indices 1 2 3 4 5 6 
#
# 1 0.028294 -0.004631 -0.008617 0.000000 0.000000 0.000000
# 2 -0.004631 0.028294 -0.008617 0.000000 0.000000 0.000000
# 3 -0.008617 -0.008617 0.011134 0.000000 0.000000 0.000000
# 4 0.000000 0.000000 0.000000 0.070028 0.000000 0.000000
# 5 0.000000 0.000000 0.000000 0.000000 0.070026 0.000000
# 6 0.000000 0.000000 0.000000 0.000000 0.000000 0.067829
#
#
# Mechanical properties :
#
#
# Convention : Reuss Voigt Hill
#
# Bulk Modulus (GPa) = 41.68108 77.70763 59.69435
# Shear Modulus (GPa) = 15.27496 18.65445 16.96470
#
# Velocity S-wave (km/s) = 2.94380 3.25319 3.10235
# Velocity P-wave (km/s) = 5.93308 7.62868 6.83368
#
# Compressibility (1/GPa) = 0.02399170
#
# Stress axis : x y z
#
# Youngs Moduli (GPa) = 35.34326 35.34279 89.81461
#
# Poissons Ratio (x) = 0.16369 0.77392
# Poissons Ratio (y) = 0.16369 0.77393
# Poissons Ratio (z) = 0.30455 0.30455
#
# Static dielectric constant tensor:
#      x y z
#    x 3.150210 0.000000 0.000000 
#    y 0.000000 3.150180 0.000000 
#    z 0.000000 0.000000 3.474720 
# 
# 
# High freq. dielectric constant tensor:
#      x y z
#    x 1.664020 0.000000 0.000000 
#    y 0.000000 1.664010 0.000000 
#    z 0.000000 0.000000 1.695350 
# 
# From -- ./inp_files/6573.got.cif
#   From: 2010.03.12/outbox.cif.g09.slc.cpg/sg25_4_cif.got.tgz:6573.got - 2010.04.14 03:30:10.
