data_PCOD8167823
_publ_section_title
;
Structure prediction by ZEFSAII (Michael W. Deem and Ramdas Pophale) SiO2 
 PCOD8167823
Probable space group: P C C 2
;
_chemical_formula_sum "Si O2"
_cell_formula_units_Z 26
_cell_length_a 7.894495
_cell_length_b 17.509704
_cell_length_c 8.984390
_cell_angle_alpha 90.000000
_cell_angle_beta 90.000000
_cell_angle_gamma 90.000000
_cell_volume 1241.914662
_symmetry_space_group_name_H-M "P C C 2"
_symmetry_group_IT_number 27
_symmetry_cell_setting 'orthorhombic'
loop_
_space_group_symop_operation_xyz
x,y,z
-x,-y,z
-x,y,1/2+z
x,-y,1/2+z
loop_
_atom_site_type_symbol
_atom_site_label
_atom_site_fract_x
_atom_site_fract_y
_atom_site_fract_z
Si Si1 0.912847 0.119969 0.452960
Si Si2 0.678735 0.541097 0.583342
Si Si3 0.500000 0.000000 0.707514
Si Si4 0.130109 0.323434 0.457532
Si Si5 0.021224 0.776143 0.708729
Si Si6 0.267989 0.039489 0.455687
Si Si7 0.133251 0.557802 0.371694
O O1 0.870960 0.168809 0.600352
O O2 0.892305 0.173094 0.308191
O O3 0.109610 0.094962 0.459557
O O4 0.788135 0.049057 0.445500
O O5 0.500000 0.500000 0.564459
O O6 0.713346 0.616921 0.479652
O O7 0.807741 0.476607 0.528721
O O8 0.712734 0.565371 0.753875
O O9 0.621555 0.947892 0.604367
O O10 0.384668 0.944800 0.811243
O O11 0.158532 0.266265 0.317610
O O12 0.097114 0.280466 0.612819
O O13 0.952126 0.362448 0.411749
O O14 0.000000 0.500000 0.295680
#
# Coordination Sequence:
#
# PCOD8167823 Si02
#       7
#     4   4   2   4   4   4   4
#     4  10  20  36  62  91 117 156 216 264 288 350
#     4  11  22  36  59  90 118 146 187 251 305 347
#     4  10  20  32  56  86 122 162 176 246 334 356
#     4  10  20  37  59  86 115 153 201 245 289 381
#     4  10  20  34  60  91 114 159 209 243 307 355
#     4  10  20  36  58  92 124 156 212 266 298 340
#     4  10  20  36  60  87 109 147 192 243 290 356
#
# _framework density 20.935417000000001
#
# number of rings (size 3 to 8) (size 9 to 14) (size 15 to 20)
#    0.000    1.846    1.538    3.692    2.154    2.462 
#    0.000    0.000    0.000   36.923    0.000    0.000 
#    0.000    0.000    0.000    0.000    0.000    0.000 
#
# Total GULP energy -322188.545091 kJ/mol
# GULP energy per Si atom -12391.867119 kJ/mol
# Density = 2.088777 g / cm^3
# Si number density = 20.935417 Si / 1000 Ang^3
#
#
#
# Elastic Constant Matrix: (Units=GPa)
#
#
# Indices 1 2 3 4 5 6 
#
# 1 95.1275 36.6763 40.0077 0.0000 0.0000 0.0000
# 2 36.6763 108.1478 48.4095 0.0000 0.0000 0.0000
# 3 40.0077 48.4095 146.8831 0.0000 0.0000 0.0000
# 4 0.0000 0.0000 0.0000 27.8111 0.0000 0.0000
# 5 0.0000 0.0000 0.0000 0.0000 23.8849 0.0000
# 6 0.0000 0.0000 0.0000 0.0000 0.0000 23.0471
#
#
#
# Elastic Compliance Matrix: (Units=1/GPa)
#
#
# Indices 1 2 3 4 5 6 
#
# 1 0.012780 -0.003256 -0.002408 0.000000 0.000000 0.000000
# 2 -0.003256 0.011677 -0.002961 0.000000 0.000000 0.000000
# 3 -0.002408 -0.002961 0.008440 0.000000 0.000000 0.000000
# 4 0.000000 0.000000 0.000000 0.035957 0.000000 0.000000
# 5 0.000000 0.000000 0.000000 0.000000 0.041868 0.000000
# 6 0.000000 0.000000 0.000000 0.000000 0.000000 0.043389
#
#
# Mechanical properties :
#
#
# Convention : Reuss Voigt Hill
#
# Bulk Modulus (GPa) = 63.91554 66.70504 65.31029
# Shear Modulus (GPa) = 28.31623 29.95293 29.13458
#
# Velocity S-wave (km/s) = 3.68169 3.78660 3.73452
# Velocity P-wave (km/s) = 6.97634 7.14488 7.06111
#
# Compressibility (1/GPa) = 0.01564565
#
# Stress axis : x y z
#
# Youngs Moduli (GPa) = 78.24492 85.64186 118.48375
#
# Poissons Ratio (x) = 0.27889 0.28529
# Poissons Ratio (y) = 0.25480 0.35087
# Poissons Ratio (z) = 0.18840 0.25362
#
# Static dielectric constant tensor:
#      x y z
#    x 3.617140 0.000000 0.000000 
#    y 0.000000 3.802990 0.000000 
#    z 0.000000 0.000000 4.018130 
# 
# 
# High freq. dielectric constant tensor:
#      x y z
#    x 1.777610 0.000000 0.000000 
#    y 0.000000 1.812620 0.000000 
#    z 0.000000 0.000000 1.846270 
# 
# From -- ./inp_files/1224.got.cif
#   From: 2010.03.12/outbox.cif.g09.slc.cpg/sg27_1_cif.got.tgz:1224.got - 2010.04.14 03:36:05.
