data_PCOD8167835
_publ_section_title
;
Structure prediction by ZEFSAII (Michael W. Deem and Ramdas Pophale) SiO2 
 PCOD8167835
Probable space group: P C C 2
;
_chemical_formula_sum "Si O2"
_cell_formula_units_Z 32
_cell_length_a 8.780047
_cell_length_b 11.862141
_cell_length_c 15.381474
_cell_angle_alpha 90.000000
_cell_angle_beta 90.000000
_cell_angle_gamma 90.000000
_cell_volume 1601.982909
_symmetry_space_group_name_H-M "P C C 2"
_symmetry_group_IT_number 27
_symmetry_cell_setting 'orthorhombic'
loop_
_space_group_symop_operation_xyz
x,y,z
-x,-y,z
-x,y,1/2+z
x,-y,1/2+z
loop_
_atom_site_type_symbol
_atom_site_label
_atom_site_fract_x
_atom_site_fract_y
_atom_site_fract_z
Si Si1 0.819729 0.000000 0.870550
Si Si2 0.321421 0.229001 0.117338
Si Si3 0.179348 0.762044 0.440981
Si Si4 0.824135 0.367967 0.268378
Si Si5 0.824138 0.367964 0.768377
Si Si6 0.819196 0.000001 0.174961
Si Si7 0.678579 0.770996 0.617338
Si Si8 0.820654 0.762045 0.440982
O O1 0.753466 0.000003 0.772871
O O2 0.763565 0.111095 0.920342
O O3 0.763562 0.888903 0.920339
O O4 0.000000 0.000000 0.862903
O O5 0.277562 0.313878 0.193754
O O6 0.238234 0.109819 0.125689
O O7 0.500000 0.209902 0.118229
O O8 0.267908 0.282426 0.025732
O O9 0.224797 0.681903 0.361175
O O10 0.000001 0.757622 0.459165
O O11 0.793630 0.500002 0.270149
O O12 0.722431 0.313884 0.193755
O O13 0.999998 0.338280 0.249257
O O14 0.775206 0.318093 0.861175
O O15 0.761771 0.109824 0.125692
O O16 0.000000 0.000000 0.172338
O O17 0.732095 0.717574 0.525732
#
# Coordination Sequence:
#
# PCOD8167835 Si02
#       8
#     4   4   4   4   4   4   4   4
#     4   9  17  33  62  91 115 148 197 252 304 349
#     4  12  25  39  59  94 132 164 196 242 311 379
#     4  10  20  38  63  91 120 158 206 255 302 357
#     4  10  22  42  67  91 116 157 215 265 300 347
#     4  10  22  42  67  91 116 157 215 265 300 347
#     4  11  20  39  66  91 121 160 207 254 298 355
#     4  12  25  39  59  94 132 164 196 242 311 379
#     4  10  20  38  63  91 120 158 206 255 302 357
#
# _framework density 19.975245000000001
#
# number of rings (size 3 to 8) (size 9 to 14) (size 15 to 20)
#    0.000    1.500    2.500    3.375    0.000    3.500 
#    0.000    2.500    0.000    0.000    0.000    0.000 
#    0.000    0.000    0.000    0.000    0.000    0.000 
#
# Total GULP energy -396953.948212 kJ/mol
# GULP energy per Si atom -12404.810882 kJ/mol
# Density = 1.992978 g / cm^3
# Si number density = 19.975245 Si / 1000 Ang^3
#
#
#
# Elastic Constant Matrix: (Units=GPa)
#
#
# Indices 1 2 3 4 5 6 
#
# 1 90.9816 40.3411 61.0314 0.0000 0.0000 0.0000
# 2 40.3411 107.2412 50.5071 0.0000 0.0000 0.0000
# 3 61.0314 50.5071 160.5692 0.0000 0.0000 0.0000
# 4 0.0000 0.0000 0.0000 2.8467 0.0000 0.0000
# 5 0.0000 0.0000 0.0000 0.0000 12.5443 0.0000
# 6 0.0000 0.0000 0.0000 0.0000 0.0000 17.0443
#
#
#
# Elastic Compliance Matrix: (Units=1/GPa)
#
#
# Indices 1 2 3 4 5 6 
#
# 1 0.015901 -0.003680 -0.004886 0.000000 0.000000 0.000000
# 2 -0.003680 0.011798 -0.002312 0.000000 0.000000 0.000000
# 3 -0.004886 -0.002312 0.008812 0.000000 0.000000 0.000000
# 4 0.000000 0.000000 0.000000 0.351287 0.000000 0.000000
# 5 0.000000 0.000000 0.000000 0.000000 0.079718 0.000000
# 6 0.000000 0.000000 0.000000 0.000000 0.000000 0.058671
#
#
# Mechanical properties :
#
#
# Convention : Reuss Voigt Hill
#
# Bulk Modulus (GPa) = 67.77834 73.61680 70.69757
# Shear Modulus (GPa) = 9.04384 20.28120 14.66252
#
# Velocity S-wave (km/s) = 2.13011 3.18986 2.71225
# Velocity P-wave (km/s) = 6.32887 7.10640 6.72888
#
# Compressibility (1/GPa) = 0.01475398
#
# Stress axis : x y z
#
# Youngs Moduli (GPa) = 62.89025 84.75895 113.47666
#
# Poissons Ratio (x) = 0.31193 0.55447
# Poissons Ratio (y) = 0.23145 0.26239
# Poissons Ratio (z) = 0.30729 0.19599
#
# Static dielectric constant tensor:
#      x y z
#    x 3.347690 0.000000 0.000000 
#    y 0.000000 3.633890 0.000000 
#    z 0.000000 0.000000 3.853300 
# 
# 
# High freq. dielectric constant tensor:
#      x y z
#    x 1.754580 0.000000 0.000000 
#    y 0.000000 1.777020 0.000000 
#    z 0.000000 0.000000 1.799070 
# 
# From -- ./inp_files/3429.got.cif
#   From: 2010.03.12/outbox.cif.g09.slc.cpg/sg27_2_cif.got.tgz:3429.got - 2010.04.14 03:36:05.
