data_PCOD8167543
_publ_section_title
;
Structure prediction by ZEFSAII (Michael W. Deem and Ramdas Pophale) SiO2 
 PCOD8167543
Probable space group: P M C 21
;
_chemical_formula_sum "Si O2"
_cell_formula_units_Z 32
_cell_length_a 9.292667
_cell_length_b 28.577569
_cell_length_c 5.289122
_cell_angle_alpha 90.000000
_cell_angle_beta 90.000000
_cell_angle_gamma 90.000000
_cell_volume 1404.588930
_symmetry_space_group_name_H-M "P M C 21"
_symmetry_group_IT_number 26
_symmetry_cell_setting 'orthorhombic'
loop_
_space_group_symop_operation_xyz
x,y,z
-x,-y,1/2+z
-x,y,z
x,-y,1/2+z
loop_
_atom_site_type_symbol
_atom_site_label
_atom_site_fract_x
_atom_site_fract_y
_atom_site_fract_z
Si Si1 0.171484 0.867436 0.603940
Si Si2 0.154224 0.300836 0.238687
Si Si3 0.347175 0.744445 0.402549
Si Si4 0.168004 0.976609 0.637564
Si Si5 0.156086 0.602856 0.484078
Si Si6 0.655188 0.349016 0.640391
Si Si7 0.330194 0.168795 0.601067
Si Si8 0.332463 0.528444 0.733966
O O1 0.197357 0.921870 0.651727
O O2 0.250217 0.855300 0.340266
O O3 0.000000 0.855858 0.591744
O O4 0.248629 0.841373 0.838877
O O5 0.215714 0.253742 0.102340
O O6 0.127291 0.343395 0.047195
O O7 0.000000 0.287131 0.361069
O O8 0.266539 0.318405 0.436950
O O9 0.500000 0.763090 0.518923
O O10 0.313632 0.775244 0.153420
O O11 0.369190 0.689054 0.359306
O O12 0.000000 0.988448 0.632260
O O13 0.238455 0.998929 0.384662
O O14 0.239900 0.576076 0.709497
O O15 0.000000 0.579062 0.429097
O O16 0.256733 0.604883 0.232914
O O17 0.500000 0.367902 0.544336
O O18 0.500000 0.154194 0.586298
O O19 0.500000 0.541293 0.725492
O O20 0.288880 0.503111 0.992416
#
# Coordination Sequence:
#
# PCOD8167543 Si02
#       8
#     4   4   4   4   4   4   4   4
#     4  11  23  40  64  96 126 161 216 268 317 379
#     4  10  21  36  57  87 119 149 190 251 308 356
#     4   9  21  39  57  80 110 157 209 245 292 365
#     4   9  17  32  58  89 120 156 202 261 318 372
#     4  10  22  39  58  85 119 153 192 241 302 358
#     4  10  20  36  60  85 112 151 201 248 292 355
#     4  11  24  42  63  88 129 175 212 257 319 387
#     4  10  23  42  63  90 121 156 200 245 292 354
#
# _framework density 22.782468000000001
#
# number of rings (size 3 to 8) (size 9 to 14) (size 15 to 20)
#    0.000    2.000    0.000    2.625    3.500    5.500 
#    0.000    0.000    0.000    7.500    0.000    0.000 
#    0.000    0.000    0.000    0.000    0.000    0.000 
#
# Total GULP energy -396421.268508 kJ/mol
# GULP energy per Si atom -12388.164641 kJ/mol
# Density = 2.273061 g / cm^3
# Si number density = 22.782468 Si / 1000 Ang^3
#
#
#
# Elastic Constant Matrix: (Units=GPa)
#
#
# Indices 1 2 3 4 5 6 
#
# 1 139.8012 4.5644 23.3774 0.0000 0.0000 0.0000
# 2 4.5644 48.0319 -0.0262 0.0000 0.0000 0.0000
# 3 23.3774 -0.0262 83.7593 0.0000 0.0000 0.0000
# 4 0.0000 0.0000 0.0000 31.9836 0.0000 0.0000
# 5 0.0000 0.0000 0.0000 0.0000 27.6932 0.0000
# 6 0.0000 0.0000 0.0000 0.0000 0.0000 24.4296
#
#
#
# Elastic Compliance Matrix: (Units=1/GPa)
#
#
# Indices 1 2 3 4 5 6 
#
# 1 0.007528 -0.000717 -0.002101 0.000000 0.000000 0.000000
# 2 -0.000717 0.020888 0.000207 0.000000 0.000000 0.000000
# 3 -0.002101 0.000207 0.012526 0.000000 0.000000 0.000000
# 4 0.000000 0.000000 0.000000 0.031266 0.000000 0.000000
# 5 0.000000 0.000000 0.000000 0.000000 0.036110 0.000000
# 6 0.000000 0.000000 0.000000 0.000000 0.000000 0.040934
#
#
# Mechanical properties :
#
#
# Convention : Reuss Voigt Hill
#
# Bulk Modulus (GPa) = 27.99667 36.38040 32.18854
# Shear Modulus (GPa) = 30.05178 33.06640 31.55909
#
# Velocity S-wave (km/s) = 3.63585 3.81385 3.72591
# Velocity P-wave (km/s) = 5.47186 5.94956 5.71570
#
# Compressibility (1/GPa) = 0.03571853
#
# Stress axis : x y z
#
# Youngs Moduli (GPa) = 132.84134 47.87504 79.83708
#
# Poissons Ratio (x) = 0.03430 0.16776
# Poissons Ratio (y) = 0.09518 -0.01649
# Poissons Ratio (z) = 0.27913 -0.00989
#
# Static dielectric constant tensor:
#      x y z
#    x 4.798290 0.000000 0.000000 
#    y 0.000000 4.143140 0.000000 
#    z 0.000000 0.000000 4.148430 
# 
# 
# High freq. dielectric constant tensor:
#      x y z
#    x 1.901440 0.000000 0.000000 
#    y 0.000000 1.888050 0.000000 
#    z 0.000000 0.000000 1.897350 
# 
# From -- ./inp_files/256.got.cif
#   From: 2010.03.12/outbox.cif.g09.slc.cpg/sg26_1_cif.got.tgz:256.got - 2010.04.14 03:33:09.
