data_PCOD8167633
_publ_section_title
;
Structure prediction by ZEFSAII (Michael W. Deem and Ramdas Pophale) SiO2 
 PCOD8167633
Probable space group: P M C 21
;
_chemical_formula_sum "Si O2"
_cell_formula_units_Z 24
_cell_length_a 29.328625
_cell_length_b 7.436222
_cell_length_c 5.214386
_cell_angle_alpha 90.000000
_cell_angle_beta 90.000000
_cell_angle_gamma 90.000000
_cell_volume 1137.227168
_symmetry_space_group_name_H-M "P M C 21"
_symmetry_group_IT_number 26
_symmetry_cell_setting 'orthorhombic'
loop_
_space_group_symop_operation_xyz
x,y,z
-x,-y,1/2+z
-x,y,z
x,-y,1/2+z
loop_
_atom_site_type_symbol
_atom_site_label
_atom_site_fract_x
_atom_site_fract_y
_atom_site_fract_z
Si Si1 0.051001 0.387970 0.970210
Si Si2 0.448834 0.117346 0.510635
Si Si3 0.870672 0.109876 0.072967
Si Si4 0.640824 0.701162 0.080284
Si Si5 0.229738 0.881989 0.509192
Si Si6 0.319969 0.702209 0.580323
O O1 0.058111 0.459093 0.682964
O O2 0.000000 0.306163 0.998342
O O3 0.088078 0.238665 0.014747
O O4 0.500000 0.196837 0.528907
O O5 0.413817 0.284626 0.543036
O O6 0.440682 0.972766 0.734831
O O7 0.821092 0.202349 0.031440
O O8 0.874599 0.052161 0.369234
O O9 0.654975 0.801328 0.343293
O O10 0.660507 0.499674 0.111811
O O11 0.665776 0.801477 0.843778
O O12 0.265408 0.717352 0.543761
O O13 0.236950 0.968752 0.229503
#
# Coordination Sequence:
#
# PCOD8167633 Si02
#       6
#     4   4   4   4   4   4
#     4  10  21  38  58  87 122 157 200 244 297 357
#     4  10  21  37  58  84 111 142 181 224 275 331
#     4  10  21  38  59  86 118 152 200 247 299 353
#     4  10  21  37  55  80 113 142 184 227 265 335
#     4  10  21  37  57  81 112 147 185 236 283 334
#     4  10  21  37  53  80 112 144 182 226 275 330
#
# _framework density 21.103961999999999
#
# number of rings (size 3 to 8) (size 9 to 14) (size 15 to 20)
#    0.000    2.000    0.000    3.000    0.000    4.667 
#    6.000    3.333    0.000    0.000    0.000    0.000 
#    0.000    0.000    0.000    0.000    0.000    0.000 
#
# Total GULP energy -297384.716107 kJ/mol
# GULP energy per Si atom -12391.029838 kJ/mol
# Density = 2.105593 g / cm^3
# Si number density = 21.103962 Si / 1000 Ang^3
#
#
#
# Elastic Constant Matrix: (Units=GPa)
#
#
# Indices 1 2 3 4 5 6 
#
# 1 159.1233 44.6806 3.3400 0.0000 0.0000 0.0000
# 2 44.6806 38.2793 -11.1081 0.0000 0.0000 0.0000
# 3 3.3400 -11.1081 136.0684 0.0000 0.0000 0.0000
# 4 0.0000 0.0000 0.0000 7.4612 0.0000 0.0000
# 5 0.0000 0.0000 0.0000 0.0000 31.2696 0.0000
# 6 0.0000 0.0000 0.0000 0.0000 0.0000 46.1080
#
#
#
# Elastic Compliance Matrix: (Units=1/GPa)
#
#
# Indices 1 2 3 4 5 6 
#
# 1 0.009527 -0.011459 -0.001169 0.000000 0.000000 0.000000
# 2 -0.011459 0.040541 0.003591 0.000000 0.000000 0.000000
# 3 -0.001169 0.003591 0.007671 0.000000 0.000000 0.000000
# 4 0.000000 0.000000 0.000000 0.134027 0.000000 0.000000
# 5 0.000000 0.000000 0.000000 0.000000 0.031980 0.000000
# 6 0.000000 0.000000 0.000000 0.000000 0.000000 0.021688
#
#
# Mechanical properties :
#
#
# Convention : Reuss Voigt Hill
#
# Bulk Modulus (GPa) = 25.21185 45.25512 35.23349
# Shear Modulus (GPa) = 18.06818 36.73833 27.40326
#
# Velocity S-wave (km/s) = 2.92918 4.17685 3.60736
# Velocity P-wave (km/s) = 4.83865 6.68968 5.83800
#
# Compressibility (1/GPa) = 0.03966388
#
# Stress axis : x y z
#
# Youngs Moduli (GPa) = 104.96953 24.66639 130.35949
#
# Poissons Ratio (x) = 0.28265 0.15243
# Poissons Ratio (y) = 1.20284 -0.46811
# Poissons Ratio (z) = 0.12274 -0.08857
#
# Static dielectric constant tensor:
#      x y z
#    x 4.173300 0.000000 0.000000 
#    y 0.000000 3.168820 0.000000 
#    z 0.000000 0.000000 5.284080 
# 
# 
# High freq. dielectric constant tensor:
#      x y z
#    x 1.844840 0.000000 0.000000 
#    y 0.000000 1.768440 0.000000 
#    z 0.000000 0.000000 1.870180 
# 
# From -- ./inp_files/948.got.cif
#   From: 2010.03.12/outbox.cif.g09.slc.cpg/sg26_1_cif.got.tgz:948.got - 2010.04.14 03:33:09.
