data_PCOD8167687
_publ_section_title
;
Structure prediction by ZEFSAII (Michael W. Deem and Ramdas Pophale) SiO2 
 PCOD8167687
Probable space group: P M C 21
;
_chemical_formula_sum "Si O2"
_cell_formula_units_Z 32
_cell_length_a 8.548244
_cell_length_b 11.895661
_cell_length_c 15.330410
_cell_angle_alpha 90.000000
_cell_angle_beta 90.000000
_cell_angle_gamma 90.000000
_cell_volume 1558.903597
_symmetry_space_group_name_H-M "P M C 21"
_symmetry_group_IT_number 26
_symmetry_cell_setting 'orthorhombic'
loop_
_space_group_symop_operation_xyz
x,y,z
-x,-y,1/2+z
-x,y,z
x,-y,1/2+z
loop_
_atom_site_type_symbol
_atom_site_label
_atom_site_fract_x
_atom_site_fract_y
_atom_site_fract_z
Si Si1 0.316808 0.883710 0.912780
Si Si2 0.683493 0.716734 0.245990
Si Si3 0.818019 0.498263 0.820046
Si Si4 0.679780 0.510191 0.004935
Si Si5 0.317455 0.270000 0.076643
Si Si6 0.314468 0.138442 0.907663
Si Si7 0.819333 0.262079 0.565796
Si Si8 0.181341 0.745988 0.759514
O O1 0.500000 0.878495 0.933307
O O2 0.284001 0.825533 0.820633
O O3 0.253731 0.010951 0.908289
O O4 0.224821 0.822137 0.989155
O O5 0.500000 0.696016 0.255909
O O6 0.772172 0.597450 0.250900
O O7 0.748728 0.799663 0.320931
O O8 0.720793 0.769690 0.151771
O O9 0.715575 0.476755 0.905788
O O10 0.773656 0.617474 0.778665
O O11 0.000000 0.492102 0.844032
O O12 0.500000 0.548825 0.012490
O O13 0.713127 0.402357 0.064652
O O14 0.789607 0.610766 0.035350
O O15 0.500000 0.244988 0.090500
O O16 0.222766 0.225943 0.159901
O O17 0.251598 0.202593 0.993162
O O18 0.500000 0.141719 0.906066
O O19 0.000000 0.248285 0.588163
O O20 0.000000 0.769932 0.777513
#
# Coordination Sequence:
#
# PCOD8167687 Si02
#       8
#     4   4   4   4   4   4   4   4
#     4  11  23  42  67  88 114 160 212 257 306 361
#     4  11  22  41  66  92 123 161 209 255 300 365
#     4  11  22  37  60  91 130 165 195 246 312 366
#     4  11  21  37  65  94 122 160 205 249 301 368
#     4  10  21  40  64  92 122 156 201 252 300 358
#     4   9  21  42  65  90 118 154 208 266 304 347
#     4  12  25  41  60  91 131 162 199 253 311 369
#     4  11  24  40  59  90 128 162 197 246 306 366
#
# _framework density 20.527248
#
# number of rings (size 3 to 8) (size 9 to 14) (size 15 to 20)
#    0.000    1.250    2.500    3.750    0.000    5.500 
#    0.000    8.750    0.000    0.000    0.000    0.000 
#    0.000    0.000    0.000    0.000    0.000    0.000 
#
# Total GULP energy -397012.577835 kJ/mol
# GULP energy per Si atom -12406.643057 kJ/mol
# Density = 2.048053 g / cm^3
# Si number density = 20.527248 Si / 1000 Ang^3
#
#
#
# Elastic Constant Matrix: (Units=GPa)
#
#
# Indices 1 2 3 4 5 6 
#
# 1 54.2622 33.2453 14.9764 0.0000 0.0000 0.0000
# 2 33.2453 125.0769 41.2236 0.0000 0.0000 0.0000
# 3 14.9764 41.2236 126.9512 0.0000 0.0000 0.0000
# 4 0.0000 0.0000 0.0000 6.1667 0.0000 0.0000
# 5 0.0000 0.0000 0.0000 0.0000 28.9099 0.0000
# 6 0.0000 0.0000 0.0000 0.0000 0.0000 8.9168
#
#
#
# Elastic Compliance Matrix: (Units=1/GPa)
#
#
# Indices 1 2 3 4 5 6 
#
# 1 0.022083 -0.005612 -0.000783 0.000000 0.000000 0.000000
# 2 -0.005612 0.010379 -0.002708 0.000000 0.000000 0.000000
# 3 -0.000783 -0.002708 0.008849 0.000000 0.000000 0.000000
# 4 0.000000 0.000000 0.000000 0.162161 0.000000 0.000000
# 5 0.000000 0.000000 0.000000 0.000000 0.034590 0.000000
# 6 0.000000 0.000000 0.000000 0.000000 0.000000 0.112148
#
#
# Mechanical properties :
#
#
# Convention : Reuss Voigt Hill
#
# Bulk Modulus (GPa) = 43.27974 53.90898 48.59436
# Shear Modulus (GPa) = 13.29369 23.25503 18.27436
#
# Velocity S-wave (km/s) = 2.54758 3.36949 2.98694
# Velocity P-wave (km/s) = 5.45742 6.43872 5.96827
#
# Compressibility (1/GPa) = 0.02310550
#
# Stress axis : x y z
#
# Youngs Moduli (GPa) = 45.28321 96.34574 113.00891
#
# Poissons Ratio (x) = 0.54066 0.08848
# Poissons Ratio (y) = 0.25411 0.30607
# Poissons Ratio (z) = 0.03545 0.26094
#
# Static dielectric constant tensor:
#      x y z
#    x 3.512220 0.000000 0.000000 
#    y 0.000000 3.785550 0.000000 
#    z 0.000000 0.000000 3.807690 
# 
# 
# High freq. dielectric constant tensor:
#      x y z
#    x 1.793600 0.000000 0.000000 
#    y 0.000000 1.799090 0.000000 
#    z 0.000000 0.000000 1.816450 
# 
# From -- ./inp_files/4275.got.cif
#   From: 2010.03.12/outbox.cif.g09.slc.cpg/sg26_3_cif.got.tgz:4275.got - 2010.04.14 03:33:09.
