data_PCOD8167990
_publ_section_title
;
Structure prediction by ZEFSAII (Michael W. Deem and Ramdas Pophale) SiO2 
 PCOD8167990
Probable space group: P M A 2
;
_chemical_formula_sum "Si O2"
_cell_formula_units_Z 24
_cell_length_a 8.584558
_cell_length_b 9.928793
_cell_length_c 15.407777
_cell_angle_alpha 90.000000
_cell_angle_beta 90.000000
_cell_angle_gamma 90.000000
_cell_volume 1313.271078
_symmetry_space_group_name_H-M "P M A 2"
_symmetry_group_IT_number 28
_symmetry_cell_setting 'orthorhombic'
loop_
_space_group_symop_operation_xyz
x,y,z
-x,-y,z
1/2-x,y,z
1/2+x,-y,z
loop_
_atom_site_type_symbol
_atom_site_label
_atom_site_fract_x
_atom_site_fract_y
_atom_site_fract_z
Si Si1 0.065408 0.150292 0.901110
Si Si2 0.432919 0.640327 0.583283
Si Si3 0.434151 0.148914 0.251865
Si Si4 0.934596 0.150291 0.075024
Si Si5 0.065293 0.643214 0.385416
Si Si6 0.065237 0.851513 0.724082
O O1 0.250000 0.150937 0.902697
O O2 0.002332 0.216929 0.812348
O O3 0.000000 0.000000 0.900938
O O4 0.000043 0.224506 0.988086
O O5 0.500000 0.500000 0.618123
O O6 0.250000 0.629205 0.588833
O O7 0.486274 0.668189 0.484805
O O8 0.493523 0.760753 0.644108
O O9 0.250000 0.140687 0.244277
O O10 0.502943 0.217603 0.163781
O O11 0.484258 0.239158 0.332209
O O12 0.500000 0.000000 0.267029
O O13 0.750000 0.151277 0.073499
O O14 0.000000 0.000000 0.075546
O O15 0.250000 0.647659 0.372698
O O16 0.000000 0.500000 0.352942
O O17 0.250000 0.858499 0.731135
O O18 0.000000 0.000000 0.708187
#
# Coordination Sequence:
#
# PCOD8167990 Si02
#       6
#     4   4   4   4   4   4
#     4  10  17  27  44  69  99 133 167 204 247 298
#     4   9  20  36  55  75 100 132 171 210 251 302
#     4  11  21  34  52  78 107 137 171 214 259 304
#     4  10  17  28  46  70 100 134 167 206 250 300
#     4  10  20  37  56  77 102 135 174 213 256 309
#     4  10  19  32  49  75 104 133 167 209 253 297
#
# _framework density 18.274977
#
# number of rings (size 3 to 8) (size 9 to 14) (size 15 to 20)
#    0.000    2.000    0.000    8.500    0.000    2.667 
#    0.000    1.667    0.000    1.000    0.000    4.667 
#    0.000    0.000    0.000    0.000    0.000    0.000 
#
# Total GULP energy -297524.380448 kJ/mol
# GULP energy per Si atom -12396.849185 kJ/mol
# Density = 1.823338 g / cm^3
# Si number density = 18.274977 Si / 1000 Ang^3
#
#
#
# Elastic Constant Matrix: (Units=GPa)
#
#
# Indices 1 2 3 4 5 6 
#
# 1 135.0510 36.0141 56.0584 0.0000 0.0000 0.0000
# 2 36.0141 76.3369 68.6317 0.0000 0.0000 0.0000
# 3 56.0584 68.6317 145.4778 0.0000 0.0000 0.0000
# 4 0.0000 0.0000 0.0000 13.2467 0.0000 0.0000
# 5 0.0000 0.0000 0.0000 0.0000 35.7906 0.0000
# 6 0.0000 0.0000 0.0000 0.0000 0.0000 23.0270
#
#
#
# Elastic Compliance Matrix: (Units=1/GPa)
#
#
# Indices 1 2 3 4 5 6 
#
# 1 0.008979 -0.001954 -0.002538 0.000000 0.000000 0.000000
# 2 -0.001954 0.023174 -0.010180 0.000000 0.000000 0.000000
# 3 -0.002538 -0.010180 0.012654 0.000000 0.000000 0.000000
# 4 0.000000 0.000000 0.000000 0.075490 0.000000 0.000000
# 5 0.000000 0.000000 0.000000 0.000000 0.027940 0.000000
# 6 0.000000 0.000000 0.000000 0.000000 0.000000 0.043427
#
#
# Mechanical properties :
#
#
# Convention : Reuss Voigt Hill
#
# Bulk Modulus (GPa) = 64.66845 75.36380 70.01613
# Shear Modulus (GPa) = 22.10783 27.49029 24.79906
#
# Velocity S-wave (km/s) = 3.48189 3.88269 3.68774
# Velocity P-wave (km/s) = 7.18526 7.83764 7.51853
#
# Compressibility (1/GPa) = 0.01546349
#
# Stress axis : x y z
#
# Youngs Moduli (GPa) = 111.36707 43.15184 79.02412
#
# Poissons Ratio (x) = 0.08433 0.20057
# Poissons Ratio (y) = 0.21765 0.80444
# Poissons Ratio (z) = 0.28266 0.43927
#
# Static dielectric constant tensor:
#      x y z
#    x 3.437010 0.000000 0.000000 
#    y 0.000000 2.923300 0.000000 
#    z 0.000000 0.000000 4.550620 
# 
# 
# High freq. dielectric constant tensor:
#      x y z
#    x 1.726800 0.000000 0.000000 
#    y 0.000000 1.656520 0.000000 
#    z 0.000000 0.000000 1.732150 
# 
# From -- ./inp_files/6671.got.cif
#   From: 2010.03.12/outbox.cif.g09.slc.cpg/sg28_4_cif.got.tgz:6671.got - 2010.04.14 03:39:34.
