data_PCOD8167937
_publ_section_title
;
Structure prediction by ZEFSAII (Michael W. Deem and Ramdas Pophale) SiO2 
 PCOD8167937
Probable space group: P C C 2
;
_chemical_formula_sum "Si O2"
_cell_formula_units_Z 20
_cell_length_a 6.877779
_cell_length_b 8.356406
_cell_length_c 15.396631
_cell_angle_alpha 90.000000
_cell_angle_beta 90.000000
_cell_angle_gamma 90.000000
_cell_volume 884.898483
_symmetry_space_group_name_H-M "P C C 2"
_symmetry_group_IT_number 27
_symmetry_cell_setting 'orthorhombic'
loop_
_space_group_symop_operation_xyz
x,y,z
-x,-y,z
-x,y,1/2+z
x,-y,1/2+z
loop_
_atom_site_type_symbol
_atom_site_label
_atom_site_fract_x
_atom_site_fract_y
_atom_site_fract_z
Si Si1 0.583124 0.841737 0.459930
Si Si2 0.113958 0.850584 0.098564
Si Si3 0.201870 0.658237 0.508981
Si Si4 0.280149 0.441707 0.357753
Si Si5 0.726772 0.539044 0.673793
O O1 0.705021 0.909677 0.541167
O O2 0.416803 0.730495 0.501165
O O3 0.714588 0.741314 0.392038
O O4 0.500000 0.000000 0.411390
O O5 0.202106 0.725352 0.169373
O O6 0.964410 0.786899 0.025179
O O7 0.000000 0.000000 0.145132
O O8 0.157827 0.555576 0.422383
O O9 0.180269 0.540042 0.590073
O O10 0.500000 0.500000 0.351307
O O11 0.187024 0.458410 0.261650
O O12 0.500000 0.500000 0.670196
#
# Coordination Sequence:
#
# PCOD8167937 Si02
#       5
#     4   4   4   4   4
#     4  11  21  42  68  94 135 176 222 287 351 397
#     4  12  24  40  66 100 136 179 222 287 355 401
#     4  11  21  42  67  93 131 179 234 274 335 416
#     4   9  21  40  68  97 127 180 234 275 329 408
#     4  11  21  42  69  97 136 181 236 281 336 416
#
# _framework density 22.601462999999999
#
# number of rings (size 3 to 8) (size 9 to 14) (size 15 to 20)
#    0.000    1.200    6.000    1.200    0.000    0.000 
#    7.200    8.000    0.000    0.000    0.000    0.000 
#    0.000    0.000    0.000    0.000    0.000    0.000 
#
# Total GULP energy -247798.306834 kJ/mol
# GULP energy per Si atom -12389.915342 kJ/mol
# Density = 2.255002 g / cm^3
# Si number density = 22.601463 Si / 1000 Ang^3
#
#
#
# Elastic Constant Matrix: (Units=GPa)
#
#
# Indices 1 2 3 4 5 6 
#
# 1 88.4230 31.8506 7.2069 0.0000 0.0000 0.0000
# 2 31.8506 149.1482 39.4735 0.0000 0.0000 0.0000
# 3 7.2069 39.4735 134.8018 0.0000 0.0000 0.0000
# 4 0.0000 0.0000 0.0000 20.2553 0.0000 0.0000
# 5 0.0000 0.0000 0.0000 0.0000 -90.3718 0.0000
# 6 0.0000 0.0000 0.0000 0.0000 0.0000 41.3163
#
#
#
# Elastic Compliance Matrix: (Units=1/GPa)
#
#
# Indices 1 2 3 4 5 6 
#
# 1 0.012254 -0.002649 0.000120 0.000000 0.000000 0.000000
# 2 -0.002649 0.007841 -0.002154 0.000000 0.000000 0.000000
# 3 0.000120 -0.002154 0.008043 0.000000 0.000000 0.000000
# 4 0.000000 0.000000 0.000000 0.049370 0.000000 0.000000
# 5 0.000000 0.000000 0.000000 0.000000 -0.011065 0.000000
# 6 0.000000 0.000000 0.000000 0.000000 0.000000 0.024204
#
#
# Mechanical properties :
#
#
# Convention : Reuss Voigt Hill
#
# Bulk Modulus (GPa) = 53.27133 58.82609 56.04871
# Shear Modulus (GPa) = 47.05139 13.82942 30.44041
#
# Velocity S-wave (km/s) = 4.56761 2.47631 3.67390
# Velocity P-wave (km/s) = 7.17206 5.85322 6.54594
#
# Compressibility (1/GPa) = 0.01877182
#
# Stress axis : x y z
#
# Youngs Moduli (GPa) = 81.60931 127.54269 124.33640
#
# Poissons Ratio (x) = 0.33781 -0.01498
# Poissons Ratio (y) = 0.21615 0.26786
# Poissons Ratio (z) = -0.00983 0.27477
#
# Static dielectric constant tensor:
#      x y z
#    x 4.735970 0.000000 0.000000 
#    y 0.000000 4.128500 0.000000 
#    z 0.000000 0.000000 4.217390 
# 
# 
# High freq. dielectric constant tensor:
#      x y z
#    x 1.918250 0.000000 0.000000 
#    y 0.000000 1.882810 0.000000 
#    z 0.000000 0.000000 1.861250 
# 
# From -- ./inp_files/3263.got.cif
#   From: 2010.03.12/outbox.cif.g09.slc.cpg/sg27_2_cif.got.tgz:3263.got - 2010.04.14 03:36:05.
