data_PCOD8167323
_publ_section_title
;
Structure prediction by ZEFSAII (Michael W. Deem and Ramdas Pophale) SiO2 
 PCOD8167323
Probable space group: P M C 21
;
_chemical_formula_sum "Si O2"
_cell_formula_units_Z 32
_cell_length_a 9.020790
_cell_length_b 10.273792
_cell_length_c 18.928072
_cell_angle_alpha 90.000000
_cell_angle_beta 90.000000
_cell_angle_gamma 90.000000
_cell_volume 1754.210560
_symmetry_space_group_name_H-M "P M C 21"
_symmetry_group_IT_number 26
_symmetry_cell_setting 'orthorhombic'
loop_
_space_group_symop_operation_xyz
x,y,z
-x,-y,1/2+z
-x,y,z
x,-y,1/2+z
loop_
_atom_site_type_symbol
_atom_site_label
_atom_site_fract_x
_atom_site_fract_y
_atom_site_fract_z
Si Si1 0.327630 0.221539 0.984450
Si Si2 0.828472 0.880829 0.196686
Si Si3 0.171928 0.765741 0.344718
Si Si4 0.672990 0.129143 0.136436
Si Si5 0.329039 0.507213 0.833096
Si Si6 0.175910 0.371326 0.208178
Si Si7 0.825780 0.381019 0.620110
Si Si8 0.331670 0.515759 0.993311
O O1 0.500000 0.224288 0.962877
O O2 0.236498 0.169967 0.916520
O O3 0.273751 0.367734 0.002618
O O4 0.296718 0.130557 0.052001
O O5 0.806777 0.868085 0.281039
O O6 0.773518 0.748769 0.159422
O O7 0.000000 0.911061 0.178609
O O8 0.723215 0.992220 0.167228
O O9 0.255572 0.633716 0.324723
O O10 0.000000 0.731467 0.355162
O O11 0.500000 0.152250 0.151875
O O12 0.767559 0.239682 0.173799
O O13 0.500000 0.495050 0.810618
O O14 0.245750 0.613601 0.785700
O O15 0.313800 0.560047 0.912633
O O16 0.233072 0.493771 0.162645
O O17 0.000000 0.366132 0.214507
O O18 0.762185 0.385531 0.541012
O O19 0.000000 0.385395 0.615348
O O20 0.500000 0.524279 0.019216
#
# Coordination Sequence:
#
# PCOD8167323 Si02
#       8
#     4   4   4   4   4   4   4   4
#     4   9  19  35  54  81 114 144 184 233 280 340
#     4  10  22  40  56  81 117 149 189 235 278 337
#     4  10  19  34  57  83 112 146 188 235 283 337
#     4  11  23  39  58  84 115 151 191 233 285 339
#     4  10  20  34  54  83 117 150 187 235 285 335
#     4  11  21  36  58  85 113 146 188 234 283 335
#     4  10  20  35  56  82 112 144 184 230 278 330
#     4   9  18  33  53  81 114 144 181 231 282 331
#
# _framework density 18.241823
#
# number of rings (size 3 to 8) (size 9 to 14) (size 15 to 20)
#    0.000    2.000    2.500    2.250    0.000    5.500 
#    0.000    1.250    0.000    3.000    0.000    0.000 
#    0.000    0.000    0.000    0.000    0.000    0.000 
#
# Total GULP energy -396867.841397 kJ/mol
# GULP energy per Si atom -12402.120044 kJ/mol
# Density = 1.820030 g / cm^3
# Si number density = 18.241823 Si / 1000 Ang^3
#
#
#
# Elastic Constant Matrix: (Units=GPa)
#
#
# Indices 1 2 3 4 5 6 
#
# 1 80.4868 41.5534 55.5331 0.0000 0.0000 0.0000
# 2 41.5534 82.1106 51.0284 0.0000 0.0000 0.0000
# 3 55.5331 51.0284 120.4374 0.0000 0.0000 0.0000
# 4 0.0000 0.0000 0.0000 27.9389 0.0000 0.0000
# 5 0.0000 0.0000 0.0000 0.0000 35.6473 0.0000
# 6 0.0000 0.0000 0.0000 0.0000 0.0000 29.7311
#
#
#
# Elastic Compliance Matrix: (Units=1/GPa)
#
#
# Indices 1 2 3 4 5 6 
#
# 1 0.020198 -0.006018 -0.006763 0.000000 0.000000 0.000000
# 2 -0.006018 0.018325 -0.004989 0.000000 0.000000 0.000000
# 3 -0.006763 -0.004989 0.013535 0.000000 0.000000 0.000000
# 4 0.000000 0.000000 0.000000 0.035792 0.000000 0.000000
# 5 0.000000 0.000000 0.000000 0.000000 0.028053 0.000000
# 6 0.000000 0.000000 0.000000 0.000000 0.000000 0.033635
#
#
# Mechanical properties :
#
#
# Convention : Reuss Voigt Hill
#
# Bulk Modulus (GPa) = 60.54426 64.36273 62.45349
# Shear Modulus (GPa) = 26.23500 27.65813 26.94656
#
# Velocity S-wave (km/s) = 3.79645 3.89806 3.84759
# Velocity P-wave (km/s) = 7.24425 7.45784 7.35182
#
# Compressibility (1/GPa) = 0.01651684
#
# Stress axis : x y z
#
# Youngs Moduli (GPa) = 49.50992 54.57046 73.88035
#
# Poissons Ratio (x) = 0.32843 0.49967
# Poissons Ratio (y) = 0.29797 0.36859
# Poissons Ratio (z) = 0.33485 0.27226
#
# Static dielectric constant tensor:
#      x y z
#    x 3.368800 0.000000 0.000000 
#    y 0.000000 3.120370 0.000000 
#    z 0.000000 0.000000 3.567630 
# 
# 
# High freq. dielectric constant tensor:
#      x y z
#    x 1.713280 0.000000 0.000000 
#    y 0.000000 1.674880 0.000000 
#    z 0.000000 0.000000 1.719580 
# 
# From -- ./inp_files/5078.got.cif
#   From: 2010.03.12/outbox.cif.g09.slc.cpg/sg26_3_cif.got.tgz:5078.got - 2010.04.14 03:33:09.
