data_PCOD8167492
_publ_section_title
;
Structure prediction by ZEFSAII (Michael W. Deem and Ramdas Pophale) SiO2 
 PCOD8167492
Probable space group: P M C 21
;
_chemical_formula_sum "Si O2"
_cell_formula_units_Z 32
_cell_length_a 8.930305
_cell_length_b 6.925923
_cell_length_c 28.105883
_cell_angle_alpha 90.000000
_cell_angle_beta 90.000000
_cell_angle_gamma 90.000000
_cell_volume 1738.365862
_symmetry_space_group_name_H-M "P M C 21"
_symmetry_group_IT_number 26
_symmetry_cell_setting 'orthorhombic'
loop_
_space_group_symop_operation_xyz
x,y,z
-x,-y,1/2+z
-x,y,z
x,-y,1/2+z
loop_
_atom_site_type_symbol
_atom_site_label
_atom_site_fract_x
_atom_site_fract_y
_atom_site_fract_z
Si Si1 0.824200 0.322928 0.599090
Si Si2 0.673546 0.055266 0.526293
Si Si3 0.674400 0.050867 0.672630
Si Si4 0.172637 0.010263 0.272240
Si Si5 0.673616 0.009060 0.918915
Si Si6 0.827642 0.299587 0.853561
Si Si7 0.673692 0.702407 0.839237
Si Si8 0.670801 0.723887 0.598739
O O1 0.767585 0.224891 0.550603
O O2 0.751090 0.227395 0.645363
O O3 0.784362 0.547599 0.598123
O O4 0.000000 0.297235 0.602845
O O5 0.500000 0.114297 0.530193
O O6 0.726884 0.037953 0.472080
O O7 0.702063 0.851749 0.552049
O O8 0.500000 0.098478 0.675049
O O9 0.738782 0.038385 0.724980
O O10 0.704305 0.850465 0.645498
O O11 0.237004 0.204758 0.295410
O O12 0.000000 0.045782 0.260080
O O13 0.196140 0.831689 0.307423
O O14 0.500000 0.070405 0.917512
O O15 0.703896 0.819739 0.887551
O O16 0.771203 0.187336 0.900164
O O17 0.728476 0.487320 0.847099
O O18 0.000000 0.357042 0.860775
O O19 0.500000 0.701985 0.825554
O O20 0.500000 0.648456 0.598953
#
# Coordination Sequence:
#
# PCOD8167492 Si02
#       8
#     4   4   4   4   4   4   4   4
#     4  11  22  35  54  80 110 141 173 215 264 314
#     4   9  19  37  58  78 105 141 180 222 264 311
#     4  10  21  38  59  80 104 138 179 221 263 312
#     4  10  21  37  56  79 108 140 175 219 269 317
#     4   9  19  36  57  80 105 138 181 224 265 311
#     4  10  21  36  54  78 110 144 176 217 269 320
#     4  10  20  35  56  80 107 141 181 222 263 314
#     4   9  19  36  56  77 103 137 175 214 259 311
#
# _framework density 18.408093000000001
#
# number of rings (size 3 to 8) (size 9 to 14) (size 15 to 20)
#    0.000    2.250    0.000    3.375    0.000    7.000 
#    0.000    5.000    0.000    0.000    0.000    0.000 
#    0.000    0.000    0.000    0.000    0.000    0.000 
#
# Total GULP energy -396946.317408 kJ/mol
# GULP energy per Si atom -12404.572419 kJ/mol
# Density = 1.836620 g / cm^3
# Si number density = 18.408093 Si / 1000 Ang^3
#
#
#
# Elastic Constant Matrix: (Units=GPa)
#
#
# Indices 1 2 3 4 5 6 
#
# 1 101.1491 48.2421 43.6175 0.0000 0.0000 0.0000
# 2 48.2421 95.2294 25.4451 0.0000 0.0000 0.0000
# 3 43.6175 25.4451 113.3738 0.0000 0.0000 0.0000
# 4 0.0000 0.0000 0.0000 10.7847 0.0000 0.0000
# 5 0.0000 0.0000 0.0000 0.0000 24.3162 0.0000
# 6 0.0000 0.0000 0.0000 0.0000 0.0000 30.4088
#
#
#
# Elastic Compliance Matrix: (Units=1/GPa)
#
#
# Indices 1 2 3 4 5 6 
#
# 1 0.014738 -0.006331 -0.004249 0.000000 0.000000 0.000000
# 2 -0.006331 0.013890 -0.000682 0.000000 0.000000 0.000000
# 3 -0.004249 -0.000682 0.010608 0.000000 0.000000 0.000000
# 4 0.000000 0.000000 0.000000 0.092724 0.000000 0.000000
# 5 0.000000 0.000000 0.000000 0.000000 0.041125 0.000000
# 6 0.000000 0.000000 0.000000 0.000000 0.000000 0.032885
#
#
# Mechanical properties :
#
#
# Convention : Reuss Voigt Hill
#
# Bulk Modulus (GPa) = 59.83440 60.48465 60.15952
# Shear Modulus (GPa) = 21.36152 25.93177 23.64664
#
# Velocity S-wave (km/s) = 3.41022 3.75736 3.58799
# Velocity P-wave (km/s) = 6.93405 7.19393 7.06519
#
# Compressibility (1/GPa) = 0.01671279
#
# Stress axis : x y z
#
# Youngs Moduli (GPa) = 67.85103 71.99289 94.26666
#
# Poissons Ratio (x) = 0.45577 0.40056
# Poissons Ratio (y) = 0.42955 0.06428
# Poissons Ratio (z) = 0.28832 0.04909
#
# Static dielectric constant tensor:
#      x y z
#    x 3.439280 0.000000 0.000000 
#    y 0.000000 3.294790 0.000000 
#    z 0.000000 0.000000 3.497610 
# 
# 
# High freq. dielectric constant tensor:
#      x y z
#    x 1.721060 0.000000 0.000000 
#    y 0.000000 1.713120 0.000000 
#    z 0.000000 0.000000 1.717720 
# 
# From -- ./inp_files/5665.got.cif
#   From: 2010.03.12/outbox.cif.g09.slc.cpg/sg26_3_cif.got.tgz:5665.got - 2010.04.14 03:33:09.
