data_PCOD8167227
_publ_section_title
;
Structure prediction by ZEFSAII (Michael W. Deem and Ramdas Pophale) SiO2 
 PCOD8167227
Probable space group: P M C 21
;
_chemical_formula_sum "Si O2"
_cell_formula_units_Z 32
_cell_length_a 9.350023
_cell_length_b 10.053378
_cell_length_c 19.000553
_cell_angle_alpha 90.000000
_cell_angle_beta 90.000000
_cell_angle_gamma 90.000000
_cell_volume 1786.038977
_symmetry_space_group_name_H-M "P M C 21"
_symmetry_group_IT_number 26
_symmetry_cell_setting 'orthorhombic'
loop_
_space_group_symop_operation_xyz
x,y,z
-x,-y,1/2+z
-x,y,z
x,-y,1/2+z
loop_
_atom_site_type_symbol
_atom_site_label
_atom_site_fract_x
_atom_site_fract_y
_atom_site_fract_z
Si Si1 0.167279 0.969130 0.503000
Si Si2 0.665572 0.280194 0.366083
Si Si3 0.336069 0.974999 0.368352
Si Si4 0.830574 0.613610 0.151985
Si Si5 0.335957 0.895626 0.632634
Si Si6 0.664908 0.152336 0.720859
Si Si7 0.834020 0.277258 0.501975
Si Si8 0.664699 0.373137 0.214927
O O1 0.234590 0.920533 0.429797
O O2 0.236283 0.881464 0.564603
O O3 0.000000 0.941394 0.501447
O O4 0.205417 0.123623 0.515817
O O5 0.500000 0.296322 0.384157
O O6 0.751249 0.333492 0.433953
O O7 0.705971 0.367222 0.297581
O O8 0.703577 0.126955 0.349450
O O9 0.500000 0.966554 0.393455
O O10 0.308358 0.881757 0.301960
O O11 0.764956 0.724842 0.202384
O O12 0.787875 0.640278 0.070833
O O13 0.768283 0.472214 0.174177
O O14 0.000000 0.614775 0.161752
O O15 0.500000 0.904642 0.608084
O O16 0.310703 0.771857 0.683210
O O17 0.289697 0.026660 0.674556
O O18 0.500000 0.190738 0.707519
O O19 0.000000 0.293660 0.485511
O O20 0.500000 0.418231 0.205877
#
# Coordination Sequence:
#
# PCOD8167227 Si02
#       8
#     4   4   4   4   4   4   4   4
#     4  10  19  32  51  80 114 145 178 223 274 325
#     4   9  17  32  56  82 106 134 175 226 272 321
#     4   9  17  32  54  82 110 138 177 227 278 325
#     4  11  23  38  54  79 115 150 184 223 269 325
#     4  10  19  34  57  82 108 139 179 227 274 321
#     4  10  19  34  58  83 107 139 180 226 275 321
#     4   9  19  34  51  76 110 143 178 220 264 322
#     4  10  21  38  57  82 112 142 183 230 274 324
#
# _framework density 17.916741999999999
#
# number of rings (size 3 to 8) (size 9 to 14) (size 15 to 20)
#    0.000    2.250    2.500    0.750    0.000    3.000 
#    0.000    1.250    0.000    1.500    0.000    0.000 
#    0.000    0.000    0.000    0.000    0.000    0.000 
#
# Total GULP energy -396869.185401 kJ/mol
# GULP energy per Si atom -12402.162044 kJ/mol
# Density = 1.787596 g / cm^3
# Si number density = 17.916742 Si / 1000 Ang^3
#
#
#
# Elastic Constant Matrix: (Units=GPa)
#
#
# Indices 1 2 3 4 5 6 
#
# 1 74.6470 21.6117 60.3894 0.0000 0.0000 0.0000
# 2 21.6117 34.6678 24.3329 0.0000 0.0000 0.0000
# 3 60.3894 24.3329 127.7223 0.0000 0.0000 0.0000
# 4 0.0000 0.0000 0.0000 23.5615 0.0000 0.0000
# 5 0.0000 0.0000 0.0000 0.0000 26.7071 0.0000
# 6 0.0000 0.0000 0.0000 0.0000 0.0000 27.2759
#
#
#
# Elastic Compliance Matrix: (Units=1/GPa)
#
#
# Indices 1 2 3 4 5 6 
#
# 1 0.023423 -0.007883 -0.009573 0.000000 0.000000 0.000000
# 2 -0.007883 0.035951 -0.003122 0.000000 0.000000 0.000000
# 3 -0.009573 -0.003122 0.012951 0.000000 0.000000 0.000000
# 4 0.000000 0.000000 0.000000 0.042442 0.000000 0.000000
# 5 0.000000 0.000000 0.000000 0.000000 0.037443 0.000000
# 6 0.000000 0.000000 0.000000 0.000000 0.000000 0.036662
#
#
# Mechanical properties :
#
#
# Convention : Reuss Voigt Hill
#
# Bulk Modulus (GPa) = 32.08344 49.96725 41.02535
# Shear Modulus (GPa) = 20.79715 24.22244 22.50980
#
# Velocity S-wave (km/s) = 3.41070 3.68087 3.54836
# Velocity P-wave (km/s) = 5.78414 6.78338 6.30359
#
# Compressibility (1/GPa) = 0.03116872
#
# Stress axis : x y z
#
# Youngs Moduli (GPa) = 42.69255 27.81602 77.21615
#
# Poissons Ratio (x) = 0.21926 0.73921
# Poissons Ratio (y) = 0.33653 0.24107
# Poissons Ratio (z) = 0.40870 0.08684
#
# Static dielectric constant tensor:
#      x y z
#    x 3.291440 0.000000 0.000000 
#    y 0.000000 3.045870 0.000000 
#    z 0.000000 0.000000 3.451800 
# 
# 
# High freq. dielectric constant tensor:
#      x y z
#    x 1.691560 0.000000 0.000000 
#    y 0.000000 1.665310 0.000000 
#    z 0.000000 0.000000 1.705360 
# 
# From -- ./inp_files/4990.got.cif
#   From: 2010.03.12/outbox.cif.g09.slc.cpg/sg26_3_cif.got.tgz:4990.got - 2010.04.14 03:33:09.
