data_PCOD8167035
_publ_section_title
;
Structure prediction by ZEFSAII (Michael W. Deem and Ramdas Pophale) SiO2 
 PCOD8167035
Probable space group: P M M 2
;
_chemical_formula_sum "Si O2"
_cell_formula_units_Z 28
_cell_length_a 9.628311
_cell_length_b 9.283153
_cell_length_c 18.164534
_cell_angle_alpha 90.000000
_cell_angle_beta 90.000000
_cell_angle_gamma 90.000000
_cell_volume 1623.565742
_symmetry_space_group_name_H-M "P M M 2"
_symmetry_group_IT_number 25
_symmetry_cell_setting 'orthorhombic'
loop_
_space_group_symop_operation_xyz
x,y,z
-x,-y,z
-x,y,z
x,-y,z
loop_
_atom_site_type_symbol
_atom_site_label
_atom_site_fract_x
_atom_site_fract_y
_atom_site_fract_z
Si Si1 0.334646 0.336981 0.277080
Si Si2 0.661205 0.332382 0.560484
Si Si3 0.334780 0.162834 0.416918
Si Si4 0.834740 0.840023 0.838625
Si Si5 0.845120 0.171591 0.999154
Si Si6 0.840452 0.668530 0.698747
Si Si7 0.338476 0.832108 0.133723
O O1 0.500000 0.337642 0.280033
O O2 0.276717 0.500000 0.278115
O O3 0.274730 0.250561 0.347235
O O4 0.283307 0.256671 0.203660
O O5 0.500000 0.302621 0.577197
O O6 0.687603 0.500000 0.543304
O O7 0.715043 0.241815 0.490909
O O8 0.749366 0.278390 0.630094
O O9 0.500000 0.161440 0.413284
O O10 0.276254 0.000000 0.415488
O O11 0.779482 0.740702 0.772617
O O12 0.000000 0.845692 0.838076
O O13 0.773398 0.000000 0.826594
O O14 0.789397 0.776951 0.918706
O O15 0.742580 0.227525 0.062522
O O16 0.000000 0.232022 0.014741
O O17 0.849280 0.000000 0.997812
O O18 0.824827 0.500000 0.710409
O O19 0.000000 0.713123 0.684259
O O20 0.500000 0.804236 0.119265
O O21 0.308332 0.000000 0.148632
#
# Coordination Sequence:
#
# PCOD8167035 Si02
#       7
#     4   4   4   4   4   4   4
#     4   9  16  26  41  61  86 115 143 170 205 250
#     4   9  17  29  44  62  86 114 140 168 208 255
#     4   9  16  26  42  64  87 110 140 177 210 241
#     4   8  14  26  44  63  82 108 143 177 207 245
#     4   8  14  26  44  63  83 110 142 173 208 251
#     4   9  17  29  45  64  85 110 141 175 209 246
#     4   9  16  26  42  64  87 109 137 175 213 246
#
# _framework density 17.245992000000001
#
# number of rings (size 3 to 8) (size 9 to 14) (size 15 to 20)
#    0.000    3.286    0.000    1.714    0.000    4.000 
#    0.000    1.429    0.000    3.000    0.000    0.000 
#    0.000    0.000    0.000    0.000    0.000    0.000 
#
# Total GULP energy -347086.479689 kJ/mol
# GULP energy per Si atom -12395.945703 kJ/mol
# Density = 1.720674 g / cm^3
# Si number density = 17.245992 Si / 1000 Ang^3
#
#
#
# Elastic Constant Matrix: (Units=GPa)
#
#
# Indices 1 2 3 4 5 6 
#
# 1 35.0261 24.4901 51.4117 0.0000 0.0000 0.0000
# 2 24.4901 80.4918 78.5914 0.0000 0.0000 0.0000
# 3 51.4117 78.5914 202.8398 0.0000 0.0000 0.0000
# 4 0.0000 0.0000 0.0000 26.2861 0.0000 0.0000
# 5 0.0000 0.0000 0.0000 0.0000 15.2528 0.0000
# 6 0.0000 0.0000 0.0000 0.0000 0.0000 10.4229
#
#
#
# Elastic Compliance Matrix: (Units=1/GPa)
#
#
# Indices 1 2 3 4 5 6 
#
# 1 0.046344 -0.004233 -0.010106 0.000000 0.000000 0.000000
# 2 -0.004233 0.020370 -0.006820 0.000000 0.000000 0.000000
# 3 -0.010106 -0.006820 0.010134 0.000000 0.000000 0.000000
# 4 0.000000 0.000000 0.000000 0.038043 0.000000 0.000000
# 5 0.000000 0.000000 0.000000 0.000000 0.065562 0.000000
# 6 0.000000 0.000000 0.000000 0.000000 0.000000 0.095942
#
#
# Mechanical properties :
#
#
# Convention : Reuss Voigt Hill
#
# Bulk Modulus (GPa) = 28.95996 69.70487 49.33242
# Shear Modulus (GPa) = 15.14132 21.31666 18.22899
#
# Velocity S-wave (km/s) = 2.96626 3.51954 3.25468
# Velocity P-wave (km/s) = 5.34418 7.55129 6.54150
#
# Compressibility (1/GPa) = 0.03453043
#
# Stress axis : x y z
#
# Youngs Moduli (GPa) = 21.57785 49.09148 98.67898
#
# Poissons Ratio (x) = 0.20779 0.99728
# Poissons Ratio (y) = 0.09133 0.67296
# Poissons Ratio (z) = 0.21807 0.33479
#
# Static dielectric constant tensor:
#      x y z
#    x 2.833970 0.000000 0.000000 
#    y 0.000000 3.183430 0.000000 
#    z 0.000000 0.000000 3.568700 
# 
# 
# High freq. dielectric constant tensor:
#      x y z
#    x 1.611930 0.000000 0.000000 
#    y 0.000000 1.651990 0.000000 
#    z 0.000000 0.000000 1.683210 
# 
# From -- ./inp_files/6211.got.cif
#   From: 2010.03.12/outbox.cif.g09.slc.cpg/sg25_4_cif.got.tgz:6211.got - 2010.04.14 03:30:10.
