data_PCOD8167175
_publ_section_title
;
Structure prediction by ZEFSAII (Michael W. Deem and Ramdas Pophale) SiO2 
 PCOD8167175
Probable space group: P M C 21
;
_chemical_formula_sum "Si O2"
_cell_formula_units_Z 32
_cell_length_a 12.316588
_cell_length_b 25.881522
_cell_length_c 5.221856
_cell_angle_alpha 90.000000
_cell_angle_beta 90.000000
_cell_angle_gamma 90.000000
_cell_volume 1664.581707
_symmetry_space_group_name_H-M "P M C 21"
_symmetry_group_IT_number 26
_symmetry_cell_setting 'orthorhombic'
loop_
_space_group_symop_operation_xyz
x,y,z
-x,-y,1/2+z
-x,y,z
x,-y,1/2+z
loop_
_atom_site_type_symbol
_atom_site_label
_atom_site_fract_x
_atom_site_fract_y
_atom_site_fract_z
Si Si1 0.176043 0.515620 0.584920
Si Si2 0.623433 0.232171 0.536711
Si Si3 0.376601 0.033197 0.531407
Si Si4 0.728264 0.730361 0.541816
Si Si5 0.239775 0.134580 0.569079
Si Si6 0.378166 0.564388 0.085748
Si Si7 0.872527 0.826446 0.575542
Si Si8 0.296965 0.613494 0.585402
O O1 0.107829 0.499891 0.335096
O O2 0.291705 0.483038 0.585661
O O3 0.192459 0.576453 0.584217
O O4 0.500000 0.235284 0.618456
O O5 0.637602 0.254982 0.252003
O O6 0.659107 0.172807 0.536853
O O7 0.689431 0.263572 0.750446
O O8 0.500000 0.054860 0.549510
O O9 0.287866 0.077541 0.563826
O O10 0.356748 0.991979 0.755245
O O11 0.832557 0.766824 0.590089
O O12 0.754632 0.670361 0.582288
O O13 0.180995 0.143408 0.839229
O O14 0.155707 0.143471 0.336923
O O15 0.500000 0.540665 0.081492
O O16 0.367776 0.601127 0.334103
O O17 0.365052 0.602199 0.841966
O O18 0.000000 0.825534 0.535806
#
# Coordination Sequence:
#
# PCOD8167175 Si02
#       8
#     4   4   4   4   4   4   4   4
#     4   8  16  27  38  52  75 109 152 190 227 277
#     4  10  20  33  48  70 102 135 166 199 244 304
#     4  10  20  34  56  87 120 151 181 212 248 293
#     4  10  21  33  48  72  97 126 166 212 257 303
#     4  10  20  36  58  80 106 140 176 215 255 301
#     4  10  19  28  39  56  82 121 163 194 226 283
#     4  10  21  38  59  78  99 133 178 224 267 313
#     4  10  19  29  40  57  84 113 149 196 244 284
#
# _framework density 19.224049000000001
#
# number of rings (size 3 to 8) (size 9 to 14) (size 15 to 20)
#    0.000    2.250    0.000    3.000    0.000    7.500 
#    0.000    3.750    0.000    7.500    0.000    0.000 
#    0.000    9.000    0.000    0.000    0.000   13.750 
#
# Total GULP energy -396604.186933 kJ/mol
# GULP energy per Si atom -12393.880842 kJ/mol
# Density = 1.918029 g / cm^3
# Si number density = 19.224049 Si / 1000 Ang^3
#
#
#
# Elastic Constant Matrix: (Units=GPa)
#
#
# Indices 1 2 3 4 5 6 
#
# 1 56.4157 34.4913 3.1100 0.0000 0.0000 0.0000
# 2 34.4913 105.1061 17.9731 0.0000 0.0000 0.0000
# 3 3.1100 17.9731 132.2752 0.0000 0.0000 0.0000
# 4 0.0000 0.0000 0.0000 21.9467 0.0000 0.0000
# 5 0.0000 0.0000 0.0000 0.0000 7.5851 0.0000
# 6 0.0000 0.0000 0.0000 0.0000 0.0000 10.4857
#
#
#
# Elastic Compliance Matrix: (Units=1/GPa)
#
#
# Indices 1 2 3 4 5 6 
#
# 1 0.022204 -0.007368 0.000479 0.000000 0.000000 0.000000
# 2 -0.007368 0.012186 -0.001483 0.000000 0.000000 0.000000
# 3 0.000479 -0.001483 0.007750 0.000000 0.000000 0.000000
# 4 0.000000 0.000000 0.000000 0.045565 0.000000 0.000000
# 5 0.000000 0.000000 0.000000 0.000000 0.131837 0.000000
# 6 0.000000 0.000000 0.000000 0.000000 0.000000 0.095368
#
#
# Mechanical properties :
#
#
# Convention : Reuss Voigt Hill
#
# Bulk Modulus (GPa) = 39.37560 44.99397 42.18479
# Shear Modulus (GPa) = 14.70075 23.88501 19.29288
#
# Velocity S-wave (km/s) = 2.76833 3.52867 3.17137
# Velocity P-wave (km/s) = 5.54483 6.32913 5.94992
#
# Compressibility (1/GPa) = 0.02539644
#
# Stress axis : x y z
#
# Youngs Moduli (GPa) = 45.03694 82.06361 129.02946
#
# Poissons Ratio (x) = 0.60467 -0.06182
# Poissons Ratio (y) = 0.33185 0.19129
# Poissons Ratio (z) = -0.02158 0.12166
#
# Static dielectric constant tensor:
#      x y z
#    x 3.044480 0.000000 0.000000 
#    y 0.000000 3.381220 0.000000 
#    z 0.000000 0.000000 4.353970 
# 
# 
# High freq. dielectric constant tensor:
#      x y z
#    x 1.708000 0.000000 0.000000 
#    y 0.000000 1.739860 0.000000 
#    z 0.000000 0.000000 1.784300 
# 
# From -- ./inp_files/509.got.cif
#   From: 2010.03.12/outbox.cif.g09.slc.cpg/sg26_1_cif.got.tgz:509.got - 2010.04.14 03:33:09.
