data_PCOD8167098
_publ_section_title
;
Structure prediction by ZEFSAII (Michael W. Deem and Ramdas Pophale) SiO2 
 PCOD8167098
Probable space group: P M C 21
;
_chemical_formula_sum "Si O2"
_cell_formula_units_Z 32
_cell_length_a 8.987146
_cell_length_b 20.893742
_cell_length_c 9.631105
_cell_angle_alpha 90.000000
_cell_angle_beta 90.000000
_cell_angle_gamma 90.000000
_cell_volume 1808.481799
_symmetry_space_group_name_H-M "P M C 21"
_symmetry_group_IT_number 26
_symmetry_cell_setting 'orthorhombic'
loop_
_space_group_symop_operation_xyz
x,y,z
-x,-y,1/2+z
-x,y,z
x,-y,1/2+z
loop_
_atom_site_type_symbol
_atom_site_label
_atom_site_fract_x
_atom_site_fract_y
_atom_site_fract_z
Si Si1 0.823124 0.945358 0.705330
Si Si2 0.173492 0.740377 0.996575
Si Si3 0.324954 0.398712 0.996206
Si Si4 0.172307 0.637544 0.770148
Si Si5 0.669199 0.002420 0.947625
Si Si6 0.171714 0.466402 0.496690
Si Si7 0.826972 0.638378 0.221601
Si Si8 0.332117 0.137087 0.406982
O O1 0.752902 0.003144 0.798143
O O2 0.766750 0.877082 0.768038
O O3 0.000000 0.948749 0.705508
O O4 0.760852 0.952323 0.550367
O O5 0.211349 0.700708 0.857782
O O6 0.264178 0.806001 0.997458
O O7 0.000000 0.756200 0.002841
O O8 0.221323 0.699816 0.131316
O O9 0.500000 0.397229 0.993769
O O10 0.272924 0.471674 0.997236
O O11 0.266382 0.361314 0.861889
O O12 0.269625 0.361497 0.132056
O O13 0.209951 0.574929 0.860847
O O14 0.000000 0.636662 0.728269
O O15 0.500000 0.027786 0.932135
O O16 0.668913 0.928020 0.999753
O O17 0.205728 0.425923 0.634806
O O18 0.000000 0.487878 0.494109
O O19 0.000000 0.641931 0.259207
O O20 0.500000 0.154464 0.361579
#
# Coordination Sequence:
#
# PCOD8167098 Si02
#       8
#     4   4   4   4   4   4   4   4
#     4  10  18  30  52  80 107 138 176 212 244 288
#     4   9  18  35  58  77  93 122 175 221 245 290
#     4  12  23  31  45  73 105 131 159 203 257 306
#     4   9  19  35  54  73  95 129 167 208 254 298
#     4   9  18  32  50  77 111 142 168 202 257 306
#     4   9  18  34  54  73  93 126 169 205 249 308
#     4   9  19  35  54  73  95 129 167 208 254 298
#     4   9  19  32  53  78 107 141 167 201 256 308
#
# _framework density 17.694399000000001
#
# number of rings (size 3 to 8) (size 9 to 14) (size 15 to 20)
#    0.750    1.750    0.000    4.875    0.000    5.000 
#    0.000    2.500    2.750    0.000    0.000    0.000 
#    0.000    0.000    0.000    0.000    0.000    0.000 
#
# Total GULP energy -396651.593417 kJ/mol
# GULP energy per Si atom -12395.362294 kJ/mol
# Density = 1.765413 g / cm^3
# Si number density = 17.694399 Si / 1000 Ang^3
#
#
#
# Elastic Constant Matrix: (Units=GPa)
#
#
# Indices 1 2 3 4 5 6 
#
# 1 107.5651 13.2736 36.2301 0.0000 0.0000 0.0000
# 2 13.2736 35.8848 -1.2112 0.0000 0.0000 0.0000
# 3 36.2301 -1.2112 81.4014 0.0000 0.0000 0.0000
# 4 0.0000 0.0000 0.0000 13.3345 0.0000 0.0000
# 5 0.0000 0.0000 0.0000 0.0000 18.1643 0.0000
# 6 0.0000 0.0000 0.0000 0.0000 0.0000 23.6706
#
#
#
# Elastic Compliance Matrix: (Units=1/GPa)
#
#
# Indices 1 2 3 4 5 6 
#
# 1 0.011612 -0.004472 -0.005235 0.000000 0.000000 0.000000
# 2 -0.004472 0.029603 0.002431 0.000000 0.000000 0.000000
# 3 -0.005235 0.002431 0.014651 0.000000 0.000000 0.000000
# 4 0.000000 0.000000 0.000000 0.074993 0.000000 0.000000
# 5 0.000000 0.000000 0.000000 0.000000 0.055053 0.000000
# 6 0.000000 0.000000 0.000000 0.000000 0.000000 0.042247
#
#
# Mechanical properties :
#
#
# Convention : Reuss Voigt Hill
#
# Bulk Modulus (GPa) = 24.20474 35.71515 29.95995
# Shear Modulus (GPa) = 19.49461 22.80447 21.14954
#
# Velocity S-wave (km/s) = 3.32285 3.59387 3.46101
# Velocity P-wave (km/s) = 5.33205 6.11960 5.73935
#
# Compressibility (1/GPa) = 0.04131422
#
# Stress axis : x y z
#
# Youngs Moduli (GPa) = 86.12038 33.78026 68.25567
#
# Poissons Ratio (x) = 0.15106 0.35729
# Poissons Ratio (y) = 0.38511 -0.16591
# Poissons Ratio (z) = 0.45081 -0.08211
#
# Static dielectric constant tensor:
#      x y z
#    x 3.176450 0.000000 0.000000 
#    y 0.000000 3.019990 0.000000 
#    z 0.000000 0.000000 3.236440 
# 
# 
# High freq. dielectric constant tensor:
#      x y z
#    x 1.685870 0.000000 0.000000 
#    y 0.000000 1.658160 0.000000 
#    z 0.000000 0.000000 1.677030 
# 
# From -- ./inp_files/1619.got.cif
#   From: 2010.03.12/outbox.cif.g09.slc.cpg/sg26_1_cif.got.tgz:1619.got - 2010.04.14 03:33:09.
