data_PCOD8167224
_publ_section_title
;
Structure prediction by ZEFSAII (Michael W. Deem and Ramdas Pophale) SiO2 
 PCOD8167224
Probable space group: P M C 21
;
_chemical_formula_sum "Si O2"
_cell_formula_units_Z 32
_cell_length_a 13.203039
_cell_length_b 15.352182
_cell_length_c 8.821841
_cell_angle_alpha 90.000000
_cell_angle_beta 90.000000
_cell_angle_gamma 90.000000
_cell_volume 1788.147099
_symmetry_space_group_name_H-M "P M C 21"
_symmetry_group_IT_number 26
_symmetry_cell_setting 'orthorhombic'
loop_
_space_group_symop_operation_xyz
x,y,z
-x,-y,1/2+z
-x,y,z
x,-y,1/2+z
loop_
_atom_site_type_symbol
_atom_site_label
_atom_site_fract_x
_atom_site_fract_y
_atom_site_fract_z
Si Si1 0.118606 0.578355 0.972120
Si Si2 0.612058 0.971848 0.674597
Si Si3 0.181403 0.915753 0.684379
Si Si4 0.882953 0.255551 0.641436
Si Si5 0.611974 0.874606 0.374028
Si Si6 0.114279 0.920766 0.010716
Si Si7 0.120308 0.599588 0.620462
Si Si8 0.802248 0.764804 0.466486
O O1 0.145169 0.588777 0.796831
O O2 0.000000 0.578255 0.001625
O O3 0.168117 0.657892 0.068905
O O4 0.158915 0.486597 0.034399
O O5 0.500000 0.944570 0.735954
O O6 0.701525 0.910349 0.743285
O O7 0.617313 0.954443 0.494206
O O8 0.632433 0.074347 0.715254
O O9 0.109381 0.922925 0.828485
O O10 0.148008 0.835459 0.579147
O O11 0.178607 0.001127 0.579294
O O12 0.834934 0.169596 0.565212
O O13 0.871914 0.250711 0.821272
O O14 0.000000 0.257403 0.597320
O O15 0.500000 0.831194 0.374235
O O16 0.691195 0.797093 0.410882
O O17 0.000000 0.930136 0.072057
O O18 0.194596 0.674877 0.558761
O O19 0.000000 0.619232 0.593798
#
# Coordination Sequence:
#
# PCOD8167224 Si02
#       8
#     4   4   4   4   4   4   4   4
#     4   9  18  33  52  74 100 127 161 206 249 287
#     4   9  17  31  50  68  88 117 157 207 255 288
#     4  11  21  33  47  67  95 128 168 204 239 292
#     4  10  20  33  48  69  97 129 165 204 242 284
#     4   9  18  32  50  72  96 125 164 208 252 294
#     4  11  22  33  45  63  94 135 170 198 232 280
#     4  10  19  32  51  75 101 129 161 200 246 293
#     4  11  21  31  48  72  99 130 161 197 244 294
#
# _framework density 17.895619
#
# number of rings (size 3 to 8) (size 9 to 14) (size 15 to 20)
#    0.000    2.000    0.000    5.250    0.000    6.000 
#    0.000    0.000    0.000    0.000    0.000    3.500 
#    0.000    0.000    0.000    0.000    0.000    0.000 
#
# Total GULP energy -396543.770771 kJ/mol
# GULP energy per Si atom -12391.992837 kJ/mol
# Density = 1.785489 g / cm^3
# Si number density = 17.895619 Si / 1000 Ang^3
#
#
#
# Elastic Constant Matrix: (Units=GPa)
#
#
# Indices 1 2 3 4 5 6 
#
# 1 45.1134 27.1141 12.8653 0.0000 0.0000 0.0000
# 2 27.1141 154.4526 65.7557 0.0000 0.0000 0.0000
# 3 12.8653 65.7557 99.4836 0.0000 0.0000 0.0000
# 4 0.0000 0.0000 0.0000 40.3540 0.0000 0.0000
# 5 0.0000 0.0000 0.0000 0.0000 16.0473 0.0000
# 6 0.0000 0.0000 0.0000 0.0000 0.0000 19.0544
#
#
#
# Elastic Compliance Matrix: (Units=1/GPa)
#
#
# Indices 1 2 3 4 5 6 
#
# 1 0.024796 -0.004158 -0.000459 0.000000 0.000000 0.000000
# 2 -0.004158 0.009707 -0.005878 0.000000 0.000000 0.000000
# 3 -0.000459 -0.005878 0.013997 0.000000 0.000000 0.000000
# 4 0.000000 0.000000 0.000000 0.024781 0.000000 0.000000
# 5 0.000000 0.000000 0.000000 0.000000 0.062316 0.000000
# 6 0.000000 0.000000 0.000000 0.000000 0.000000 0.052481
#
#
# Mechanical properties :
#
#
# Convention : Reuss Voigt Hill
#
# Bulk Modulus (GPa) = 36.34988 56.72444 46.53716
# Shear Modulus (GPa) = 22.91090 27.97875 25.44483
#
# Velocity S-wave (km/s) = 3.58194 3.95833 3.77483
# Velocity P-wave (km/s) = 6.12073 7.25654 6.71270
#
# Compressibility (1/GPa) = 0.02751041
#
# Stress axis : x y z
#
# Youngs Moduli (GPa) = 40.32911 103.01861 71.44579
#
# Poissons Ratio (x) = 0.42832 0.03276
# Poissons Ratio (y) = 0.16768 0.41998
# Poissons Ratio (z) = 0.01849 0.60558
#
# Static dielectric constant tensor:
#      x y z
#    x 3.150140 0.000000 0.000000 
#    y 0.000000 3.412640 0.000000 
#    z 0.000000 0.000000 3.365090 
# 
# 
# High freq. dielectric constant tensor:
#      x y z
#    x 1.658400 0.000000 0.000000 
#    y 0.000000 1.680030 0.000000 
#    z 0.000000 0.000000 1.705120 
# 
# From -- ./inp_files/2262.got.cif
#   From: 2010.03.12/outbox.cif.g09.slc.cpg/sg26_2_cif.got.tgz:2262.got - 2010.04.14 03:33:09.
