data_PCOD8167680
_publ_section_title
;
Structure prediction by ZEFSAII (Michael W. Deem and Ramdas Pophale) SiO2 
 PCOD8167680
Probable space group: P M C 21
;
_chemical_formula_sum "Si O2"
_cell_formula_units_Z 20
_cell_length_a 14.733416
_cell_length_b 6.366247
_cell_length_c 10.075747
_cell_angle_alpha 90.000000
_cell_angle_beta 90.000000
_cell_angle_gamma 90.000000
_cell_volume 945.070463
_symmetry_space_group_name_H-M "P M C 21"
_symmetry_group_IT_number 26
_symmetry_cell_setting 'orthorhombic'
loop_
_space_group_symop_operation_xyz
x,y,z
-x,-y,1/2+z
-x,y,z
x,-y,1/2+z
loop_
_atom_site_type_symbol
_atom_site_label
_atom_site_fract_x
_atom_site_fract_y
_atom_site_fract_z
Si Si1 0.160327 0.882176 0.843160
Si Si2 0.339673 0.882176 0.343160
Si Si3 0.250000 0.500000 0.217158
Si Si4 0.400494 0.805216 0.621055
Si Si5 0.099506 0.194783 0.621055
O O1 0.185047 0.643609 0.806374
O O2 0.250000 1.000000 0.890378
O O3 0.115037 0.998222 0.718396
O O4 0.094420 0.886447 0.969751
O O5 0.314953 0.643609 0.306374
O O6 0.405580 0.886447 0.469751
O O7 0.384963 0.998223 0.218396
O O8 0.318482 0.361251 0.128765
O O9 0.181518 0.638750 0.128765
O O10 0.500000 0.707307 0.654068
O O11 0.000000 0.292693 0.654068
#
# Coordination Sequence:
#
# PCOD8167680 Si02
#       5
#     4   4   4   4   4
#     4  10  21  40  62  86 120 157 196 244 296 352
#     4  10  21  40  62  86 120 157 196 244 296 352
#     4  10  22  40  62  88 120 158 198 244 294 352
#     4  11  23  39  62  90 120 157 199 245 296 350
#     4  11  23  39  62  90 120 157 199 245 296 350
#
# _framework density 21.162443
#
# number of rings (size 3 to 8) (size 9 to 14) (size 15 to 20)
#    0.000    1.600    0.000    6.000    0.000    6.400 
#    0.000    0.000    0.000    0.000    0.000    0.000 
#    0.000    0.000    0.000    0.000    0.000    0.000 
#
# Total GULP energy -247958.147992 kJ/mol
# GULP energy per Si atom -12397.907400 kJ/mol
# Density = 2.111428 g / cm^3
# Si number density = 21.162443 Si / 1000 Ang^3
#
#
#
# Elastic Constant Matrix: (Units=GPa)
#
#
# Indices 1 2 3 4 5 6 
#
# 1 136.9221 37.4557 49.9148 0.0000 0.0000 0.0000
# 2 37.4557 108.5933 59.5555 0.0000 0.0000 0.0000
# 3 49.9148 59.5555 156.8998 0.0000 0.0000 0.0000
# 4 0.0000 0.0000 0.0000 14.5768 0.0000 0.0000
# 5 0.0000 0.0000 0.0000 0.0000 -5.2208 0.0000
# 6 0.0000 0.0000 0.0000 0.0000 0.0000 19.5979
#
#
#
# Elastic Compliance Matrix: (Units=1/GPa)
#
#
# Indices 1 2 3 4 5 6 
#
# 1 0.008543 -0.001839 -0.002020 0.000000 0.000000 0.000000
# 2 -0.001839 0.012025 -0.003980 0.000000 0.000000 0.000000
# 3 -0.002020 -0.003980 0.008527 0.000000 0.000000 0.000000
# 4 0.000000 0.000000 0.000000 0.068602 0.000000 0.000000
# 5 0.000000 0.000000 0.000000 0.000000 -0.191540 0.000000
# 6 0.000000 0.000000 0.000000 0.000000 0.000000 0.051026
#
#
# Mechanical properties :
#
#
# Convention : Reuss Voigt Hill
#
# Bulk Modulus (GPa) = 74.52435 77.36301 75.94368
# Shear Modulus (GPa) = -220.57422 22.82339 -98.87542
#
# Velocity S-wave (km/s) = -10.22034 3.28759 -6.84277
# Velocity P-wave (km/s) = 10.19716 7.14473 5.14465
#
# Compressibility (1/GPa) = 0.01341843
#
# Stress axis : x y z
#
# Youngs Moduli (GPa) = 117.05839 83.15706 117.28026
#
# Poissons Ratio (x) = 0.15292 0.23687
# Poissons Ratio (y) = 0.21526 0.46672
# Poissons Ratio (z) = 0.23643 0.33093
#
# Static dielectric constant tensor:
#      x y z
#    x 3.868550 0.000000 0.000000 
#    y 0.000000 3.853500 0.000000 
#    z 0.000000 0.000000 3.682830 
# 
# 
# High freq. dielectric constant tensor:
#      x y z
#    x 1.836050 0.000000 0.000000 
#    y 0.000000 1.818900 0.000000 
#    z 0.000000 0.000000 1.835810 
# 
# From -- ./inp_files/2316.got.cif
#   From: 2010.03.12/outbox.cif.g09.slc.cpg/sg26_2_cif.got.tgz:2316.got - 2010.04.14 03:33:09.
