data_PCOD8167551
_publ_section_title
;
Structure prediction by ZEFSAII (Michael W. Deem and Ramdas Pophale) SiO2 
 PCOD8167551
Probable space group: P M C 21
;
_chemical_formula_sum "Si O2"
_cell_formula_units_Z 32
_cell_length_a 8.880052
_cell_length_b 15.117666
_cell_length_c 12.044150
_cell_angle_alpha 90.000000
_cell_angle_beta 90.000000
_cell_angle_gamma 90.000000
_cell_volume 1616.874868
_symmetry_space_group_name_H-M "P M C 21"
_symmetry_group_IT_number 26
_symmetry_cell_setting 'orthorhombic'
loop_
_space_group_symop_operation_xyz
x,y,z
-x,-y,1/2+z
-x,y,z
x,-y,1/2+z
loop_
_atom_site_type_symbol
_atom_site_label
_atom_site_fract_x
_atom_site_fract_y
_atom_site_fract_z
Si Si1 0.178627 0.253838 0.366120
Si Si2 0.168662 0.157602 0.000541
Si Si3 0.178745 0.111232 0.763305
Si Si4 0.672895 0.595534 0.722283
Si Si5 0.328089 0.605224 0.285389
Si Si6 0.167888 0.359363 0.009548
Si Si7 0.178542 0.911663 0.724479
Si Si8 0.676919 0.250665 0.605931
O O1 0.225262 0.337099 0.291236
O O2 0.237992 0.162230 0.310916
O O3 0.250540 0.263924 0.486391
O O4 0.000000 0.253898 0.378296
O O5 0.246870 0.147039 0.880326
O O6 0.000000 0.120813 0.982447
O O7 0.167379 0.257297 0.043350
O O8 0.247763 0.103382 0.100546
O O9 0.257400 0.163075 0.663570
O O10 0.000000 0.124794 0.750434
O O11 0.226476 0.008727 0.762289
O O12 0.500000 0.625375 0.731057
O O13 0.697724 0.497849 0.767448
O O14 0.721274 0.590915 0.593474
O O15 0.500000 0.625502 0.318433
O O16 0.220275 0.633832 0.383801
O O17 0.283214 0.661913 0.177152
O O18 0.000000 0.399203 0.019945
O O19 0.000000 0.900925 0.715555
O O20 0.500000 0.238598 0.591287
#
# Coordination Sequence:
#
# PCOD8167551 Si02
#       8
#     4   4   4   4   4   4   4   4
#     4  11  23  41  63  90 121 159 206 256 302 357
#     4   9  17  33  57  88 120 147 191 250 297 341
#     4  10  20  36  63  91 116 157 203 247 298 355
#     4  11  24  42  63  88 122 164 203 244 303 372
#     4  10  24  43  62  84 118 164 205 240 299 371
#     4  11  21  38  64  92 121 150 198 262 303 343
#     4   9  19  35  60  90 120 153 197 247 301 357
#     4  11  24  42  60  85 124 164 199 248 305 366
#
# _framework density 19.791264999999999
#
# number of rings (size 3 to 8) (size 9 to 14) (size 15 to 20)
#    0.000    1.750    2.500    1.500    3.500    1.500 
#    0.000    1.250    0.000    0.000    0.000    0.000 
#    0.000    0.000    0.000    0.000    0.000    0.000 
#
# Total GULP energy -396800.097967 kJ/mol
# GULP energy per Si atom -12400.003061 kJ/mol
# Density = 1.974622 g / cm^3
# Si number density = 19.791265 Si / 1000 Ang^3
#
#
#
# Elastic Constant Matrix: (Units=GPa)
#
#
# Indices 1 2 3 4 5 6 
#
# 1 66.9063 39.4189 41.5572 0.0000 0.0000 0.0000
# 2 39.4189 94.9974 31.6391 0.0000 0.0000 0.0000
# 3 41.5572 31.6391 126.6685 0.0000 0.0000 0.0000
# 4 0.0000 0.0000 0.0000 28.1635 0.0000 0.0000
# 5 0.0000 0.0000 0.0000 0.0000 32.5149 0.0000
# 6 0.0000 0.0000 0.0000 0.0000 0.0000 20.0898
#
#
#
# Elastic Compliance Matrix: (Units=1/GPa)
#
#
# Indices 1 2 3 4 5 6 
#
# 1 0.022941 -0.007649 -0.005616 0.000000 0.000000 0.000000
# 2 -0.007649 0.014032 -0.000995 0.000000 0.000000 0.000000
# 3 -0.005616 -0.000995 0.009986 0.000000 0.000000 0.000000
# 4 0.000000 0.000000 0.000000 0.035507 0.000000 0.000000
# 5 0.000000 0.000000 0.000000 0.000000 0.030755 0.000000
# 6 0.000000 0.000000 0.000000 0.000000 0.000000 0.049777
#
#
# Mechanical properties :
#
#
# Convention : Reuss Voigt Hill
#
# Bulk Modulus (GPa) = 54.23528 57.08917 55.66222
# Shear Modulus (GPa) = 25.29545 27.88408 26.58977
#
# Velocity S-wave (km/s) = 3.57895 3.75762 3.66937
# Velocity P-wave (km/s) = 6.67395 6.90901 6.79250
#
# Compressibility (1/GPa) = 0.01843818
#
# Stress axis : x y z
#
# Youngs Moduli (GPa) = 43.59021 71.26552 100.14295
#
# Poissons Ratio (x) = 0.54510 0.56239
# Poissons Ratio (y) = 0.33342 0.09969
# Poissons Ratio (z) = 0.24480 0.07094
#
# Static dielectric constant tensor:
#      x y z
#    x 3.414620 0.000000 0.000000 
#    y 0.000000 3.637100 0.000000 
#    z 0.000000 0.000000 3.727870 
# 
# 
# High freq. dielectric constant tensor:
#      x y z
#    x 1.746780 0.000000 0.000000 
#    y 0.000000 1.776070 0.000000 
#    z 0.000000 0.000000 1.789350 
# 
# From -- ./inp_files/2918.got.cif
#   From: 2010.03.12/outbox.cif.g09.slc.cpg/sg26_2_cif.got.tgz:2918.got - 2010.04.14 03:33:09.
