data_PCOD8167675
_publ_section_title
;
Structure prediction by ZEFSAII (Michael W. Deem and Ramdas Pophale) SiO2 
 PCOD8167675
Probable space group: P M C 21
;
_chemical_formula_sum "Si O2"
_cell_formula_units_Z 32
_cell_length_a 8.991523
_cell_length_b 14.114087
_cell_length_c 12.436671
_cell_angle_alpha 90.000000
_cell_angle_beta 90.000000
_cell_angle_gamma 90.000000
_cell_volume 1578.302321
_symmetry_space_group_name_H-M "P M C 21"
_symmetry_group_IT_number 26
_symmetry_cell_setting 'orthorhombic'
loop_
_space_group_symop_operation_xyz
x,y,z
-x,-y,1/2+z
-x,y,z
x,-y,1/2+z
loop_
_atom_site_type_symbol
_atom_site_label
_atom_site_fract_x
_atom_site_fract_y
_atom_site_fract_z
Si Si1 0.333017 0.191849 0.734640
Si Si2 0.324118 0.347445 0.384841
Si Si3 0.827397 0.954541 0.367194
Si Si4 0.826313 0.656691 0.106283
Si Si5 0.826558 0.522517 0.305893
Si Si6 0.828762 0.161983 0.306919
Si Si7 0.828377 0.176480 0.061131
Si Si8 0.666882 0.671768 0.437741
O O1 0.500000 0.175898 0.691255
O O2 0.262348 0.091789 0.768324
O O3 0.235059 0.240678 0.642053
O O4 0.332514 0.258366 0.837649
O O5 0.500000 0.355593 0.386079
O O6 0.259198 0.376116 0.500462
O O7 0.256553 0.421626 0.298831
O O8 0.277780 0.241882 0.353257
O O9 0.780355 0.908868 0.481428
O O10 0.000000 0.936711 0.342486
O O11 0.791432 0.065928 0.371259
O O12 0.793863 0.577510 0.195765
O O13 0.000000 0.667517 0.082098
O O14 0.763956 0.580032 0.408520
O O15 0.000000 0.505898 0.324480
O O16 0.795339 0.143195 0.181607
O O17 0.000000 0.192525 0.324116
O O18 0.000000 0.201858 0.042717
O O19 0.737275 0.272732 0.038500
O O20 0.500000 0.639473 0.467310
#
# Coordination Sequence:
#
# PCOD8167675 Si02
#       8
#     4   4   4   4   4   4   4   4
#     4   9  17  31  54  85 117 146 183 233 285 336
#     4  12  26  41  58  83 117 152 187 234 290 344
#     4   9  18  34  57  84 113 151 199 243 284 335
#     4  10  21  39  63  87 114 150 191 235 283 339
#     4  10  21  39  63  87 111 146 191 235 280 337
#     4  10  22  39  57  80 114 154 196 240 284 338
#     4   9  18  34  56  82 113 150 192 237 284 334
#     4   9  17  31  54  84 115 145 181 229 280 331
#
# _framework density 20.274947999999998
#
# number of rings (size 3 to 8) (size 9 to 14) (size 15 to 20)
#    0.000    2.250    0.000    2.625    0.000    7.500 
#    0.000    3.750    0.000    0.000    0.000    0.000 
#    0.000    0.000    0.000    0.000    0.000    0.000 
#
# Total GULP energy -396884.381121 kJ/mol
# GULP energy per Si atom -12402.636910 kJ/mol
# Density = 2.022880 g / cm^3
# Si number density = 20.274948 Si / 1000 Ang^3
#
#
#
# Elastic Constant Matrix: (Units=GPa)
#
#
# Indices 1 2 3 4 5 6 
#
# 1 137.6701 64.1636 47.1899 0.0000 0.0000 0.0000
# 2 64.1636 118.6350 39.7433 0.0000 0.0000 0.0000
# 3 47.1899 39.7433 77.3828 0.0000 0.0000 0.0000
# 4 0.0000 0.0000 0.0000 24.6044 0.0000 0.0000
# 5 0.0000 0.0000 0.0000 0.0000 26.5412 0.0000
# 6 0.0000 0.0000 0.0000 0.0000 0.0000 28.3550
#
#
#
# Elastic Compliance Matrix: (Units=1/GPa)
#
#
# Indices 1 2 3 4 5 6 
#
# 1 0.010792 -0.004387 -0.004328 0.000000 0.000000 0.000000
# 2 -0.004387 0.011964 -0.003469 0.000000 0.000000 0.000000
# 3 -0.004328 -0.003469 0.017344 0.000000 0.000000 0.000000
# 4 0.000000 0.000000 0.000000 0.040643 0.000000 0.000000
# 5 0.000000 0.000000 0.000000 0.000000 0.037677 0.000000
# 6 0.000000 0.000000 0.000000 0.000000 0.000000 0.035267
#
#
# Mechanical properties :
#
#
# Convention : Reuss Voigt Hill
#
# Bulk Modulus (GPa) = 63.56797 70.65351 67.11074
# Shear Modulus (GPa) = 27.27767 28.07286 27.67526
#
# Velocity S-wave (km/s) = 3.67193 3.72507 3.69860
# Velocity P-wave (km/s) = 7.02840 7.30923 7.17019
#
# Compressibility (1/GPa) = 0.01573119
#
# Stress axis : x y z
#
# Youngs Moduli (GPa) = 92.66231 83.58318 57.65669
#
# Poissons Ratio (x) = 0.36667 0.24954
# Poissons Ratio (y) = 0.40650 0.20004
# Poissons Ratio (z) = 0.40105 0.28999
#
# Static dielectric constant tensor:
#      x y z
#    x 3.753000 0.000000 0.000000 
#    y 0.000000 3.659620 0.000000 
#    z 0.000000 0.000000 3.578640 
# 
# 
# High freq. dielectric constant tensor:
#      x y z
#    x 1.793670 0.000000 0.000000 
#    y 0.000000 1.789740 0.000000 
#    z 0.000000 0.000000 1.778610 
# 
# From -- ./inp_files/3074.got.cif
#   From: 2010.03.12/outbox.cif.g09.slc.cpg/sg26_2_cif.got.tgz:3074.got - 2010.04.14 03:33:09.
