data_PCOD8167603
_publ_section_title
;
Structure prediction by ZEFSAII (Michael W. Deem and Ramdas Pophale) SiO2 
 PCOD8167603
Probable space group: P M C 21
;
_chemical_formula_sum "Si O2"
_cell_formula_units_Z 32
_cell_length_a 9.995936
_cell_length_b 16.548107
_cell_length_c 10.390647
_cell_angle_alpha 90.000000
_cell_angle_beta 90.000000
_cell_angle_gamma 90.000000
_cell_volume 1718.756597
_symmetry_space_group_name_H-M "P M C 21"
_symmetry_group_IT_number 26
_symmetry_cell_setting 'orthorhombic'
loop_
_space_group_symop_operation_xyz
x,y,z
-x,-y,1/2+z
-x,y,z
x,-y,1/2+z
loop_
_atom_site_type_symbol
_atom_site_label
_atom_site_fract_x
_atom_site_fract_y
_atom_site_fract_z
Si Si1 0.345574 0.922993 0.525530
Si Si2 0.150807 0.292829 0.181654
Si Si3 0.349864 0.105606 0.544706
Si Si4 0.354724 0.820109 0.774486
Si Si5 0.848829 0.799502 0.426874
Si Si6 0.840033 0.582939 0.062555
Si Si7 0.152663 0.240673 0.643077
Si Si8 0.846049 0.466399 0.281648
O O1 0.500000 0.920704 0.477958
O O2 0.320717 0.877464 0.657184
O O3 0.250879 0.877056 0.422353
O O4 0.298169 0.013914 0.554303
O O5 0.244341 0.249627 0.286994
O O6 0.172643 0.387668 0.193557
O O7 0.000000 0.268707 0.217521
O O8 0.190009 0.264477 0.038264
O O9 0.500000 0.115075 0.604223
O O10 0.353712 0.122348 0.394922
O O11 0.247153 0.165760 0.611164
O O12 0.500000 0.778582 0.756901
O O13 0.838413 0.748077 0.296560
O O14 0.000000 0.832213 0.447113
O O15 0.796595 0.676847 0.075137
O O16 0.782368 0.536143 0.189600
O O17 0.000000 0.577000 0.061773
O O18 0.783286 0.546141 0.926072
O O19 0.000000 0.221238 0.601025
O O20 0.000000 0.487336 0.304518
#
# Coordination Sequence:
#
# PCOD8167603 Si02
#       8
#     4   4   4   4   4   4   4   4
#     4   9  19  34  53  75  99 130 170 214 254 305
#     4   9  17  31  52  75 100 131 169 208 256 309
#     4  10  21  34  53  75  98 133 173 214 258 308
#     4   9  18  33  50  72  98 126 165 209 256 306
#     4   9  19  33  50  75 106 137 168 210 261 312
#     4   9  18  30  47  74 106 138 176 217 263 313
#     4  10  21  35  51  75 109 140 171 215 267 314
#     4   9  17  28  48  75 102 135 174 215 259 309
#
# _framework density 18.618110999999999
#
# number of rings (size 3 to 8) (size 9 to 14) (size 15 to 20)
#    0.000    2.750    0.000    0.750    3.500    2.500 
#    0.000    0.000    0.000    0.750    0.000    0.000 
#    0.000    0.000    0.000    0.000    0.000    0.000 
#
# Total GULP energy -396553.250997 kJ/mol
# GULP energy per Si atom -12392.289094 kJ/mol
# Density = 1.857573 g / cm^3
# Si number density = 18.618111 Si / 1000 Ang^3
#
#
#
# Elastic Constant Matrix: (Units=GPa)
#
#
# Indices 1 2 3 4 5 6 
#
# 1 53.9358 41.9065 24.9224 0.0000 0.0000 0.0000
# 2 41.9065 88.8100 35.9373 0.0000 0.0000 0.0000
# 3 24.9224 35.9373 82.1850 0.0000 0.0000 0.0000
# 4 0.0000 0.0000 0.0000 18.8000 0.0000 0.0000
# 5 0.0000 0.0000 0.0000 0.0000 18.4030 0.0000
# 6 0.0000 0.0000 0.0000 0.0000 0.0000 9.5914
#
#
#
# Elastic Compliance Matrix: (Units=1/GPa)
#
#
# Indices 1 2 3 4 5 6 
#
# 1 0.030099 -0.012769 -0.003544 0.000000 0.000000 0.000000
# 2 -0.012769 0.019097 -0.004479 0.000000 0.000000 0.000000
# 3 -0.003544 -0.004479 0.015201 0.000000 0.000000 0.000000
# 4 0.000000 0.000000 0.000000 0.053191 0.000000 0.000000
# 5 0.000000 0.000000 0.000000 0.000000 0.054339 0.000000
# 6 0.000000 0.000000 0.000000 0.000000 0.000000 0.104260
#
#
# Mechanical properties :
#
#
# Convention : Reuss Voigt Hill
#
# Bulk Modulus (GPa) = 43.83192 47.82923 45.83058
# Shear Modulus (GPa) = 15.36688 17.50320 16.43504
#
# Velocity S-wave (km/s) = 2.87605 3.06946 2.97433
# Velocity P-wave (km/s) = 5.88410 6.18931 6.03863
#
# Compressibility (1/GPa) = 0.02281442
#
# Stress axis : x y z
#
# Youngs Moduli (GPa) = 33.22371 52.36316 65.78589
#
# Poissons Ratio (x) = 0.66860 0.23315
# Poissons Ratio (y) = 0.42422 0.29464
# Poissons Ratio (z) = 0.11775 0.23452
#
# Static dielectric constant tensor:
#      x y z
#    x 3.393080 0.000000 0.000000 
#    y 0.000000 3.460790 0.000000 
#    z 0.000000 0.000000 3.603190 
# 
# 
# High freq. dielectric constant tensor:
#      x y z
#    x 1.686840 0.000000 0.000000 
#    y 0.000000 1.718460 0.000000 
#    z 0.000000 0.000000 1.731850 
# 
# From -- ./inp_files/1977.got.cif
#   From: 2010.03.12/outbox.cif.g09.slc.cpg/sg26_1_cif.got.tgz:1977.got - 2010.04.14 03:33:09.
