data_PCOD8167202
_publ_section_title
;
Structure prediction by ZEFSAII (Michael W. Deem and Ramdas Pophale) SiO2 
 PCOD8167202
Probable space group: P M C 21
;
_chemical_formula_sum "Si O2"
_cell_formula_units_Z 32
_cell_length_a 14.305535
_cell_length_b 8.403082
_cell_length_c 15.174792
_cell_angle_alpha 90.000000
_cell_angle_beta 90.000000
_cell_angle_gamma 90.000000
_cell_volume 1824.170603
_symmetry_space_group_name_H-M "P M C 21"
_symmetry_group_IT_number 26
_symmetry_cell_setting 'orthorhombic'
loop_
_space_group_symop_operation_xyz
x,y,z
-x,-y,1/2+z
-x,y,z
x,-y,1/2+z
loop_
_atom_site_type_symbol
_atom_site_label
_atom_site_fract_x
_atom_site_fract_y
_atom_site_fract_z
Si Si1 0.393212 0.142677 0.133800
Si Si2 0.750000 0.617395 0.953356
Si Si3 0.750000 0.120695 0.881776
Si Si4 0.893038 0.656609 0.458122
Si Si5 0.606962 0.656609 0.458122
Si Si6 0.106788 0.142677 0.133800
Si Si7 0.250000 0.078661 0.555996
Si Si8 0.250000 0.819750 0.776080
O O1 0.500000 0.104863 0.156973
O O2 0.342622 0.218654 0.218915
O O3 0.342627 0.976893 0.108341
O O4 0.383654 0.268334 0.054864
O O5 0.843880 0.514220 0.959547
O O6 0.656119 0.514221 0.959548
O O7 0.750000 0.710295 0.861358
O O8 0.750000 0.732706 0.038825
O O9 0.842413 0.231151 0.885993
O O10 0.657587 0.231153 0.885992
O O11 0.750000 0.010375 0.795645
O O12 0.749998 0.000597 0.961675
O O13 0.883655 0.731664 0.554865
O O14 0.000000 0.635831 0.429164
O O15 0.500000 0.635831 0.429165
O O16 0.157378 0.218653 0.218915
O O17 0.000000 0.104862 0.156973
O O18 0.157373 0.976893 0.108339
#
# Coordination Sequence:
#
# PCOD8167202 Si02
#       8
#     4   4   4   4   4   4   4   4
#     4   9  18  34  53  70  94 130 166 200 241 288
#     4  10  19  31  51  77 101 125 159 203 243 285
#     4   8  16  31  49  69  93 123 158 197 237 279
#     4   9  18  34  53  70  95 133 167 194 234 291
#     4   9  18  34  53  70  95 133 167 194 234 291
#     4   9  18  34  53  70  94 130 166 200 241 288
#     4   8  16  31  50  71  92 120 162 200 231 276
#     4  10  19  31  50  75 100 124 157 206 251 284
#
# _framework density 17.542217999999998
#
# number of rings (size 3 to 8) (size 9 to 14) (size 15 to 20)
#    0.000    3.000    0.000    2.250    0.000    3.000 
#    0.000   15.000    0.000    0.000    0.000    0.000 
#    0.000    0.000    0.000    0.000    0.000    0.000 
#
# Total GULP energy -396660.626279 kJ/mol
# GULP energy per Si atom -12395.644571 kJ/mol
# Density = 1.750229 g / cm^3
# Si number density = 17.542218 Si / 1000 Ang^3
#
#
#
# Elastic Constant Matrix: (Units=GPa)
#
#
# Indices 1 2 3 4 5 6 
#
# 1 183.3651 59.8797 44.8675 0.0000 0.0000 0.0000
# 2 59.8797 103.3599 27.3473 0.0000 0.0000 0.0000
# 3 44.8675 27.3473 63.2176 0.0000 0.0000 0.0000
# 4 0.0000 0.0000 0.0000 23.2772 0.0000 0.0000
# 5 0.0000 0.0000 0.0000 0.0000 19.7764 0.0000
# 6 0.0000 0.0000 0.0000 0.0000 0.0000 15.7331
#
#
#
# Elastic Compliance Matrix: (Units=1/GPa)
#
#
# Indices 1 2 3 4 5 6 
#
# 1 0.007484 -0.003309 -0.003880 0.000000 0.000000 0.000000
# 2 -0.003309 0.012388 -0.003011 0.000000 0.000000 0.000000
# 3 -0.003880 -0.003011 0.019874 0.000000 0.000000 0.000000
# 4 0.000000 0.000000 0.000000 0.042961 0.000000 0.000000
# 5 0.000000 0.000000 0.000000 0.000000 0.050565 0.000000
# 6 0.000000 0.000000 0.000000 0.000000 0.000000 0.063560
#
#
# Mechanical properties :
#
#
# Convention : Reuss Voigt Hill
#
# Bulk Modulus (GPa) = 51.68635 68.23685 59.96160
# Shear Modulus (GPa) = 22.35331 26.28055 24.31693
#
# Velocity S-wave (km/s) = 3.57355 3.87477 3.72720
# Velocity P-wave (km/s) = 6.82312 7.68125 7.26486
#
# Compressibility (1/GPa) = 0.01934747
#
# Stress axis : x y z
#
# Youngs Moduli (GPa) = 133.62688 80.72032 50.31586
#
# Poissons Ratio (x) = 0.26709 0.19522
# Poissons Ratio (y) = 0.44216 0.15149
# Poissons Ratio (z) = 0.51846 0.24302
#
# Static dielectric constant tensor:
#      x y z
#    x 3.435940 0.000000 0.000000 
#    y 0.000000 3.299890 0.000000 
#    z 0.000000 0.000000 3.219150 
# 
# 
# High freq. dielectric constant tensor:
#      x y z
#    x 1.683150 0.000000 0.000000 
#    y 0.000000 1.667070 0.000000 
#    z 0.000000 0.000000 1.667160 
# 
# From -- ./inp_files/4657.got.cif
#   From: 2010.03.12/outbox.cif.g09.slc.cpg/sg26_3_cif.got.tgz:4657.got - 2010.04.14 03:33:09.
