data_PCOD8167226
_publ_section_title
;
Structure prediction by ZEFSAII (Michael W. Deem and Ramdas Pophale) SiO2 
 PCOD8167226
Probable space group: P M C 21
;
_chemical_formula_sum "Si O2"
_cell_formula_units_Z 28
_cell_length_a 10.411470
_cell_length_b 16.322833
_cell_length_c 9.038295
_cell_angle_alpha 90.000000
_cell_angle_beta 90.000000
_cell_angle_gamma 90.000000
_cell_volume 1536.010207
_symmetry_space_group_name_H-M "P M C 21"
_symmetry_group_IT_number 26
_symmetry_cell_setting 'orthorhombic'
loop_
_space_group_symop_operation_xyz
x,y,z
-x,-y,1/2+z
-x,y,z
x,-y,1/2+z
loop_
_atom_site_type_symbol
_atom_site_label
_atom_site_fract_x
_atom_site_fract_y
_atom_site_fract_z
Si Si1 0.653634 0.429169 0.035850
Si Si2 0.772429 0.996357 0.327075
Si Si3 0.348153 0.271099 0.204565
Si Si4 0.651663 0.751549 0.042000
Si Si5 0.348137 0.586762 0.205425
Si Si6 0.139795 0.887188 0.074313
Si Si7 0.648124 0.898814 0.587449
O O1 0.500000 0.428533 0.036831
O O2 0.708683 0.352613 0.129254
O O3 0.707906 0.513317 0.105196
O O4 0.707906 0.421886 0.870077
O O5 0.864094 0.948788 0.213527
O O6 0.710856 0.931595 0.438581
O O7 0.850261 0.063286 0.420756
O O8 0.664608 0.042035 0.228912
O O9 0.500000 0.270488 0.188458
O O10 0.310172 0.271574 0.375876
O O11 0.291230 0.190341 0.124786
O O12 0.500000 0.774584 0.057243
O O13 0.690957 0.674636 0.141907
O O14 0.739206 0.826928 0.094725
O O15 0.500000 0.578279 0.207928
O O16 0.000000 0.842438 0.071675
O O17 0.500000 0.889540 0.553325
#
# Coordination Sequence:
#
# PCOD8167226 Si02
#       7
#     4   4   4   4   4   4   4
#     4   9  16  27  45  72 108 146 177 213 265 320
#     4  10  22  36  54  75 103 142 190 226 268 327
#     4   9  17  29  46  73 111 142 172 216 267 316
#     4  10  20  34  53  80 112 141 177 223 272 324
#     4   9  17  28  46  74 107 142 177 216 265 319
#     4  11  23  40  58  78 107 145 186 228 275 324
#     4  10  19  32  51  80 113 144 174 222 279 328
#
# _framework density 18.229044999999999
#
# number of rings (size 3 to 8) (size 9 to 14) (size 15 to 20)
#    0.000    2.286    1.429    1.714    2.000    6.286 
#    0.000    0.000    0.000    0.000    0.000    4.000 
#    0.000    0.000    0.000    0.000    0.000    0.000 
#
# Total GULP energy -347095.331102 kJ/mol
# GULP energy per Si atom -12396.261825 kJ/mol
# Density = 1.818755 g / cm^3
# Si number density = 18.229045 Si / 1000 Ang^3
#
#
#
# Elastic Constant Matrix: (Units=GPa)
#
#
# Indices 1 2 3 4 5 6 
#
# 1 53.1337 31.5787 18.8717 0.0000 0.0000 0.0000
# 2 31.5787 123.6109 49.7866 0.0000 0.0000 0.0000
# 3 18.8717 49.7866 109.8752 0.0000 0.0000 0.0000
# 4 0.0000 0.0000 0.0000 36.0799 0.0000 0.0000
# 5 0.0000 0.0000 0.0000 0.0000 3.8552 0.0000
# 6 0.0000 0.0000 0.0000 0.0000 0.0000 6.8237
#
#
#
# Elastic Compliance Matrix: (Units=1/GPa)
#
#
# Indices 1 2 3 4 5 6 
#
# 1 0.022399 -0.005104 -0.001534 0.000000 0.000000 0.000000
# 2 -0.005104 0.011059 -0.004134 0.000000 0.000000 0.000000
# 3 -0.001534 -0.004134 0.011238 0.000000 0.000000 0.000000
# 4 0.000000 0.000000 0.000000 0.027716 0.000000 0.000000
# 5 0.000000 0.000000 0.000000 0.000000 0.259393 0.000000
# 6 0.000000 0.000000 0.000000 0.000000 0.000000 0.146548
#
#
# Mechanical properties :
#
#
# Convention : Reuss Voigt Hill
#
# Bulk Modulus (GPa) = 43.19606 54.12155 48.65881
# Shear Modulus (GPa) = 9.84997 21.77727 15.81362
#
# Velocity S-wave (km/s) = 2.32705 3.46012 2.94852
# Velocity P-wave (km/s) = 5.56489 6.76146 6.19215
#
# Compressibility (1/GPa) = 0.02315026
#
# Stress axis : x y z
#
# Youngs Moduli (GPa) = 44.64484 90.42329 88.98266
#
# Poissons Ratio (x) = 0.46155 0.13653
# Poissons Ratio (y) = 0.22788 0.36789
# Poissons Ratio (z) = 0.06850 0.37385
#
# Static dielectric constant tensor:
#      x y z
#    x 2.758820 0.000000 0.000000 
#    y 0.000000 3.602280 0.000000 
#    z 0.000000 0.000000 3.588520 
# 
# 
# High freq. dielectric constant tensor:
#      x y z
#    x 1.637050 0.000000 0.000000 
#    y 0.000000 1.715560 0.000000 
#    z 0.000000 0.000000 1.726190 
# 
# From -- ./inp_files/1520.got.cif
#   From: 2010.03.12/outbox.cif.g09.slc.cpg/sg26_1_cif.got.tgz:1520.got - 2010.04.14 03:33:09.
