data_PCOD8167177
_publ_section_title
;
Structure prediction by ZEFSAII (Michael W. Deem and Ramdas Pophale) SiO2 
 PCOD8167177
Probable space group: P M C 21
;
_chemical_formula_sum "Si O2"
_cell_formula_units_Z 22
_cell_length_a 17.927519
_cell_length_b 17.734647
_cell_length_c 5.125758
_cell_angle_alpha 90.000000
_cell_angle_beta 90.000000
_cell_angle_gamma 90.000000
_cell_volume 1629.674380
_symmetry_space_group_name_H-M "P M C 21"
_symmetry_group_IT_number 26
_symmetry_cell_setting 'orthorhombic'
loop_
_space_group_symop_operation_xyz
x,y,z
-x,-y,1/2+z
-x,y,z
x,-y,1/2+z
loop_
_atom_site_type_symbol
_atom_site_label
_atom_site_fract_x
_atom_site_fract_y
_atom_site_fract_z
Si Si1 0.653758 0.547961 0.223430
Si Si2 0.500000 0.450494 0.591872
Si Si3 0.814881 0.550440 0.135917
Si Si4 0.088990 0.955537 0.678713
Si Si5 0.911440 0.213854 0.164134
Si Si6 0.911469 0.304620 0.662856
O O1 0.651773 0.524198 0.526466
O O2 0.577551 0.595354 0.154212
O O3 0.732504 0.589467 0.165296
O O4 0.500000 0.477947 0.292950
O O5 0.824908 0.484874 0.349831
O O6 0.877384 0.612651 0.178832
O O7 0.121404 0.870725 0.673353
O O8 0.000000 0.953336 0.677212
O O9 0.119450 0.001628 0.432050
O O10 0.881833 0.261669 0.408003
O O11 0.000000 0.209342 0.171701
O O12 0.883460 0.255081 0.904979
O O13 0.000000 0.314494 0.662756
#
# Coordination Sequence:
#
# PCOD8167177 Si02
#       6
#     4   2   4   4   4   4
#     4   8  14  23  35  50  66  82 102 134 173 209
#     4   8  12  20  34  50  66  82  98 122 166 214
#     4  10  19  29  39  51  66  86 118 157 187 207
#     4   9  15  23  37  55  71  85 102 130 167 204
#     4   9  17  28  39  52  69  88 112 140 173 212
#     4  10  19  29  39  49  65  91 119 150 183 209
#
# _framework density 13.49963
#
# number of rings (size 3 to 8) (size 9 to 14) (size 15 to 20)
#    0.000    2.909    0.000    2.182    0.000    5.091 
#    0.000    0.000    0.000    0.000    0.000    0.000 
#    0.000    0.000    0.000    0.000    0.000    0.000 
#
# Total GULP energy -272558.805438 kJ/mol
# GULP energy per Si atom -12389.036611 kJ/mol
# Density = 1.346890 g / cm^3
# Si number density = 13.499630 Si / 1000 Ang^3
#
#
#
# Elastic Constant Matrix: (Units=GPa)
#
#
# Indices 1 2 3 4 5 6 
#
# 1 41.4558 28.7364 19.9128 0.0000 0.0000 0.0000
# 2 28.7364 61.1281 18.5254 0.0000 0.0000 0.0000
# 3 19.9128 18.5254 81.7806 0.0000 0.0000 0.0000
# 4 0.0000 0.0000 0.0000 19.6618 0.0000 0.0000
# 5 0.0000 0.0000 0.0000 0.0000 10.3680 0.0000
# 6 0.0000 0.0000 0.0000 0.0000 0.0000 0.3484
#
#
#
# Elastic Compliance Matrix: (Units=1/GPa)
#
#
# Indices 1 2 3 4 5 6 
#
# 1 0.038025 -0.016180 -0.005593 0.000000 0.000000 0.000000
# 2 -0.016180 0.024450 -0.001599 0.000000 0.000000 0.000000
# 3 -0.005593 -0.001599 0.013952 0.000000 0.000000 0.000000
# 4 0.000000 0.000000 0.000000 0.050860 0.000000 0.000000
# 5 0.000000 0.000000 0.000000 0.000000 0.096451 0.000000
# 6 0.000000 0.000000 0.000000 0.000000 0.000000 2.870124
#
#
# Mechanical properties :
#
#
# Convention : Reuss Voigt Hill
#
# Bulk Modulus (GPa) = 33.69088 35.41263 34.55176
# Shear Modulus (GPa) = 1.58705 13.88829 7.73767
#
# Velocity S-wave (km/s) = 1.08544 3.21096 2.39671
# Velocity P-wave (km/s) = 5.15577 6.32742 5.77140
#
# Compressibility (1/GPa) = 0.02968162
#
# Stress axis : x y z
#
# Youngs Moduli (GPa) = 26.29865 40.89969 71.67460
#
# Poissons Ratio (x) = 0.66177 0.40090
# Poissons Ratio (y) = 0.42552 0.11459
# Poissons Ratio (z) = 0.14710 0.06539
#
# Static dielectric constant tensor:
#      x y z
#    x 2.693010 0.000000 0.000000 
#    y 0.000000 2.446000 0.000000 
#    z 0.000000 0.000000 2.967560 
# 
# 
# High freq. dielectric constant tensor:
#      x y z
#    x 1.477600 0.000000 0.000000 
#    y 0.000000 1.469940 0.000000 
#    z 0.000000 0.000000 1.543820 
# 
# From -- ./inp_files/585.got.cif
#   From: 2010.03.12/outbox.cif.g09.slc.cpg/sg26_1_cif.got.tgz:585.got - 2010.04.14 03:33:09.
