data_PCOD8167248
_publ_section_title
;
Structure prediction by ZEFSAII (Michael W. Deem and Ramdas Pophale) SiO2 
 PCOD8167248
Probable space group: P M C 21
;
_chemical_formula_sum "Si O2"
_cell_formula_units_Z 12
_cell_length_a 13.850324
_cell_length_b 6.803646
_cell_length_c 5.315659
_cell_angle_alpha 90.000000
_cell_angle_beta 90.000000
_cell_angle_gamma 90.000000
_cell_volume 500.908908
_symmetry_space_group_name_H-M "P M C 21"
_symmetry_group_IT_number 26
_symmetry_cell_setting 'orthorhombic'
loop_
_space_group_symop_operation_xyz
x,y,z
-x,-y,1/2+z
-x,y,z
x,-y,1/2+z
loop_
_atom_site_type_symbol
_atom_site_label
_atom_site_fract_x
_atom_site_fract_y
_atom_site_fract_z
Si Si1 0.211608 0.273346 0.207970
Si Si2 0.706790 0.284127 0.707952
Si Si3 0.000000 0.378061 0.238128
Si Si4 0.500000 0.867887 0.204080
O O1 0.249648 0.497667 0.212050
O O2 0.253030 0.171286 0.460289
O O3 0.096078 0.250114 0.202044
O O4 0.254388 0.171371 0.957331
O O5 0.591071 0.278982 0.705952
O O6 0.000000 0.456736 0.522799
O O7 0.500000 0.002424 0.451958
#
# Coordination Sequence:
#
# PCOD8167248 Si02
#       4
#     4   4   2   2
#     4  10  19  32  57  92 113 139 163 220 286 332
#     4  10  20  35  54  80 112 139 183 224 275 324
#     4  12  16  30  52  92 128 136 162 196 282 368
#     4  12  26  42  56  74 102 154 202 234 264 308
#
# _framework density 23.956451000000001
#
# number of rings (size 3 to 8) (size 9 to 14) (size 15 to 20)
#    0.000    1.333    6.667    2.000    0.000    5.333 
#    0.000    0.000    0.000    0.000    0.000   39.667 
#    0.000    0.000    0.000    0.000    0.000    0.000 
#
# Total GULP energy -148689.982042 kJ/mol
# GULP energy per Si atom -12390.831837 kJ/mol
# Density = 2.390193 g / cm^3
# Si number density = 23.956451 Si / 1000 Ang^3
#
#
#
# Elastic Constant Matrix: (Units=GPa)
#
#
# Indices 1 2 3 4 5 6 
#
# 1 262.4712 14.9932 66.0350 0.0000 0.0000 0.0000
# 2 14.9932 46.3843 -13.4781 0.0000 0.0000 0.0000
# 3 66.0350 -13.4781 258.1651 0.0000 0.0000 0.0000
# 4 0.0000 0.0000 0.0000 -18.8308 0.0000 0.0000
# 5 0.0000 0.0000 0.0000 0.0000 46.3296 0.0000
# 6 0.0000 0.0000 0.0000 0.0000 0.0000 9.9483
#
#
#
# Elastic Compliance Matrix: (Units=1/GPa)
#
#
# Indices 1 2 3 4 5 6 
#
# 1 0.004199 -0.001695 -0.001163 0.000000 0.000000 0.000000
# 2 -0.001695 0.022575 0.001612 0.000000 0.000000 0.000000
# 3 -0.001163 0.001612 0.004255 0.000000 0.000000 0.000000
# 4 0.000000 0.000000 0.000000 -0.053104 0.000000 0.000000
# 5 0.000000 0.000000 0.000000 0.000000 0.021584 0.000000
# 6 0.000000 0.000000 0.000000 0.000000 0.000000 0.100520
#
#
# Mechanical properties :
#
#
# Convention : Reuss Voigt Hill
#
# Bulk Modulus (GPa) = 35.04033 78.01342 56.52687
# Shear Modulus (GPa) = 44.62946 40.78746 42.70846
#
# Velocity S-wave (km/s) = 4.32086 4.13069 4.22685
# Velocity P-wave (km/s) = 6.28900 7.44215 6.88974
#
# Compressibility (1/GPa) = 0.02853855
#
# Stress axis : x y z
#
# Youngs Moduli (GPa) = 238.13614 44.29594 235.01535
#
# Poissons Ratio (x) = 0.07509 0.27323
# Poissons Ratio (y) = 0.40369 -0.37889
# Poissons Ratio (z) = 0.27686 -0.07141
#
# Static dielectric constant tensor:
#      x y z
#    x 4.556530 0.000000 0.000000 
#    y 0.000000 3.468120 0.000000 
#    z 0.000000 0.000000 13.845370 
# 
# 
# High freq. dielectric constant tensor:
#      x y z
#    x 1.959760 0.000000 0.000000 
#    y 0.000000 1.904220 0.000000 
#    z 0.000000 0.000000 1.997510 
# 
# From -- ./inp_files/267.got.cif
#   From: 2010.03.12/outbox.cif.g09.slc.cpg/sg26_1_cif.got.tgz:267.got - 2010.04.14 03:33:09.
