data_PCOD8167777
_publ_section_title
;
Structure prediction by ZEFSAII (Michael W. Deem and Ramdas Pophale) SiO2 
 PCOD8167777
Probable space group: P M C 21
;
_chemical_formula_sum "Si O2"
_cell_formula_units_Z 32
_cell_length_a 9.122051
_cell_length_b 9.644662
_cell_length_c 20.954939
_cell_angle_alpha 90.000000
_cell_angle_beta 90.000000
_cell_angle_gamma 90.000000
_cell_volume 1843.596645
_symmetry_space_group_name_H-M "P M C 21"
_symmetry_group_IT_number 26
_symmetry_cell_setting 'orthorhombic'
loop_
_space_group_symop_operation_xyz
x,y,z
-x,-y,1/2+z
-x,y,z
x,-y,1/2+z
loop_
_atom_site_type_symbol
_atom_site_label
_atom_site_fract_x
_atom_site_fract_y
_atom_site_fract_z
Si Si1 0.338000 0.595687 0.272710
Si Si2 0.174717 0.568273 0.532759
Si Si3 0.171653 0.386130 0.650955
Si Si4 0.334112 0.925205 0.284766
Si Si5 0.170861 0.882046 0.545522
Si Si6 0.672869 0.601518 0.410768
Si Si7 0.171537 0.893142 0.405762
Si Si8 0.825690 0.069827 0.658802
O O1 0.500000 0.554130 0.250136
O O2 0.230626 0.546230 0.216729
O O3 0.327203 0.759850 0.283856
O O4 0.302929 0.525666 0.341879
O O5 0.228999 0.471381 0.590375
O O6 0.230257 0.724446 0.548223
O O7 0.260522 0.512434 0.469518
O O8 0.000000 0.560042 0.521578
O O9 0.223733 0.227376 0.644239
O O10 0.000000 0.398181 0.655368
O O11 0.500000 0.980955 0.283581
O O12 0.256824 0.977644 0.350397
O O13 0.247328 0.985296 0.223980
O O14 0.200386 0.955843 0.476717
O O15 0.000000 0.873920 0.558733
O O16 0.239518 0.976092 0.601507
O O17 0.500000 0.634259 0.420371
O O18 0.770549 0.738173 0.410157
O O19 0.000000 0.891361 0.388735
O O20 0.000000 0.059973 0.666000
#
# Coordination Sequence:
#
# PCOD8167777 Si02
#       8
#     4   4   4   4   4   4   4   4
#     4   8  15  26  40  59  84 109 136 170 209 246
#     4   9  17  29  43  63  88 112 137 173 214 252
#     4   9  17  27  43  65  86 107 138 175 210 246
#     4   9  16  26  40  62  88 111 138 177 214 248
#     4   8  15  27  44  63  85 110 138 170 209 253
#     4   9  16  26  41  63  86 110 141 178 212 248
#     4   9  15  25  42  63  85 112 142 176 214 252
#     4   9  16  28  45  64  84 111 142 173 208 251
#
# _framework density 17.357375999999999
#
# number of rings (size 3 to 8) (size 9 to 14) (size 15 to 20)
#    0.000    3.250    0.000    2.625    0.000    4.000 
#    0.000    3.125    0.000    1.500    0.000    8.750 
#    0.000    0.000    0.000    0.000    0.000    0.000 
#
# Total GULP energy -396463.691961 kJ/mol
# GULP energy per Si atom -12389.490374 kJ/mol
# Density = 1.731787 g / cm^3
# Si number density = 17.357376 Si / 1000 Ang^3
#
#
#
# Elastic Constant Matrix: (Units=GPa)
#
#
# Indices 1 2 3 4 5 6 
#
# 1 51.8604 11.3070 39.1199 0.0000 0.0000 0.0000
# 2 11.3070 23.9232 19.4782 0.0000 0.0000 0.0000
# 3 39.1199 19.4782 115.1905 0.0000 0.0000 0.0000
# 4 0.0000 0.0000 0.0000 24.0040 0.0000 0.0000
# 5 0.0000 0.0000 0.0000 0.0000 26.5307 0.0000
# 6 0.0000 0.0000 0.0000 0.0000 0.0000 8.3201
#
#
#
# Elastic Compliance Matrix: (Units=1/GPa)
#
#
# Indices 1 2 3 4 5 6 
#
# 1 0.026661 -0.006064 -0.008029 0.000000 0.000000 0.000000
# 2 -0.006064 0.049853 -0.006371 0.000000 0.000000 0.000000
# 3 -0.008029 -0.006371 0.012485 0.000000 0.000000 0.000000
# 4 0.000000 0.000000 0.000000 0.041660 0.000000 0.000000
# 5 0.000000 0.000000 0.000000 0.000000 0.037692 0.000000
# 6 0.000000 0.000000 0.000000 0.000000 0.000000 0.120191
#
#
# Mechanical properties :
#
#
# Convention : Reuss Voigt Hill
#
# Bulk Modulus (GPa) = 20.80178 36.75380 28.77779
# Shear Modulus (GPa) = 14.47202 19.84222 17.15712
#
# Velocity S-wave (km/s) = 2.89064 3.38473 3.14739
# Velocity P-wave (km/s) = 4.81160 6.04118 5.46111
#
# Compressibility (1/GPa) = 0.04807280
#
# Stress axis : x y z
#
# Youngs Moduli (GPa) = 37.50777 20.05879 80.09445
#
# Poissons Ratio (x) = 0.12163 0.64308
# Poissons Ratio (y) = 0.22744 0.51025
# Poissons Ratio (z) = 0.30115 0.12779
#
# Static dielectric constant tensor:
#      x y z
#    x 3.163830 0.000000 0.000000 
#    y 0.000000 2.815280 0.000000 
#    z 0.000000 0.000000 3.919360 
# 
# 
# High freq. dielectric constant tensor:
#      x y z
#    x 1.662100 0.000000 0.000000 
#    y 0.000000 1.598350 0.000000 
#    z 0.000000 0.000000 1.696540 
# 
# From -- ./inp_files/5051.got.cif
#   From: 2010.03.12/outbox.cif.g09.slc.cpg/sg26_3_cif.got.tgz:5051.got - 2010.04.14 03:33:09.
