data_PCOD8167677
_publ_section_title
;
Structure prediction by ZEFSAII (Michael W. Deem and Ramdas Pophale) SiO2 
 PCOD8167677
Probable space group: P M C 21
;
_chemical_formula_sum "Si O2"
_cell_formula_units_Z 22
_cell_length_a 24.008400
_cell_length_b 7.748438
_cell_length_c 5.212686
_cell_angle_alpha 90.000000
_cell_angle_beta 90.000000
_cell_angle_gamma 90.000000
_cell_volume 969.703460
_symmetry_space_group_name_H-M "P M C 21"
_symmetry_group_IT_number 26
_symmetry_cell_setting 'orthorhombic'
loop_
_space_group_symop_operation_xyz
x,y,z
-x,-y,1/2+z
-x,y,z
x,-y,1/2+z
loop_
_atom_site_type_symbol
_atom_site_label
_atom_site_fract_x
_atom_site_fract_y
_atom_site_fract_z
Si Si1 0.656145 0.609760 0.384200
Si Si2 0.713663 0.069683 0.763704
Si Si3 0.563471 0.108169 0.908771
Si Si4 0.000000 0.115552 0.325295
Si Si5 0.837301 0.923375 0.749009
Si Si6 0.098684 0.386528 0.323217
O O1 0.657160 0.539559 0.672731
O O2 0.711511 0.727565 0.332708
O O3 0.601917 0.727408 0.350582
O O4 0.682129 0.033544 0.493387
O O5 0.774527 0.990739 0.707926
O O6 0.500000 0.173593 0.886982
O O7 0.575468 0.034651 0.191527
O O8 0.946824 0.238168 0.291771
O O9 0.000000 0.028337 0.604321
O O10 0.842245 0.716479 0.794502
O O11 0.867604 0.975851 0.482826
O O12 0.093222 0.472105 0.601204
#
# Coordination Sequence:
#
# PCOD8167677 Si02
#       6
#     4   4   4   2   4   4
#     4  12  24  38  60  92 124 156 197 256 313 350
#     4  10  21  41  63  82 115 162 207 247 294 366
#     4  10  21  39  63  88 118 162 205 239 292 371
#     4  12  24  42  68  94 126 172 208 236 294 376
#     4  10  21  41  63  86 118 164 206 243 299 368
#     4  12  24  41  64  97 130 157 201 261 308 346
#
# _framework density 22.687349000000001
#
# number of rings (size 3 to 8) (size 9 to 14) (size 15 to 20)
#    0.000    1.091    0.000    7.091    0.000    0.727 
#    0.000   21.818    0.000    0.000    0.000    0.000 
#    0.000    0.000    0.000    0.000    0.000    0.000 
#
# Total GULP energy -272656.904748 kJ/mol
# GULP energy per Si atom -12393.495670 kJ/mol
# Density = 2.263571 g / cm^3
# Si number density = 22.687349 Si / 1000 Ang^3
#
#
#
# Elastic Constant Matrix: (Units=GPa)
#
#
# Indices 1 2 3 4 5 6 
#
# 1 70.7807 27.5894 -10.7673 0.0000 0.0000 0.0000
# 2 27.5894 102.0959 18.7292 0.0000 0.0000 0.0000
# 3 -10.7673 18.7292 152.8673 0.0000 0.0000 0.0000
# 4 0.0000 0.0000 0.0000 58.3427 0.0000 0.0000
# 5 0.0000 0.0000 0.0000 0.0000 9.1465 0.0000
# 6 0.0000 0.0000 0.0000 0.0000 0.0000 44.0566
#
#
#
# Elastic Compliance Matrix: (Units=1/GPa)
#
#
# Indices 1 2 3 4 5 6 
#
# 1 0.016221 -0.004699 0.001718 0.000000 0.000000 0.000000
# 2 -0.004699 0.011381 -0.001725 0.000000 0.000000 0.000000
# 3 0.001718 -0.001725 0.006874 0.000000 0.000000 0.000000
# 4 0.000000 0.000000 0.000000 0.017140 0.000000 0.000000
# 5 0.000000 0.000000 0.000000 0.000000 0.109332 0.000000
# 6 0.000000 0.000000 0.000000 0.000000 0.000000 0.022698
#
#
# Mechanical properties :
#
#
# Convention : Reuss Voigt Hill
#
# Bulk Modulus (GPa) = 39.89711 44.09406 41.99559
# Shear Modulus (GPa) = 24.82470 41.65533 33.24001
#
# Velocity S-wave (km/s) = 3.31147 4.28958 3.83186
# Velocity P-wave (km/s) = 5.67846 6.63413 6.17481
#
# Compressibility (1/GPa) = 0.02506447
#
# Stress axis : x y z
#
# Youngs Moduli (GPa) = 61.64861 87.86634 145.47507
#
# Poissons Ratio (x) = 0.41285 -0.24996
# Poissons Ratio (y) = 0.28966 0.25099
# Poissons Ratio (z) = -0.10592 0.15160
#
# Static dielectric constant tensor:
#      x y z
#    x 4.374750 0.000000 0.000000 
#    y 0.000000 4.077180 0.000000 
#    z 0.000000 0.000000 5.018980 
# 
# 
# High freq. dielectric constant tensor:
#      x y z
#    x 1.890450 0.000000 0.000000 
#    y 0.000000 1.886740 0.000000 
#    z 0.000000 0.000000 1.935040 
# 
# From -- ./inp_files/1084.got.cif
#   From: 2010.03.12/outbox.cif.g09.slc.cpg/sg26_1_cif.got.tgz:1084.got - 2010.04.14 03:33:09.
