data_PCOD8167593
_publ_section_title
;
Structure prediction by ZEFSAII (Michael W. Deem and Ramdas Pophale) SiO2 
 PCOD8167593
Probable space group: P M C 21
;
_chemical_formula_sum "Si O2"
_cell_formula_units_Z 32
_cell_length_a 9.243401
_cell_length_b 14.402778
_cell_length_c 12.163178
_cell_angle_alpha 90.000000
_cell_angle_beta 90.000000
_cell_angle_gamma 90.000000
_cell_volume 1619.291824
_symmetry_space_group_name_H-M "P M C 21"
_symmetry_group_IT_number 26
_symmetry_cell_setting 'orthorhombic'
loop_
_space_group_symop_operation_xyz
x,y,z
-x,-y,1/2+z
-x,y,z
x,-y,1/2+z
loop_
_atom_site_type_symbol
_atom_site_label
_atom_site_fract_x
_atom_site_fract_y
_atom_site_fract_z
Si Si1 0.827723 0.138034 0.641020
Si Si2 0.169355 0.353243 0.161279
Si Si3 0.334528 0.740459 0.979672
Si Si4 0.337491 0.561889 0.847951
Si Si5 0.334439 0.963469 0.572421
Si Si6 0.663120 0.184784 0.246182
Si Si7 0.337925 0.635461 0.450150
Si Si8 0.332617 0.836039 0.364153
O O1 0.769228 0.230487 0.580011
O O2 0.766620 0.129968 0.764228
O O3 0.000000 0.139679 0.644272
O O4 0.772039 0.050868 0.569315
O O5 0.229986 0.427085 0.247138
O O6 0.225828 0.250640 0.184347
O O7 0.000000 0.353818 0.168207
O O8 0.219747 0.383713 0.041893
O O9 0.500000 0.746396 0.020771
O O10 0.294545 0.634452 0.945148
O O11 0.308891 0.811538 0.877055
O O12 0.500000 0.589196 0.811455
O O13 0.328715 0.454446 0.874926
O O14 0.500000 0.997274 0.557478
O O15 0.314993 0.916377 0.693008
O O16 0.292248 0.892661 0.474631
O O17 0.500000 0.219444 0.221291
O O18 0.500000 0.646177 0.499891
O O19 0.299143 0.727367 0.381832
O O20 0.500000 0.852184 0.332755
#
# Coordination Sequence:
#
# PCOD8167593 Si02
#       8
#     4   4   4   4   4   4   4   4
#     4  12  27  41  57  87 130 168 198 245 305 372
#     4  11  21  33  54  86 124 158 190 240 307 370
#     4   9  19  38  62  88 118 156 204 252 298 352
#     4   9  20  38  63  89 116 157 211 260 298 350
#     4  10  21  40  66  91 114 151 204 256 300 354
#     4   9  18  37  64  88 110 145 201 256 296 346
#     4  10  20  39  65  90 116 154 207 259 301 351
#     4  10  22  42  67  91 118 155 203 254 303 359
#
# _framework density 19.761725999999999
#
# number of rings (size 3 to 8) (size 9 to 14) (size 15 to 20)
#    0.000    2.000    1.250    3.000    1.750    5.000 
#    0.000    5.000    0.000    0.000    0.000    0.000 
#    0.000    0.000    0.000    0.000    0.000    0.000 
#
# Total GULP energy -396769.498641 kJ/mol
# GULP energy per Si atom -12399.046833 kJ/mol
# Density = 1.971675 g / cm^3
# Si number density = 19.761726 Si / 1000 Ang^3
#
#
#
# Elastic Constant Matrix: (Units=GPa)
#
#
# Indices 1 2 3 4 5 6 
#
# 1 126.1208 42.4724 49.3066 0.0000 0.0000 0.0000
# 2 42.4724 104.4654 33.0045 0.0000 0.0000 0.0000
# 3 49.3066 33.0045 79.0727 0.0000 0.0000 0.0000
# 4 0.0000 0.0000 0.0000 16.6480 0.0000 0.0000
# 5 0.0000 0.0000 0.0000 0.0000 12.8493 0.0000
# 6 0.0000 0.0000 0.0000 0.0000 0.0000 9.7515
#
#
#
# Elastic Compliance Matrix: (Units=1/GPa)
#
#
# Indices 1 2 3 4 5 6 
#
# 1 0.011100 -0.002679 -0.005803 0.000000 0.000000 0.000000
# 2 -0.002679 0.011673 -0.003202 0.000000 0.000000 0.000000
# 3 -0.005803 -0.003202 0.017602 0.000000 0.000000 0.000000
# 4 0.000000 0.000000 0.000000 0.060067 0.000000 0.000000
# 5 0.000000 0.000000 0.000000 0.000000 0.077825 0.000000
# 6 0.000000 0.000000 0.000000 0.000000 0.000000 0.102548
#
#
# Mechanical properties :
#
#
# Convention : Reuss Voigt Hill
#
# Bulk Modulus (GPa) = 58.80095 62.13622 60.46859
# Shear Modulus (GPa) = 16.13669 20.17478 18.15573
#
# Velocity S-wave (km/s) = 2.86066 3.19862 3.03435
# Velocity P-wave (km/s) = 6.38206 6.71956 6.55299
#
# Compressibility (1/GPa) = 0.01700653
#
# Stress axis : x y z
#
# Youngs Moduli (GPa) = 90.09045 85.66447 56.81333
#
# Poissons Ratio (x) = 0.22954 0.32969
# Poissons Ratio (y) = 0.24140 0.18189
# Poissons Ratio (z) = 0.52280 0.27426
#
# Static dielectric constant tensor:
#      x y z
#    x 3.438950 0.000000 0.000000 
#    y 0.000000 3.569290 0.000000 
#    z 0.000000 0.000000 3.558010 
# 
# 
# High freq. dielectric constant tensor:
#      x y z
#    x 1.751340 0.000000 0.000000 
#    y 0.000000 1.772330 0.000000 
#    z 0.000000 0.000000 1.767260 
# 
# From -- ./inp_files/3000.got.cif
#   From: 2010.03.12/outbox.cif.g09.slc.cpg/sg26_2_cif.got.tgz:3000.got - 2010.04.14 03:33:09.
