data_PCOD8167851
_publ_section_title
;
Structure prediction by ZEFSAII (Michael W. Deem and Ramdas Pophale) SiO2 
 PCOD8167851
Probable space group: P C C 2
;
_chemical_formula_sum "Si O2"
_cell_formula_units_Z 32
_cell_length_a 14.171711
_cell_length_b 8.842967
_cell_length_c 14.158172
_cell_angle_alpha 90.000000
_cell_angle_beta 90.000000
_cell_angle_gamma 90.000000
_cell_volume 1774.301729
_symmetry_space_group_name_H-M "P C C 2"
_symmetry_group_IT_number 27
_symmetry_cell_setting 'orthorhombic'
loop_
_space_group_symop_operation_xyz
x,y,z
-x,-y,z
-x,y,1/2+z
x,-y,1/2+z
loop_
_atom_site_type_symbol
_atom_site_label
_atom_site_fract_x
_atom_site_fract_y
_atom_site_fract_z
Si Si1 0.654571 0.178641 0.026540
Si Si2 0.654571 0.821359 0.026540
Si Si3 0.000000 0.821805 0.881939
Si Si4 0.856595 0.323451 0.019280
Si Si5 0.500000 0.179110 0.380678
Si Si6 0.856595 0.323451 0.519280
Si Si7 0.500000 0.179082 0.672398
Si Si8 1.000000 0.325416 0.680515
O O1 0.750056 0.270922 0.027699
O O2 0.594556 0.229233 0.118059
O O3 0.675499 1.000000 0.026464
O O4 0.594669 0.229270 0.934905
O O5 0.750056 0.729078 0.027699
O O6 0.594555 0.770767 0.118059
O O7 0.594669 0.770730 0.934905
O O8 0.000000 0.778119 0.772304
O O9 0.906137 0.759544 0.931807
O O10 0.000000 0.000000 0.890586
O O11 0.093863 0.759544 0.931807
O O12 0.862221 0.500000 0.997181
O O13 0.908186 0.286089 0.117873
O O14 0.500000 0.252742 0.276540
O O15 0.500000 0.000000 0.375366
O O16 0.908186 0.286089 0.617873
O O17 0.500000 0.000000 0.677982
O O18 0.000000 0.500000 0.711764
#
# Coordination Sequence:
#
# PCOD8167851 Si02
#       8
#     4   4   4   4   4   4   4   4
#     4   9  17  30  50  75 100 130 174 218 252 297
#     4   9  17  30  50  75 100 130 174 218 252 297
#     4  11  22  36  57  81 103 131 173 221 260 304
#     4  10  21  37  55  76 108 143 171 208 260 316
#     4   8  15  29  48  72 102 134 168 211 260 299
#     4  10  21  37  55  76 108 143 171 208 260 316
#     4   8  15  29  48  70 100 134 168 213 260 297
#     4   9  20  38  55  73 103 141 173 207 260 316
#
# _framework density 18.035264999999999
#
# number of rings (size 3 to 8) (size 9 to 14) (size 15 to 20)
#    0.000    2.750    0.000    4.125    0.000    5.000 
#    0.000    5.000    0.000    1.500    0.000    0.000 
#    0.000    0.000    0.000    0.000    0.000    0.000 
#
# Total GULP energy -396754.823723 kJ/mol
# GULP energy per Si atom -12398.588241 kJ/mol
# Density = 1.799422 g / cm^3
# Si number density = 18.035265 Si / 1000 Ang^3
#
#
#
# Elastic Constant Matrix: (Units=GPa)
#
#
# Indices 1 2 3 4 5 6 
#
# 1 163.8720 51.6647 79.4017 0.0000 0.0000 0.0000
# 2 51.6647 84.2901 53.6268 0.0000 0.0000 0.0000
# 3 79.4017 53.6268 163.0315 0.0000 0.0000 0.0000
# 4 0.0000 0.0000 0.0000 21.8823 0.0000 0.0000
# 5 0.0000 0.0000 0.0000 0.0000 12.2846 0.0000
# 6 0.0000 0.0000 0.0000 0.0000 0.0000 25.9744
#
#
#
# Elastic Compliance Matrix: (Units=1/GPa)
#
#
# Indices 1 2 3 4 5 6 
#
# 1 0.008665 -0.003321 -0.003128 0.000000 0.000000 0.000000
# 2 -0.003321 0.016277 -0.003736 0.000000 0.000000 0.000000
# 3 -0.003128 -0.003736 0.008886 0.000000 0.000000 0.000000
# 4 0.000000 0.000000 0.000000 0.045699 0.000000 0.000000
# 5 0.000000 0.000000 0.000000 0.000000 0.081403 0.000000
# 6 0.000000 0.000000 0.000000 0.000000 0.000000 0.038499
#
#
# Mechanical properties :
#
#
# Convention : Reuss Voigt Hill
#
# Bulk Modulus (GPa) = 74.31013 86.73112 80.52062
# Shear Modulus (GPa) = 22.29306 27.12827 24.71067
#
# Velocity S-wave (km/s) = 3.51961 3.88258 3.70554
# Velocity P-wave (km/s) = 7.60322 8.26398 7.94048
#
# Compressibility (1/GPa) = 0.01345712
#
# Stress axis : x y z
#
# Youngs Moduli (GPa) = 115.40889 61.43760 112.53551
#
# Poissons Ratio (x) = 0.20405 0.35197
# Poissons Ratio (y) = 0.38329 0.42048
# Poissons Ratio (z) = 0.36095 0.22956
#
# Static dielectric constant tensor:
#      x y z
#    x 3.381650 0.000000 0.000000 
#    y 0.000000 3.053380 0.000000 
#    z 0.000000 0.000000 3.844960 
# 
# 
# High freq. dielectric constant tensor:
#      x y z
#    x 1.703500 0.000000 0.000000 
#    y 0.000000 1.676130 0.000000 
#    z 0.000000 0.000000 1.704550 
# 
# From -- ./inp_files/3737.got.cif
#   From: 2010.03.12/outbox.cif.g09.slc.cpg/sg27_2_cif.got.tgz:3737.got - 2010.04.14 03:36:05.
