data_PCOD8167404
_publ_section_title
;
Structure prediction by ZEFSAII (Michael W. Deem and Ramdas Pophale) SiO2 
 PCOD8167404
Probable space group: P M C 21
;
_chemical_formula_sum "Si O2"
_cell_formula_units_Z 32
_cell_length_a 8.862673
_cell_length_b 16.209173
_cell_length_c 10.814387
_cell_angle_alpha 90.000000
_cell_angle_beta 90.000000
_cell_angle_gamma 90.000000
_cell_volume 1553.558066
_symmetry_space_group_name_H-M "P M C 21"
_symmetry_group_IT_number 26
_symmetry_cell_setting 'orthorhombic'
loop_
_space_group_symop_operation_xyz
x,y,z
-x,-y,1/2+z
-x,y,z
x,-y,1/2+z
loop_
_atom_site_type_symbol
_atom_site_label
_atom_site_fract_x
_atom_site_fract_y
_atom_site_fract_z
Si Si1 0.678040 0.244881 0.834720
Si Si2 0.671542 0.474440 0.472463
Si Si3 0.329130 0.658892 0.758080
Si Si4 0.832159 0.649499 0.131642
Si Si5 0.822849 0.636775 0.508409
Si Si6 0.832251 0.781074 0.918757
Si Si7 0.321339 0.061250 0.784008
Si Si8 0.679186 0.054800 0.505767
O O1 0.500000 0.243221 0.851848
O O2 0.721741 0.308878 0.728977
O O3 0.740919 0.153919 0.802509
O O4 0.755353 0.276545 0.960299
O O5 0.500000 0.493318 0.512484
O O6 0.676708 0.411202 0.360664
O O7 0.759108 0.436951 0.590595
O O8 0.752585 0.559572 0.432701
O O9 0.500000 0.673572 0.712525
O O10 0.223186 0.626211 0.649963
O O11 0.265328 0.747048 0.804280
O O12 0.000000 0.634253 0.187951
O O13 0.846806 0.707819 0.014701
O O14 0.000000 0.636795 0.491714
O O15 0.746908 0.856050 0.982180
O O16 0.000000 0.807941 0.874497
O O17 0.500000 0.061755 0.792202
O O18 0.272700 0.027789 0.646648
O O19 0.257791 0.006179 0.898220
O O20 0.500000 0.061619 0.498351
#
# Coordination Sequence:
#
# PCOD8167404 Si02
#       8
#     4   4   4   4   4   4   4   4
#     4  11  22  39  61  88 121 163 212 258 308 372
#     4  10  22  40  63  89 117 156 204 252 303 363
#     4  10  22  41  63  87 117 157 206 256 304 365
#     4  10  20  36  60  88 119 155 198 248 303 362
#     4  12  26  41  59  87 126 163 201 254 317 376
#     4  10  20  36  60  90 120 154 196 246 309 372
#     4   9  20  36  61  91 123 160 214 270 320 376
#     4  10  19  37  61  90 121 162 211 264 318 378
#
# _framework density 20.597878000000001
#
# number of rings (size 3 to 8) (size 9 to 14) (size 15 to 20)
#    0.000    1.750    1.250    3.000    1.750    3.500 
#    0.000    4.375    0.000    0.000    0.000    0.000 
#    0.000    0.000    0.000    0.000    0.000    0.000 
#
# Total GULP energy -396762.813666 kJ/mol
# GULP energy per Si atom -12398.837927 kJ/mol
# Density = 2.055100 g / cm^3
# Si number density = 20.597878 Si / 1000 Ang^3
#
#
#
# Elastic Constant Matrix: (Units=GPa)
#
#
# Indices 1 2 3 4 5 6 
#
# 1 108.8029 37.2340 36.9746 0.0000 0.0000 0.0000
# 2 37.2340 84.5802 46.4617 0.0000 0.0000 0.0000
# 3 36.9746 46.4617 92.8555 0.0000 0.0000 0.0000
# 4 0.0000 0.0000 0.0000 29.0798 0.0000 0.0000
# 5 0.0000 0.0000 0.0000 0.0000 25.0521 0.0000
# 6 0.0000 0.0000 0.0000 0.0000 0.0000 20.1107
#
#
#
# Elastic Compliance Matrix: (Units=1/GPa)
#
#
# Indices 1 2 3 4 5 6 
#
# 1 0.011318 -0.003457 -0.002777 0.000000 0.000000 0.000000
# 2 -0.003457 0.017360 -0.007310 0.000000 0.000000 0.000000
# 3 -0.002777 -0.007310 0.015533 0.000000 0.000000 0.000000
# 4 0.000000 0.000000 0.000000 0.034388 0.000000 0.000000
# 5 0.000000 0.000000 0.000000 0.000000 0.039917 0.000000
# 6 0.000000 0.000000 0.000000 0.000000 0.000000 0.049725
#
#
# Mechanical properties :
#
#
# Convention : Reuss Voigt Hill
#
# Bulk Modulus (GPa) = 58.40007 58.61991 58.50999
# Shear Modulus (GPa) = 24.87113 25.88639 25.37876
#
# Velocity S-wave (km/s) = 3.47862 3.54891 3.51394
# Velocity P-wave (km/s) = 6.67446 6.73157 6.70308
#
# Compressibility (1/GPa) = 0.01712327
#
# Stress axis : x y z
#
# Youngs Moduli (GPa) = 88.35795 57.60215 64.37949
#
# Poissons Ratio (x) = 0.19912 0.17878
# Poissons Ratio (y) = 0.30544 0.47062
# Poissons Ratio (z) = 0.24536 0.42108
#
# Static dielectric constant tensor:
#      x y z
#    x 3.812010 0.000000 0.000000 
#    y 0.000000 3.799290 0.000000 
#    z 0.000000 0.000000 3.875020 
# 
# 
# High freq. dielectric constant tensor:
#      x y z
#    x 1.800750 0.000000 0.000000 
#    y 0.000000 1.800400 0.000000 
#    z 0.000000 0.000000 1.806420 
# 
# From -- ./inp_files/3014.got.cif
#   From: 2010.03.12/outbox.cif.g09.slc.cpg/sg26_2_cif.got.tgz:3014.got - 2010.04.14 03:33:09.
