data_PCOD8167924
_publ_section_title
;
Structure prediction by ZEFSAII (Michael W. Deem and Ramdas Pophale) SiO2 
 PCOD8167924
Probable space group: P C C 2
;
_chemical_formula_sum "Si O2"
_cell_formula_units_Z 32
_cell_length_a 8.827394
_cell_length_b 11.456936
_cell_length_c 14.535447
_cell_angle_alpha 90.000000
_cell_angle_beta 90.000000
_cell_angle_gamma 90.000000
_cell_volume 1470.040806
_symmetry_space_group_name_H-M "P C C 2"
_symmetry_group_IT_number 27
_symmetry_cell_setting 'orthorhombic'
loop_
_space_group_symop_operation_xyz
x,y,z
-x,-y,z
-x,y,1/2+z
x,-y,1/2+z
loop_
_atom_site_type_symbol
_atom_site_label
_atom_site_fract_x
_atom_site_fract_y
_atom_site_fract_z
Si Si1 0.819918 0.373837 0.121850
Si Si2 0.828454 0.977408 0.036807
Si Si3 0.828641 0.487333 0.443196
Si Si4 0.823540 0.991217 0.326895
Si Si5 0.330065 0.139071 0.683266
Si Si6 0.346816 0.216993 0.236542
Si Si7 0.849215 0.711309 0.079596
Si Si8 0.335256 0.535339 0.764177
O O1 0.712317 0.268307 0.151479
O O2 0.786765 0.487952 0.186353
O O3 0.991553 0.325035 0.127117
O O4 0.790146 0.409445 0.015857
O O5 0.782765 0.017518 0.934351
O O6 0.824438 0.840457 0.042465
O O7 0.000000 0.000000 0.065644
O O8 0.713304 0.042654 0.106194
O O9 0.811072 0.364516 0.492239
O O10 0.714062 0.476557 0.359217
O O11 0.000000 0.500000 0.405647
O O12 0.747883 0.104161 0.279756
O O13 0.772566 0.872718 0.277813
O O14 0.000000 0.000000 0.311248
O O15 0.508743 0.142248 0.704460
O O16 0.280580 0.298406 0.154855
O O17 0.361118 0.329816 0.300991
O O18 0.500000 0.500000 0.728032
#
# Coordination Sequence:
#
# PCOD8167924 Si02
#       8
#     4   4   4   4   4   4   4   4
#     4  11  24  46  71 100 140 187 236 295 349 419
#     4  11  24  44  74 104 135 187 238 289 359 418
#     4  10  26  43  69 106 137 181 243 294 346 419
#     4  11  26  46  70 105 140 185 243 296 351 425
#     4  12  24  46  68 103 145 185 233 291 355 429
#     4  12  26  45  71 101 144 188 233 286 361 421
#     4  11  23  45  71 100 136 184 239 291 351 415
#     4  12  27  46  70 107 144 191 231 288 366 425
#
# _framework density 21.768104000000001
#
# number of rings (size 3 to 8) (size 9 to 14) (size 15 to 20)
#    0.000    0.750    5.000    1.500    5.250    2.500 
#    4.500    0.000    0.000    0.000    0.000    0.000 
#    0.000    0.000    0.000    0.000    0.000    0.000 
#
# Total GULP energy -396467.140225 kJ/mol
# GULP energy per Si atom -12389.598132 kJ/mol
# Density = 2.171856 g / cm^3
# Si number density = 21.768104 Si / 1000 Ang^3
#
#
#
# Elastic Constant Matrix: (Units=GPa)
#
#
# Indices 1 2 3 4 5 6 
#
# 1 112.9264 42.3227 59.4258 0.0000 0.0000 0.0000
# 2 42.3227 131.2449 20.8831 0.0000 0.0000 0.0000
# 3 59.4258 20.8831 100.4164 0.0000 0.0000 0.0000
# 4 0.0000 0.0000 0.0000 18.8833 0.0000 0.0000
# 5 0.0000 0.0000 0.0000 0.0000 14.0734 0.0000
# 6 0.0000 0.0000 0.0000 0.0000 0.0000 13.6327
#
#
#
# Elastic Compliance Matrix: (Units=1/GPa)
#
#
# Indices 1 2 3 4 5 6 
#
# 1 0.014148 -0.003341 -0.007678 0.000000 0.000000 0.000000
# 2 -0.003341 0.008669 0.000174 0.000000 0.000000 0.000000
# 3 -0.007678 0.000174 0.014466 0.000000 0.000000 0.000000
# 4 0.000000 0.000000 0.000000 0.052957 0.000000 0.000000
# 5 0.000000 0.000000 0.000000 0.000000 0.071056 0.000000
# 6 0.000000 0.000000 0.000000 0.000000 0.000000 0.073353
#
#
# Mechanical properties :
#
#
# Convention : Reuss Voigt Hill
#
# Bulk Modulus (GPa) = 64.12705 65.53900 64.83302
# Shear Modulus (GPa) = 19.11791 24.11495 21.61643
#
# Velocity S-wave (km/s) = 2.96675 3.33199 3.15466
# Velocity P-wave (km/s) = 6.42329 6.70642 6.56638
#
# Compressibility (1/GPa) = 0.01559404
#
# Stress axis : x y z
#
# Youngs Moduli (GPa) = 70.68345 115.35529 69.12781
#
# Poissons Ratio (x) = 0.38535 0.53074
# Poissons Ratio (y) = 0.23612 -0.01203
# Poissons Ratio (z) = 0.54269 -0.02008
#
# Static dielectric constant tensor:
#      x y z
#    x 3.942460 0.000000 0.000000 
#    y 0.000000 4.204680 0.000000 
#    z 0.000000 0.000000 4.229880 
# 
# 
# High freq. dielectric constant tensor:
#      x y z
#    x 1.851290 0.000000 0.000000 
#    y 0.000000 1.883380 0.000000 
#    z 0.000000 0.000000 1.854050 
# 
# From -- ./inp_files/3460.got.cif
#   From: 2010.03.12/outbox.cif.g09.slc.cpg/sg27_2_cif.got.tgz:3460.got - 2010.04.14 03:36:05.
