data_PCOD8167569
_publ_section_title
;
Structure prediction by ZEFSAII (Michael W. Deem and Ramdas Pophale) SiO2 
 PCOD8167569
Probable space group: P M C 21
;
_chemical_formula_sum "Si O2"
_cell_formula_units_Z 32
_cell_length_a 10.651208
_cell_length_b 16.712968
_cell_length_c 8.875976
_cell_angle_alpha 90.000000
_cell_angle_beta 90.000000
_cell_angle_gamma 90.000000
_cell_volume 1580.041765
_symmetry_space_group_name_H-M "P M C 21"
_symmetry_group_IT_number 26
_symmetry_cell_setting 'orthorhombic'
loop_
_space_group_symop_operation_xyz
x,y,z
-x,-y,1/2+z
-x,y,z
x,-y,1/2+z
loop_
_atom_site_type_symbol
_atom_site_label
_atom_site_fract_x
_atom_site_fract_y
_atom_site_fract_z
Si Si1 0.143640 0.766978 0.445250
Si Si2 0.142189 0.406601 0.061868
Si Si3 0.721625 0.500094 0.316327
Si Si4 0.143640 0.266979 0.597197
Si Si5 0.636264 0.888734 0.476849
Si Si6 0.278375 0.999907 0.226123
Si Si7 0.857811 0.906602 0.980583
Si Si8 0.636264 0.611266 0.065598
O O1 0.167362 0.687282 0.540371
O O2 0.168448 0.749997 0.271224
O O3 0.244720 0.831160 0.503146
O O4 0.000000 0.798499 0.468841
O O5 0.223929 0.435587 0.200991
O O6 0.000000 0.423362 0.104845
O O7 0.169576 0.454545 0.908333
O O8 0.644308 0.567010 0.226139
O O9 0.632664 0.453791 0.432321
O O10 0.167362 0.187282 0.502080
O O11 0.244720 0.331161 0.539297
O O12 0.000000 0.298500 0.573603
O O13 0.500000 0.844062 0.479732
O O14 0.632665 0.953789 0.610128
O O15 0.644306 0.932991 0.316309
O O16 0.223930 0.064414 0.341460
O O17 0.169577 0.954545 0.134118
O O18 0.000000 0.923363 0.937605
O O19 0.500000 0.655938 0.062715
#
# Coordination Sequence:
#
# PCOD8167569 Si02
#       8
#     4   4   4   4   4   4   4   4
#     4  10  21  39  60  89 123 156 196 247 295 354
#     4  10  20  37  61  89 121 155 196 244 300 353
#     4  10  22  38  59  89 118 155 200 249 292 351
#     4  10  21  39  60  89 123 156 196 247 295 354
#     4  11  23  41  62  87 119 160 200 244 297 354
#     4  10  22  38  59  89 118 155 200 249 292 351
#     4  10  20  37  61  89 121 155 196 244 300 353
#     4  11  23  41  62  87 119 160 200 244 297 354
#
# _framework density 20.252628000000001
#
# number of rings (size 3 to 8) (size 9 to 14) (size 15 to 20)
#    0.000    1.750    2.500    1.500    0.000    6.500 
#    0.000    6.250    0.000    0.000    0.000    0.000 
#    0.000    0.000    0.000    0.000    0.000    0.000 
#
# Total GULP energy -396734.114173 kJ/mol
# GULP energy per Si atom -12397.941068 kJ/mol
# Density = 2.020653 g / cm^3
# Si number density = 20.252628 Si / 1000 Ang^3
#
#
#
# Elastic Constant Matrix: (Units=GPa)
#
#
# Indices 1 2 3 4 5 6 
#
# 1 130.3123 53.9531 18.7665 0.0000 0.0000 0.0000
# 2 53.9531 80.0403 19.6974 0.0000 0.0000 0.0000
# 3 18.7665 19.6974 79.7971 0.0000 0.0000 0.0000
# 4 0.0000 0.0000 0.0000 26.3737 0.0000 0.0000
# 5 0.0000 0.0000 0.0000 0.0000 5.2709 0.0000
# 6 0.0000 0.0000 0.0000 0.0000 0.0000 24.0169
#
#
#
# Elastic Compliance Matrix: (Units=1/GPa)
#
#
# Indices 1 2 3 4 5 6 
#
# 1 0.010690 -0.007013 -0.000783 0.000000 0.000000 0.000000
# 2 -0.007013 0.017903 -0.002770 0.000000 0.000000 0.000000
# 3 -0.000783 -0.002770 0.013400 0.000000 0.000000 0.000000
# 4 0.000000 0.000000 0.000000 0.037917 0.000000 0.000000
# 5 0.000000 0.000000 0.000000 0.000000 0.189721 0.000000
# 6 0.000000 0.000000 0.000000 0.000000 0.000000 0.041637
#
#
# Mechanical properties :
#
#
# Convention : Reuss Voigt Hill
#
# Bulk Modulus (GPa) = 47.93731 52.77596 50.35664
# Shear Modulus (GPa) = 14.73389 24.31447 19.52418
#
# Velocity S-wave (km/s) = 2.70016 3.46867 3.10825
# Velocity P-wave (km/s) = 5.78292 6.49289 6.14816
#
# Compressibility (1/GPa) = 0.02086058
#
# Stress axis : x y z
#
# Youngs Moduli (GPa) = 93.54195 55.85676 74.62901
#
# Poissons Ratio (x) = 0.39175 0.05843
# Poissons Ratio (y) = 0.65605 0.20671
# Poissons Ratio (z) = 0.07324 0.15471
#
# Static dielectric constant tensor:
#      x y z
#    x 3.579090 0.000000 0.000000 
#    y 0.000000 3.663460 0.000000 
#    z 0.000000 0.000000 3.712820 
# 
# 
# High freq. dielectric constant tensor:
#      x y z
#    x 1.788320 0.000000 0.000000 
#    y 0.000000 1.784090 0.000000 
#    z 0.000000 0.000000 1.798090 
# 
# From -- ./inp_files/1974.got.cif
#   From: 2010.03.12/outbox.cif.g09.slc.cpg/sg26_1_cif.got.tgz:1974.got - 2010.04.14 03:33:09.
