data_PCOD8167941
_publ_section_title
;
Structure prediction by ZEFSAII (Michael W. Deem and Ramdas Pophale) SiO2 
 PCOD8167941
Probable space group: P C C 2
;
_chemical_formula_sum "Si O2"
_cell_formula_units_Z 20
_cell_length_a 12.088813
_cell_length_b 4.920578
_cell_length_c 14.726975
_cell_angle_alpha 90.000000
_cell_angle_beta 90.000000
_cell_angle_gamma 90.000000
_cell_volume 876.018605
_symmetry_space_group_name_H-M "P C C 2"
_symmetry_group_IT_number 27
_symmetry_cell_setting 'orthorhombic'
loop_
_space_group_symop_operation_xyz
x,y,z
-x,-y,z
-x,y,1/2+z
x,-y,1/2+z
loop_
_atom_site_type_symbol
_atom_site_label
_atom_site_fract_x
_atom_site_fract_y
_atom_site_fract_z
Si Si1 0.125408 0.428275 0.413500
Si Si2 0.263227 0.920502 0.671709
Si Si3 0.423532 0.233098 0.014171
Si Si4 0.252544 0.892242 0.362534
Si Si5 0.127428 0.559826 0.121553
O O1 0.181062 0.626822 0.339711
O O2 0.151822 0.515421 0.516972
O O3 0.000000 0.500000 0.393502
O O4 0.168434 0.120399 0.401509
O O5 0.368474 0.872661 0.607411
O O6 0.200341 0.637154 0.683691
O O7 0.311214 0.006994 0.770341
O O8 0.170437 0.133460 0.636661
O O9 0.500000 0.500000 0.028415
O O10 0.334459 0.248196 0.934791
O O11 0.500000 0.000000 0.976263
O O12 0.000000 0.500000 0.146160
#
# Coordination Sequence:
#
# PCOD8167941 Si02
#       5
#     4   4   4   4   4
#     4  11  22  41  69 102 145 189 224 269 340 420
#     4  12  25  44  70 103 138 178 234 286 343 414
#     4  12  26  48  73  94 133 180 228 296 354 398
#     4  12  25  44  70 103 138 178 234 286 343 414
#     4  11  22  41  69 102 145 189 224 269 340 420
#
# _framework density 22.830563000000001
#
# number of rings (size 3 to 8) (size 9 to 14) (size 15 to 20)
#    0.000    0.400    4.000    4.800    0.000    8.800 
#    0.000    2.000    0.000    0.000    0.000    0.000 
#    0.000    0.000    0.000    0.000    0.000    0.000 
#
# Total GULP energy -247767.600726 kJ/mol
# GULP energy per Si atom -12388.380036 kJ/mol
# Density = 2.277860 g / cm^3
# Si number density = 22.830563 Si / 1000 Ang^3
#
#
#
# Elastic Constant Matrix: (Units=GPa)
#
#
# Indices 1 2 3 4 5 6 
#
# 1 106.6331 51.0311 43.6606 0.0000 0.0000 0.0000
# 2 51.0311 125.2502 7.7015 0.0000 0.0000 0.0000
# 3 43.6606 7.7015 108.7573 0.0000 0.0000 0.0000
# 4 0.0000 0.0000 0.0000 38.1818 0.0000 0.0000
# 5 0.0000 0.0000 0.0000 0.0000 15.7949 0.0000
# 6 0.0000 0.0000 0.0000 0.0000 0.0000 56.9650
#
#
#
# Elastic Compliance Matrix: (Units=1/GPa)
#
#
# Indices 1 2 3 4 5 6 
#
# 1 0.014149 -0.005439 -0.005295 0.000000 0.000000 0.000000
# 2 -0.005439 0.010110 0.001468 0.000000 0.000000 0.000000
# 3 -0.005295 0.001468 0.011217 0.000000 0.000000 0.000000
# 4 0.000000 0.000000 0.000000 0.026191 0.000000 0.000000
# 5 0.000000 0.000000 0.000000 0.000000 0.063312 0.000000
# 6 0.000000 0.000000 0.000000 0.000000 0.000000 0.017555
#
#
# Mechanical properties :
#
#
# Convention : Reuss Voigt Hill
#
# Bulk Modulus (GPa) = 59.02349 60.60300 59.81325
# Shear Modulus (GPa) = 29.99174 38.07149 34.03162
#
# Velocity S-wave (km/s) = 3.62839 4.08802 3.86504
# Velocity P-wave (km/s) = 6.59261 6.99177 6.79512
#
# Compressibility (1/GPa) = 0.01694241
#
# Stress axis : x y z
#
# Youngs Moduli (GPa) = 70.67665 98.91321 89.15435
#
# Poissons Ratio (x) = 0.53801 0.47207
# Poissons Ratio (y) = 0.38442 -0.13085
# Poissons Ratio (z) = 0.37423 -0.14517
#
# Static dielectric constant tensor:
#      x y z
#    x 4.329960 0.000000 0.000000 
#    y 0.000000 4.184280 0.000000 
#    z 0.000000 0.000000 4.150580 
# 
# 
# High freq. dielectric constant tensor:
#      x y z
#    x 1.896240 0.000000 0.000000 
#    y 0.000000 1.919410 0.000000 
#    z 0.000000 0.000000 1.909310 
# 
# From -- ./inp_files/3528.got.cif
#   From: 2010.03.12/outbox.cif.g09.slc.cpg/sg27_2_cif.got.tgz:3528.got - 2010.04.14 03:36:05.
