data_PCOD8167601
_publ_section_title
;
Structure prediction by ZEFSAII (Michael W. Deem and Ramdas Pophale) SiO2 
 PCOD8167601
Probable space group: P M C 21
;
_chemical_formula_sum "Si O2"
_cell_formula_units_Z 32
_cell_length_a 13.701402
_cell_length_b 8.362247
_cell_length_c 13.555651
_cell_angle_alpha 90.000000
_cell_angle_beta 90.000000
_cell_angle_gamma 90.000000
_cell_volume 1553.132041
_symmetry_space_group_name_H-M "P M C 21"
_symmetry_group_IT_number 26
_symmetry_cell_setting 'orthorhombic'
loop_
_space_group_symop_operation_xyz
x,y,z
-x,-y,1/2+z
-x,y,z
x,-y,1/2+z
loop_
_atom_site_type_symbol
_atom_site_label
_atom_site_fract_x
_atom_site_fract_y
_atom_site_fract_z
Si Si1 0.764349 0.551164 0.853480
Si Si2 0.110449 0.251262 0.806343
Si Si3 0.608214 0.049858 0.874537
Si Si4 0.262936 0.731530 0.650050
Si Si5 0.109445 0.881650 0.522055
Si Si6 0.718490 0.099956 0.689734
Si Si7 0.246871 0.833658 0.986867
Si Si8 0.610232 0.371660 0.980763
O O1 0.849250 0.426962 0.830027
O O2 0.745665 0.642237 0.752571
O O3 0.799702 0.676001 0.938150
O O4 0.666485 0.469168 0.895658
O O5 0.173952 0.151561 0.728049
O O6 0.000000 0.266003 0.765655
O O7 0.112668 0.156043 0.907510
O O8 0.500000 0.976461 0.862628
O O9 0.639826 0.139829 0.773890
O O10 0.610358 0.183432 0.958093
O O11 0.683225 0.910837 0.904249
O O12 0.162222 0.744226 0.587041
O O13 0.338178 0.622869 0.587247
O O14 0.296135 0.911863 0.670208
O O15 0.000000 0.896510 0.562643
O O16 0.162391 0.052257 0.530109
O O17 0.693681 0.200497 0.589306
O O18 0.500000 0.439361 0.986898
#
# Coordination Sequence:
#
# PCOD8167601 Si02
#       8
#     4   4   4   4   4   4   4   4
#     4  12  24  41  65  95 140 171 207 267 330 400
#     4  11  23  41  65  92 128 168 210 261 323 388
#     4  11  21  41  66  93 126 168 223 267 317 383
#     4  11  22  41  69  91 129 170 216 270 320 380
#     4  10  20  41  68  91 122 167 220 267 316 377
#     4  11  21  42  66  93 125 165 220 266 324 370
#     4  11  23  40  64  98 132 166 214 272 322 383
#     4  11  24  43  65  93 132 175 218 264 326 389
#
# _framework density 20.603525999999999
#
# number of rings (size 3 to 8) (size 9 to 14) (size 15 to 20)
#    0.000    1.000    7.500    0.000    1.750    5.000 
#    0.000    2.500    0.000    0.000    0.000    0.000 
#    0.000    0.000    0.000    0.000    0.000    0.000 
#
# Total GULP energy -396654.684581 kJ/mol
# GULP energy per Si atom -12395.458893 kJ/mol
# Density = 2.055663 g / cm^3
# Si number density = 20.603526 Si / 1000 Ang^3
#
#
#
# Elastic Constant Matrix: (Units=GPa)
#
#
# Indices 1 2 3 4 5 6 
#
# 1 119.5704 28.8441 33.5411 0.0000 0.0000 0.0000
# 2 28.8441 68.2505 21.1889 0.0000 0.0000 0.0000
# 3 33.5411 21.1889 109.1405 0.0000 0.0000 0.0000
# 4 0.0000 0.0000 0.0000 40.1309 0.0000 0.0000
# 5 0.0000 0.0000 0.0000 0.0000 13.9124 0.0000
# 6 0.0000 0.0000 0.0000 0.0000 0.0000 11.5527
#
#
#
# Elastic Compliance Matrix: (Units=1/GPa)
#
#
# Indices 1 2 3 4 5 6 
#
# 1 0.009854 -0.003431 -0.002362 0.000000 0.000000 0.000000
# 2 -0.003431 0.016786 -0.002205 0.000000 0.000000 0.000000
# 3 -0.002362 -0.002205 0.010316 0.000000 0.000000 0.000000
# 4 0.000000 0.000000 0.000000 0.024918 0.000000 0.000000
# 5 0.000000 0.000000 0.000000 0.000000 0.071878 0.000000
# 6 0.000000 0.000000 0.000000 0.000000 0.000000 0.086560
#
#
# Mechanical properties :
#
#
# Convention : Reuss Voigt Hill
#
# Bulk Modulus (GPa) = 47.70752 51.56773 49.63762
# Shear Modulus (GPa) = 20.55113 27.34501 23.94807
#
# Velocity S-wave (km/s) = 3.16168 3.64703 3.41299
# Velocity P-wave (km/s) = 6.04430 6.54350 6.29885
#
# Compressibility (1/GPa) = 0.02096106
#
# Stress axis : x y z
#
# Youngs Moduli (GPa) = 101.48647 59.57227 96.93291
#
# Poissons Ratio (x) = 0.20439 0.22896
# Poissons Ratio (y) = 0.34820 0.21369
# Poissons Ratio (z) = 0.23972 0.13133
#
# Static dielectric constant tensor:
#      x y z
#    x 3.909670 0.000000 0.000000 
#    y 0.000000 3.660860 0.000000 
#    z 0.000000 0.000000 4.160940 
# 
# 
# High freq. dielectric constant tensor:
#      x y z
#    x 1.789640 0.000000 0.000000 
#    y 0.000000 1.794030 0.000000 
#    z 0.000000 0.000000 1.827400 
# 
# From -- ./inp_files/3609.got.cif
#   From: 2010.03.12/outbox.cif.g09.slc.cpg/sg26_2_cif.got.tgz:3609.got - 2010.04.14 03:33:09.
