data_PCOD8167838
_publ_section_title
;
Structure prediction by ZEFSAII (Michael W. Deem and Ramdas Pophale) SiO2 
 PCOD8167838
Probable space group: P C C 2
;
_chemical_formula_sum "Si O2"
_cell_formula_units_Z 22
_cell_length_a 12.849419
_cell_length_b 8.903736
_cell_length_c 8.648985
_cell_angle_alpha 90.000000
_cell_angle_beta 90.000000
_cell_angle_gamma 90.000000
_cell_volume 989.511645
_symmetry_space_group_name_H-M "P C C 2"
_symmetry_group_IT_number 27
_symmetry_cell_setting 'orthorhombic'
loop_
_space_group_symop_operation_xyz
x,y,z
-x,-y,z
-x,y,1/2+z
x,-y,1/2+z
loop_
_atom_site_type_symbol
_atom_site_label
_atom_site_fract_x
_atom_site_fract_y
_atom_site_fract_z
Si Si1 0.364403 0.645077 0.973880
Si Si2 0.849878 0.181933 0.672370
Si Si3 0.158944 0.541161 0.488369
Si Si4 0.922351 0.295201 0.187846
Si Si5 0.500000 0.500000 0.229445
Si Si6 0.223174 0.898620 0.007966
O O1 0.445265 0.626507 0.834565
O O2 0.338596 0.823971 0.993842
O O3 0.260166 0.550451 0.932694
O O4 0.413876 0.586447 0.131668
O O5 0.805144 0.345002 0.625358
O O6 0.831136 0.133691 0.846233
O O7 0.974972 0.194232 0.665122
O O8 0.790042 0.073212 0.549989
O O9 0.098424 0.632336 0.355093
O O10 0.075369 0.425982 0.559650
O O11 0.828037 0.183951 0.154138
#
# Coordination Sequence:
#
# PCOD8167838 Si02
#       6
#     4   4   4   4   2   4
#     4  10  21  40  65  97 120 158 199 267 329 382
#     4  12  24  39  59  87 126 175 214 254 302 373
#     4  11  22  39  64  92 132 165 214 262 314 373
#     4  11  23  39  59  91 127 173 217 257 300 362
#     4  10  20  38  72  98 122 146 210 268 332 406
#     4  11  24  41  61  86 129 167 212 259 317 375
#
# _framework density 22.23319
#
# number of rings (size 3 to 8) (size 9 to 14) (size 15 to 20)
#    0.000    1.091    0.000    8.727    0.000    4.364 
#    0.000    1.818    0.000   18.545    0.000    0.000 
#    0.000    0.000    0.000    0.000    0.000    0.000 
#
# Total GULP energy -272598.392560 kJ/mol
# GULP energy per Si atom -12390.836025 kJ/mol
# Density = 2.218259 g / cm^3
# Si number density = 22.233190 Si / 1000 Ang^3
#
#
#
# Elastic Constant Matrix: (Units=GPa)
#
#
# Indices 1 2 3 4 5 6 
#
# 1 97.2986 39.9444 37.8152 0.0000 0.0000 0.0000
# 2 39.9444 92.1019 17.0829 0.0000 0.0000 0.0000
# 3 37.8152 17.0829 107.9492 0.0000 0.0000 0.0000
# 4 0.0000 0.0000 0.0000 35.6261 0.0000 0.0000
# 5 0.0000 0.0000 0.0000 0.0000 30.5512 0.0000
# 6 0.0000 0.0000 0.0000 0.0000 0.0000 35.8005
#
#
#
# Elastic Compliance Matrix: (Units=1/GPa)
#
#
# Indices 1 2 3 4 5 6 
#
# 1 0.014055 -0.005339 -0.004079 0.000000 0.000000 0.000000
# 2 -0.005339 0.013214 -0.000221 0.000000 0.000000 0.000000
# 3 -0.004079 -0.000221 0.010727 0.000000 0.000000 0.000000
# 4 0.000000 0.000000 0.000000 0.028069 0.000000 0.000000
# 5 0.000000 0.000000 0.000000 0.000000 0.032732 0.000000
# 6 0.000000 0.000000 0.000000 0.000000 0.000000 0.027933
#
#
# Mechanical properties :
#
#
# Convention : Reuss Voigt Hill
#
# Bulk Modulus (GPa) = 53.42097 54.11497 53.76797
# Shear Modulus (GPa) = 32.84156 33.89603 33.36880
#
# Velocity S-wave (km/s) = 3.84753 3.90881 3.87829
# Velocity P-wave (km/s) = 6.61949 6.69061 6.65515
#
# Compressibility (1/GPa) = 0.01871924
#
# Stress axis : x y z
#
# Youngs Moduli (GPa) = 71.15116 75.67730 93.22015
#
# Poissons Ratio (x) = 0.40404 0.38020
# Poissons Ratio (y) = 0.37987 0.02059
# Poissons Ratio (z) = 0.29019 0.01671
#
# Static dielectric constant tensor:
#      x y z
#    x 3.924960 0.000000 0.000000 
#    y 0.000000 4.500130 0.000000 
#    z 0.000000 0.000000 4.120390 
# 
# 
# High freq. dielectric constant tensor:
#      x y z
#    x 1.853250 0.000000 0.000000 
#    y 0.000000 1.871570 0.000000 
#    z 0.000000 0.000000 1.897460 
# 
# From -- ./inp_files/1564.got.cif
#   From: 2010.03.12/outbox.cif.g09.slc.cpg/sg27_1_cif.got.tgz:1564.got - 2010.04.14 03:36:05.
