data_PCOD8167785
_publ_section_title
;
Structure prediction by ZEFSAII (Michael W. Deem and Ramdas Pophale) SiO2 
 PCOD8167785
Probable space group: P C C 2
;
_chemical_formula_sum "Si O2"
_cell_formula_units_Z 24
_cell_length_a 22.429480
_cell_length_b 11.675862
_cell_length_c 5.341933
_cell_angle_alpha 90.000000
_cell_angle_beta 90.000000
_cell_angle_gamma 90.000000
_cell_volume 1398.964181
_symmetry_space_group_name_H-M "P C C 2"
_symmetry_group_IT_number 27
_symmetry_cell_setting 'orthorhombic'
loop_
_space_group_symop_operation_xyz
x,y,z
-x,-y,z
-x,y,1/2+z
x,-y,1/2+z
loop_
_atom_site_type_symbol
_atom_site_label
_atom_site_fract_x
_atom_site_fract_y
_atom_site_fract_z
Si Si1 0.665412 0.378658 0.155780
Si Si2 0.285459 0.634935 0.655815
Si Si3 0.975238 0.629903 0.160388
Si Si4 0.537733 0.310481 0.153164
Si Si5 0.433464 0.048058 0.645326
Si Si6 0.843053 0.571625 0.182244
O O1 0.685994 0.309277 0.405371
O O2 0.698263 0.500304 0.158811
O O3 0.593986 0.396241 0.155212
O O4 0.686122 0.309187 0.906677
O O5 0.214214 0.653799 0.653113
O O6 0.904034 0.641319 0.153770
O O7 0.000000 0.500000 0.165423
O O8 0.999396 0.692023 0.411527
O O9 0.499440 0.333487 0.401671
O O10 0.565631 0.184327 0.155477
O O11 0.500000 0.000000 0.631763
O O12 0.400692 0.003444 0.392031
O O13 0.840881 0.520878 0.461005
#
# Coordination Sequence:
#
# PCOD8167785 Si02
#       6
#     4   4   4   4   4   4
#     4  10  20  32  46  57  76  97 131 173 194 226
#     4  10  19  35  42  54  74 107 143 170 196 216
#     4  10  16  22  31  54  79  90 114 162 210 236
#     4  12  21  32  47  67  80  98 121 151 204 253
#     4  10  16  30  48  64  85  98 112 137 176 251
#     4  12  16  25  43  52  67 103 134 158 204 238
#
# _framework density 17.155550999999999
#
# number of rings (size 3 to 8) (size 9 to 14) (size 15 to 20)
#    0.000    1.333   10.000    1.000    0.000    0.000 
#    0.000   10.000    0.000    0.000    0.000    0.000 
#    0.000    0.000    0.000    0.000    0.000    0.000 
#
# Total GULP energy -297369.148222 kJ/mol
# GULP energy per Si atom -12390.381176 kJ/mol
# Density = 1.711650 g / cm^3
# Si number density = 17.155551 Si / 1000 Ang^3
#
#
#
# Elastic Constant Matrix: (Units=GPa)
#
#
# Indices 1 2 3 4 5 6 
#
# 1 139.6529 3.8106 58.7365 0.0000 0.0000 0.0000
# 2 3.8106 9.6089 -3.3540 0.0000 0.0000 0.0000
# 3 58.7365 -3.3540 191.3959 0.0000 0.0000 0.0000
# 4 0.0000 0.0000 0.0000 5.3266 0.0000 0.0000
# 5 0.0000 0.0000 0.0000 0.0000 27.5448 0.0000
# 6 0.0000 0.0000 0.0000 0.0000 0.0000 0.7498
#
#
#
# Elastic Compliance Matrix: (Units=1/GPa)
#
#
# Indices 1 2 3 4 5 6 
#
# 1 0.008391 -0.004252 -0.002650 0.000000 0.000000 0.000000
# 2 -0.004252 0.106866 0.003178 0.000000 0.000000 0.000000
# 3 -0.002650 0.003178 0.006094 0.000000 0.000000 0.000000
# 4 0.000000 0.000000 0.000000 0.187738 0.000000 0.000000
# 5 0.000000 0.000000 0.000000 0.000000 0.036304 0.000000
# 6 0.000000 0.000000 0.000000 0.000000 0.000000 1.333768
#
#
# Mechanical properties :
#
#
# Convention : Reuss Voigt Hill
#
# Bulk Modulus (GPa) = 8.77947 51.00487 29.89217
# Shear Modulus (GPa) = 2.89926 25.48855 14.19390
#
# Velocity S-wave (km/s) = 1.30140 3.85870 2.87952
# Velocity P-wave (km/s) = 2.71788 7.04614 5.34018
#
# Compressibility (1/GPa) = 0.11390213
#
# Stress axis : x y z
#
# Youngs Moduli (GPa) = 119.17485 9.35750 164.10719
#
# Poissons Ratio (x) = 0.03979 0.43482
# Poissons Ratio (y) = 0.50679 -0.52149
# Poissons Ratio (z) = 0.31577 -0.02974
#
# Static dielectric constant tensor:
#      x y z
#    x 3.144890 0.000000 0.000000 
#    y 0.000000 2.507790 0.000000 
#    z 0.000000 0.000000 8.069340 
# 
# 
# High freq. dielectric constant tensor:
#      x y z
#    x 1.653200 0.000000 0.000000 
#    y 0.000000 1.555520 0.000000 
#    z 0.000000 0.000000 1.714240 
# 
# From -- ./inp_files/335.got.cif
#   From: 2010.03.12/outbox.cif.g09.slc.cpg/sg27_1_cif.got.tgz:335.got - 2010.04.14 03:36:05.
