data_PCOD8167651
_publ_section_title
;
Structure prediction by ZEFSAII (Michael W. Deem and Ramdas Pophale) SiO2 
 PCOD8167651
Probable space group: P M C 21
;
_chemical_formula_sum "Si O2"
_cell_formula_units_Z 32
_cell_length_a 8.853785
_cell_length_b 14.738708
_cell_length_c 12.457749
_cell_angle_alpha 90.000000
_cell_angle_beta 90.000000
_cell_angle_gamma 90.000000
_cell_volume 1625.653423
_symmetry_space_group_name_H-M "P M C 21"
_symmetry_group_IT_number 26
_symmetry_cell_setting 'orthorhombic'
loop_
_space_group_symop_operation_xyz
x,y,z
-x,-y,1/2+z
-x,y,z
x,-y,1/2+z
loop_
_atom_site_type_symbol
_atom_site_label
_atom_site_fract_x
_atom_site_fract_y
_atom_site_fract_z
Si Si1 0.679484 0.165956 0.513420
Si Si2 0.175339 0.860491 0.787578
Si Si3 0.826068 0.821386 0.389029
Si Si4 0.332724 0.339737 0.804165
Si Si5 0.670398 0.364439 0.563188
Si Si6 0.674866 0.443384 0.012601
Si Si7 0.178861 0.268960 0.100695
Si Si8 0.823144 0.054307 0.705764
O O1 0.500000 0.165930 0.524739
O O2 0.726682 0.134109 0.395137
O O3 0.747034 0.267948 0.532402
O O4 0.740921 0.096581 0.602709
O O5 0.221555 0.772928 0.716381
O O6 0.000000 0.857358 0.820967
O O7 0.207443 0.947120 0.711511
O O8 0.796374 0.735676 0.312442
O O9 0.753901 0.797649 0.505994
O O10 0.760656 0.906111 0.320477
O O11 0.000000 0.839873 0.408313
O O12 0.500000 0.296248 0.823180
O O13 0.323357 0.383907 0.688969
O O14 0.302024 0.418227 0.889266
O O15 0.500000 0.359282 0.519227
O O16 0.749572 0.455716 0.517787
O O17 0.500000 0.447469 0.047714
O O18 0.753279 0.369749 0.090748
O O19 0.000000 0.276120 0.086395
O O20 0.000000 0.076758 0.693125
#
# Coordination Sequence:
#
# PCOD8167651 Si02
#       8
#     4   4   4   4   4   4   4   4
#     4  11  23  39  59  86 120 150 187 240 291 340
#     4  10  23  40  60  83 116 157 194 232 284 350
#     4   9  17  31  54  80 103 134 181 232 276 324
#     4   9  16  30  50  73 104 140 180 227 277 326
#     4   9  18  33  53  79 111 148 187 230 283 339
#     4   9  18  32  54  80 106 148 196 231 276 342
#     4   9  19  36  55  80 113 145 184 239 289 329
#     4  10  21  37  61  85 109 148 193 233 280 346
#
# _framework density 19.684393
#
# number of rings (size 3 to 8) (size 9 to 14) (size 15 to 20)
#    0.000    2.500    1.250    0.375    1.750    2.000 
#    0.000    4.375    0.000    3.000    0.000    0.000 
#    0.000    0.000    0.000    0.000    0.000    0.000 
#
# Total GULP energy -396486.537136 kJ/mol
# GULP energy per Si atom -12390.204285 kJ/mol
# Density = 1.963959 g / cm^3
# Si number density = 19.684393 Si / 1000 Ang^3
#
#
#
# Elastic Constant Matrix: (Units=GPa)
#
#
# Indices 1 2 3 4 5 6 
#
# 1 31.8593 25.6026 27.6204 0.0000 0.0000 0.0000
# 2 25.6026 120.8235 48.6719 0.0000 0.0000 0.0000
# 3 27.6204 48.6719 88.3906 0.0000 0.0000 0.0000
# 4 0.0000 0.0000 0.0000 27.7320 0.0000 0.0000
# 5 0.0000 0.0000 0.0000 0.0000 24.9409 0.0000
# 6 0.0000 0.0000 0.0000 0.0000 0.0000 25.4944
#
#
#
# Elastic Compliance Matrix: (Units=1/GPa)
#
#
# Indices 1 2 3 4 5 6 
#
# 1 0.045291 -0.005007 -0.011396 0.000000 0.000000 0.000000
# 2 -0.005007 0.011189 -0.004597 0.000000 0.000000 0.000000
# 3 -0.011396 -0.004597 0.017406 0.000000 0.000000 0.000000
# 4 0.000000 0.000000 0.000000 0.036059 0.000000 0.000000
# 5 0.000000 0.000000 0.000000 0.000000 0.040095 0.000000
# 6 0.000000 0.000000 0.000000 0.000000 0.000000 0.039224
#
#
# Mechanical properties :
#
#
# Convention : Reuss Voigt Hill
#
# Bulk Modulus (GPa) = 31.36035 49.42926 40.39480
# Shear Modulus (GPa) = 20.67043 24.91203 22.79123
#
# Velocity S-wave (km/s) = 3.24403 3.56135 3.40639
# Velocity P-wave (km/s) = 5.47702 6.48663 6.00309
#
# Compressibility (1/GPa) = 0.03188740
#
# Stress axis : x y z
#
# Youngs Moduli (GPa) = 22.07953 89.37193 57.45285
#
# Poissons Ratio (x) = 0.44745 0.65471
# Poissons Ratio (y) = 0.11054 0.26410
# Poissons Ratio (z) = 0.25161 0.41083
#
# Static dielectric constant tensor:
#      x y z
#    x 3.387230 0.000000 0.000000 
#    y 0.000000 3.732150 0.000000 
#    z 0.000000 0.000000 3.620100 
# 
# 
# High freq. dielectric constant tensor:
#      x y z
#    x 1.733730 0.000000 0.000000 
#    y 0.000000 1.769730 0.000000 
#    z 0.000000 0.000000 1.770410 
# 
# From -- ./inp_files/3063.got.cif
#   From: 2010.03.12/outbox.cif.g09.slc.cpg/sg26_2_cif.got.tgz:3063.got - 2010.04.14 03:33:09.
