data_PCOD8167653
_publ_section_title
;
Structure prediction by ZEFSAII (Michael W. Deem and Ramdas Pophale) SiO2 
 PCOD8167653
Probable space group: P M C 21
;
_chemical_formula_sum "Si O2"
_cell_formula_units_Z 28
_cell_length_a 12.481048
_cell_length_b 23.997265
_cell_length_c 5.094891
_cell_angle_alpha 90.000000
_cell_angle_beta 90.000000
_cell_angle_gamma 90.000000
_cell_volume 1525.975982
_symmetry_space_group_name_H-M "P M C 21"
_symmetry_group_IT_number 26
_symmetry_cell_setting 'orthorhombic'
loop_
_space_group_symop_operation_xyz
x,y,z
-x,-y,1/2+z
-x,y,z
x,-y,1/2+z
loop_
_atom_site_type_symbol
_atom_site_label
_atom_site_fract_x
_atom_site_fract_y
_atom_site_fract_z
Si Si1 0.123593 0.696541 0.029520
Si Si2 0.312645 0.775148 0.022172
Si Si3 0.301376 0.463351 0.087348
Si Si4 0.372422 0.032656 0.068921
Si Si5 0.876581 0.375727 0.034660
Si Si6 0.626742 0.841175 0.524688
Si Si7 0.500000 0.311354 0.582603
Si Si8 0.500000 0.384063 0.083370
O O1 0.193579 0.751907 0.071832
O O2 0.146559 0.652146 0.256232
O O3 0.000000 0.715479 0.027803
O O4 0.158662 0.667805 0.758143
O O5 0.342367 0.821662 0.234544
O O6 0.394239 0.724200 0.035714
O O7 0.314971 0.802743 0.736468
O O8 0.310361 0.486485 0.381254
O O9 0.188302 0.432792 0.053944
O O10 0.395519 0.420267 0.031068
O O11 0.500000 0.032514 0.062880
O O12 0.326901 0.996940 0.827328
O O13 0.331041 0.095883 0.055619
O O14 0.000000 0.392324 0.070800
O O15 0.500000 0.836820 0.568421
O O16 0.500000 0.362485 0.380963
O O17 0.500000 0.332682 0.881257
#
# Coordination Sequence:
#
# PCOD8167653 Si02
#       8
#     4   4   4   4   4   4   2   2
#     4  10  21  38  58  79 107 140 176 216 260 318
#     4  12  21  34  53  80 110 142 177 217 270 308
#     4  12  24  39  57  78 104 131 167 213 261 305
#     4   9  17  29  46  67  99 148 186 214 255 308
#     4  10  21  39  59  80 103 131 169 215 266 319
#     4  11  20  33  48  77 116 142 180 223 263 310
#     4  12  22  35  56  76 104 139 176 206 252 320
#     4  12  24  39  54  74 102 139 176 204 246 312
#
# _framework density 18.348913
#
# number of rings (size 3 to 8) (size 9 to 14) (size 15 to 20)
#    0.000    1.143    1.429    6.429    0.000    2.857 
#    0.000    0.000    0.000    0.000    0.000    0.000 
#    0.000   11.429    0.000    0.000    0.000    0.000 
#
# Total GULP energy -347399.549225 kJ/mol
# GULP energy per Si atom -12407.126758 kJ/mol
# Density = 1.830715 g / cm^3
# Si number density = 18.348913 Si / 1000 Ang^3
#
#
#
# Elastic Constant Matrix: (Units=GPa)
#
#
# Indices 1 2 3 4 5 6 
#
# 1 67.8932 40.2716 17.4718 0.0000 0.0000 0.0000
# 2 40.2716 91.0883 15.1548 0.0000 0.0000 0.0000
# 3 17.4718 15.1548 78.1070 0.0000 0.0000 0.0000
# 4 0.0000 0.0000 0.0000 38.1075 0.0000 0.0000
# 5 0.0000 0.0000 0.0000 0.0000 16.4679 0.0000
# 6 0.0000 0.0000 0.0000 0.0000 0.0000 -36.5969
#
#
#
# Elastic Compliance Matrix: (Units=1/GPa)
#
#
# Indices 1 2 3 4 5 6 
#
# 1 0.020596 -0.008617 -0.002935 0.000000 0.000000 0.000000
# 2 -0.008617 0.014950 -0.000973 0.000000 0.000000 0.000000
# 3 -0.002935 -0.000973 0.013648 0.000000 0.000000 0.000000
# 4 0.000000 0.000000 0.000000 0.026242 0.000000 0.000000
# 5 0.000000 0.000000 0.000000 0.000000 0.060724 0.000000
# 6 0.000000 0.000000 0.000000 0.000000 0.000000 -0.027325
#
#
# Mechanical properties :
#
#
# Convention : Reuss Voigt Hill
#
# Bulk Modulus (GPa) = 41.41971 42.54279 41.98125
# Shear Modulus (GPa) = 35.22759 14.54173 24.88466
#
# Velocity S-wave (km/s) = 4.38639 2.81821 3.68665
# Velocity P-wave (km/s) = 6.94811 5.81597 6.40710
#
# Compressibility (1/GPa) = 0.02414310
#
# Stress axis : x y z
#
# Youngs Moduli (GPa) = 48.55342 66.88889 73.26914
#
# Poissons Ratio (x) = 0.57641 0.21505
# Poissons Ratio (y) = 0.41841 0.07130
# Poissons Ratio (z) = 0.14251 0.06509
#
# Static dielectric constant tensor:
#      x y z
#    x 3.250500 0.000000 0.000000 
#    y 0.000000 3.359840 0.000000 
#    z 0.000000 0.000000 3.598740 
# 
# 
# High freq. dielectric constant tensor:
#      x y z
#    x 1.684420 0.000000 0.000000 
#    y 0.000000 1.710350 0.000000 
#    z 0.000000 0.000000 1.735210 
# 
# From -- ./inp_files/458.got.cif
#   From: 2010.03.12/outbox.cif.g09.slc.cpg/sg26_1_cif.got.tgz:458.got - 2010.04.14 03:33:09.
