data_PCOD8167723
_publ_section_title
;
Structure prediction by ZEFSAII (Michael W. Deem and Ramdas Pophale) SiO2 
 PCOD8167723
Probable space group: P M C 21
;
_chemical_formula_sum "Si O2"
_cell_formula_units_Z 32
_cell_length_a 8.594119
_cell_length_b 12.026082
_cell_length_c 15.206773
_cell_angle_alpha 90.000000
_cell_angle_beta 90.000000
_cell_angle_gamma 90.000000
_cell_volume 1571.674427
_symmetry_space_group_name_H-M "P M C 21"
_symmetry_group_IT_number 26
_symmetry_cell_setting 'orthorhombic'
loop_
_space_group_symop_operation_xyz
x,y,z
-x,-y,1/2+z
-x,y,z
x,-y,1/2+z
loop_
_atom_site_type_symbol
_atom_site_label
_atom_site_fract_x
_atom_site_fract_y
_atom_site_fract_z
Si Si1 0.183167 0.390643 0.563810
Si Si2 0.816316 0.136614 0.580893
Si Si3 0.320045 0.462846 0.911329
Si Si4 0.679601 0.251751 0.164414
Si Si5 0.177113 0.746668 0.483031
Si Si6 0.820384 0.466149 0.234347
Si Si7 0.179530 0.991582 0.416655
Si Si8 0.318352 0.987380 0.727872
O O1 0.241502 0.263556 0.573044
O O2 0.271280 0.444758 0.482119
O O3 0.226778 0.456832 0.652093
O O4 0.000000 0.396639 0.545115
O O5 0.000000 0.130870 0.581754
O O6 0.753294 0.064967 0.497760
O O7 0.760688 0.086893 0.673754
O O8 0.500000 0.433663 0.924517
O O9 0.214770 0.352487 0.916430
O O10 0.292878 0.507455 0.814130
O O11 0.500000 0.271544 0.190220
O O12 0.791246 0.337519 0.213381
O O13 0.738633 0.129187 0.188352
O O14 0.700420 0.267388 0.060943
O O15 0.202810 0.862417 0.435227
O O16 0.000000 0.735785 0.517806
O O17 0.000000 0.483561 0.260415
O O18 0.000000 0.021494 0.399640
O O19 0.276670 0.015624 0.329964
O O20 0.500000 0.003264 0.716425
#
# Coordination Sequence:
#
# PCOD8167723 Si02
#       8
#     4   4   4   4   4   4   4   4
#     4  10  23  43  66  93 125 164 214 262 310 370
#     4  10  22  43  66  92 124 163 212 260 307 367
#     4  12  26  42  64  94 131 167 206 259 318 380
#     4  11  23  41  64  94 128 163 206 260 320 374
#     4  11  22  41  67  93 122 162 214 263 309 369
#     4  11  24  42  66  93 126 168 214 262 309 369
#     4  10  23  41  65  93 123 165 213 259 306 365
#     4  11  25  41  62  94 131 166 203 255 317 378
#
# _framework density 20.360451999999999
#
# number of rings (size 3 to 8) (size 9 to 14) (size 15 to 20)
#    0.000    1.250    2.500    2.625    3.500    4.000 
#    0.000    0.000    0.000    0.000    0.000    0.000 
#    0.000    0.000    0.000    0.000    0.000    0.000 
#
# Total GULP energy -396951.175718 kJ/mol
# GULP energy per Si atom -12404.724241 kJ/mol
# Density = 2.031411 g / cm^3
# Si number density = 20.360452 Si / 1000 Ang^3
#
#
#
# Elastic Constant Matrix: (Units=GPa)
#
#
# Indices 1 2 3 4 5 6 
#
# 1 38.1537 48.2431 27.5405 0.0000 0.0000 0.0000
# 2 48.2431 114.7248 30.6260 0.0000 0.0000 0.0000
# 3 27.5405 30.6260 101.6487 0.0000 0.0000 0.0000
# 4 0.0000 0.0000 0.0000 6.4401 0.0000 0.0000
# 5 0.0000 0.0000 0.0000 0.0000 -43.9466 0.0000
# 6 0.0000 0.0000 0.0000 0.0000 0.0000 23.9631
#
#
#
# Elastic Compliance Matrix: (Units=1/GPa)
#
#
# Indices 1 2 3 4 5 6 
#
# 1 0.064238 -0.024323 -0.010076 0.000000 0.000000 0.000000
# 2 -0.024323 0.018689 0.000959 0.000000 0.000000 0.000000
# 3 -0.010076 0.000959 0.012279 0.000000 0.000000 0.000000
# 4 0.000000 0.000000 0.000000 0.155276 0.000000 0.000000
# 5 0.000000 0.000000 0.000000 0.000000 -0.022755 0.000000
# 6 0.000000 0.000000 0.000000 0.000000 0.000000 0.041731
#
#
# Mechanical properties :
#
#
# Convention : Reuss Voigt Hill
#
# Bulk Modulus (GPa) = 35.30367 51.92740 43.61553
# Shear Modulus (GPa) = 14.46007 7.16582 10.81294
#
# Velocity S-wave (km/s) = 2.66786 1.87806 2.30701
# Velocity P-wave (km/s) = 5.18333 5.50111 5.34458
#
# Compressibility (1/GPa) = 0.02832567
#
# Stress axis : x y z
#
# Youngs Moduli (GPa) = 15.56702 53.50864 81.44111
#
# Poissons Ratio (x) = 1.30150 0.82062
# Poissons Ratio (y) = 0.37864 -0.07813
# Poissons Ratio (z) = 0.15686 -0.05133
#
# Static dielectric constant tensor:
#      x y z
#    x 4.042090 0.000000 0.000000 
#    y 0.000000 4.273380 0.000000 
#    z 0.000000 0.000000 3.664890 
# 
# 
# High freq. dielectric constant tensor:
#      x y z
#    x 1.790760 0.000000 0.000000 
#    y 0.000000 1.810960 0.000000 
#    z 0.000000 0.000000 1.800400 
# 
# From -- ./inp_files/4214.got.cif
#   From: 2010.03.12/outbox.cif.g09.slc.cpg/sg26_3_cif.got.tgz:4214.got - 2010.04.14 03:33:09.
