data_PCOD8167818
_publ_section_title
;
Structure prediction by ZEFSAII (Michael W. Deem and Ramdas Pophale) SiO2 
 PCOD8167818
Probable space group: P C C 2
;
_chemical_formula_sum "Si O2"
_cell_formula_units_Z 30
_cell_length_a 10.691205
_cell_length_b 8.530966
_cell_length_c 16.290911
_cell_angle_alpha 90.000000
_cell_angle_beta 90.000000
_cell_angle_gamma 90.000000
_cell_volume 1485.833819
_symmetry_space_group_name_H-M "P C C 2"
_symmetry_group_IT_number 27
_symmetry_cell_setting 'orthorhombic'
loop_
_space_group_symop_operation_xyz
x,y,z
-x,-y,z
-x,y,1/2+z
x,-y,1/2+z
loop_
_atom_site_type_symbol
_atom_site_label
_atom_site_fract_x
_atom_site_fract_y
_atom_site_fract_z
Si Si1 0.606220 0.217101 0.484520
Si Si2 0.820555 0.687956 0.362675
Si Si3 0.000000 0.500000 0.453136
Si Si4 0.026069 0.316275 0.216468
Si Si5 0.369505 0.411202 0.820885
Si Si6 0.241048 0.284513 0.669184
Si Si7 0.669505 0.858733 0.503881
Si Si8 0.805115 0.603640 0.079909
O O1 0.629009 0.294104 0.397018
O O2 0.460443 0.235052 0.505239
O O3 0.681087 0.302722 0.556685
O O4 0.650323 0.039010 0.483775
O O5 0.874732 0.766881 0.279176
O O6 0.737568 0.539482 0.335932
O O7 0.751344 0.798543 0.427242
O O8 0.956155 0.644983 0.399242
O O9 0.126081 0.544438 0.499489
O O10 0.093605 0.293936 0.128725
O O11 0.000000 0.500000 0.237538
O O12 0.891901 0.230357 0.208416
O O13 0.500000 0.500000 0.807968
O O14 0.342806 0.298332 0.742272
O O15 0.272842 0.164932 0.594854
O O16 0.235945 0.458090 0.633713
#
# Coordination Sequence:
#
# PCOD8167818 Si02
#       8
#     4   4   2   4   4   4   4   4
#     4  11  26  44  63  94 134 175 219 262 329 406
#     4  12  20  37  68  93 129 165 217 272 327 377
#     4  12  18  32  66  94 118 164 208 278 320 372
#     4  10  19  36  61  97 125 155 210 274 329 370
#     4  12  23  39  66 101 127 162 222 282 323 383
#     4  11  22  40  67  99 127 162 217 276 326 385
#     4  11  25  46  63  91 136 182 213 263 332 400
#     4  11  20  36  65  92 122 159 215 269 317 378
#
# _framework density 20.190684000000001
#
# number of rings (size 3 to 8) (size 9 to 14) (size 15 to 20)
#    0.000    0.800    9.333    0.000    1.867    0.000 
#    2.400    4.000    0.000    0.000    0.000    0.000 
#    0.000    0.000    0.000    0.000    0.000    0.000 
#
# Total GULP energy -371756.496413 kJ/mol
# GULP energy per Si atom -12391.883214 kJ/mol
# Density = 2.014473 g / cm^3
# Si number density = 20.190684 Si / 1000 Ang^3
#
#
#
# Elastic Constant Matrix: (Units=GPa)
#
#
# Indices 1 2 3 4 5 6 
#
# 1 128.2088 35.0340 53.7250 0.0000 0.0000 0.0000
# 2 35.0340 41.5472 27.2119 0.0000 0.0000 0.0000
# 3 53.7250 27.2119 106.0742 0.0000 0.0000 0.0000
# 4 0.0000 0.0000 0.0000 13.7678 0.0000 0.0000
# 5 0.0000 0.0000 0.0000 0.0000 46.3997 0.0000
# 6 0.0000 0.0000 0.0000 0.0000 0.0000 23.2714
#
#
#
# Elastic Compliance Matrix: (Units=1/GPa)
#
#
# Indices 1 2 3 4 5 6 
#
# 1 0.011372 -0.006992 -0.003966 0.000000 0.000000 0.000000
# 2 -0.006992 0.033229 -0.004983 0.000000 0.000000 0.000000
# 3 -0.003966 -0.004983 0.012715 0.000000 0.000000 0.000000
# 4 0.000000 0.000000 0.000000 0.072633 0.000000 0.000000
# 5 0.000000 0.000000 0.000000 0.000000 0.021552 0.000000
# 6 0.000000 0.000000 0.000000 0.000000 0.000000 0.042971
#
#
# Mechanical properties :
#
#
# Convention : Reuss Voigt Hill
#
# Bulk Modulus (GPa) = 39.31881 56.41910 47.86895
# Shear Modulus (GPa) = 21.29181 27.34505 24.31843
#
# Velocity S-wave (km/s) = 3.25089 3.68413 3.47427
# Velocity P-wave (km/s) = 5.79716 6.78976 6.31300
#
# Compressibility (1/GPa) = 0.02543312
#
# Stress axis : x y z
#
# Youngs Moduli (GPa) = 87.93225 30.09465 78.64987
#
# Poissons Ratio (x) = 0.21042 0.31195
# Poissons Ratio (y) = 0.61481 0.39192
# Poissons Ratio (z) = 0.34877 0.14996
#
# Static dielectric constant tensor:
#      x y z
#    x 3.999660 0.000000 0.000000 
#    y 0.000000 3.215620 0.000000 
#    z 0.000000 0.000000 4.031080 
# 
# 
# High freq. dielectric constant tensor:
#      x y z
#    x 1.807940 0.000000 0.000000 
#    y 0.000000 1.738610 0.000000 
#    z 0.000000 0.000000 1.811100 
# 
# From -- ./inp_files/3608.got.cif
#   From: 2010.03.12/outbox.cif.g09.slc.cpg/sg27_2_cif.got.tgz:3608.got - 2010.04.14 03:36:05.
