data_PCOD8167793
_publ_section_title
;
Structure prediction by ZEFSAII (Michael W. Deem and Ramdas Pophale) SiO2 
 PCOD8167793
Probable space group: P C C 2
;
_chemical_formula_sum "Si O2"
_cell_formula_units_Z 32
_cell_length_a 6.939732
_cell_length_b 38.279378
_cell_length_c 5.240574
_cell_angle_alpha 90.000000
_cell_angle_beta 90.000000
_cell_angle_gamma 90.000000
_cell_volume 1392.151274
_symmetry_space_group_name_H-M "P C C 2"
_symmetry_group_IT_number 27
_symmetry_cell_setting 'orthorhombic'
loop_
_space_group_symop_operation_xyz
x,y,z
-x,-y,z
-x,y,1/2+z
x,-y,1/2+z
loop_
_atom_site_type_symbol
_atom_site_label
_atom_site_fract_x
_atom_site_fract_y
_atom_site_fract_z
Si Si1 0.375137 0.913550 0.701030
Si Si2 0.379674 0.837888 0.778018
Si Si3 0.877108 0.414138 0.222175
Si Si4 0.124509 0.336928 0.777299
Si Si5 0.728779 0.236936 0.697955
Si Si6 0.286739 0.514845 0.312411
Si Si7 0.295473 0.266534 0.698748
Si Si8 0.786486 0.014873 0.785038
O O1 0.459620 0.917430 0.416202
O O2 0.274542 0.875339 0.733118
O O3 0.214360 0.943410 0.741869
O O4 0.551800 0.835667 0.570968
O O5 0.243481 0.804729 0.729193
O O6 0.783022 0.375624 0.251661
O O7 0.713493 0.443441 0.266769
O O8 0.042050 0.418730 0.436321
O O9 0.294460 0.308454 0.737196
O O10 0.962383 0.331941 0.559829
O O11 0.506827 0.250095 0.668612
O O12 0.823809 0.248539 0.430971
O O13 0.821272 0.256648 0.940342
O O14 0.500000 0.500000 0.360092
O O15 0.179690 0.494923 0.078446
O O16 0.679375 0.995147 0.550413
O O17 0.000000 0.000000 0.830610
#
# Coordination Sequence:
#
# PCOD8167793 Si02
#       8
#     4   4   4   4   4   4   4   4
#     4  10  21  32  53  85 110 134 180 233 277 315
#     4  10  16  30  48  77 112 135 168 219 276 314
#     4  10  21  37  58  79 106 144 192 234 272 327
#     4  10  21  37  53  77 107 146 186 225 265 308
#     4  10  17  30  50  81 104 134 171 214 273 320
#     4  10  21  37  55  82 114 144 180 224 290 334
#     4  10  18  30  52  78 105 134 176 218 263 320
#     4  10  21  37  55  77 106 147 183 214 276 335
#
# _framework density 22.986011000000001
#
# number of rings (size 3 to 8) (size 9 to 14) (size 15 to 20)
#    0.000    2.000    2.500    2.250    0.000    3.000 
#    0.000    5.000    0.000    0.000   19.500    0.000 
#    0.000    0.000    0.000    0.000    0.000    0.000 
#
# Total GULP energy -396425.523643 kJ/mol
# GULP energy per Si atom -12388.297614 kJ/mol
# Density = 2.293369 g / cm^3
# Si number density = 22.986011 Si / 1000 Ang^3
#
#
#
# Elastic Constant Matrix: (Units=GPa)
#
#
# Indices 1 2 3 4 5 6 
#
# 1 28.8623 13.5413 -18.7577 0.0000 0.0000 0.0000
# 2 13.5413 173.6955 3.8175 0.0000 0.0000 0.0000
# 3 -18.7577 3.8175 176.7367 0.0000 0.0000 0.0000
# 4 0.0000 0.0000 0.0000 37.2027 0.0000 0.0000
# 5 0.0000 0.0000 0.0000 0.0000 -3.4566 0.0000
# 6 0.0000 0.0000 0.0000 0.0000 0.0000 30.3502
#
#
#
# Elastic Compliance Matrix: (Units=1/GPa)
#
#
# Indices 1 2 3 4 5 6 
#
# 1 0.038833 -0.003119 0.004189 0.000000 0.000000 0.000000
# 2 -0.003119 0.006011 -0.000461 0.000000 0.000000 0.000000
# 3 0.004189 -0.000461 0.006113 0.000000 0.000000 0.000000
# 4 0.000000 0.000000 0.000000 0.026880 0.000000 0.000000
# 5 0.000000 0.000000 0.000000 0.000000 -0.289300 0.000000
# 6 0.000000 0.000000 0.000000 0.000000 0.000000 0.032949
#
#
# Mechanical properties :
#
#
# Convention : Reuss Voigt Hill
#
# Bulk Modulus (GPa) = 19.16684 41.83295 30.49990
# Shear Modulus (GPa) = -30.79945 38.19880 3.69968
#
# Velocity S-wave (km/s) = -3.66447 4.08098 1.27005
# Velocity P-wave (km/s) = 3.08996 6.35961 3.93045
#
# Compressibility (1/GPa) = 0.05217343
#
# Stress axis : x y z
#
# Youngs Moduli (GPa) = 25.75112 166.37478 163.59455
#
# Poissons Ratio (x) = 0.51901 -0.68528
# Poissons Ratio (y) = 0.08033 0.07540
# Poissons Ratio (z) = -0.10787 0.07668
#
# Static dielectric constant tensor:
#      x y z
#    x 3.351190 0.000000 0.000000 
#    y 0.000000 4.569360 0.000000 
#    z 0.000000 0.000000 5.890800 
# 
# 
# High freq. dielectric constant tensor:
#      x y z
#    x 1.830170 0.000000 0.000000 
#    y 0.000000 1.926410 0.000000 
#    z 0.000000 0.000000 1.955420 
# 
# From -- ./inp_files/248.got.cif
#   From: 2010.03.12/outbox.cif.g09.slc.cpg/sg27_1_cif.got.tgz:248.got - 2010.04.14 03:36:05.
