data_PCOD8167716
_publ_section_title
;
Structure prediction by ZEFSAII (Michael W. Deem and Ramdas Pophale) SiO2 
 PCOD8167716
Probable space group: P M C 21
;
_chemical_formula_sum "Si O2"
_cell_formula_units_Z 24
_cell_length_a 8.335330
_cell_length_b 11.859938
_cell_length_c 11.811482
_cell_angle_alpha 90.000000
_cell_angle_beta 90.000000
_cell_angle_gamma 90.000000
_cell_volume 1167.641735
_symmetry_space_group_name_H-M "P M C 21"
_symmetry_group_IT_number 26
_symmetry_cell_setting 'orthorhombic'
loop_
_space_group_symop_operation_xyz
x,y,z
-x,-y,1/2+z
-x,y,z
x,-y,1/2+z
loop_
_atom_site_type_symbol
_atom_site_label
_atom_site_fract_x
_atom_site_fract_y
_atom_site_fract_z
Si Si1 0.688135 0.725261 0.912780
Si Si2 0.684963 0.219616 0.065107
Si Si3 0.315028 0.349676 0.660043
Si Si4 0.185225 0.830635 0.325217
Si Si5 0.186248 0.587952 0.713094
Si Si6 0.813475 0.082053 0.267686
O O1 0.500000 0.748663 0.905380
O O2 0.733414 0.620579 0.832363
O O3 0.779886 0.838374 0.875449
O O4 0.743869 0.696370 0.039207
O O5 0.500000 0.219407 0.029143
O O6 0.731668 0.342631 0.111773
O O7 0.713584 0.125054 0.160238
O O8 0.793055 0.192600 0.957405
O O9 0.500000 0.386971 0.655332
O O10 0.293622 0.253407 0.753000
O O11 0.207565 0.456033 0.693040
O O12 0.000000 0.813293 0.292985
O O13 0.243389 0.956801 0.297701
O O14 0.000000 0.619765 0.717537
O O15 0.000000 0.086481 0.236992
#
# Coordination Sequence:
#
# PCOD8167716 Si02
#       6
#     4   4   4   4   4   4
#     4  10  22  41  65  92 124 162 206 254 309 368
#     4  11  23  41  66  92 125 164 207 256 308 369
#     4  11  25  42  63  93 127 163 206 256 309 366
#     4  11  25  42  63  93 127 164 207 256 309 365
#     4  11  23  41  66  92 124 164 208 254 308 370
#     4  10  22  41  65  92 125 163 206 254 307 368
#
# _framework density 20.55425
#
# number of rings (size 3 to 8) (size 9 to 14) (size 15 to 20)
#    0.000    1.333    0.000    7.000    4.667    5.333 
#    0.000    0.000    0.000    0.000    0.000    0.000 
#    0.000    0.000    0.000    0.000    0.000    0.000 
#
# Total GULP energy -297782.775218 kJ/mol
# GULP energy per Si atom -12407.615634 kJ/mol
# Density = 2.050747 g / cm^3
# Si number density = 20.554250 Si / 1000 Ang^3
#
#
#
# Elastic Constant Matrix: (Units=GPa)
#
#
# Indices 1 2 3 4 5 6 
#
# 1 53.8177 13.7013 0.0909 0.0000 0.0000 0.0000
# 2 13.7013 140.6410 57.6486 0.0000 0.0000 0.0000
# 3 0.0909 57.6486 115.0372 0.0000 0.0000 0.0000
# 4 0.0000 0.0000 0.0000 15.9935 0.0000 0.0000
# 5 0.0000 0.0000 0.0000 0.0000 30.3149 0.0000
# 6 0.0000 0.0000 0.0000 0.0000 0.0000 30.4927
#
#
#
# Elastic Compliance Matrix: (Units=1/GPa)
#
#
# Indices 1 2 3 4 5 6 
#
# 1 0.019176 -0.002343 0.001159 0.000000 0.000000 0.000000
# 2 -0.002343 0.009235 -0.004626 0.000000 0.000000 0.000000
# 3 0.001159 -0.004626 0.011010 0.000000 0.000000 0.000000
# 4 0.000000 0.000000 0.000000 0.062525 0.000000 0.000000
# 5 0.000000 0.000000 0.000000 0.000000 0.032987 0.000000
# 6 0.000000 0.000000 0.000000 0.000000 0.000000 0.032795
#
#
# Mechanical properties :
#
#
# Convention : Reuss Voigt Hill
#
# Bulk Modulus (GPa) = 35.97045 50.26415 43.11730
# Shear Modulus (GPa) = 26.50905 31.23058 28.86981
#
# Velocity S-wave (km/s) = 3.59515 3.90220 3.75182
# Velocity P-wave (km/s) = 5.89676 6.69406 6.30802
#
# Compressibility (1/GPa) = 0.02780060
#
# Stress axis : x y z
#
# Youngs Moduli (GPa) = 52.14888 108.28654 90.82542
#
# Poissons Ratio (x) = 0.25374 -0.10528
# Poissons Ratio (y) = 0.12220 0.42016
# Poissons Ratio (z) = -0.06045 0.50093
#
# Static dielectric constant tensor:
#      x y z
#    x 3.663450 0.000000 0.000000 
#    y 0.000000 3.726400 0.000000 
#    z 0.000000 0.000000 3.728020 
# 
# 
# High freq. dielectric constant tensor:
#      x y z
#    x 1.814200 0.000000 0.000000 
#    y 0.000000 1.809170 0.000000 
#    z 0.000000 0.000000 1.808070 
# 
# From -- ./inp_files/2800.got.cif
#   From: 2010.03.12/outbox.cif.g09.slc.cpg/sg26_2_cif.got.tgz:2800.got - 2010.04.14 03:33:09.
