data_PCOD8167266
_publ_section_title
;
Structure prediction by ZEFSAII (Michael W. Deem and Ramdas Pophale) SiO2 
 PCOD8167266
Probable space group: P M C 21
;
_chemical_formula_sum "Si O2"
_cell_formula_units_Z 20
_cell_length_a 25.684346
_cell_length_b 7.671152
_cell_length_c 5.004497
_cell_angle_alpha 90.000000
_cell_angle_beta 90.000000
_cell_angle_gamma 90.000000
_cell_volume 986.028648
_symmetry_space_group_name_H-M "P M C 21"
_symmetry_group_IT_number 26
_symmetry_cell_setting 'orthorhombic'
loop_
_space_group_symop_operation_xyz
x,y,z
-x,-y,1/2+z
-x,y,z
x,-y,1/2+z
loop_
_atom_site_type_symbol
_atom_site_label
_atom_site_fract_x
_atom_site_fract_y
_atom_site_fract_z
Si Si1 0.905802 0.880688 0.396350
Si Si2 0.500000 0.112859 0.823569
Si Si3 0.815768 0.382595 0.891033
Si Si4 0.697957 0.611078 0.447820
Si Si5 0.000000 0.380622 0.970856
Si Si6 0.389825 0.115450 0.939460
O O1 0.850149 0.788859 0.432632
O O2 0.949323 0.735506 0.433087
O O3 0.911707 0.037644 0.604047
O O4 0.500000 0.060280 0.512460
O O5 0.445858 0.213950 0.891339
O O6 0.828098 0.467438 0.605572
O O7 0.756335 0.316208 0.910104
O O8 0.689136 0.552503 0.751874
O O9 0.657366 0.758763 0.371029
O O10 0.000000 0.541636 0.767464
O O11 0.386197 0.949467 0.743182
#
# Coordination Sequence:
#
# PCOD8167266 Si02
#       6
#     4   2   4   4   2   4
#     4  12  24  39  60  89 117 140 181 237 272 301
#     4   8  16  30  48  72 100 134 172 216 264 318
#     4  10  21  39  58  78 109 150 183 212 266 335
#     4  10  21  36  54  78 110 141 176 222 270 318
#     4  12  24  42  64  84 114 156 188 212 266 338
#     4  10  19  33  54  76 102 137 180 220 264 321
#
# _framework density 20.283384999999999
#
# number of rings (size 3 to 8) (size 9 to 14) (size 15 to 20)
#    0.000    1.600    0.000    5.400    0.000    1.600 
#    0.000    1.000    0.000    0.000    0.000    0.000 
#    0.000    0.000    0.000    0.000    0.000    0.000 
#
# Total GULP energy -248032.802361 kJ/mol
# GULP energy per Si atom -12401.640118 kJ/mol
# Density = 2.023722 g / cm^3
# Si number density = 20.283385 Si / 1000 Ang^3
#
#
#
# Elastic Constant Matrix: (Units=GPa)
#
#
# Indices 1 2 3 4 5 6 
#
# 1 148.1737 62.5821 25.6828 0.0000 0.0000 0.0000
# 2 62.5821 64.5208 6.7197 0.0000 0.0000 0.0000
# 3 25.6828 6.7197 75.9516 0.0000 0.0000 0.0000
# 4 0.0000 0.0000 0.0000 29.5203 0.0000 0.0000
# 5 0.0000 0.0000 0.0000 0.0000 27.1511 0.0000
# 6 0.0000 0.0000 0.0000 0.0000 0.0000 36.7685
#
#
#
# Elastic Compliance Matrix: (Units=1/GPa)
#
#
# Indices 1 2 3 4 5 6 
#
# 1 0.012108 -0.011423 -0.003084 0.000000 0.000000 0.000000
# 2 -0.011423 0.026420 0.001525 0.000000 0.000000 0.000000
# 3 -0.003084 0.001525 0.014074 0.000000 0.000000 0.000000
# 4 0.000000 0.000000 0.000000 0.033875 0.000000 0.000000
# 5 0.000000 0.000000 0.000000 0.000000 0.036831 0.000000
# 6 0.000000 0.000000 0.000000 0.000000 0.000000 0.027197
#
#
# Mechanical properties :
#
#
# Convention : Reuss Voigt Hill
#
# Bulk Modulus (GPa) = 37.53905 53.17949 45.35927
# Shear Modulus (GPa) = 26.97645 31.59875 29.28760
#
# Velocity S-wave (km/s) = 3.65084 3.95126 3.80402
# Velocity P-wave (km/s) = 6.02652 6.86234 6.45797
#
# Compressibility (1/GPa) = 0.02663893
#
# Stress axis : x y z
#
# Youngs Moduli (GPa) = 82.59122 37.85060 71.05279
#
# Poissons Ratio (x) = 0.43236 0.21910
# Poissons Ratio (y) = 0.94343 -0.10837
# Poissons Ratio (z) = 0.25468 -0.05773
#
# Static dielectric constant tensor:
#      x y z
#    x 4.060670 0.000000 0.000000 
#    y 0.000000 3.210830 0.000000 
#    z 0.000000 0.000000 3.839330 
# 
# 
# High freq. dielectric constant tensor:
#      x y z
#    x 1.816080 0.000000 0.000000 
#    y 0.000000 1.751770 0.000000 
#    z 0.000000 0.000000 1.814990 
# 
# From -- ./inp_files/1009.got.cif
#   From: 2010.03.12/outbox.cif.g09.slc.cpg/sg26_1_cif.got.tgz:1009.got - 2010.04.14 03:33:09.
