data_PCOD8167536
_publ_section_title
;
Structure prediction by ZEFSAII (Michael W. Deem and Ramdas Pophale) SiO2 
 PCOD8167536
Probable space group: P M C 21
;
_chemical_formula_sum "Si O2"
_cell_formula_units_Z 32
_cell_length_a 9.018994
_cell_length_b 12.225665
_cell_length_c 14.822331
_cell_angle_alpha 90.000000
_cell_angle_beta 90.000000
_cell_angle_gamma 90.000000
_cell_volume 1634.357637
_symmetry_space_group_name_H-M "P M C 21"
_symmetry_group_IT_number 26
_symmetry_cell_setting 'orthorhombic'
loop_
_space_group_symop_operation_xyz
x,y,z
-x,-y,1/2+z
-x,y,z
x,-y,1/2+z
loop_
_atom_site_type_symbol
_atom_site_label
_atom_site_fract_x
_atom_site_fract_y
_atom_site_fract_z
Si Si1 0.325378 0.378807 0.275660
Si Si2 0.675856 0.372878 0.781009
Si Si3 0.669237 0.012088 0.931471
Si Si4 0.166846 0.236946 0.134072
Si Si5 0.832826 0.001459 0.111036
Si Si6 0.673296 0.770327 0.937839
Si Si7 0.171496 0.775139 0.421773
Si Si8 0.829883 0.761652 0.128266
O O1 0.500000 0.375002 0.273211
O O2 0.267178 0.502534 0.277898
O O3 0.272441 0.320166 0.184833
O O4 0.268116 0.316792 0.364851
O O5 0.500000 0.365314 0.784530
O O6 0.741519 0.319958 0.870928
O O7 0.731926 0.313913 0.691370
O O8 0.500000 0.048750 0.918219
O O9 0.771448 0.105920 0.887180
O O10 0.697832 0.890308 0.892327
O O11 0.704978 0.001548 0.036935
O O12 0.000000 0.276541 0.151637
O O13 0.189395 0.111568 0.170614
O O14 0.203360 0.238834 0.027665
O O15 0.817844 0.887368 0.165255
O O16 0.000000 0.008045 0.067202
O O17 0.500000 0.754038 0.962488
O O18 0.771479 0.752994 0.026461
O O19 0.000000 0.765781 0.396552
O O20 0.000000 0.722112 0.130707
#
# Coordination Sequence:
#
# PCOD8167536 Si02
#       8
#     4   4   4   4   4   4   4   4
#     4  10  23  40  56  77 108 146 187 230 273 321
#     4  11  24  40  56  77 107 145 190 233 273 323
#     4   9  16  29  54  85 113 141 175 218 270 328
#     4   9  19  36  58  83 111 141 175 220 271 324
#     4   8  16  32  53  81 114 143 174 215 268 328
#     4   9  19  37  58  83 114 145 181 225 272 324
#     4  10  21  38  58  81 112 146 181 226 276 326
#     4  10  20  36  59  85 113 145 179 221 277 332
#
# _framework density 19.579559
#
# number of rings (size 3 to 8) (size 9 to 14) (size 15 to 20)
#    0.000    2.500    0.000    2.250    0.000    7.000 
#    0.000    6.250    0.000    0.000    0.000    0.000 
#    0.000    0.000    0.000    0.000    0.000    0.000 
#
# Total GULP energy -396649.670792 kJ/mol
# GULP energy per Si atom -12395.302212 kJ/mol
# Density = 1.953500 g / cm^3
# Si number density = 19.579559 Si / 1000 Ang^3
#
#
#
# Elastic Constant Matrix: (Units=GPa)
#
#
# Indices 1 2 3 4 5 6 
#
# 1 68.9191 55.1458 33.6480 0.0000 0.0000 0.0000
# 2 55.1458 170.5942 61.9811 0.0000 0.0000 0.0000
# 3 33.6480 61.9811 74.7134 0.0000 0.0000 0.0000
# 4 0.0000 0.0000 0.0000 31.5983 0.0000 0.0000
# 5 0.0000 0.0000 0.0000 0.0000 29.2168 0.0000
# 6 0.0000 0.0000 0.0000 0.0000 0.0000 26.6587
#
#
#
# Elastic Compliance Matrix: (Units=1/GPa)
#
#
# Indices 1 2 3 4 5 6 
#
# 1 0.021034 -0.004806 -0.005486 0.000000 0.000000 0.000000
# 2 -0.004806 0.009489 -0.005708 0.000000 0.000000 0.000000
# 3 -0.005486 -0.005708 0.020590 0.000000 0.000000 0.000000
# 4 0.000000 0.000000 0.000000 0.031647 0.000000 0.000000
# 5 0.000000 0.000000 0.000000 0.000000 0.034227 0.000000
# 6 0.000000 0.000000 0.000000 0.000000 0.000000 0.037511
#
#
# Mechanical properties :
#
#
# Convention : Reuss Voigt Hill
#
# Bulk Modulus (GPa) = 52.31761 68.41963 60.36862
# Shear Modulus (GPa) = 25.92443 28.39154 27.15799
#
# Velocity S-wave (km/s) = 3.64271 3.81210 3.72836
# Velocity P-wave (km/s) = 6.66865 7.37539 7.03091
#
# Compressibility (1/GPa) = 0.01911402
#
# Stress axis : x y z
#
# Youngs Moduli (GPa) = 47.54280 105.38274 48.56758
#
# Poissons Ratio (x) = 0.50650 0.26642
# Poissons Ratio (y) = 0.22850 0.27720
# Poissons Ratio (z) = 0.26080 0.60148
#
# Static dielectric constant tensor:
#      x y z
#    x 3.538890 0.000000 0.000000 
#    y 0.000000 3.993060 0.000000 
#    z 0.000000 0.000000 3.218410 
# 
# 
# High freq. dielectric constant tensor:
#      x y z
#    x 1.766230 0.000000 0.000000 
#    y 0.000000 1.772810 0.000000 
#    z 0.000000 0.000000 1.737350 
# 
# From -- ./inp_files/4266.got.cif
#   From: 2010.03.12/outbox.cif.g09.slc.cpg/sg26_3_cif.got.tgz:4266.got - 2010.04.14 03:33:09.
