data_PCOD8167699
_publ_section_title
;
Structure prediction by ZEFSAII (Michael W. Deem and Ramdas Pophale) SiO2 
 PCOD8167699
Probable space group: P M C 21
;
_chemical_formula_sum "Si O2"
_cell_formula_units_Z 24
_cell_length_a 9.243655
_cell_length_b 11.682375
_cell_length_c 11.866296
_cell_angle_alpha 90.000000
_cell_angle_beta 90.000000
_cell_angle_gamma 90.000000
_cell_volume 1281.415722
_symmetry_space_group_name_H-M "P M C 21"
_symmetry_group_IT_number 26
_symmetry_cell_setting 'orthorhombic'
loop_
_space_group_symop_operation_xyz
x,y,z
-x,-y,1/2+z
-x,y,z
x,-y,1/2+z
loop_
_atom_site_type_symbol
_atom_site_label
_atom_site_fract_x
_atom_site_fract_y
_atom_site_fract_z
Si Si1 0.831479 0.169525 0.152630
Si Si2 0.668631 0.203330 0.380344
Si Si3 0.168177 0.922236 0.066419
Si Si4 0.166218 0.702926 0.208343
Si Si5 0.833353 0.351048 0.960927
Si Si6 0.667975 0.575164 0.026932
O O1 0.737975 0.209163 0.257911
O O2 0.000000 0.171549 0.185660
O O3 0.782246 0.043621 0.114922
O O4 0.795649 0.255360 0.051912
O O5 0.500000 0.175884 0.370500
O O6 0.742231 0.103261 0.453441
O O7 0.698664 0.325370 0.437255
O O8 0.203507 0.828852 0.162101
O O9 0.000000 0.923263 0.032794
O O10 0.202799 0.703340 0.339950
O O11 0.260706 0.606583 0.146419
O O12 0.000000 0.671750 0.184955
O O13 0.000000 0.389318 0.968795
O O14 0.734481 0.460409 0.978078
O O15 0.500000 0.555715 0.048858
#
# Coordination Sequence:
#
# PCOD8167699 Si02
#       6
#     4   4   4   4   4   4
#     4  10  22  37  60  89 116 147 188 236 283 335
#     4  10  22  39  58  83 117 153 190 231 281 340
#     4   9  19  37  63  87 112 147 188 233 283 336
#     4   9  19  37  60  85 112 145 187 234 282 334
#     4  10  22  37  57  87 116 144 188 238 283 331
#     4  10  22  39  58  81 113 152 191 230 282 340
#
# _framework density 18.729284
#
# number of rings (size 3 to 8) (size 9 to 14) (size 15 to 20)
#    0.000    2.333    0.000    1.000    4.667    4.000 
#    0.000    0.000    0.000    0.000    0.000    0.000 
#    0.000    0.000    0.000    0.000    0.000    0.000 
#
# Total GULP energy -297718.910239 kJ/mol
# GULP energy per Si atom -12404.954593 kJ/mol
# Density = 1.868666 g / cm^3
# Si number density = 18.729284 Si / 1000 Ang^3
#
#
#
# Elastic Constant Matrix: (Units=GPa)
#
#
# Indices 1 2 3 4 5 6 
#
# 1 88.2272 53.2885 71.1794 0.0000 0.0000 0.0000
# 2 53.2885 97.4213 51.6580 0.0000 0.0000 0.0000
# 3 71.1794 51.6580 154.1002 0.0000 0.0000 0.0000
# 4 0.0000 0.0000 0.0000 20.4941 0.0000 0.0000
# 5 0.0000 0.0000 0.0000 0.0000 19.8002 0.0000
# 6 0.0000 0.0000 0.0000 0.0000 0.0000 21.8488
#
#
#
# Elastic Compliance Matrix: (Units=1/GPa)
#
#
# Indices 1 2 3 4 5 6 
#
# 1 0.022452 -0.008248 -0.007606 0.000000 0.000000 0.000000
# 2 -0.008248 0.015514 -0.001391 0.000000 0.000000 0.000000
# 3 -0.007606 -0.001391 0.010469 0.000000 0.000000 0.000000
# 4 0.000000 0.000000 0.000000 0.048795 0.000000 0.000000
# 5 0.000000 0.000000 0.000000 0.000000 0.050504 0.000000
# 6 0.000000 0.000000 0.000000 0.000000 0.000000 0.045769
#
#
# Mechanical properties :
#
#
# Convention : Reuss Voigt Hill
#
# Bulk Modulus (GPa) = 71.70865 76.88895 74.29880
# Shear Modulus (GPa) = 21.49233 23.33681 22.41457
#
# Velocity S-wave (km/s) = 3.39119 3.53371 3.46318
# Velocity P-wave (km/s) = 7.32827 7.60207 7.46642
#
# Compressibility (1/GPa) = 0.01394532
#
# Stress axis : x y z
#
# Youngs Moduli (GPa) = 44.53861 64.45858 95.52335
#
# Poissons Ratio (x) = 0.53167 0.72654
# Poissons Ratio (y) = 0.36736 0.13285
# Poissons Ratio (z) = 0.33875 0.08964
#
# Static dielectric constant tensor:
#      x y z
#    x 3.444660 0.000000 0.000000 
#    y 0.000000 3.473300 0.000000 
#    z 0.000000 0.000000 3.476090 
# 
# 
# High freq. dielectric constant tensor:
#      x y z
#    x 1.723690 0.000000 0.000000 
#    y 0.000000 1.730610 0.000000 
#    z 0.000000 0.000000 1.735070 
# 
# From -- ./inp_files/2790.got.cif
#   From: 2010.03.12/outbox.cif.g09.slc.cpg/sg26_2_cif.got.tgz:2790.got - 2010.04.14 03:33:09.
