data_PCOD8167167
_publ_section_title
;
Structure prediction by ZEFSAII (Michael W. Deem and Ramdas Pophale) SiO2 
 PCOD8167167
Probable space group: P M C 21
;
_chemical_formula_sum "Si O2"
_cell_formula_units_Z 32
_cell_length_a 8.875718
_cell_length_b 12.156740
_cell_length_c 15.392649
_cell_angle_alpha 90.000000
_cell_angle_beta 90.000000
_cell_angle_gamma 90.000000
_cell_volume 1660.863688
_symmetry_space_group_name_H-M "P M C 21"
_symmetry_group_IT_number 26
_symmetry_cell_setting 'orthorhombic'
loop_
_space_group_symop_operation_xyz
x,y,z
-x,-y,1/2+z
-x,y,z
x,-y,1/2+z
loop_
_atom_site_type_symbol
_atom_site_label
_atom_site_fract_x
_atom_site_fract_y
_atom_site_fract_z
Si Si1 0.323553 0.963833 0.939620
Si Si2 0.820633 0.353231 0.788666
Si Si3 0.179058 0.490075 0.441556
Si Si4 0.822091 0.101843 0.784994
Si Si5 0.822270 0.967256 0.614320
Si Si6 0.824384 0.750269 0.891265
Si Si7 0.175159 0.743523 0.695462
Si Si8 0.180204 0.487570 0.137178
O O1 0.500000 0.969021 0.925766
O O2 0.248515 0.031880 0.862229
O O3 0.268574 0.838010 0.946100
O O4 0.278195 0.012358 0.031380
O O5 0.759799 0.415795 0.875499
O O6 0.761572 0.227652 0.788183
O O7 0.762044 0.415453 0.701418
O O8 0.000000 0.354764 0.788968
O O9 0.235135 0.372011 0.408531
O O10 0.242521 0.501298 0.539163
O O11 0.000000 0.495611 0.441166
O O12 0.000000 0.097273 0.798762
O O13 0.778192 0.049923 0.692147
O O14 0.771928 0.843222 0.635920
O O15 0.000000 0.976320 0.593705
O O16 0.789040 0.779835 0.792511
O O17 0.000000 0.761332 0.915368
O O18 0.250978 0.627469 0.670903
O O19 0.000000 0.723254 0.683653
O O20 0.000000 0.488736 0.137341
#
# Coordination Sequence:
#
# PCOD8167167 Si02
#       8
#     4   4   4   4   4   4   4   4
#     4  12  26  40  56  81 115 155 193 237 287 341
#     4   9  17  29  47  81 119 143 173 222 280 337
#     4   9  17  27  48  81 115 143 172 222 284 335
#     4  10  21  38  61  87 116 150 191 237 282 334
#     4  10  21  37  59  86 113 149 193 239 284 333
#     4  10  18  35  59  82 108 143 190 239 279 328
#     4   9  16  30  53  81 113 143 182 233 281 328
#     4   9  16  26  44  79 117 144 170 217 285 338
#
# _framework density 19.267084000000001
#
# number of rings (size 3 to 8) (size 9 to 14) (size 15 to 20)
#    0.000    2.250    2.500    1.125    3.500    0.500 
#    0.000    0.000    0.000    0.750    0.000    0.000 
#    0.000    0.000    0.000    0.000    0.000    0.000 
#
# Total GULP energy -396655.881179 kJ/mol
# GULP energy per Si atom -12395.496287 kJ/mol
# Density = 1.922323 g / cm^3
# Si number density = 19.267084 Si / 1000 Ang^3
#
#
#
# Elastic Constant Matrix: (Units=GPa)
#
#
# Indices 1 2 3 4 5 6 
#
# 1 28.5147 24.1899 22.2698 0.0000 0.0000 0.0000
# 2 24.1899 134.7593 28.9898 0.0000 0.0000 0.0000
# 3 22.2698 28.9898 108.1136 0.0000 0.0000 0.0000
# 4 0.0000 0.0000 0.0000 39.7134 0.0000 0.0000
# 5 0.0000 0.0000 0.0000 0.0000 -10.6409 0.0000
# 6 0.0000 0.0000 0.0000 0.0000 0.0000 1.1430
#
#
#
# Elastic Compliance Matrix: (Units=1/GPa)
#
#
# Indices 1 2 3 4 5 6 
#
# 1 0.046918 -0.006731 -0.007860 0.000000 0.000000 0.000000
# 2 -0.006731 0.008841 -0.000984 0.000000 0.000000 0.000000
# 3 -0.007860 -0.000984 0.011132 0.000000 0.000000 0.000000
# 4 0.000000 0.000000 0.000000 0.025180 0.000000 0.000000
# 5 0.000000 0.000000 0.000000 0.000000 -0.093977 0.000000
# 6 0.000000 0.000000 0.000000 0.000000 0.000000 0.874857
#
#
# Mechanical properties :
#
#
# Convention : Reuss Voigt Hill
#
# Bulk Modulus (GPa) = 27.97864 46.92076 37.44970
# Shear Modulus (GPa) = 5.45842 19.10564 12.28203
#
# Velocity S-wave (km/s) = 1.68499 3.15242 2.52754
# Velocity P-wave (km/s) = 4.28236 6.13645 5.29125
#
# Compressibility (1/GPa) = 0.03574155
#
# Stress axis : x y z
#
# Youngs Moduli (GPa) = 21.31368 113.11439 89.82845
#
# Poissons Ratio (x) = 0.76140 0.70601
# Poissons Ratio (y) = 0.14347 0.08839
# Poissons Ratio (z) = 0.16752 0.11130
#
# Static dielectric constant tensor:
#      x y z
#    x 2.854460 0.000000 0.000000 
#    y 0.000000 3.862750 0.000000 
#    z 0.000000 0.000000 3.672300 
# 
# 
# High freq. dielectric constant tensor:
#      x y z
#    x 1.675320 0.000000 0.000000 
#    y 0.000000 1.770970 0.000000 
#    z 0.000000 0.000000 1.762400 
# 
# From -- ./inp_files/4165.got.cif
#   From: 2010.03.12/outbox.cif.g09.slc.cpg/sg26_3_cif.got.tgz:4165.got - 2010.04.14 03:33:09.
