data_PCOD8167086
_publ_section_title
;
Structure prediction by ZEFSAII (Michael W. Deem and Ramdas Pophale) SiO2 
 PCOD8167086
Probable space group: P M C 21
;
_chemical_formula_sum "Si O2"
_cell_formula_units_Z 24
_cell_length_a 10.371447
_cell_length_b 13.839723
_cell_length_c 9.027608
_cell_angle_alpha 90.000000
_cell_angle_beta 90.000000
_cell_angle_gamma 90.000000
_cell_volume 1295.804378
_symmetry_space_group_name_H-M "P M C 21"
_symmetry_group_IT_number 26
_symmetry_cell_setting 'orthorhombic'
loop_
_space_group_symop_operation_xyz
x,y,z
-x,-y,1/2+z
-x,y,z
x,-y,1/2+z
loop_
_atom_site_type_symbol
_atom_site_label
_atom_site_fract_x
_atom_site_fract_y
_atom_site_fract_z
Si Si1 0.000000 0.069240 0.065781
Si Si2 0.500000 0.076112 0.083225
Si Si3 0.150185 0.568063 0.346144
Si Si4 0.754522 0.183669 0.114084
Si Si5 0.752833 0.236190 0.772387
Si Si6 0.149450 0.619588 0.679945
Si Si7 0.000000 0.875477 0.223456
Si Si8 0.500000 0.125882 0.738059
O O1 0.875068 0.114415 0.145225
O O2 0.000000 0.082140 0.889379
O O3 0.000000 0.956599 0.098750
O O4 0.623795 0.128055 0.155858
O O5 0.500000 0.963553 0.124994
O O6 0.500000 0.085237 0.905499
O O7 0.235157 0.647604 0.257199
O O8 0.176427 0.574574 0.519630
O O9 0.192669 0.460840 0.297916
O O10 0.000000 0.586759 0.308139
O O11 0.767546 0.283043 0.207922
O O12 0.757877 0.211897 0.944037
O O13 0.874044 0.188058 0.691532
O O14 0.622258 0.193812 0.702975
O O15 0.000000 0.648118 0.695915
#
# Coordination Sequence:
#
# PCOD8167086 Si02
#       8
#     2   2   4   4   4   4   2   2
#     4  10  18  30  47  68  92 120 155 196 235 274
#     4  10  20  34  51  70  94 128 163 194 233 282
#     4   9  16  29  49  71  94 122 155 192 233 279
#     4   9  17  31  50  69  93 126 159 189 232 286
#     4   9  17  31  50  69  93 126 159 189 232 286
#     4   9  16  29  49  71  94 122 155 192 233 279
#     4  10  18  30  47  68  92 120 155 196 235 274
#     4  10  20  34  51  70  94 128 163 194 233 282
#
# _framework density 18.521315000000001
#
# number of rings (size 3 to 8) (size 9 to 14) (size 15 to 20)
#    0.000    2.667    1.667    1.000    0.000    0.000 
#    0.000    4.167    0.000    0.000    0.000    0.000 
#    0.000    0.000    0.000    0.000    0.000    0.000 
#
# Total GULP energy -297539.897332 kJ/mol
# GULP energy per Si atom -12397.495722 kJ/mol
# Density = 1.847916 g / cm^3
# Si number density = 18.521315 Si / 1000 Ang^3
#
#
#
# Elastic Constant Matrix: (Units=GPa)
#
#
# Indices 1 2 3 4 5 6 
#
# 1 109.6682 14.9004 2.9526 0.0000 0.0000 0.0000
# 2 14.9004 34.7241 -4.5354 0.0000 0.0000 0.0000
# 3 2.9526 -4.5354 13.1027 0.0000 0.0000 0.0000
# 4 0.0000 0.0000 0.0000 31.7670 0.0000 0.0000
# 5 0.0000 0.0000 0.0000 0.0000 8.3299 0.0000
# 6 0.0000 0.0000 0.0000 0.0000 0.0000 34.0824
#
#
#
# Elastic Compliance Matrix: (Units=1/GPa)
#
#
# Indices 1 2 3 4 5 6 
#
# 1 0.009866 -0.004738 -0.003863 0.000000 0.000000 0.000000
# 2 -0.004738 0.032438 0.012296 0.000000 0.000000 0.000000
# 3 -0.003863 0.012296 0.081447 0.000000 0.000000 0.000000
# 4 0.000000 0.000000 0.000000 0.031479 0.000000 0.000000
# 5 0.000000 0.000000 0.000000 0.000000 0.120050 0.000000
# 6 0.000000 0.000000 0.000000 0.000000 0.000000 0.029341
#
#
# Mechanical properties :
#
#
# Convention : Reuss Voigt Hill
#
# Bulk Modulus (GPa) = 7.62551 20.45891 14.04221
# Shear Modulus (GPa) = 14.66510 24.44768 19.55639
#
# Velocity S-wave (km/s) = 2.81694 3.63709 3.25296
# Velocity P-wave (km/s) = 3.83488 5.35798 4.65909
#
# Compressibility (1/GPa) = 0.13113881
#
# Stress axis : x y z
#
# Youngs Moduli (GPa) = 101.35603 30.82838 12.27796
#
# Poissons Ratio (x) = 0.14607 0.04743
# Poissons Ratio (y) = 0.48025 -0.15097
# Poissons Ratio (z) = 0.39158 -0.37906
#
# Static dielectric constant tensor:
#      x y z
#    x 3.618510 0.000000 0.000000 
#    y 0.000000 3.556400 0.000000 
#    z 0.000000 0.000000 2.975820 
# 
# 
# High freq. dielectric constant tensor:
#      x y z
#    x 1.706180 0.000000 0.000000 
#    y 0.000000 1.730730 0.000000 
#    z 0.000000 0.000000 1.677240 
# 
# From -- ./inp_files/1874.got.cif
#   From: 2010.03.12/outbox.cif.g09.slc.cpg/sg26_1_cif.got.tgz:1874.got - 2010.04.14 03:33:09.
