data_PCOD8167242
_publ_section_title
;
Structure prediction by ZEFSAII (Michael W. Deem and Ramdas Pophale) SiO2 
 PCOD8167242
Probable space group: P M C 21
;
_chemical_formula_sum "Si O2"
_cell_formula_units_Z 32
_cell_length_a 8.427141
_cell_length_b 11.410598
_cell_length_c 16.599826
_cell_angle_alpha 90.000000
_cell_angle_beta 90.000000
_cell_angle_gamma 90.000000
_cell_volume 1596.217991
_symmetry_space_group_name_H-M "P M C 21"
_symmetry_group_IT_number 26
_symmetry_cell_setting 'orthorhombic'
loop_
_space_group_symop_operation_xyz
x,y,z
-x,-y,1/2+z
-x,y,z
x,-y,1/2+z
loop_
_atom_site_type_symbol
_atom_site_label
_atom_site_fract_x
_atom_site_fract_y
_atom_site_fract_z
Si Si1 0.311529 0.936445 0.020570
Si Si2 0.312440 0.198526 0.978849
Si Si3 0.181753 0.298035 0.136866
Si Si4 0.678642 0.766001 0.890291
Si Si5 0.689518 0.559060 0.784720
Si Si6 0.814339 0.304040 0.812837
Si Si7 0.684533 0.123845 0.699229
Si Si8 0.177048 0.100188 0.258073
O O1 0.500000 0.939503 0.009720
O O2 0.260128 0.891811 0.107782
O O3 0.235874 0.833828 0.963951
O O4 0.247226 0.066797 0.998514
O O5 0.500000 0.197690 0.968829
O O6 0.237698 0.244255 0.896126
O O7 0.267157 0.289612 0.050183
O O8 0.260471 0.394545 0.196064
O O9 0.196838 0.167849 0.173697
O O10 0.000000 0.335325 0.123679
O O11 0.500000 0.738021 0.915413
O O12 0.755068 0.646148 0.855627
O O13 0.685270 0.856356 0.816612
O O14 0.500000 0.548701 0.786311
O O15 0.771536 0.439617 0.809479
O O16 0.721939 0.250626 0.735724
O O17 0.000000 0.286564 0.801543
O O18 0.500000 0.092897 0.708073
O O19 0.793804 0.036661 0.749779
O O20 0.000000 0.121918 0.293139
#
# Coordination Sequence:
#
# PCOD8167242 Si02
#       8
#     4   4   4   4   4   4   4   4
#     4   9  19  35  59  91 121 149 190 248 301 354
#     4  11  21  38  64  94 123 158 205 251 304 368
#     4  10  20  36  60  90 124 159 198 250 304 357
#     4   9  18  35  60  87 114 149 196 247 296 349
#     4  10  21  40  64  87 115 158 211 256 300 364
#     4  12  26  43  60  85 123 164 205 257 317 367
#     4  11  21  37  59  84 119 158 200 247 299 359
#     4  10  19  32  54  86 121 155 191 234 297 358
#
# _framework density 20.047387000000001
#
# number of rings (size 3 to 8) (size 9 to 14) (size 15 to 20)
#    0.000    1.750    1.250    3.750    0.000    2.500 
#    2.250    1.875    0.000    0.000    0.000    0.000 
#    0.000    0.000    0.000    0.000    0.000    0.000 
#
# Total GULP energy -396574.783713 kJ/mol
# GULP energy per Si atom -12392.961991 kJ/mol
# Density = 2.000176 g / cm^3
# Si number density = 20.047387 Si / 1000 Ang^3
#
#
#
# Elastic Constant Matrix: (Units=GPa)
#
#
# Indices 1 2 3 4 5 6 
#
# 1 59.3529 17.0040 24.6315 0.0000 0.0000 0.0000
# 2 17.0040 120.7441 78.5513 0.0000 0.0000 0.0000
# 3 24.6315 78.5513 120.4469 0.0000 0.0000 0.0000
# 4 0.0000 0.0000 0.0000 27.6151 0.0000 0.0000
# 5 0.0000 0.0000 0.0000 0.0000 24.7475 0.0000
# 6 0.0000 0.0000 0.0000 0.0000 0.0000 22.9598
#
#
#
# Elastic Compliance Matrix: (Units=1/GPa)
#
#
# Indices 1 2 3 4 5 6 
#
# 1 0.018415 -0.000249 -0.003603 0.000000 0.000000 0.000000
# 2 -0.000249 0.014389 -0.009333 0.000000 0.000000 0.000000
# 3 -0.003603 -0.009333 0.015126 0.000000 0.000000 0.000000
# 4 0.000000 0.000000 0.000000 0.036212 0.000000 0.000000
# 5 0.000000 0.000000 0.000000 0.000000 0.040408 0.000000
# 6 0.000000 0.000000 0.000000 0.000000 0.000000 0.043554
#
#
# Mechanical properties :
#
#
# Convention : Reuss Voigt Hill
#
# Bulk Modulus (GPa) = 46.38451 60.10195 53.24323
# Shear Modulus (GPa) = 24.79404 27.08829 25.94116
#
# Velocity S-wave (km/s) = 3.52059 3.67987 3.60111
# Velocity P-wave (km/s) = 6.30188 6.93544 6.62624
#
# Compressibility (1/GPa) = 0.02155892
#
# Stress axis : x y z
#
# Youngs Moduli (GPa) = 54.30300 69.49935 66.11182
#
# Poissons Ratio (x) = 0.01731 0.23823
# Poissons Ratio (y) = 0.01352 0.61701
# Poissons Ratio (z) = 0.19568 0.64863
#
# Static dielectric constant tensor:
#      x y z
#    x 3.485310 0.000000 0.000000 
#    y 0.000000 3.689700 0.000000 
#    z 0.000000 0.000000 3.754620 
# 
# 
# High freq. dielectric constant tensor:
#      x y z
#    x 1.773390 0.000000 0.000000 
#    y 0.000000 1.777150 0.000000 
#    z 0.000000 0.000000 1.783600 
# 
# From -- ./inp_files/4215.got.cif
#   From: 2010.03.12/outbox.cif.g09.slc.cpg/sg26_3_cif.got.tgz:4215.got - 2010.04.14 03:33:09.
