data_PCOD8167852
_publ_section_title
;
Structure prediction by ZEFSAII (Michael W. Deem and Ramdas Pophale) SiO2 
 PCOD8167852
Probable space group: P C C 2
;
_chemical_formula_sum "Si O2"
_cell_formula_units_Z 24
_cell_length_a 27.582262
_cell_length_b 6.883054
_cell_length_c 5.304743
_cell_angle_alpha 90.000000
_cell_angle_beta 90.000000
_cell_angle_gamma 90.000000
_cell_volume 1007.106513
_symmetry_space_group_name_H-M "P C C 2"
_symmetry_group_IT_number 27
_symmetry_cell_setting 'orthorhombic'
loop_
_space_group_symop_operation_xyz
x,y,z
-x,-y,z
-x,y,1/2+z
x,-y,1/2+z
loop_
_atom_site_type_symbol
_atom_site_label
_atom_site_fract_x
_atom_site_fract_y
_atom_site_fract_z
Si Si1 0.020297 0.215099 0.949510
Si Si2 0.880457 0.376869 0.528605
Si Si3 0.479686 0.718127 0.962712
Si Si4 0.325686 0.793924 0.476264
Si Si5 0.773178 0.626908 0.999933
Si Si6 0.633617 0.770803 0.476091
O O1 0.006241 0.321967 0.685686
O O2 0.078321 0.213661 0.989924
O O3 0.000000 0.000000 0.906716
O O4 0.886632 0.536782 0.308905
O O5 0.827134 0.279452 0.503112
O O6 0.500000 0.500000 0.931887
O O7 0.494103 0.823254 0.699914
O O8 0.422935 0.734768 0.005874
O O9 0.267070 0.798477 0.499535
O O10 0.347907 0.675744 0.714565
O O11 0.349754 0.004846 0.455776
O O12 0.340745 0.677903 0.221852
O O13 0.765944 0.497880 0.248046
#
# Coordination Sequence:
#
# PCOD8167852 Si02
#       6
#     4   4   4   4   4   4
#     4  10  21  37  55  85 126 161 210 255 304 360
#     4  10  21  37  61  86 120 163 206 255 307 361
#     4  10  21  40  59  86 120 151 193 237 288 353
#     4  10  21  40  60  89 117 155 193 250 297 356
#     4  10  21  40  60  91 121 155 202 250 305 359
#     4  10  21  40  62  87 120 151 199 234 296 361
#
# _framework density 23.830645000000001
#
# number of rings (size 3 to 8) (size 9 to 14) (size 15 to 20)
#    0.000    2.000    0.000    3.000    0.000    2.000 
#   18.000   16.667    0.000    0.000    0.000    0.000 
#    0.000    0.000    0.000    0.000    0.000    0.000 
#
# Total GULP energy -297315.520421 kJ/mol
# GULP energy per Si atom -12388.146684 kJ/mol
# Density = 2.377641 g / cm^3
# Si number density = 23.830645 Si / 1000 Ang^3
#
#
#
# Elastic Constant Matrix: (Units=GPa)
#
#
# Indices 1 2 3 4 5 6 
#
# 1 191.5980 24.0096 14.0505 0.0000 0.0000 0.0000
# 2 24.0096 53.8584 -24.5525 0.0000 0.0000 0.0000
# 3 14.0505 -24.5525 228.0655 0.0000 0.0000 0.0000
# 4 0.0000 0.0000 0.0000 -9.8088 0.0000 0.0000
# 5 0.0000 0.0000 0.0000 0.0000 46.1293 0.0000
# 6 0.0000 0.0000 0.0000 0.0000 0.0000 94.3859
#
#
#
# Elastic Compliance Matrix: (Units=1/GPa)
#
#
# Indices 1 2 3 4 5 6 
#
# 1 0.005618 -0.002799 -0.000647 0.000000 0.000000 0.000000
# 2 -0.002799 0.020920 0.002425 0.000000 0.000000 0.000000
# 3 -0.000647 0.002425 0.004686 0.000000 0.000000 0.000000
# 4 0.000000 0.000000 0.000000 -0.101949 0.000000 0.000000
# 5 0.000000 0.000000 0.000000 0.000000 0.021678 0.000000
# 6 0.000000 0.000000 0.000000 0.000000 0.000000 0.010595
#
#
# Mechanical properties :
#
#
# Convention : Reuss Voigt Hill
#
# Bulk Modulus (GPa) = 34.27089 55.61523 44.94306
# Shear Modulus (GPa) = -187.39295 56.80890 -65.29202
#
# Velocity S-wave (km/s) = -8.87727 4.88777 -5.24002
# Velocity P-wave (km/s) = 9.52168 7.43251 4.20834
#
# Compressibility (1/GPa) = 0.02917928
#
# Stress axis : x y z
#
# Youngs Moduli (GPa) = 178.01385 47.80003 213.41888
#
# Poissons Ratio (x) = 0.13381 0.13818
# Poissons Ratio (y) = 0.49833 -0.51747
# Poissons Ratio (z) = 0.11526 -0.11590
#
# Static dielectric constant tensor:
#      x y z
#    x 4.477370 0.000000 0.000000 
#    y 0.000000 3.565760 0.000000 
#    z 0.000000 0.000000 6.738650 
# 
# 
# High freq. dielectric constant tensor:
#      x y z
#    x 1.954150 0.000000 0.000000 
#    y 0.000000 1.896830 0.000000 
#    z 0.000000 0.000000 1.996160 
# 
# From -- ./inp_files/656.got.cif
#   From: 2010.03.12/outbox.cif.g09.slc.cpg/sg27_1_cif.got.tgz:656.got - 2010.04.14 03:36:05.
