data_PCOD8167635
_publ_section_title
;
Structure prediction by ZEFSAII (Michael W. Deem and Ramdas Pophale) SiO2 
 PCOD8167635
Probable space group: P M C 21
;
_chemical_formula_sum "Si O2"
_cell_formula_units_Z 32
_cell_length_a 8.766241
_cell_length_b 24.594610
_cell_length_c 7.667800
_cell_angle_alpha 90.000000
_cell_angle_beta 90.000000
_cell_angle_gamma 90.000000
_cell_volume 1653.195152
_symmetry_space_group_name_H-M "P M C 21"
_symmetry_group_IT_number 26
_symmetry_cell_setting 'orthorhombic'
loop_
_space_group_symop_operation_xyz
x,y,z
-x,-y,1/2+z
-x,y,z
x,-y,1/2+z
loop_
_atom_site_type_symbol
_atom_site_label
_atom_site_fract_x
_atom_site_fract_y
_atom_site_fract_z
Si Si1 0.181695 0.559195 0.792230
Si Si2 0.317802 0.172302 0.918636
Si Si3 0.667218 0.055677 0.902854
Si Si4 0.181559 0.365057 0.597912
Si Si5 0.818366 0.558805 0.403411
Si Si6 0.821082 0.167706 0.294848
Si Si7 0.179977 0.242044 0.617452
Si Si8 0.330771 0.941767 0.809776
O O1 0.245050 0.500232 0.848340
O O2 0.239861 0.573375 0.597669
O O3 0.000000 0.557975 0.797576
O O4 0.244795 0.604662 0.925346
O O5 0.500000 0.171061 0.926984
O O6 0.256578 0.113104 0.844888
O O7 0.260761 0.217903 0.787428
O O8 0.257601 0.184338 0.113248
O O9 0.500000 0.050029 0.814450
O O10 0.754477 0.999317 0.856682
O O11 0.650477 0.062366 0.106445
O O12 0.244253 0.395901 0.769634
O O13 0.240686 0.303440 0.598488
O O14 0.000000 0.366252 0.596430
O O15 0.000000 0.557536 0.398072
O O16 0.773356 0.211416 0.440430
O O17 0.769900 0.109092 0.371901
O O18 0.000000 0.166634 0.261487
O O19 0.000000 0.239118 0.649127
O O20 0.500000 0.938841 0.898151
#
# Coordination Sequence:
#
# PCOD8167635 Si02
#       8
#     4   4   4   4   4   4   4   4
#     4   9  14  21  36  60  91 129 170 214 258 304
#     4  10  21  38  60  81 103 139 187 237 278 317
#     4   8  16  29  49  76 100 125 166 221 274 319
#     4   9  17  28  41  64  98 138 179 210 255 322
#     4   9  14  21  37  60  91 130 172 215 256 303
#     4  10  21  37  54  76 111 148 181 221 272 334
#     4  10  22  37  54  77 111 153 187 219 269 336
#     4   9  17  31  51  76 103 132 174 223 270 325
#
# _framework density 19.356456000000001
#
# number of rings (size 3 to 8) (size 9 to 14) (size 15 to 20)
#    0.000    2.750    1.250    1.500    1.750    2.000 
#    0.000    6.875    0.000    0.000    0.000    0.000 
#    0.000    1.000    0.000    0.000    0.000    0.000 
#
# Total GULP energy -396533.218593 kJ/mol
# GULP energy per Si atom -12391.663081 kJ/mol
# Density = 1.931240 g / cm^3
# Si number density = 19.356456 Si / 1000 Ang^3
#
#
#
# Elastic Constant Matrix: (Units=GPa)
#
#
# Indices 1 2 3 4 5 6 
#
# 1 22.0436 15.2816 17.6773 0.0000 0.0000 0.0000
# 2 15.2816 181.9209 84.4097 0.0000 0.0000 0.0000
# 3 17.6773 84.4097 136.9900 0.0000 0.0000 0.0000
# 4 0.0000 0.0000 0.0000 38.1151 0.0000 0.0000
# 5 0.0000 0.0000 0.0000 0.0000 14.4166 0.0000
# 6 0.0000 0.0000 0.0000 0.0000 0.0000 -19.2326
#
#
#
# Elastic Compliance Matrix: (Units=1/GPa)
#
#
# Indices 1 2 3 4 5 6 
#
# 1 0.050983 -0.001723 -0.005517 0.000000 0.000000 0.000000
# 2 -0.001723 0.007756 -0.004557 0.000000 0.000000 0.000000
# 3 -0.005517 -0.004557 0.010819 0.000000 0.000000 0.000000
# 4 0.000000 0.000000 0.000000 0.026236 0.000000 0.000000
# 5 0.000000 0.000000 0.000000 0.000000 0.069364 0.000000
# 6 0.000000 0.000000 0.000000 0.000000 0.000000 -0.051995
#
#
# Mechanical properties :
#
#
# Convention : Reuss Voigt Hill
#
# Bulk Modulus (GPa) = 21.75561 63.96575 42.86068
# Shear Modulus (GPa) = 32.87752 21.56556 27.22154
#
# Velocity S-wave (km/s) = 4.12579 3.34148 3.75417
# Velocity P-wave (km/s) = 5.82753 6.92858 6.40177
#
# Compressibility (1/GPa) = 0.04596515
#
# Stress axis : x y z
#
# Youngs Moduli (GPa) = 19.61424 128.93487 92.42585
#
# Poissons Ratio (x) = 0.22211 0.50996
# Poissons Ratio (y) = 0.03379 0.42115
# Poissons Ratio (z) = 0.10822 0.58751
#
# Static dielectric constant tensor:
#      x y z
#    x 3.020040 0.000000 0.000000 
#    y 0.000000 3.934230 0.000000 
#    z 0.000000 0.000000 3.615180 
# 
# 
# High freq. dielectric constant tensor:
#      x y z
#    x 1.688160 0.000000 0.000000 
#    y 0.000000 1.763100 0.000000 
#    z 0.000000 0.000000 1.761370 
# 
# From -- ./inp_files/1625.got.cif
#   From: 2010.03.12/outbox.cif.g09.slc.cpg/sg26_1_cif.got.tgz:1625.got - 2010.04.14 03:33:09.
