data_PCOD8167037
_publ_section_title
;
Structure prediction by ZEFSAII (Michael W. Deem and Ramdas Pophale) SiO2 
 PCOD8167037
Probable space group: P M M 2
;
_chemical_formula_sum "Si O2"
_cell_formula_units_Z 28
_cell_length_a 9.231116
_cell_length_b 13.799352
_cell_length_c 15.611022
_cell_angle_alpha 90.000000
_cell_angle_beta 90.000000
_cell_angle_gamma 90.000000
_cell_volume 1988.585357
_symmetry_space_group_name_H-M "P M M 2"
_symmetry_group_IT_number 25
_symmetry_cell_setting 'orthorhombic'
loop_
_space_group_symop_operation_xyz
x,y,z
-x,-y,z
-x,y,z
x,-y,z
loop_
_atom_site_type_symbol
_atom_site_label
_atom_site_fract_x
_atom_site_fract_y
_atom_site_fract_z
Si Si1 0.663617 0.615391 0.080210
Si Si2 0.329157 0.725917 0.579221
Si Si3 0.835613 0.290940 0.740444
Si Si4 0.831571 0.612862 0.913157
Si Si5 0.835565 0.108424 0.646782
Si Si6 0.331951 0.612148 0.410212
Si Si7 0.163644 0.384582 0.243696
O O1 0.500000 0.655507 0.081973
O O2 0.664759 0.500000 0.083030
O O3 0.749623 0.657184 0.162061
O O4 0.742024 0.651729 0.994163
O O5 0.500000 0.729818 0.590779
O O6 0.260255 0.668281 0.660880
O O7 0.264057 0.835763 0.576530
O O8 0.282844 0.671675 0.493130
O O9 0.773963 0.327728 0.830864
O O10 0.830040 0.172493 0.734858
O O11 0.000000 0.329322 0.729553
O O12 0.802550 0.500000 0.895885
O O13 0.000000 0.632948 0.931525
O O14 0.000000 0.104774 0.611998
O O15 0.776270 0.000000 0.663803
O O16 0.500000 0.628140 0.388642
O O17 0.298599 0.500000 0.428490
O O18 0.240622 0.652007 0.330115
O O19 0.165338 0.500000 0.240840
O O20 0.000000 0.344657 0.241120
#
# Coordination Sequence:
#
# PCOD8167037 Si02
#       7
#     4   4   4   4   4   4   4
#     4   9  16  25  37  53  74 101 132 165 200 236
#     4   9  17  27  40  59  80 103 133 167 196 232
#     4   8  16  28  39  55  78 104 133 163 196 236
#     4   9  16  26  39  54  76 106 137 168 197 228
#     4   8  15  29  45  58  76 102 129 161 203 243
#     4   9  17  28  39  53  79 112 138 162 196 234
#     4   9  16  25  38  55  73  98 135 172 199 226
#
# _framework density 14.080361999999999
#
# number of rings (size 3 to 8) (size 9 to 14) (size 15 to 20)
#    0.857    2.429    0.000    0.857    0.000    6.000 
#    0.000    0.000    0.000    0.000    0.000    0.000 
#    0.000    1.143    0.000    6.000    0.000    3.000 
#
# Total GULP energy -346925.422294 kJ/mol
# GULP energy per Si atom -12390.193653 kJ/mol
# Density = 1.404831 g / cm^3
# Si number density = 14.080362 Si / 1000 Ang^3
#
#
#
# Elastic Constant Matrix: (Units=GPa)
#
#
# Indices 1 2 3 4 5 6 
#
# 1 83.7820 26.1670 70.5923 0.0000 0.0000 0.0000
# 2 26.1670 44.3782 43.4155 0.0000 0.0000 0.0000
# 3 70.5923 43.4155 142.2861 0.0000 0.0000 0.0000
# 4 0.0000 0.0000 0.0000 1.3679 0.0000 0.0000
# 5 0.0000 0.0000 0.0000 0.0000 28.8854 0.0000
# 6 0.0000 0.0000 0.0000 0.0000 0.0000 12.9713
#
#
#
# Elastic Compliance Matrix: (Units=1/GPa)
#
#
# Indices 1 2 3 4 5 6 
#
# 1 0.020802 -0.003092 -0.009377 0.000000 0.000000 0.000000
# 2 -0.003092 0.032582 -0.008408 0.000000 0.000000 0.000000
# 3 -0.009377 -0.008408 0.014246 0.000000 0.000000 0.000000
# 4 0.000000 0.000000 0.000000 0.731060 0.000000 0.000000
# 5 0.000000 0.000000 0.000000 0.000000 0.034620 0.000000
# 6 0.000000 0.000000 0.000000 0.000000 0.000000 0.077093
#
#
# Mechanical properties :
#
#
# Convention : Reuss Voigt Hill
#
# Bulk Modulus (GPa) = 38.64518 61.19955 49.92236
# Shear Modulus (GPa) = 5.20409 17.32968 11.26689
#
# Velocity S-wave (km/s) = 1.92458 3.51204 2.83182
# Velocity P-wave (km/s) = 5.69600 7.74627 6.79887
#
# Compressibility (1/GPa) = 0.02587645
#
# Stress axis : x y z
#
# Youngs Moduli (GPa) = 48.07131 30.69172 70.19601
#
# Poissons Ratio (x) = 0.09490 0.65824
# Poissons Ratio (y) = 0.14864 0.59018
# Poissons Ratio (z) = 0.45078 0.25805
#
# Static dielectric constant tensor:
#      x y z
#    x 2.832920 0.000000 0.000000 
#    y 0.000000 2.409570 0.000000 
#    z 0.000000 0.000000 2.800180 
# 
# 
# High freq. dielectric constant tensor:
#      x y z
#    x 1.546850 0.000000 0.000000 
#    y 0.000000 1.480870 0.000000 
#    z 0.000000 0.000000 1.534670 
# 
# From -- ./inp_files/4335.got.cif
#   From: 2010.03.12/outbox.cif.g09.slc.cpg/sg25_3_cif.got.tgz:4335.got - 2010.04.14 03:30:10.
