data_PCOD8167452
_publ_section_title
;
Structure prediction by ZEFSAII (Michael W. Deem and Ramdas Pophale) SiO2 
 PCOD8167452
Probable space group: P M C 21
;
_chemical_formula_sum "Si O2"
_cell_formula_units_Z 32
_cell_length_a 8.743726
_cell_length_b 24.261470
_cell_length_c 7.719669
_cell_angle_alpha 90.000000
_cell_angle_beta 90.000000
_cell_angle_gamma 90.000000
_cell_volume 1637.616971
_symmetry_space_group_name_H-M "P M C 21"
_symmetry_group_IT_number 26
_symmetry_cell_setting 'orthorhombic'
loop_
_space_group_symop_operation_xyz
x,y,z
-x,-y,1/2+z
-x,y,z
x,-y,1/2+z
loop_
_atom_site_type_symbol
_atom_site_label
_atom_site_fract_x
_atom_site_fract_y
_atom_site_fract_z
Si Si1 0.317904 0.560088 0.745960
Si Si2 0.174001 0.177296 0.885772
Si Si3 0.828020 0.055203 0.896672
Si Si4 0.317665 0.363813 0.552913
Si Si5 0.682111 0.559394 0.358765
Si Si6 0.679469 0.165602 0.259912
Si Si7 0.318899 0.239874 0.575423
Si Si8 0.327582 0.956477 0.736579
O O1 0.500000 0.558936 0.749687
O O2 0.254727 0.500470 0.803629
O O3 0.259155 0.574124 0.552153
O O4 0.255922 0.606008 0.879723
O O5 0.185811 0.115144 0.807483
O O6 0.267654 0.216919 0.760501
O O7 0.000000 0.197613 0.888491
O O8 0.234758 0.180301 0.082397
O O9 0.000000 0.048886 0.973607
O O10 0.795328 0.004269 0.770917
O O11 0.691248 0.053531 0.033766
O O12 0.500000 0.364239 0.553722
O O13 0.255409 0.395279 0.723590
O O14 0.254321 0.301675 0.554417
O O15 0.500000 0.558285 0.354991
O O16 0.500000 0.174556 0.226625
O O17 0.743549 0.204130 0.413728
O O18 0.710443 0.102520 0.324672
O O19 0.500000 0.239087 0.572903
O O20 0.500000 0.975584 0.779483
#
# Coordination Sequence:
#
# PCOD8167452 Si02
#       8
#     4   4   4   4   4   4   4   4
#     4   9  14  21  35  57  91 134 176 214 256 312
#     4  10  22  39  58  80 107 144 186 231 281 329
#     4  10  21  36  53  79 109 138 173 223 282 335
#     4   9  17  27  40  66  99 137 180 215 260 321
#     4   9  14  21  36  58  91 135 175 213 258 312
#     4   9  20  38  57  79 108 145 184 228 278 327
#     4  10  21  36  56  80 111 149 188 228 273 333
#     4  10  20  34  53  79 106 138 178 222 276 337
#
# _framework density 19.540589000000001
#
# number of rings (size 3 to 8) (size 9 to 14) (size 15 to 20)
#    0.000    2.500    1.250    1.125    1.750    3.500 
#    0.000    3.750    0.000    0.000    0.000    0.000 
#    0.000    1.000    0.000    0.000    0.000    0.000 
#
# Total GULP energy -396595.246914 kJ/mol
# GULP energy per Si atom -12393.601466 kJ/mol
# Density = 1.949611 g / cm^3
# Si number density = 19.540589 Si / 1000 Ang^3
#
#
#
# Elastic Constant Matrix: (Units=GPa)
#
#
# Indices 1 2 3 4 5 6 
#
# 1 26.3110 27.1174 16.0837 0.0000 0.0000 0.0000
# 2 27.1174 124.1546 54.4576 0.0000 0.0000 0.0000
# 3 16.0837 54.4576 120.4101 0.0000 0.0000 0.0000
# 4 0.0000 0.0000 0.0000 35.6435 0.0000 0.0000
# 5 0.0000 0.0000 0.0000 0.0000 15.0490 0.0000
# 6 0.0000 0.0000 0.0000 0.0000 0.0000 8.3319
#
#
#
# Elastic Compliance Matrix: (Units=1/GPa)
#
#
# Indices 1 2 3 4 5 6 
#
# 1 0.049490 -0.009867 -0.002148 0.000000 0.000000 0.000000
# 2 -0.009867 0.012015 -0.004116 0.000000 0.000000 0.000000
# 3 -0.002148 -0.004116 0.010453 0.000000 0.000000 0.000000
# 4 0.000000 0.000000 0.000000 0.028056 0.000000 0.000000
# 5 0.000000 0.000000 0.000000 0.000000 0.066449 0.000000
# 6 0.000000 0.000000 0.000000 0.000000 0.000000 0.120021
#
#
# Mechanical properties :
#
#
# Convention : Reuss Voigt Hill
#
# Bulk Modulus (GPa) = 25.19162 51.79925 38.49543
# Shear Modulus (GPa) = 15.06122 23.35267 19.20694
#
# Velocity S-wave (km/s) = 2.77928 3.46075 3.13857
# Velocity P-wave (km/s) = 4.81862 6.52190 5.73386
#
# Compressibility (1/GPa) = 0.03969575
#
# Stress axis : x y z
#
# Youngs Moduli (GPa) = 20.20628 83.22908 95.66269
#
# Poissons Ratio (x) = 0.82124 0.20547
# Poissons Ratio (y) = 0.19938 0.39375
# Poissons Ratio (z) = 0.04340 0.34257
#
# Static dielectric constant tensor:
#      x y z
#    x 3.021760 0.000000 0.000000 
#    y 0.000000 3.893100 0.000000 
#    z 0.000000 0.000000 3.586370 
# 
# 
# High freq. dielectric constant tensor:
#      x y z
#    x 1.714360 0.000000 0.000000 
#    y 0.000000 1.765170 0.000000 
#    z 0.000000 0.000000 1.761240 
# 
# From -- ./inp_files/1623.got.cif
#   From: 2010.03.12/outbox.cif.g09.slc.cpg/sg26_1_cif.got.tgz:1623.got - 2010.04.14 03:33:09.
