data_PCOD8167060
_publ_section_title
;
Structure prediction by ZEFSAII (Michael W. Deem and Ramdas Pophale) SiO2 
 PCOD8167060
Probable space group: P M C 21
;
_chemical_formula_sum "Si O2"
_cell_formula_units_Z 32
_cell_length_a 12.388802
_cell_length_b 15.659325
_cell_length_c 9.851843
_cell_angle_alpha 90.000000
_cell_angle_beta 90.000000
_cell_angle_gamma 90.000000
_cell_volume 1911.260270
_symmetry_space_group_name_H-M "P M C 21"
_symmetry_group_IT_number 26
_symmetry_cell_setting 'orthorhombic'
loop_
_space_group_symop_operation_xyz
x,y,z
-x,-y,1/2+z
-x,y,z
x,-y,1/2+z
loop_
_atom_site_type_symbol
_atom_site_label
_atom_site_fract_x
_atom_site_fract_y
_atom_site_fract_z
Si Si1 0.626622 0.046793 0.258910
Si Si2 0.627370 0.903846 0.058694
Si Si3 0.622372 0.325395 0.896401
Si Si4 0.374008 0.221745 0.149218
Si Si5 0.378144 0.369503 0.338894
Si Si6 0.691274 0.716708 0.100425
Si Si7 0.225675 0.480006 0.884434
Si Si8 0.124368 0.411558 0.620353
O O1 0.500000 0.047688 0.231502
O O2 0.653005 0.045713 0.418853
O O3 0.679124 0.130870 0.188297
O O4 0.670374 0.962054 0.183281
O O5 0.500000 0.882142 0.068360
O O6 0.694680 0.816176 0.060659
O O7 0.500000 0.356899 0.923117
O O8 0.633362 0.293607 0.743875
O O9 0.703047 0.400967 0.936928
O O10 0.648605 0.244103 0.992378
O O11 0.500000 0.216140 0.183894
O O12 0.325888 0.296180 0.244490
O O13 0.500000 0.392332 0.295135
O O14 0.378394 0.337482 0.493814
O O15 0.306875 0.452953 0.316347
O O16 0.811798 0.677712 0.103449
O O17 0.142199 0.450113 0.769641
O O18 0.160555 0.518968 0.009565
O O19 0.000000 0.389474 0.599337
#
# Coordination Sequence:
#
# PCOD8167060 Si02
#       8
#     4   4   4   4   4   4   4   4
#     4   9  18  28  43  65  95 133 162 186 224 271
#     4  10  18  30  45  69 100 128 159 191 226 281
#     4  10  19  29  43  69 104 133 159 193 228 284
#     4   9  17  28  41  61  95 136 162 185 224 266
#     4  10  17  29  47  67  99 134 160 192 229 285
#     4  10  20  31  48  69  94 129 167 196 243 289
#     4  10  20  32  50  74  95 124 165 197 244 292
#     4  10  21  37  53  70  92 121 164 214 254 286
#
# _framework density 16.742878999999999
#
# number of rings (size 3 to 8) (size 9 to 14) (size 15 to 20)
#    0.000    2.250    1.250    2.625    1.750    0.000 
#    0.000    3.750    0.000    0.000    0.000    0.875 
#    0.000    0.000    0.000    0.000    0.000    0.000 
#
# Total GULP energy -396761.338834 kJ/mol
# GULP energy per Si atom -12398.791839 kJ/mol
# Density = 1.670477 g / cm^3
# Si number density = 16.742879 Si / 1000 Ang^3
#
#
#
# Elastic Constant Matrix: (Units=GPa)
#
#
# Indices 1 2 3 4 5 6 
#
# 1 66.7943 27.3997 22.3773 0.0000 0.0000 0.0000
# 2 27.3997 88.9115 26.4380 0.0000 0.0000 0.0000
# 3 22.3773 26.4380 90.0472 0.0000 0.0000 0.0000
# 4 0.0000 0.0000 0.0000 32.1640 0.0000 0.0000
# 5 0.0000 0.0000 0.0000 0.0000 14.3947 0.0000
# 6 0.0000 0.0000 0.0000 0.0000 0.0000 11.5923
#
#
#
# Elastic Compliance Matrix: (Units=1/GPa)
#
#
# Indices 1 2 3 4 5 6 
#
# 1 0.017893 -0.004593 -0.003098 0.000000 0.000000 0.000000
# 2 -0.004593 0.013502 -0.002823 0.000000 0.000000 0.000000
# 3 -0.003098 -0.002823 0.012704 0.000000 0.000000 0.000000
# 4 0.000000 0.000000 0.000000 0.031091 0.000000 0.000000
# 5 0.000000 0.000000 0.000000 0.000000 0.069470 0.000000
# 6 0.000000 0.000000 0.000000 0.000000 0.000000 0.086264
#
#
# Mechanical properties :
#
#
# Convention : Reuss Voigt Hill
#
# Bulk Modulus (GPa) = 43.34353 44.24257 43.79305
# Shear Modulus (GPa) = 19.25729 22.93275 21.09502
#
# Velocity S-wave (km/s) = 3.39511 3.70496 3.55341
# Velocity P-wave (km/s) = 6.42751 6.69212 6.56115
#
# Compressibility (1/GPa) = 0.02307149
#
# Stress axis : x y z
#
# Youngs Moduli (GPa) = 55.88682 74.06364 78.71558
#
# Poissons Ratio (x) = 0.34017 0.24387
# Poissons Ratio (y) = 0.25668 0.22220
# Poissons Ratio (z) = 0.17314 0.20907
#
# Static dielectric constant tensor:
#      x y z
#    x 2.691120 0.000000 0.000000 
#    y 0.000000 3.267520 0.000000 
#    z 0.000000 0.000000 3.261320 
# 
# 
# High freq. dielectric constant tensor:
#      x y z
#    x 1.582100 0.000000 0.000000 
#    y 0.000000 1.649020 0.000000 
#    z 0.000000 0.000000 1.664530 
# 
# From -- ./inp_files/2017.got.cif
#   From: 2010.03.12/outbox.cif.g09.slc.cpg/sg26_2_cif.got.tgz:2017.got - 2010.04.14 03:33:09.
