data_PCOD8167938
_publ_section_title
;
Structure prediction by ZEFSAII (Michael W. Deem and Ramdas Pophale) SiO2 
 PCOD8167938
Probable space group: P C C 2
;
_chemical_formula_sum "Si O2"
_cell_formula_units_Z 32
_cell_length_a 11.793021
_cell_length_b 8.835059
_cell_length_c 15.002897
_cell_angle_alpha 90.000000
_cell_angle_beta 90.000000
_cell_angle_gamma 90.000000
_cell_volume 1563.182389
_symmetry_space_group_name_H-M "P C C 2"
_symmetry_group_IT_number 27
_symmetry_cell_setting 'orthorhombic'
loop_
_space_group_symop_operation_xyz
x,y,z
-x,-y,z
-x,y,1/2+z
x,-y,1/2+z
loop_
_atom_site_type_symbol
_atom_site_label
_atom_site_fract_x
_atom_site_fract_y
_atom_site_fract_z
Si Si1 0.284091 0.677965 0.301820
Si Si2 0.150676 0.157734 0.955186
Si Si3 0.495246 0.171333 0.352297
Si Si4 0.504754 0.171333 0.058075
Si Si5 0.737584 0.668460 0.310849
Si Si6 0.737584 0.331540 0.099523
Si Si7 0.112303 0.192867 0.455186
Si Si8 0.284091 0.322035 0.108552
O O1 0.211372 0.783073 0.366560
O O2 0.414608 0.731000 0.296624
O O3 0.283472 0.506030 0.335443
O O4 0.232522 0.691284 0.203051
O O5 0.021869 0.211351 0.955186
O O6 0.157835 0.977581 0.955186
O O7 0.211372 0.216927 0.043812
O O8 0.532417 0.177818 0.455186
O O9 0.370891 0.236331 0.339895
O O10 0.500000 0.000000 0.316765
O O11 0.629109 0.236331 0.070477
O O12 0.414608 0.269000 0.113748
O O13 0.500000 0.000000 0.093606
O O14 0.844882 0.725159 0.366247
O O15 0.767478 0.691284 0.207321
O O16 0.716528 0.506030 0.074929
O O17 0.844882 0.274841 0.044124
#
# Coordination Sequence:
#
# PCOD8167938 Si02
#       8
#     4   4   4   4   4   4   4   4
#     4  11  24  41  64  94 126 162 204 251 306 366
#     4  11  25  44  65  90 121 161 209 257 306 361
#     4  11  22  37  62  95 128 163 202 247 305 367
#     4  11  22  37  62  95 128 163 202 247 305 367
#     4  11  24  41  64  94 126 162 204 251 306 366
#     4  11  24  41  64  94 126 162 204 251 306 366
#     4  11  25  44  65  90 121 161 209 257 306 361
#     4  11  24  41  64  94 126 162 204 251 306 366
#
# _framework density 20.471060999999999
#
# number of rings (size 3 to 8) (size 9 to 14) (size 15 to 20)
#    0.000    1.000    2.500    3.750    0.000   11.000 
#    0.000    5.000    0.000    0.000    0.000    0.000 
#    0.000    0.000    0.000    0.000    0.000    0.000 
#
# Total GULP energy -397045.827429 kJ/mol
# GULP energy per Si atom -12407.682107 kJ/mol
# Density = 2.042447 g / cm^3
# Si number density = 20.471061 Si / 1000 Ang^3
#
#
#
# Elastic Constant Matrix: (Units=GPa)
#
#
# Indices 1 2 3 4 5 6 
#
# 1 90.9638 39.2003 24.0098 0.0000 0.0000 0.0000
# 2 39.2003 108.4872 20.9446 0.0000 0.0000 0.0000
# 3 24.0098 20.9446 90.4067 0.0000 0.0000 0.0000
# 4 0.0000 0.0000 0.0000 -23.5730 0.0000 0.0000
# 5 0.0000 0.0000 0.0000 0.0000 40.0951 0.0000
# 6 0.0000 0.0000 0.0000 0.0000 0.0000 28.8124
#
#
#
# Elastic Compliance Matrix: (Units=1/GPa)
#
#
# Indices 1 2 3 4 5 6 
#
# 1 0.013574 -0.004406 -0.002584 0.000000 0.000000 0.000000
# 2 -0.004406 0.011079 -0.001397 0.000000 0.000000 0.000000
# 3 -0.002584 -0.001397 0.012071 0.000000 0.000000 0.000000
# 4 0.000000 0.000000 0.000000 -0.042421 0.000000 0.000000
# 5 0.000000 0.000000 0.000000 0.000000 0.024941 0.000000
# 6 0.000000 0.000000 0.000000 0.000000 0.000000 0.034707
#
#
# Mechanical properties :
#
#
# Convention : Reuss Voigt Hill
#
# Bulk Modulus (GPa) = 50.12308 50.90744 50.51526
# Shear Modulus (GPa) = 64.62030 22.78044 43.70037
#
# Velocity S-wave (km/s) = 5.62452 3.33950 4.62534
# Velocity P-wave (km/s) = 8.16812 6.30807 7.29760
#
# Compressibility (1/GPa) = 0.01995089
#
# Stress axis : x y z
#
# Youngs Moduli (GPa) = 73.66919 90.25820 82.84314
#
# Poissons Ratio (x) = 0.39767 0.21409
# Poissons Ratio (y) = 0.32458 0.11570
# Poissons Ratio (z) = 0.19038 0.12606
#
# Static dielectric constant tensor:
#      x y z
#    x 3.551400 0.000000 0.000000 
#    y 0.000000 3.926640 0.000000 
#    z 0.000000 0.000000 3.814970 
# 
# 
# High freq. dielectric constant tensor:
#      x y z
#    x 1.794850 0.000000 0.000000 
#    y 0.000000 1.818540 0.000000 
#    z 0.000000 0.000000 1.812420 
# 
# From -- ./inp_files/3668.got.cif
#   From: 2010.03.12/outbox.cif.g09.slc.cpg/sg27_2_cif.got.tgz:3668.got - 2010.04.14 03:36:05.
