data_PCOD8167934
_publ_section_title
;
Structure prediction by ZEFSAII (Michael W. Deem and Ramdas Pophale) SiO2 
 PCOD8167934
Probable space group: P C C 2
;
_chemical_formula_sum "Si O2"
_cell_formula_units_Z 32
_cell_length_a 16.701844
_cell_length_b 6.277980
_cell_length_c 13.673506
_cell_angle_alpha 90.000000
_cell_angle_beta 90.000000
_cell_angle_gamma 90.000000
_cell_volume 1433.719646
_symmetry_space_group_name_H-M "P C C 2"
_symmetry_group_IT_number 27
_symmetry_cell_setting 'orthorhombic'
loop_
_space_group_symop_operation_xyz
x,y,z
-x,-y,z
-x,y,1/2+z
x,-y,1/2+z
loop_
_atom_site_type_symbol
_atom_site_label
_atom_site_fract_x
_atom_site_fract_y
_atom_site_fract_z
Si Si1 0.175404 0.409682 0.150280
Si Si2 0.579952 0.631100 0.975762
Si Si3 0.692605 0.252498 0.958529
Si Si4 0.079952 0.131100 0.289158
Si Si5 0.860140 0.419379 0.941591
Si Si6 0.192605 0.247502 0.806390
Si Si7 0.639861 0.919379 0.823328
Si Si8 0.324596 0.909683 0.614639
O O1 0.099107 0.303244 0.204395
O O2 0.209920 0.602913 0.213763
O O3 0.250000 0.250000 0.132460
O O4 0.136168 0.524090 0.055379
O O5 0.500000 0.500000 0.996619
O O6 0.653658 0.472757 0.988922
O O7 0.574634 0.752812 0.869146
O O8 0.599107 0.803243 0.060525
O O9 0.777146 0.308087 0.909437
O O10 0.633805 0.143148 0.880111
O O11 0.709921 0.102911 0.051155
O O12 0.074634 0.252812 0.395774
O O13 0.153658 0.972758 0.275998
O O14 0.000000 0.000000 0.268300
O O15 0.866195 0.643148 0.884807
O O16 0.277146 0.191915 0.855482
O O17 0.636169 0.975907 0.709540
#
# Coordination Sequence:
#
# PCOD8167934 Si02
#       8
#     4   4   4   4   4   4   4   4
#     4  11  23  39  71 102 129 176 243 285 331 418
#     4  11  26  44  65  98 146 177 221 297 352 397
#     4  11  21  40  69  97 132 171 236 282 335 410
#     4  11  26  44  65  98 146 177 221 297 352 397
#     4  11  21  39  69  99 127 180 232 278 344 420
#     4  11  21  40  69  97 132 171 236 282 335 410
#     4  11  21  39  69  99 127 180 232 278 344 420
#     4  11  23  39  71 102 129 176 243 285 331 418
#
# _framework density 22.319566999999999
#
# number of rings (size 3 to 8) (size 9 to 14) (size 15 to 20)
#    0.000    1.000    5.000    2.250    0.000    4.000 
#    0.000    7.500    0.000    0.000    0.000    0.000 
#    0.000    0.000    0.000    0.000    0.000    0.000 
#
# Total GULP energy -396531.561794 kJ/mol
# GULP energy per Si atom -12391.611306 kJ/mol
# Density = 2.226877 g / cm^3
# Si number density = 22.319567 Si / 1000 Ang^3
#
#
#
# Elastic Constant Matrix: (Units=GPa)
#
#
# Indices 1 2 3 4 5 6 
#
# 1 73.0794 21.2317 21.0497 0.0000 0.0000 0.0000
# 2 21.2317 102.1072 42.2047 0.0000 0.0000 0.0000
# 3 21.0497 42.2047 114.8416 0.0000 0.0000 0.0000
# 4 0.0000 0.0000 0.0000 44.6045 0.0000 0.0000
# 5 0.0000 0.0000 0.0000 0.0000 21.2675 0.0000
# 6 0.0000 0.0000 0.0000 0.0000 0.0000 37.9829
#
#
#
# Elastic Compliance Matrix: (Units=1/GPa)
#
#
# Indices 1 2 3 4 5 6 
#
# 1 0.014899 -0.002322 -0.001878 0.000000 0.000000 0.000000
# 2 -0.002322 0.011910 -0.003951 0.000000 0.000000 0.000000
# 3 -0.001878 -0.003951 0.010504 0.000000 0.000000 0.000000
# 4 0.000000 0.000000 0.000000 0.022419 0.000000 0.000000
# 5 0.000000 0.000000 0.000000 0.000000 0.047020 0.000000
# 6 0.000000 0.000000 0.000000 0.000000 0.000000 0.026328
#
#
# Mechanical properties :
#
#
# Convention : Reuss Voigt Hill
#
# Bulk Modulus (GPa) = 47.59390 51.00005 49.29697
# Shear Modulus (GPa) = 31.97238 34.47380 33.22309
#
# Velocity S-wave (km/s) = 3.78892 3.93435 3.86232
# Velocity P-wave (km/s) = 6.36485 6.59836 6.48266
#
# Compressibility (1/GPa) = 0.02101110
#
# Stress axis : x y z
#
# Youngs Moduli (GPa) = 67.11781 83.96560 95.20294
#
# Poissons Ratio (x) = 0.19497 0.17875
# Poissons Ratio (y) = 0.15585 0.37617
# Poissons Ratio (z) = 0.12602 0.33177
#
# Static dielectric constant tensor:
#      x y z
#    x 3.757790 0.000000 0.000000 
#    y 0.000000 4.402760 0.000000 
#    z 0.000000 0.000000 4.117180 
# 
# 
# High freq. dielectric constant tensor:
#      x y z
#    x 1.840460 0.000000 0.000000 
#    y 0.000000 1.910210 0.000000 
#    z 0.000000 0.000000 1.880000 
# 
# From -- ./inp_files/3171.got.cif
#   From: 2010.03.12/outbox.cif.g09.slc.cpg/sg27_2_cif.got.tgz:3171.got - 2010.04.14 03:36:05.
