data_PCOD8167116
_publ_section_title
;
Structure prediction by ZEFSAII (Michael W. Deem and Ramdas Pophale) SiO2 
 PCOD8167116
Probable space group: P M C 21
;
_chemical_formula_sum "Si O2"
_cell_formula_units_Z 32
_cell_length_a 8.851070
_cell_length_b 12.423075
_cell_length_c 14.701378
_cell_angle_alpha 90.000000
_cell_angle_beta 90.000000
_cell_angle_gamma 90.000000
_cell_volume 1616.526866
_symmetry_space_group_name_H-M "P M C 21"
_symmetry_group_IT_number 26
_symmetry_cell_setting 'orthorhombic'
loop_
_space_group_symop_operation_xyz
x,y,z
-x,-y,1/2+z
-x,y,z
x,-y,1/2+z
loop_
_atom_site_type_symbol
_atom_site_label
_atom_site_fract_x
_atom_site_fract_y
_atom_site_fract_z
Si Si1 0.331432 0.679485 0.946430
Si Si2 0.678677 0.987010 0.032621
Si Si3 0.824866 0.785738 0.109626
Si Si4 0.667087 0.101180 0.348220
Si Si5 0.679500 0.590401 0.619672
Si Si6 0.824722 0.468855 0.930420
Si Si7 0.826513 0.401778 0.734679
Si Si8 0.320188 0.171363 0.161241
O O1 0.500000 0.650762 0.982334
O O2 0.342137 0.774182 0.874604
O O3 0.254711 0.578599 0.897796
O O4 0.222384 0.706674 0.029227
O O5 0.500000 0.970778 0.025189
O O6 0.734590 0.897506 0.104398
O O7 0.724872 0.104332 0.070279
O O8 0.748682 0.966196 0.930468
O O9 0.784651 0.718394 0.200358
O O10 0.000000 0.814243 0.102439
O O11 0.500000 0.051699 0.336190
O O12 0.749104 0.106367 0.249319
O O13 0.500000 0.590981 0.614352
O O14 0.743396 0.577959 0.518512
O O15 0.729347 0.495124 0.686627
O O16 0.740792 0.706824 0.654518
O O17 0.800978 0.392776 0.842902
O O18 0.000000 0.487161 0.952819
O O19 0.000000 0.428874 0.710700
O O20 0.500000 0.172736 0.173002
#
# Coordination Sequence:
#
# PCOD8167116 Si02
#       8
#     4   4   4   4   4   4   4   4
#     4  10  18  31  54  82 107 139 184 232 275 322
#     4   9  18  34  56  80 106 139 183 229 276 329
#     4  10  19  34  55  77 106 141 180 227 277 325
#     4   8  15  29  52  79 106 137 178 226 274 323
#     4  11  22  36  57  84 115 148 188 240 286 337
#     4  11  22  36  53  78 114 153 186 223 282 346
#     4  10  22  38  56  79 112 154 188 224 280 344
#     4   9  18  34  53  79 112 145 179 227 286 332
#
# _framework density 19.795527
#
# number of rings (size 3 to 8) (size 9 to 14) (size 15 to 20)
#    0.000    2.250    1.250    3.000    0.000    2.500 
#    2.250    1.250    0.000    4.500    0.000    0.000 
#    0.000    0.000    0.000    0.000    0.000    0.000 
#
# Total GULP energy -396508.803877 kJ/mol
# GULP energy per Si atom -12390.900121 kJ/mol
# Density = 1.975047 g / cm^3
# Si number density = 19.795527 Si / 1000 Ang^3
#
#
#
# Elastic Constant Matrix: (Units=GPa)
#
#
# Indices 1 2 3 4 5 6 
#
# 1 38.3763 23.3524 20.0455 0.0000 0.0000 0.0000
# 2 23.3524 55.3569 23.4924 0.0000 0.0000 0.0000
# 3 20.0455 23.4924 106.9737 0.0000 0.0000 0.0000
# 4 0.0000 0.0000 0.0000 24.0787 0.0000 0.0000
# 5 0.0000 0.0000 0.0000 0.0000 21.1120 0.0000
# 6 0.0000 0.0000 0.0000 0.0000 0.0000 16.7845
#
#
#
# Elastic Compliance Matrix: (Units=1/GPa)
#
#
# Indices 1 2 3 4 5 6 
#
# 1 0.036408 -0.013745 -0.003804 0.000000 0.000000 0.000000
# 2 -0.013745 0.025110 -0.002939 0.000000 0.000000 0.000000
# 3 -0.003804 -0.002939 0.010706 0.000000 0.000000 0.000000
# 4 0.000000 0.000000 0.000000 0.041530 0.000000 0.000000
# 5 0.000000 0.000000 0.000000 0.000000 0.047367 0.000000
# 6 0.000000 0.000000 0.000000 0.000000 0.000000 0.059579
#
#
# Mechanical properties :
#
#
# Convention : Reuss Voigt Hill
#
# Bulk Modulus (GPa) = 32.00019 37.16528 34.58273
# Shear Modulus (GPa) = 18.37614 21.31615 19.84615
#
# Velocity S-wave (km/s) = 3.05010 3.28505 3.16975
# Velocity P-wave (km/s) = 5.34833 5.76230 5.55917
#
# Compressibility (1/GPa) = 0.03124981
#
# Stress axis : x y z
#
# Youngs Moduli (GPa) = 27.46613 39.82487 93.40296
#
# Poissons Ratio (x) = 0.54738 0.35531
# Poissons Ratio (y) = 0.37751 0.27449
# Poissons Ratio (z) = 0.10448 0.11704
#
# Static dielectric constant tensor:
#      x y z
#    x 3.404010 0.000000 0.000000 
#    y 0.000000 3.617490 0.000000 
#    z 0.000000 0.000000 3.799060 
# 
# 
# High freq. dielectric constant tensor:
#      x y z
#    x 1.745420 0.000000 0.000000 
#    y 0.000000 1.760750 0.000000 
#    z 0.000000 0.000000 1.778090 
# 
# From -- ./inp_files/4320.got.cif
#   From: 2010.03.12/outbox.cif.g09.slc.cpg/sg26_3_cif.got.tgz:4320.got - 2010.04.14 03:33:09.
