data_PCOD8167455
_publ_section_title
;
Structure prediction by ZEFSAII (Michael W. Deem and Ramdas Pophale) SiO2 
 PCOD8167455
Probable space group: P M C 21
;
_chemical_formula_sum "Si O2"
_cell_formula_units_Z 32
_cell_length_a 9.100097
_cell_length_b 14.770107
_cell_length_c 12.345459
_cell_angle_alpha 90.000000
_cell_angle_beta 90.000000
_cell_angle_gamma 90.000000
_cell_volume 1659.345816
_symmetry_space_group_name_H-M "P M C 21"
_symmetry_group_IT_number 26
_symmetry_cell_setting 'orthorhombic'
loop_
_space_group_symop_operation_xyz
x,y,z
-x,-y,1/2+z
-x,y,z
x,-y,1/2+z
loop_
_atom_site_type_symbol
_atom_site_label
_atom_site_fract_x
_atom_site_fract_y
_atom_site_fract_z
Si Si1 0.671271 0.057294 0.019040
Si Si2 0.825856 0.264405 0.634207
Si Si3 0.674190 0.173746 0.222740
Si Si4 0.670776 0.143500 0.466877
Si Si5 0.337753 0.334852 0.935693
Si Si6 0.665249 0.370999 0.176696
Si Si7 0.671188 0.564714 0.222751
Si Si8 0.171164 0.825721 0.356855
O O1 0.500000 0.077105 0.005864
O O2 0.735001 0.107934 0.126660
O O3 0.747137 0.087586 0.906441
O O4 0.702603 0.950500 0.028647
O O5 0.765704 0.221237 0.523828
O O6 0.756901 0.364129 0.646939
O O7 0.778549 0.199137 0.734547
O O8 0.000000 0.274394 0.628362
O O9 0.500000 0.178442 0.207492
O O10 0.718213 0.135503 0.340540
O O11 0.741540 0.275773 0.210815
O O12 0.500000 0.170266 0.475014
O O13 0.500000 0.290663 0.917223
O O14 0.305579 0.410120 0.846967
O O15 0.214928 0.257540 0.934090
O O16 0.331745 0.384714 0.048707
O O17 0.500000 0.368398 0.223094
O O18 0.741573 0.463553 0.217862
O O19 0.500000 0.564862 0.187236
O O20 0.000000 0.844366 0.362865
#
# Coordination Sequence:
#
# PCOD8167455 Si02
#       8
#     4   4   4   4   4   4   4   4
#     4  10  20  35  58  85 112 143 181 229 280 329
#     4  10  22  39  55  76 113 152 184 228 280 326
#     4   9  18  34  54  84 117 141 177 231 285 329
#     4  10  22  36  58  86 113 148 186 229 279 337
#     4   9  16  30  51  76 105 140 180 226 278 326
#     4   9  16  29  53  81 110 141 177 230 287 329
#     4   9  18  31  53  82 105 139 191 231 271 334
#     4  10  20  34  54  78 105 142 186 230 272 320
#
# _framework density 19.284707999999998
#
# number of rings (size 3 to 8) (size 9 to 14) (size 15 to 20)
#    0.000    2.500    1.250    0.750    1.750    3.000 
#    0.000    5.000    0.000    3.000    0.000    0.000 
#    0.000    0.000    0.000    0.000    0.000    0.000 
#
# Total GULP energy -396610.224436 kJ/mol
# GULP energy per Si atom -12394.069514 kJ/mol
# Density = 1.924082 g / cm^3
# Si number density = 19.284708 Si / 1000 Ang^3
#
#
#
# Elastic Constant Matrix: (Units=GPa)
#
#
# Indices 1 2 3 4 5 6 
#
# 1 37.2165 26.4279 20.1952 0.0000 0.0000 0.0000
# 2 26.4279 126.2643 50.7206 0.0000 0.0000 0.0000
# 3 20.1952 50.7206 81.0487 0.0000 0.0000 0.0000
# 4 0.0000 0.0000 0.0000 27.2449 0.0000 0.0000
# 5 0.0000 0.0000 0.0000 0.0000 19.1643 0.0000
# 6 0.0000 0.0000 0.0000 0.0000 0.0000 9.5159
#
#
#
# Elastic Compliance Matrix: (Units=1/GPa)
#
#
# Indices 1 2 3 4 5 6 
#
# 1 0.033143 -0.004835 -0.005232 0.000000 0.000000 0.000000
# 2 -0.004835 0.011285 -0.005857 0.000000 0.000000 0.000000
# 3 -0.005232 -0.005857 0.017308 0.000000 0.000000 0.000000
# 4 0.000000 0.000000 0.000000 0.036704 0.000000 0.000000
# 5 0.000000 0.000000 0.000000 0.000000 0.052180 0.000000
# 6 0.000000 0.000000 0.000000 0.000000 0.000000 0.105087
#
#
# Mechanical properties :
#
#
# Convention : Reuss Voigt Hill
#
# Bulk Modulus (GPa) = 33.46127 48.80188 41.13157
# Shear Modulus (GPa) = 16.80572 20.99741 18.90156
#
# Velocity S-wave (km/s) = 2.95524 3.30329 3.13410
# Velocity P-wave (km/s) = 5.38827 6.31743 5.87126
#
# Compressibility (1/GPa) = 0.02988530
#
# Stress axis : x y z
#
# Youngs Moduli (GPa) = 30.17273 88.61485 57.77817
#
# Poissons Ratio (x) = 0.42846 0.30232
# Poissons Ratio (y) = 0.14589 0.33842
# Poissons Ratio (z) = 0.15788 0.51904
#
# Static dielectric constant tensor:
#      x y z
#    x 3.182980 0.000000 0.000000 
#    y 0.000000 3.608370 0.000000 
#    z 0.000000 0.000000 3.544040 
# 
# 
# High freq. dielectric constant tensor:
#      x y z
#    x 1.706770 0.000000 0.000000 
#    y 0.000000 1.754020 0.000000 
#    z 0.000000 0.000000 1.750970 
# 
# From -- ./inp_files/3107.got.cif
#   From: 2010.03.12/outbox.cif.g09.slc.cpg/sg26_2_cif.got.tgz:3107.got - 2010.04.14 03:33:09.
