data_PCOD8167259
_publ_section_title
;
Structure prediction by ZEFSAII (Michael W. Deem and Ramdas Pophale) SiO2 
 PCOD8167259
Probable space group: P M C 21
;
_chemical_formula_sum "Si O2"
_cell_formula_units_Z 20
_cell_length_a 10.387827
_cell_length_b 5.277934
_cell_length_c 19.408330
_cell_angle_alpha 90.000000
_cell_angle_beta 90.000000
_cell_angle_gamma 90.000000
_cell_volume 1064.086250
_symmetry_space_group_name_H-M "P M C 21"
_symmetry_group_IT_number 26
_symmetry_cell_setting 'orthorhombic'
loop_
_space_group_symop_operation_xyz
x,y,z
-x,-y,1/2+z
-x,y,z
x,-y,1/2+z
loop_
_atom_site_type_symbol
_atom_site_label
_atom_site_fract_x
_atom_site_fract_y
_atom_site_fract_z
Si Si1 0.247380 0.799019 0.651730
Si Si2 0.143540 0.691195 0.202278
Si Si3 0.645583 0.563698 0.778088
Si Si4 0.348479 0.697590 0.930720
Si Si5 0.650365 0.196932 0.001077
O O1 0.154821 0.551390 0.650896
O O2 0.344829 0.772408 0.716974
O O3 0.328514 0.812004 0.582384
O O4 0.164953 0.053782 0.659144
O O5 0.251598 0.662307 0.262648
O O6 0.000000 0.696825 0.234394
O O7 0.500000 0.452934 0.781288
O O8 0.683817 0.694959 0.849762
O O9 0.500000 0.699657 0.944217
O O10 0.287831 0.449727 0.967689
O O11 0.286894 0.950170 0.964429
O O12 0.500000 0.197422 0.985456
#
# Coordination Sequence:
#
# PCOD8167259 Si02
#       5
#     4   4   4   4   4
#     4  10  21  35  59  84 108 150 191 234 271 333
#     4  10  22  38  59  82 112 152 189 232 286 334
#     4   9  21  36  59  90 115 144 191 240 279 329
#     4   9  19  32  51  79 120 152 175 223 290 341
#     4  10  19  33  52  83 119 148 178 227 292 339
#
# _framework density 18.795469000000001
#
# number of rings (size 3 to 8) (size 9 to 14) (size 15 to 20)
#    1.200    1.200    0.000    2.400    2.800    1.600 
#    0.000    0.000    0.000    7.200    0.000    0.000 
#    0.000    0.000    0.000    0.000    0.000    0.000 
#
# Total GULP energy -247805.421466 kJ/mol
# GULP energy per Si atom -12390.271073 kJ/mol
# Density = 1.875269 g / cm^3
# Si number density = 18.795469 Si / 1000 Ang^3
#
#
#
# Elastic Constant Matrix: (Units=GPa)
#
#
# Indices 1 2 3 4 5 6 
#
# 1 67.4064 23.2447 16.9202 0.0000 0.0000 0.0000
# 2 23.2447 155.4686 56.4027 0.0000 0.0000 0.0000
# 3 16.9202 56.4027 143.0272 0.0000 0.0000 0.0000
# 4 0.0000 0.0000 0.0000 23.4592 0.0000 0.0000
# 5 0.0000 0.0000 0.0000 0.0000 6.1141 0.0000
# 6 0.0000 0.0000 0.0000 0.0000 0.0000 11.0978
#
#
#
# Elastic Compliance Matrix: (Units=1/GPa)
#
#
# Indices 1 2 3 4 5 6 
#
# 1 0.015787 -0.001964 -0.001093 0.000000 0.000000 0.000000
# 2 -0.001964 0.007750 -0.002824 0.000000 0.000000 0.000000
# 3 -0.001093 -0.002824 0.008235 0.000000 0.000000 0.000000
# 4 0.000000 0.000000 0.000000 0.042627 0.000000 0.000000
# 5 0.000000 0.000000 0.000000 0.000000 0.163557 0.000000
# 6 0.000000 0.000000 0.000000 0.000000 0.000000 0.090108
#
#
# Mechanical properties :
#
#
# Convention : Reuss Voigt Hill
#
# Bulk Modulus (GPa) = 49.97502 62.11525 56.04513
# Shear Modulus (GPa) = 14.43018 26.08986 20.26002
#
# Velocity S-wave (km/s) = 2.77383 3.72975 3.28673
# Velocity P-wave (km/s) = 6.07499 7.18803 6.65482
#
# Compressibility (1/GPa) = 0.02001000
#
# Stress axis : x y z
#
# Youngs Moduli (GPa) = 63.34326 129.02718 121.43811
#
# Poissons Ratio (x) = 0.25338 0.13276
# Poissons Ratio (y) = 0.12439 0.34294
# Poissons Ratio (z) = 0.06925 0.36437
#
# Static dielectric constant tensor:
#      x y z
#    x 2.998740 0.000000 0.000000 
#    y 0.000000 3.685300 0.000000 
#    z 0.000000 0.000000 3.258350 
# 
# 
# High freq. dielectric constant tensor:
#      x y z
#    x 1.682010 0.000000 0.000000 
#    y 0.000000 1.740940 0.000000 
#    z 0.000000 0.000000 1.722510 
# 
# From -- ./inp_files/4374.got.cif
#   From: 2010.03.12/outbox.cif.g09.slc.cpg/sg26_3_cif.got.tgz:4374.got - 2010.04.14 03:33:09.
