data_PCOD8167239
_publ_section_title
;
Structure prediction by ZEFSAII (Michael W. Deem and Ramdas Pophale) SiO2 
 PCOD8167239
Probable space group: P M C 21
;
_chemical_formula_sum "Si O2"
_cell_formula_units_Z 32
_cell_length_a 9.565481
_cell_length_b 11.870030
_cell_length_c 14.341031
_cell_angle_alpha 90.000000
_cell_angle_beta 90.000000
_cell_angle_gamma 90.000000
_cell_volume 1628.317178
_symmetry_space_group_name_H-M "P M C 21"
_symmetry_group_IT_number 26
_symmetry_cell_setting 'orthorhombic'
loop_
_space_group_symop_operation_xyz
x,y,z
-x,-y,1/2+z
-x,y,z
x,-y,1/2+z
loop_
_atom_site_type_symbol
_atom_site_label
_atom_site_fract_x
_atom_site_fract_y
_atom_site_fract_z
Si Si1 0.160830 0.400610 0.279870
Si Si2 0.155682 0.285613 0.560184
Si Si3 0.838019 0.924995 0.931296
Si Si4 0.335852 0.902089 0.547123
Si Si5 0.837979 0.156945 0.222113
Si Si6 0.661191 0.437118 0.455089
Si Si7 0.155368 0.654257 0.260402
Si Si8 0.656884 0.308524 0.926877
O O1 0.190708 0.292276 0.214004
O O2 0.258555 0.383114 0.368455
O O3 0.196360 0.523317 0.235111
O O4 0.000000 0.393948 0.312823
O O5 0.192680 0.174977 0.503247
O O6 0.271940 0.380836 0.545426
O O7 0.163676 0.264737 0.670881
O O8 0.000000 0.328887 0.533318
O O9 0.800202 0.888165 0.825819
O O10 0.000000 0.963314 0.937191
O O11 0.735506 0.022614 0.966863
O O12 0.500000 0.933814 0.558583
O O13 0.258014 0.909115 0.647128
O O14 0.315172 0.775329 0.511374
O O15 0.000000 0.130915 0.199279
O O16 0.500000 0.405562 0.445725
O O17 0.688591 0.568683 0.466916
O O18 0.249373 0.714613 0.337007
O O19 0.000000 0.652588 0.302203
O O20 0.500000 0.298477 0.889384
#
# Coordination Sequence:
#
# PCOD8167239 Si02
#       8
#     4   4   4   4   4   4   4   4
#     4   9  17  34  56  84 118 151 192 239 289 342
#     4  10  20  36  57  86 120 152 190 241 292 343
#     4  10  22  42  63  84 117 156 198 247 295 346
#     4  11  25  42  61  87 119 156 201 248 294 347
#     4  10  21  39  63  89 116 152 195 244 298 351
#     4  10  19  32  54  83 115 154 192 230 287 350
#     4   9  19  33  57  89 119 155 196 239 289 347
#     4   9  21  40  55  78 120 158 190 238 294 346
#
# _framework density 19.652191999999999
#
# number of rings (size 3 to 8) (size 9 to 14) (size 15 to 20)
#    0.000    2.250    1.250    0.750    1.750    4.500 
#    0.000    3.750    0.000    0.000    0.000    0.000 
#    0.000    0.000    0.000    0.000    0.000    0.000 
#
# Total GULP energy -396641.458984 kJ/mol
# GULP energy per Si atom -12395.045593 kJ/mol
# Density = 1.960746 g / cm^3
# Si number density = 19.652192 Si / 1000 Ang^3
#
#
#
# Elastic Constant Matrix: (Units=GPa)
#
#
# Indices 1 2 3 4 5 6 
#
# 1 91.5773 39.7286 42.7214 0.0000 0.0000 0.0000
# 2 39.7286 53.2033 29.0322 0.0000 0.0000 0.0000
# 3 42.7214 29.0322 79.1660 0.0000 0.0000 0.0000
# 4 0.0000 0.0000 0.0000 27.7627 0.0000 0.0000
# 5 0.0000 0.0000 0.0000 0.0000 4.8835 0.0000
# 6 0.0000 0.0000 0.0000 0.0000 0.0000 26.5792
#
#
#
# Elastic Compliance Matrix: (Units=1/GPa)
#
#
# Indices 1 2 3 4 5 6 
#
# 1 0.018209 -0.010295 -0.006051 0.000000 0.000000 0.000000
# 2 -0.010295 0.029319 -0.005196 0.000000 0.000000 0.000000
# 3 -0.006051 -0.005196 0.017803 0.000000 0.000000 0.000000
# 4 0.000000 0.000000 0.000000 0.036020 0.000000 0.000000
# 5 0.000000 0.000000 0.000000 0.000000 0.204770 0.000000
# 6 0.000000 0.000000 0.000000 0.000000 0.000000 0.037623
#
#
# Mechanical properties :
#
#
# Convention : Reuss Voigt Hill
#
# Bulk Modulus (GPa) = 44.95214 49.65677 47.30446
# Shear Modulus (GPa) = 12.68252 19.34272 16.01262
#
# Velocity S-wave (km/s) = 2.54313 3.14068 2.85757
# Velocity P-wave (km/s) = 5.61666 6.20278 5.91698
#
# Compressibility (1/GPa) = 0.02224588
#
# Stress axis : x y z
#
# Youngs Moduli (GPa) = 54.91848 34.10735 56.17187
#
# Poissons Ratio (x) = 0.35115 0.33988
# Poissons Ratio (y) = 0.56540 0.29189
# Poissons Ratio (z) = 0.33229 0.17723
#
# Static dielectric constant tensor:
#      x y z
#    x 3.679540 0.000000 0.000000 
#    y 0.000000 3.613620 0.000000 
#    z 0.000000 0.000000 3.442850 
# 
# 
# High freq. dielectric constant tensor:
#      x y z
#    x 1.765830 0.000000 0.000000 
#    y 0.000000 1.758360 0.000000 
#    z 0.000000 0.000000 1.757390 
# 
# From -- ./inp_files/4234.got.cif
#   From: 2010.03.12/outbox.cif.g09.slc.cpg/sg26_3_cif.got.tgz:4234.got - 2010.04.14 03:33:09.
