data_PCOD8167024
_publ_section_title
;
Structure prediction by ZEFSAII (Michael W. Deem and Ramdas Pophale) SiO2 
 PCOD8167024
Probable space group: P M M 2
;
_chemical_formula_sum "Si O2"
_cell_formula_units_Z 32
_cell_length_a 9.581954
_cell_length_b 9.551074
_cell_length_c 20.714682
_cell_angle_alpha 90.000000
_cell_angle_beta 90.000000
_cell_angle_gamma 90.000000
_cell_volume 1895.765267
_symmetry_space_group_name_H-M "P M M 2"
_symmetry_group_IT_number 25
_symmetry_cell_setting 'orthorhombic'
loop_
_space_group_symop_operation_xyz
x,y,z
-x,-y,z
-x,y,z
x,-y,z
loop_
_atom_site_type_symbol
_atom_site_label
_atom_site_fract_x
_atom_site_fract_y
_atom_site_fract_z
Si Si1 0.665917 0.844305 0.323010
Si Si2 0.655348 0.166589 0.181936
Si Si3 0.162358 0.662489 0.940579
Si Si4 0.157915 0.333251 0.563762
Si Si5 0.338171 0.663664 0.442565
Si Si6 0.162149 0.162694 0.063603
Si Si7 0.342895 0.333319 0.679968
Si Si8 0.656123 0.333769 0.822876
O O1 0.500000 0.851055 0.322375
O O2 0.713577 0.786613 0.252482
O O3 0.718890 0.741101 0.378834
O O4 0.726628 0.000000 0.335951
O O5 0.500000 0.227245 0.169519
O O6 0.649871 0.000000 0.181609
O O7 0.756830 0.221973 0.125935
O O8 0.197810 0.500000 0.952948
O O9 0.000000 0.685993 0.927768
O O10 0.214322 0.750010 0.002054
O O11 0.240579 0.723924 0.877706
O O12 0.156495 0.500000 0.565852
O O13 0.245228 0.281631 0.501937
O O14 0.234192 0.272572 0.627641
O O15 0.000000 0.274405 0.560757
O O16 0.500000 0.699108 0.457141
O O17 0.317508 0.500000 0.430668
O O18 0.000000 0.188465 0.076854
O O19 0.195036 0.000000 0.050791
O O20 0.500000 0.281132 0.663928
O O21 0.341203 0.500000 0.677555
O O22 0.298033 0.280725 0.751547
O O23 0.500000 0.280747 0.838325
O O24 0.660484 0.500000 0.822941
#
# Coordination Sequence:
#
# PCOD8167024 Si02
#       8
#     4   4   4   4   4   4   4   4
#     4   8  14  26  44  63  81 103 133 167 201 238
#     4   8  14  26  44  63  81 102 131 168 205 237
#     4   9  17  28  41  58  82 110 136 163 198 240
#     4   9  16  24  35  54  81 110 137 166 200 237
#     4   9  16  26  41  60  82 108 135 163 198 240
#     4   9  17  29  44  61  81 106 136 167 198 236
#     4   8  13  22  36  54  77 105 136 168 201 237
#     4   8  14  24  38  57  81 107 134 166 203 239
#
# _framework density 16.879726000000002
#
# number of rings (size 3 to 8) (size 9 to 14) (size 15 to 20)
#    0.000    3.500    0.000    1.875    0.000    2.500 
#    0.000    3.750    0.000    1.875    0.000    0.875 
#    0.000    1.000    0.000    0.000    0.000    0.000 
#
# Total GULP energy -396588.035402 kJ/mol
# GULP energy per Si atom -12393.376106 kJ/mol
# Density = 1.684131 g / cm^3
# Si number density = 16.879726 Si / 1000 Ang^3
#
#
#
# Elastic Constant Matrix: (Units=GPa)
#
#
# Indices 1 2 3 4 5 6 
#
# 1 82.6792 21.8211 85.9160 0.0000 0.0000 0.0000
# 2 21.8211 24.7709 39.3242 0.0000 0.0000 0.0000
# 3 85.9160 39.3242 191.9966 0.0000 0.0000 0.0000
# 4 0.0000 0.0000 0.0000 5.8240 0.0000 0.0000
# 5 0.0000 0.0000 0.0000 0.0000 19.9253 0.0000
# 6 0.0000 0.0000 0.0000 0.0000 0.0000 9.2728
#
#
#
# Elastic Compliance Matrix: (Units=1/GPa)
#
#
# Indices 1 2 3 4 5 6 
#
# 1 0.023167 -0.005854 -0.009168 0.000000 0.000000 0.000000
# 2 -0.005854 0.061300 -0.009936 0.000000 0.000000 0.000000
# 3 -0.009168 -0.009936 0.011346 0.000000 0.000000 0.000000
# 4 0.000000 0.000000 0.000000 0.171703 0.000000 0.000000
# 5 0.000000 0.000000 0.000000 0.000000 0.050187 0.000000
# 6 0.000000 0.000000 0.000000 0.000000 0.000000 0.107842
#
#
# Mechanical properties :
#
#
# Convention : Reuss Voigt Hill
#
# Bulk Modulus (GPa) = 21.78767 65.95216 43.86992
# Shear Modulus (GPa) = 10.18831 17.16346 13.67588
#
# Velocity S-wave (km/s) = 2.45946 3.19220 2.84948
# Velocity P-wave (km/s) = 4.58267 7.26247 6.07225
#
# Compressibility (1/GPa) = 0.04589752
#
# Stress axis : x y z
#
# Youngs Moduli (GPa) = 43.16557 16.31328 88.13761
#
# Poissons Ratio (x) = 0.09550 0.80803
# Poissons Ratio (y) = 0.25269 0.87571
# Poissons Ratio (z) = 0.39573 0.16208
#
# Static dielectric constant tensor:
#      x y z
#    x 3.174250 0.000000 0.000000 
#    y 0.000000 2.699820 0.000000 
#    z 0.000000 0.000000 3.609430 
# 
# 
# High freq. dielectric constant tensor:
#      x y z
#    x 1.636380 0.000000 0.000000 
#    y 0.000000 1.589710 0.000000 
#    z 0.000000 0.000000 1.667580 
# 
# From -- ./inp_files/6277.got.cif
#   From: 2010.03.12/outbox.cif.g09.slc.cpg/sg25_4_cif.got.tgz:6277.got - 2010.04.14 03:30:10.
