data_PCOD8167935
_publ_section_title
;
Structure prediction by ZEFSAII (Michael W. Deem and Ramdas Pophale) SiO2 
 PCOD8167935
Probable space group: P C C 2
;
_chemical_formula_sum "Si O2"
_cell_formula_units_Z 24
_cell_length_a 13.995593
_cell_length_b 4.961555
_cell_length_c 16.486823
_cell_angle_alpha 90.000000
_cell_angle_beta 90.000000
_cell_angle_gamma 90.000000
_cell_volume 1144.843413
_symmetry_space_group_name_H-M "P C C 2"
_symmetry_group_IT_number 27
_symmetry_cell_setting 'orthorhombic'
loop_
_space_group_symop_operation_xyz
x,y,z
-x,-y,z
-x,y,1/2+z
x,-y,1/2+z
loop_
_atom_site_type_symbol
_atom_site_label
_atom_site_fract_x
_atom_site_fract_y
_atom_site_fract_z
Si Si1 0.500000 0.000000 0.210060
Si Si2 0.935997 0.742619 0.051693
Si Si3 0.287759 0.954974 0.260107
Si Si4 0.500000 0.500000 0.101723
Si Si5 0.215770 0.548055 0.665224
Si Si6 0.678915 0.629818 0.510050
Si Si7 0.239356 0.848095 0.439390
O O1 0.404436 0.910148 0.260934
O O2 0.536482 0.745064 0.157626
O O3 0.889847 0.647601 0.138431
O O4 0.866050 0.810928 0.976255
O O5 0.000000 0.500000 0.017895
O O6 0.000000 0.000000 0.072416
O O7 0.227407 0.741741 0.207284
O O8 0.240487 0.959199 0.348495
O O9 0.268505 0.245600 0.223338
O O10 0.428204 0.637743 0.039539
O O11 0.263207 0.528324 0.578154
O O12 0.700084 0.432447 0.433931
O O13 0.708540 0.935388 0.496678
#
# Coordination Sequence:
#
# PCOD8167935 Si02
#       7
#     2   4   4   2   4   4   4
#     4  12  22  38  62  96 134 178 218 262 310 372
#     4  11  23  44  69  95 123 167 222 277 329 394
#     4  12  23  41  63  98 136 174 210 260 327 381
#     4  12  22  36  64  94 124 174 232 270 286 372
#     4  11  22  41  66  91 125 167 216 267 319 388
#     4  11  21  40  61  91 124 173 222 257 314 373
#     4  11  25  41  64  94 133 171 205 271 337 386
#
# _framework density 20.963564999999999
#
# number of rings (size 3 to 8) (size 9 to 14) (size 15 to 20)
#    0.000    0.667    3.333    7.000    0.000    1.333 
#    0.000    5.000    0.000    0.000    0.000    0.000 
#    0.000    0.000    0.000    0.000    0.000    0.000 
#
# Total GULP energy -297401.088474 kJ/mol
# GULP energy per Si atom -12391.712020 kJ/mol
# Density = 2.091585 g / cm^3
# Si number density = 20.963565 Si / 1000 Ang^3
#
#
#
# Elastic Constant Matrix: (Units=GPa)
#
#
# Indices 1 2 3 4 5 6 
#
# 1 124.6585 35.7821 40.7010 0.0000 0.0000 0.0000
# 2 35.7821 109.3161 14.4867 0.0000 0.0000 0.0000
# 3 40.7010 14.4867 81.8888 0.0000 0.0000 0.0000
# 4 0.0000 0.0000 0.0000 20.0005 0.0000 0.0000
# 5 0.0000 0.0000 0.0000 0.0000 34.8469 0.0000
# 6 0.0000 0.0000 0.0000 0.0000 0.0000 45.0094
#
#
#
# Elastic Compliance Matrix: (Units=1/GPa)
#
#
# Indices 1 2 3 4 5 6 
#
# 1 0.010333 -0.002767 -0.004646 0.000000 0.000000 0.000000
# 2 -0.002767 0.010108 -0.000413 0.000000 0.000000 0.000000
# 3 -0.004646 -0.000413 0.014594 0.000000 0.000000 0.000000
# 4 0.000000 0.000000 0.000000 0.049999 0.000000 0.000000
# 5 0.000000 0.000000 0.000000 0.000000 0.028697 0.000000
# 6 0.000000 0.000000 0.000000 0.000000 0.000000 0.022218
#
#
# Mechanical properties :
#
#
# Convention : Reuss Voigt Hill
#
# Bulk Modulus (GPa) = 51.59120 55.31143 53.45132
# Shear Modulus (GPa) = 31.63318 34.96426 33.29872
#
# Velocity S-wave (km/s) = 3.88875 4.08837 3.98981
# Velocity P-wave (km/s) = 6.69526 6.98056 6.83940
#
# Compressibility (1/GPa) = 0.01938315
#
# Stress axis : x y z
#
# Youngs Moduli (GPa) = 96.77658 98.93061 68.52050
#
# Poissons Ratio (x) = 0.27370 0.31837
# Poissons Ratio (y) = 0.26774 0.02831
# Poissons Ratio (z) = 0.44966 0.04087
#
# Static dielectric constant tensor:
#      x y z
#    x 4.147880 0.000000 0.000000 
#    y 0.000000 3.898430 0.000000 
#    z 0.000000 0.000000 3.806280 
# 
# 
# High freq. dielectric constant tensor:
#      x y z
#    x 1.816280 0.000000 0.000000 
#    y 0.000000 1.849110 0.000000 
#    z 0.000000 0.000000 1.802450 
# 
# From -- ./inp_files/3718.got.cif
#   From: 2010.03.12/outbox.cif.g09.slc.cpg/sg27_2_cif.got.tgz:3718.got - 2010.04.14 03:36:05.
