data_PCOD8167649
_publ_section_title
;
Structure prediction by ZEFSAII (Michael W. Deem and Ramdas Pophale) SiO2 
 PCOD8167649
Probable space group: P M C 21
;
_chemical_formula_sum "Si O2"
_cell_formula_units_Z 32
_cell_length_a 9.100011
_cell_length_b 11.767237
_cell_length_c 14.417912
_cell_angle_alpha 90.000000
_cell_angle_beta 90.000000
_cell_angle_gamma 90.000000
_cell_volume 1543.898653
_symmetry_space_group_name_H-M "P M C 21"
_symmetry_group_IT_number 26
_symmetry_cell_setting 'orthorhombic'
loop_
_space_group_symop_operation_xyz
x,y,z
-x,-y,1/2+z
-x,y,z
x,-y,1/2+z
loop_
_atom_site_type_symbol
_atom_site_label
_atom_site_fract_x
_atom_site_fract_y
_atom_site_fract_z
Si Si1 0.173846 0.582882 0.756980
Si Si2 0.831280 0.006749 0.630306
Si Si3 0.665149 0.203166 0.727046
Si Si4 0.831207 0.839288 0.787058
Si Si5 0.327015 0.615854 0.371906
Si Si6 0.828240 0.451129 0.045210
Si Si7 0.669886 0.913122 0.958257
Si Si8 0.336937 0.329080 0.544374
O O1 0.221706 0.708692 0.790310
O O2 0.255330 0.490664 0.819000
O O3 0.222464 0.572907 0.649778
O O4 0.000000 0.563647 0.766222
O O5 0.777048 0.104343 0.700715
O O6 0.743384 0.002755 0.533337
O O7 0.000000 0.031660 0.606889
O O8 0.810476 0.886585 0.682464
O O9 0.500000 0.151543 0.729734
O O10 0.708827 0.263358 0.823342
O O11 0.671218 0.305691 0.653572
O O12 0.000000 0.848131 0.817378
O O13 0.739731 0.920904 0.856299
O O14 0.500000 0.594078 0.376139
O O15 0.259168 0.630245 0.474535
O O16 0.785495 0.579729 0.016822
O O17 0.000000 0.432326 0.030866
O O18 0.500000 0.946087 0.952747
O O19 0.699280 0.785477 0.990584
O O20 0.500000 0.374232 0.517886
#
# Coordination Sequence:
#
# PCOD8167649 Si02
#       8
#     4   4   4   4   4   4   4   4
#     4  10  22  40  60  85 119 155 194 240 287 343
#     4  10  21  38  62  87 114 151 195 243 293 343
#     4   9  19  36  57  80 110 144 186 238 286 336
#     4  10  22  41  61  85 118 155 196 242 290 342
#     4  11  22  37  58  84 117 154 191 235 288 349
#     4  11  22  34  53  84 118 153 190 232 285 346
#     4  10  21  37  60  89 117 151 196 242 291 345
#     4   9  17  33  55  80 111 147 188 234 280 332
#
# _framework density 20.726749999999999
#
# number of rings (size 3 to 8) (size 9 to 14) (size 15 to 20)
#    0.000    2.000    1.250    3.000    0.000    7.500 
#    2.250    0.000    0.000    0.000    0.000    0.000 
#    0.000    0.000    0.000    0.000    0.000    0.000 
#
# Total GULP energy -396803.976760 kJ/mol
# GULP energy per Si atom -12400.124274 kJ/mol
# Density = 2.067958 g / cm^3
# Si number density = 20.726750 Si / 1000 Ang^3
#
#
#
# Elastic Constant Matrix: (Units=GPa)
#
#
# Indices 1 2 3 4 5 6 
#
# 1 90.9085 18.9828 37.1248 0.0000 0.0000 0.0000
# 2 18.9828 29.3296 -0.1885 0.0000 0.0000 0.0000
# 3 37.1248 -0.1885 94.3863 0.0000 0.0000 0.0000
# 4 0.0000 0.0000 0.0000 23.6965 0.0000 0.0000
# 5 0.0000 0.0000 0.0000 0.0000 36.6843 0.0000
# 6 0.0000 0.0000 0.0000 0.0000 0.0000 21.6862
#
#
#
# Elastic Compliance Matrix: (Units=1/GPa)
#
#
# Indices 1 2 3 4 5 6 
#
# 1 0.015644 -0.010165 -0.006173 0.000000 0.000000 0.000000
# 2 -0.010165 0.040700 0.004079 0.000000 0.000000 0.000000
# 3 -0.006173 0.004079 0.013031 0.000000 0.000000 0.000000
# 4 0.000000 0.000000 0.000000 0.042200 0.000000 0.000000
# 5 0.000000 0.000000 0.000000 0.000000 0.027260 0.000000
# 6 0.000000 0.000000 0.000000 0.000000 0.000000 0.046112
#
#
# Mechanical properties :
#
#
# Convention : Reuss Voigt Hill
#
# Bulk Modulus (GPa) = 22.29274 36.27362 29.28318
# Shear Modulus (GPa) = 22.27995 26.99376 24.63686
#
# Velocity S-wave (km/s) = 3.28218 3.61274 3.45142
# Velocity P-wave (km/s) = 5.01423 5.91113 5.48105
#
# Compressibility (1/GPa) = 0.04485766
#
# Stress axis : x y z
#
# Youngs Moduli (GPa) = 63.92378 24.56982 76.73967
#
# Poissons Ratio (x) = 0.24974 0.47374
# Poissons Ratio (y) = 0.64976 -0.31305
# Poissons Ratio (z) = 0.39463 -0.10023
#
# Static dielectric constant tensor:
#      x y z
#    x 3.688840 0.000000 0.000000 
#    y 0.000000 3.481470 0.000000 
#    z 0.000000 0.000000 3.949270 
# 
# 
# High freq. dielectric constant tensor:
#      x y z
#    x 1.809910 0.000000 0.000000 
#    y 0.000000 1.790820 0.000000 
#    z 0.000000 0.000000 1.821030 
# 
# From -- ./inp_files/4184.got.cif
#   From: 2010.03.12/outbox.cif.g09.slc.cpg/sg26_3_cif.got.tgz:4184.got - 2010.04.14 03:33:09.
