data_PCOD8167163
_publ_section_title
;
Structure prediction by ZEFSAII (Michael W. Deem and Ramdas Pophale) SiO2 
 PCOD8167163
Probable space group: P M C 21
;
_chemical_formula_sum "Si O2"
_cell_formula_units_Z 24
_cell_length_a 8.728053
_cell_length_b 9.894919
_cell_length_c 14.117645
_cell_angle_alpha 90.000000
_cell_angle_beta 90.000000
_cell_angle_gamma 90.000000
_cell_volume 1219.247504
_symmetry_space_group_name_H-M "P M C 21"
_symmetry_group_IT_number 26
_symmetry_cell_setting 'orthorhombic'
loop_
_space_group_symop_operation_xyz
x,y,z
-x,-y,1/2+z
-x,y,z
x,-y,1/2+z
loop_
_atom_site_type_symbol
_atom_site_label
_atom_site_fract_x
_atom_site_fract_y
_atom_site_fract_z
Si Si1 0.826209 0.110495 0.895230
Si Si2 0.182666 0.596838 0.895581
Si Si3 0.182363 0.981418 0.595659
Si Si4 0.181951 0.288131 0.596171
Si Si5 0.825998 0.845487 0.780483
Si Si6 0.679130 0.348916 0.791354
O O1 0.714457 0.200786 0.832413
O O2 0.000000 0.166299 0.885333
O O3 0.818415 0.956646 0.862071
O O4 0.771146 0.106063 0.004013
O O5 0.249794 0.709618 0.822626
O O6 0.248965 0.453581 0.865487
O O7 0.000000 0.594638 0.891839
O O8 0.236219 0.632497 0.002198
O O9 0.255106 0.901347 0.685190
O O10 0.000000 0.992978 0.604423
O O11 0.246556 0.134513 0.592829
O O12 0.250238 0.365685 0.686900
O O13 0.000000 0.288819 0.605329
O O14 0.000000 0.811380 0.753829
O O15 0.500000 0.372539 0.784721
#
# Coordination Sequence:
#
# PCOD8167163 Si02
#       6
#     4   4   4   4   4   4
#     4  10  18  34  61  89 115 146 193 248 293 343
#     4  10  21  38  62  90 116 152 200 250 298 348
#     4   9  16  29  59  96 118 139 181 245 302 340
#     4  10  19  37  65  89 112 148 199 254 304 348
#     4   9  16  30  58  91 117 139 183 248 302 341
#     4  12  26  40  55  83 126 168 196 231 291 362
#
# _framework density 19.684272
#
# number of rings (size 3 to 8) (size 9 to 14) (size 15 to 20)
#    0.000    2.000    3.333    1.500    0.000    2.000 
#    0.000    5.000    0.000    0.000    0.000    0.000 
#    0.000    0.000    0.000    0.000    0.000    0.000 
#
# Total GULP energy -297558.194602 kJ/mol
# GULP energy per Si atom -12398.258108 kJ/mol
# Density = 1.963947 g / cm^3
# Si number density = 19.684272 Si / 1000 Ang^3
#
#
#
# Elastic Constant Matrix: (Units=GPa)
#
#
# Indices 1 2 3 4 5 6 
#
# 1 31.5638 14.1224 25.5950 0.0000 0.0000 0.0000
# 2 14.1224 63.6144 23.6323 0.0000 0.0000 0.0000
# 3 25.5950 23.6323 138.9724 0.0000 0.0000 0.0000
# 4 0.0000 0.0000 0.0000 34.8292 0.0000 0.0000
# 5 0.0000 0.0000 0.0000 0.0000 9.6936 0.0000
# 6 0.0000 0.0000 0.0000 0.0000 0.0000 4.9096
#
#
#
# Elastic Compliance Matrix: (Units=1/GPa)
#
#
# Indices 1 2 3 4 5 6 
#
# 1 0.039607 -0.006493 -0.006190 0.000000 0.000000 0.000000
# 2 -0.006493 0.017844 -0.001839 0.000000 0.000000 0.000000
# 3 -0.006190 -0.001839 0.008648 0.000000 0.000000 0.000000
# 4 0.000000 0.000000 0.000000 0.028712 0.000000 0.000000
# 5 0.000000 0.000000 0.000000 0.000000 0.103161 0.000000
# 6 0.000000 0.000000 0.000000 0.000000 0.000000 0.203681
#
#
# Mechanical properties :
#
#
# Convention : Reuss Voigt Hill
#
# Bulk Modulus (GPa) = 26.98660 40.09447 33.54054
# Shear Modulus (GPa) = 11.28546 21.27323 16.27934
#
# Velocity S-wave (km/s) = 2.39702 3.29100 2.87892
# Velocity P-wave (km/s) = 4.62606 5.90372 5.30350
#
# Compressibility (1/GPa) = 0.03705542
#
# Stress axis : x y z
#
# Youngs Moduli (GPa) = 25.24823 56.04071 115.62798
#
# Poissons Ratio (x) = 0.36387 0.71578
# Poissons Ratio (y) = 0.16394 0.21259
# Poissons Ratio (z) = 0.15630 0.10303
#
# Static dielectric constant tensor:
#      x y z
#    x 3.042730 0.000000 0.000000 
#    y 0.000000 3.575930 0.000000 
#    z 0.000000 0.000000 3.903950 
# 
# 
# High freq. dielectric constant tensor:
#      x y z
#    x 1.707190 0.000000 0.000000 
#    y 0.000000 1.763180 0.000000 
#    z 0.000000 0.000000 1.788420 
# 
# From -- ./inp_files/3926.got.cif
#   From: 2010.03.12/outbox.cif.g09.slc.cpg/sg26_2_cif.got.tgz:3926.got - 2010.04.14 03:33:09.
