data_PCOD8167441
_publ_section_title
;
Structure prediction by ZEFSAII (Michael W. Deem and Ramdas Pophale) SiO2 
 PCOD8167441
Probable space group: P M C 21
;
_chemical_formula_sum "Si O2"
_cell_formula_units_Z 32
_cell_length_a 9.343078
_cell_length_b 28.582973
_cell_length_c 5.369419
_cell_angle_alpha 90.000000
_cell_angle_beta 90.000000
_cell_angle_gamma 90.000000
_cell_volume 1433.919163
_symmetry_space_group_name_H-M "P M C 21"
_symmetry_group_IT_number 26
_symmetry_cell_setting 'orthorhombic'
loop_
_space_group_symop_operation_xyz
x,y,z
-x,-y,1/2+z
-x,y,z
x,-y,1/2+z
loop_
_atom_site_type_symbol
_atom_site_label
_atom_site_fract_x
_atom_site_fract_y
_atom_site_fract_z
Si Si1 0.333489 0.472134 0.697890
Si Si2 0.829262 0.025333 0.614913
Si Si3 0.843826 0.303670 0.701052
Si Si4 0.843200 0.601174 0.952901
Si Si5 0.343985 0.352973 0.104167
Si Si6 0.170037 0.183509 0.108255
Si Si7 0.342860 0.742206 0.850965
Si Si8 0.169124 0.130621 0.610603
O O1 0.500000 0.458584 0.693248
O O2 0.291632 0.501679 0.451345
O O3 0.237093 0.425093 0.681328
O O4 0.768706 0.078119 0.614498
O O5 0.000000 0.024838 0.614443
O O6 0.771767 0.000102 0.865167
O O7 0.869994 0.344008 0.497878
O O8 0.762163 0.257614 0.592921
O O9 0.000000 0.286369 0.799250
O O10 0.751281 0.328668 0.903323
O O11 0.000000 0.578179 0.899280
O O12 0.735680 0.600828 0.714519
O O13 0.500000 0.369831 0.003337
O O14 0.370403 0.312528 0.306436
O O15 0.257567 0.232410 0.124453
O O16 0.222409 0.157099 0.859675
O O17 0.000000 0.192436 0.107586
O O18 0.219903 0.155412 0.356139
O O19 0.500000 0.765541 0.898886
O O20 0.000000 0.128037 0.615598
#
# Coordination Sequence:
#
# PCOD8167441 Si02
#       8
#     4   4   4   4   4   4   4   4
#     4  10  23  42  63  90 122 160 201 241 291 353
#     4   9  15  24  42  68 101 140 177 223 281 341
#     4  10  21  37  59  86 115 147 189 240 293 350
#     4  10  22  39  59  87 118 151 192 241 293 347
#     4  10  21  37  59  84 113 149 190 241 291 343
#     4  10  20  34  52  75 108 150 186 230 283 341
#     4  10  22  38  54  79 109 146 194 240 287 341
#     4   9  18  31  47  73 108 145 187 228 283 348
#
# _framework density 22.316458999999998
#
# number of rings (size 3 to 8) (size 9 to 14) (size 15 to 20)
#    0.000    2.250    0.000    2.250    3.500    6.500 
#    0.000    0.000    0.000    0.000    0.000    0.000 
#    0.000   10.000    0.000    0.000    0.000    0.000 
#
# Total GULP energy -396515.561761 kJ/mol
# GULP energy per Si atom -12391.111305 kJ/mol
# Density = 2.226567 g / cm^3
# Si number density = 22.316459 Si / 1000 Ang^3
#
#
#
# Elastic Constant Matrix: (Units=GPa)
#
#
# Indices 1 2 3 4 5 6 
#
# 1 114.7958 -1.8415 8.0535 0.0000 0.0000 0.0000
# 2 -1.8415 68.0551 10.7538 0.0000 0.0000 0.0000
# 3 8.0535 10.7538 104.9118 0.0000 0.0000 0.0000
# 4 0.0000 0.0000 0.0000 41.3433 0.0000 0.0000
# 5 0.0000 0.0000 0.0000 0.0000 18.8949 0.0000
# 6 0.0000 0.0000 0.0000 0.0000 0.0000 39.6524
#
#
#
# Elastic Compliance Matrix: (Units=1/GPa)
#
#
# Indices 1 2 3 4 5 6 
#
# 1 0.008766 0.000349 -0.000709 0.000000 0.000000 0.000000
# 2 0.000349 0.014950 -0.001559 0.000000 0.000000 0.000000
# 3 -0.000709 -0.001559 0.009746 0.000000 0.000000 0.000000
# 4 0.000000 0.000000 0.000000 0.024188 0.000000 0.000000
# 5 0.000000 0.000000 0.000000 0.000000 0.052924 0.000000
# 6 0.000000 0.000000 0.000000 0.000000 0.000000 0.025219
#
#
# Mechanical properties :
#
#
# Convention : Reuss Voigt Hill
#
# Bulk Modulus (GPa) = 33.75549 35.74380 34.74965
# Shear Modulus (GPa) = 33.44352 38.03126 35.73739
#
# Velocity S-wave (km/s) = 3.87538 4.13265 4.00608
# Velocity P-wave (km/s) = 5.93156 6.23083 6.08304
#
# Compressibility (1/GPa) = 0.02962481
#
# Stress axis : x y z
#
# Youngs Moduli (GPa) = 114.07130 66.89049 102.60568
#
# Poissons Ratio (x) = -0.02336 0.07272
# Poissons Ratio (y) = -0.03983 0.15998
# Poissons Ratio (z) = 0.08085 0.10430
#
# Static dielectric constant tensor:
#      x y z
#    x 4.329920 0.000000 0.000000 
#    y 0.000000 4.380930 0.000000 
#    z 0.000000 0.000000 4.086450 
# 
# 
# High freq. dielectric constant tensor:
#      x y z
#    x 1.852080 0.000000 0.000000 
#    y 0.000000 1.868630 0.000000 
#    z 0.000000 0.000000 1.881570 
# 
# From -- ./inp_files/230.got.cif
#   From: 2010.03.12/outbox.cif.g09.slc.cpg/sg26_1_cif.got.tgz:230.got - 2010.04.14 03:33:09.
