data_PCOD8167253
_publ_section_title
;
Structure prediction by ZEFSAII (Michael W. Deem and Ramdas Pophale) SiO2 
 PCOD8167253
Probable space group: P M C 21
;
_chemical_formula_sum "Si O2"
_cell_formula_units_Z 24
_cell_length_a 8.376260
_cell_length_b 26.957460
_cell_length_c 5.166965
_cell_angle_alpha 90.000000
_cell_angle_beta 90.000000
_cell_angle_gamma 90.000000
_cell_volume 1166.714616
_symmetry_space_group_name_H-M "P M C 21"
_symmetry_group_IT_number 26
_symmetry_cell_setting 'orthorhombic'
loop_
_space_group_symop_operation_xyz
x,y,z
-x,-y,1/2+z
-x,y,z
x,-y,1/2+z
loop_
_atom_site_type_symbol
_atom_site_label
_atom_site_fract_x
_atom_site_fract_y
_atom_site_fract_z
Si Si1 0.309811 0.528399 0.697330
Si Si2 0.815790 0.308953 0.716744
Si Si3 0.689435 0.800311 0.216920
Si Si4 0.688954 0.859908 0.713694
Si Si5 0.690561 0.971155 0.696259
Si Si6 0.686398 0.359288 0.218027
O O1 0.500000 0.527801 0.703057
O O2 0.241982 0.501059 0.444336
O O3 0.247441 0.584704 0.701795
O O4 0.778117 0.251364 0.690926
O O5 0.714335 0.339208 0.506451
O O6 0.000000 0.318387 0.657707
O O7 0.775820 0.326216 0.006526
O O8 0.500000 0.791140 0.221028
O O9 0.751932 0.827524 0.474144
O O10 0.743395 0.834277 0.978043
O O11 0.500000 0.863332 0.697567
O O12 0.760383 0.915370 0.701181
O O13 0.500000 0.969892 0.698473
O O14 0.755530 0.998991 0.443255
O O15 0.500000 0.357105 0.154695
#
# Coordination Sequence:
#
# PCOD8167253 Si02
#       6
#     4   4   4   4   4   4
#     4   9  17  31  55  87 115 140 181 235 277 317
#     4  12  25  40  58  84 119 152 189 240 294 340
#     4  10  19  33  52  73 101 138 183 227 270 325
#     4   9  17  28  45  70  99 134 175 220 267 321
#     4   9  15  23  37  61  97 134 163 201 264 330
#     4  11  22  39  64  89 115 152 195 233 278 339
#
# _framework density 20.570581000000001
#
# number of rings (size 3 to 8) (size 9 to 14) (size 15 to 20)
#    0.000    2.000    0.000    5.000    0.000    8.000 
#    0.000    0.000    0.000   10.000    0.000    0.000 
#    0.000   13.333    0.000    0.000    0.000    0.000 
#
# Total GULP energy -297676.065992 kJ/mol
# GULP energy per Si atom -12403.169416 kJ/mol
# Density = 2.052376 g / cm^3
# Si number density = 20.570581 Si / 1000 Ang^3
#
#
#
# Elastic Constant Matrix: (Units=GPa)
#
#
# Indices 1 2 3 4 5 6 
#
# 1 29.7507 26.1293 14.7580 0.0000 0.0000 0.0000
# 2 26.1293 127.7584 24.4089 0.0000 0.0000 0.0000
# 3 14.7580 24.4089 120.4409 0.0000 0.0000 0.0000
# 4 0.0000 0.0000 0.0000 46.2980 0.0000 0.0000
# 5 0.0000 0.0000 0.0000 0.0000 12.2465 0.0000
# 6 0.0000 0.0000 0.0000 0.0000 0.0000 -5.0209
#
#
#
# Elastic Compliance Matrix: (Units=1/GPa)
#
#
# Indices 1 2 3 4 5 6 
#
# 1 0.042404 -0.007989 -0.003577 0.000000 0.000000 0.000000
# 2 -0.007989 0.009648 -0.000976 0.000000 0.000000 0.000000
# 3 -0.003577 -0.000976 0.008939 0.000000 0.000000 0.000000
# 4 0.000000 0.000000 0.000000 0.021599 0.000000 0.000000
# 5 0.000000 0.000000 0.000000 0.000000 0.081656 0.000000
# 6 0.000000 0.000000 0.000000 0.000000 0.000000 -0.199167
#
#
# Mechanical properties :
#
#
# Convention : Reuss Voigt Hill
#
# Bulk Modulus (GPa) = 27.85050 45.39359 36.62204
# Shear Modulus (GPa) = 2345.61973 24.88162 1185.25068
#
# Velocity S-wave (km/s) = 33.80465 3.48167 24.02994
# Velocity P-wave (km/s) = 39.20766 6.18691 28.06705
#
# Compressibility (1/GPa) = 0.03590600
#
# Stress axis : x y z
#
# Youngs Moduli (GPa) = 23.58290 103.65112 111.86986
#
# Poissons Ratio (x) = 0.82808 0.40013
# Poissons Ratio (y) = 0.18841 0.10922
# Poissons Ratio (z) = 0.08435 0.10120
#
# Static dielectric constant tensor:
#      x y z
#    x 3.135520 0.000000 0.000000 
#    y 0.000000 3.958870 0.000000 
#    z 0.000000 0.000000 3.938270 
# 
# 
# High freq. dielectric constant tensor:
#      x y z
#    x 1.746580 0.000000 0.000000 
#    y 0.000000 1.824370 0.000000 
#    z 0.000000 0.000000 1.823020 
# 
# From -- ./inp_files/188.got.cif
#   From: 2010.03.12/outbox.cif.g09.slc.cpg/sg26_1_cif.got.tgz:188.got - 2010.04.14 03:33:09.
