data_PCOD8167420
_publ_section_title
;
Structure prediction by ZEFSAII (Michael W. Deem and Ramdas Pophale) SiO2 
 PCOD8167420
Probable space group: P M C 21
;
_chemical_formula_sum "Si O2"
_cell_formula_units_Z 28
_cell_length_a 12.944660
_cell_length_b 5.192480
_cell_length_c 19.523875
_cell_angle_alpha 90.000000
_cell_angle_beta 90.000000
_cell_angle_gamma 90.000000
_cell_volume 1312.295075
_symmetry_space_group_name_H-M "P M C 21"
_symmetry_group_IT_number 26
_symmetry_cell_setting 'orthorhombic'
loop_
_space_group_symop_operation_xyz
x,y,z
-x,-y,1/2+z
-x,y,z
x,-y,1/2+z
loop_
_atom_site_type_symbol
_atom_site_label
_atom_site_fract_x
_atom_site_fract_y
_atom_site_fract_z
Si Si1 0.696547 0.176983 0.428740
Si Si2 0.384107 0.304048 0.996100
Si Si3 0.883716 0.057153 0.168449
Si Si4 0.621100 0.274723 0.283275
Si Si5 0.300994 0.786566 0.213755
Si Si6 0.241335 0.551272 0.603913
Si Si7 0.115903 0.812013 0.021099
O O1 0.660700 0.450573 0.456640
O O2 0.692402 0.185788 0.346632
O O3 0.810428 0.100898 0.457944
O O4 0.618934 0.950238 0.450058
O O5 0.500000 0.364714 0.017205
O O6 0.319416 0.255451 0.065692
O O7 0.823133 0.854281 0.217217
O O8 0.882610 0.998209 0.086970
O O9 0.000000 0.087634 0.196454
O O10 0.817501 0.321678 0.169369
O O11 0.500000 0.298425 0.302410
O O12 0.661408 0.558151 0.263046
O O13 0.634343 0.050183 0.225823
O O14 0.311270 0.683747 0.135060
O O15 0.156096 0.461637 0.548835
O O16 0.000000 0.784263 0.991894
#
# Coordination Sequence:
#
# PCOD8167420 Si02
#       7
#     4   4   4   4   4   4   4
#     4  11  23  42  62  91 125 163 217 257 303 383
#     4  11  22  37  61  92 127 161 201 261 323 371
#     4  10  19  39  68  94 127 164 201 254 328 386
#     4  12  25  43  65  86 124 179 222 261 311 369
#     4  11  24  43  61  94 125 161 224 265 304 377
#     4  10  20  38  63  98 130 160 206 262 321 388
#     4   9  19  36  64  97 126 160 197 254 320 376
#
# _framework density 21.336666000000001
#
# number of rings (size 3 to 8) (size 9 to 14) (size 15 to 20)
#    0.000    1.429    2.857    3.000    0.000    1.714 
#    0.000    1.429    0.000    0.000    0.000    0.000 
#    0.000    0.000    0.000    0.000    0.000    0.000 
#
# Total GULP energy -346874.273276 kJ/mol
# GULP energy per Si atom -12388.366903 kJ/mol
# Density = 2.128810 g / cm^3
# Si number density = 21.336666 Si / 1000 Ang^3
#
#
#
# Elastic Constant Matrix: (Units=GPa)
#
#
# Indices 1 2 3 4 5 6 
#
# 1 126.4269 21.1422 49.8927 0.0000 0.0000 0.0000
# 2 21.1422 103.2459 28.2881 0.0000 0.0000 0.0000
# 3 49.8927 28.2881 38.8640 0.0000 0.0000 0.0000
# 4 0.0000 0.0000 0.0000 29.2187 0.0000 0.0000
# 5 0.0000 0.0000 0.0000 0.0000 -6.7962 0.0000
# 6 0.0000 0.0000 0.0000 0.0000 0.0000 -96.2247
#
#
#
# Elastic Compliance Matrix: (Units=1/GPa)
#
#
# Indices 1 2 3 4 5 6 
#
# 1 0.016781 0.003081 -0.023786 0.000000 0.000000 0.000000
# 2 0.003081 0.012664 -0.013173 0.000000 0.000000 0.000000
# 3 -0.023786 -0.013173 0.065854 0.000000 0.000000 0.000000
# 4 0.000000 0.000000 0.000000 0.034225 0.000000 0.000000
# 5 0.000000 0.000000 0.000000 0.000000 -0.147142 0.000000
# 6 0.000000 0.000000 0.000000 0.000000 0.000000 -0.010392
#
#
# Mechanical properties :
#
#
# Convention : Reuss Voigt Hill
#
# Bulk Modulus (GPa) = 36.30539 51.90919 44.10729
# Shear Modulus (GPa) = 102.19530 -3.47950 49.35790
#
# Velocity S-wave (km/s) = 6.92824 -1.27840 4.81489
# Velocity P-wave (km/s) = 9.00295 4.71194 7.18525
#
# Compressibility (1/GPa) = 0.02754412
#
# Stress axis : x y z
#
# Youngs Moduli (GPa) = 59.59048 78.96458 15.18509
#
# Poissons Ratio (x) = -0.24326 0.36119
# Poissons Ratio (y) = -0.18357 0.20003
# Poissons Ratio (z) = 1.41739 1.04016
#
# Static dielectric constant tensor:
#      x y z
#    x 4.125710 0.000000 0.000000 
#    y 0.000000 3.984880 0.000000 
#    z 0.000000 0.000000 3.669880 
# 
# 
# High freq. dielectric constant tensor:
#      x y z
#    x 1.834650 0.000000 0.000000 
#    y 0.000000 1.852100 0.000000 
#    z 0.000000 0.000000 1.802350 
# 
# From -- ./inp_files/5407.got.cif
#   From: 2010.03.12/outbox.cif.g09.slc.cpg/sg26_3_cif.got.tgz:5407.got - 2010.04.14 03:33:09.
