data_PCOD8167742
_publ_section_title
;
Structure prediction by ZEFSAII (Michael W. Deem and Ramdas Pophale) SiO2 
 PCOD8167742
Probable space group: P M C 21
;
_chemical_formula_sum "Si O2"
_cell_formula_units_Z 12
_cell_length_a 10.394222
_cell_length_b 5.262789
_cell_length_c 10.424553
_cell_angle_alpha 90.000000
_cell_angle_beta 90.000000
_cell_angle_gamma 90.000000
_cell_volume 570.250124
_symmetry_space_group_name_H-M "P M C 21"
_symmetry_group_IT_number 26
_symmetry_cell_setting 'orthorhombic'
loop_
_space_group_symop_operation_xyz
x,y,z
-x,-y,1/2+z
-x,y,z
x,-y,1/2+z
loop_
_atom_site_type_symbol
_atom_site_label
_atom_site_fract_x
_atom_site_fract_y
_atom_site_fract_z
Si Si1 0.143494 0.308270 0.842100
Si Si2 0.355975 0.940826 0.484372
Si Si3 0.750810 0.451370 0.576792
O O1 0.167189 0.441179 0.706175
O O2 0.000000 0.189594 0.842972
O O3 0.251026 0.089628 0.869192
O O4 0.153561 0.520682 0.954544
O O5 0.500000 0.942020 0.426303
O O6 0.341297 0.700376 0.581495
O O7 0.333837 0.198687 0.562286
#
# Coordination Sequence:
#
# PCOD8167742 Si02
#       3
#     4   4   4
#     4  10  24  44  69  98 133 172 219 271 326 388
#     4  10  24  43  66  96 132 171 218 267 324 387
#     4  10  24  43  65 100 127 173 219 264 328 383
#
# _framework density 21.043399000000001
#
# number of rings (size 3 to 8) (size 9 to 14) (size 15 to 20)
#    2.000    0.000    0.000    2.000    4.667    5.333 
#    0.000    0.000    0.000    0.000    0.000    0.000 
#    0.000    0.000    0.000    0.000    0.000    0.000 
#
# Total GULP energy -148657.030476 kJ/mol
# GULP energy per Si atom -12388.085873 kJ/mol
# Density = 2.099550 g / cm^3
# Si number density = 21.043399 Si / 1000 Ang^3
#
#
#
# Elastic Constant Matrix: (Units=GPa)
#
#
# Indices 1 2 3 4 5 6 
#
# 1 184.3536 34.0833 48.1753 0.0000 0.0000 0.0000
# 2 34.0833 127.4097 20.5831 0.0000 0.0000 0.0000
# 3 48.1753 20.5831 136.7616 0.0000 0.0000 0.0000
# 4 0.0000 0.0000 0.0000 17.1183 0.0000 0.0000
# 5 0.0000 0.0000 0.0000 0.0000 22.0075 0.0000
# 6 0.0000 0.0000 0.0000 0.0000 0.0000 17.9029
#
#
#
# Elastic Compliance Matrix: (Units=1/GPa)
#
#
# Indices 1 2 3 4 5 6 
#
# 1 0.006188 -0.001336 -0.001979 0.000000 0.000000 0.000000
# 2 -0.001336 0.008333 -0.000784 0.000000 0.000000 0.000000
# 3 -0.001979 -0.000784 0.008127 0.000000 0.000000 0.000000
# 4 0.000000 0.000000 0.000000 0.058417 0.000000 0.000000
# 5 0.000000 0.000000 0.000000 0.000000 0.045439 0.000000
# 6 0.000000 0.000000 0.000000 0.000000 0.000000 0.055857
#
#
# Mechanical properties :
#
#
# Convention : Reuss Voigt Hill
#
# Bulk Modulus (GPa) = 69.19638 72.68983 70.94311
# Shear Modulus (GPa) = 25.59183 34.45127 30.02155
#
# Velocity S-wave (km/s) = 3.49111 4.05056 3.78120
# Velocity P-wave (km/s) = 7.01460 7.51624 7.26975
#
# Compressibility (1/GPa) = 0.01445162
#
# Stress axis : x y z
#
# Youngs Moduli (GPa) = 161.59168 120.01042 123.04665
#
# Poissons Ratio (x) = 0.16031 0.24349
# Poissons Ratio (y) = 0.21585 0.09641
# Poissons Ratio (z) = 0.31977 0.09403
#
# Static dielectric constant tensor:
#      x y z
#    x 3.630000 0.000000 0.000000 
#    y 0.000000 3.557930 0.000000 
#    z 0.000000 0.000000 3.513260 
# 
# 
# High freq. dielectric constant tensor:
#      x y z
#    x 1.819260 0.000000 0.000000 
#    y 0.000000 1.813210 0.000000 
#    z 0.000000 0.000000 1.808770 
# 
# From -- ./inp_files/1627.got.cif
#   From: 2010.03.12/outbox.cif.g09.slc.cpg/sg26_1_cif.got.tgz:1627.got - 2010.04.14 03:33:09.
