data_PCOD8167662
_publ_section_title
;
Structure prediction by ZEFSAII (Michael W. Deem and Ramdas Pophale) SiO2 
 PCOD8167662
Probable space group: P M C 21
;
_chemical_formula_sum "Si O2"
_cell_formula_units_Z 32
_cell_length_a 20.101880
_cell_length_b 9.117694
_cell_length_c 8.763252
_cell_angle_alpha 90.000000
_cell_angle_beta 90.000000
_cell_angle_gamma 90.000000
_cell_volume 1606.153282
_symmetry_space_group_name_H-M "P M C 21"
_symmetry_group_IT_number 26
_symmetry_cell_setting 'orthorhombic'
loop_
_space_group_symop_operation_xyz
x,y,z
-x,-y,1/2+z
-x,y,z
x,-y,1/2+z
loop_
_atom_site_type_symbol
_atom_site_label
_atom_site_fract_x
_atom_site_fract_y
_atom_site_fract_z
Si Si1 0.682525 0.311679 0.864210
Si Si2 0.924968 0.389520 0.522562
Si Si3 0.577423 0.881338 0.521650
Si Si4 0.074969 0.311423 0.870111
Si Si5 0.808213 0.189103 0.472516
Si Si6 0.806955 0.114800 0.821842
Si Si7 0.422617 0.816849 0.868309
Si Si8 0.317133 0.618318 0.011400
O O1 0.744230 0.202537 0.887937
O O2 0.675153 0.365948 0.691920
O O3 0.615361 0.229631 0.911311
O O4 0.693671 0.448395 0.975544
O O5 0.908127 0.557791 0.485777
O O6 0.915222 0.376797 0.702379
O O7 0.875293 0.279623 0.435489
O O8 0.000000 0.350207 0.470161
O O9 0.500000 0.851232 0.493432
O O10 0.598425 0.858091 0.696511
O O11 0.595698 0.047897 0.478381
O O12 0.125938 0.178830 0.898840
O O13 0.000000 0.251787 0.894518
O O14 0.810237 0.124896 0.641175
O O15 0.745774 0.294186 0.447344
O O16 0.801188 0.056324 0.355751
O O17 0.500000 0.776593 0.876654
O O18 0.382860 0.675455 0.925638
#
# Coordination Sequence:
#
# PCOD8167662 Si02
#       8
#     4   4   4   4   4   4   4   4
#     4  11  23  38  57  81 110 144 183 227 274 325
#     4   9  18  34  55  79 108 141 178 220 266 317
#     4  10  21  38  60  85 113 145 181 222 269 322
#     4   9  18  34  55  79 108 141 178 220 266 317
#     4  10  22  37  54  79 109 142 180 223 270 320
#     4  10  22  37  54  79 109 142 180 223 270 320
#     4  10  21  38  60  85 113 145 181 222 269 322
#     4  11  23  38  57  81 110 144 183 227 274 325
#
# _framework density 19.923378
#
# number of rings (size 3 to 8) (size 9 to 14) (size 15 to 20)
#    0.000    2.000    0.000    3.000    0.000    7.500 
#    0.000    0.000    0.000    0.000    0.000    0.000 
#    0.000    0.000    0.000    0.000    0.000    0.000 
#
# Total GULP energy -396967.419969 kJ/mol
# GULP energy per Si atom -12405.231874 kJ/mol
# Density = 1.987803 g / cm^3
# Si number density = 19.923378 Si / 1000 Ang^3
#
#
#
# Elastic Constant Matrix: (Units=GPa)
#
#
# Indices 1 2 3 4 5 6 
#
# 1 88.8552 29.5150 22.8773 0.0000 0.0000 0.0000
# 2 29.5150 53.8375 -1.3598 0.0000 0.0000 0.0000
# 3 22.8773 -1.3598 34.9880 0.0000 0.0000 0.0000
# 4 0.0000 0.0000 0.0000 37.2741 0.0000 0.0000
# 5 0.0000 0.0000 0.0000 0.0000 23.4527 0.0000
# 6 0.0000 0.0000 0.0000 0.0000 0.0000 37.4976
#
#
#
# Elastic Compliance Matrix: (Units=1/GPa)
#
#
# Indices 1 2 3 4 5 6 
#
# 1 0.017634 -0.009968 -0.011917 0.000000 0.000000 0.000000
# 2 -0.009968 0.024228 0.007459 0.000000 0.000000 0.000000
# 3 -0.011917 0.007459 0.036663 0.000000 0.000000 0.000000
# 4 0.000000 0.000000 0.000000 0.026828 0.000000 0.000000
# 5 0.000000 0.000000 0.000000 0.000000 0.042639 0.000000
# 6 0.000000 0.000000 0.000000 0.000000 0.000000 0.026668
#
#
# Mechanical properties :
#
#
# Convention : Reuss Voigt Hill
#
# Bulk Modulus (GPa) = 20.13192 31.08284 25.60738
# Shear Modulus (GPa) = 22.72001 28.08810 25.40405
#
# Velocity S-wave (km/s) = 3.38060 3.75881 3.57471
# Velocity P-wave (km/s) = 5.03632 5.87139 5.46982
#
# Compressibility (1/GPa) = 0.04967237
#
# Stress axis : x y z
#
# Youngs Moduli (GPa) = 56.70945 41.27521 27.27514
#
# Poissons Ratio (x) = 0.41144 0.32505
# Poissons Ratio (y) = 0.56529 -0.20346
# Poissons Ratio (z) = 0.67583 -0.30789
#
# Static dielectric constant tensor:
#      x y z
#    x 3.819550 0.000000 0.000000 
#    y 0.000000 3.535500 0.000000 
#    z 0.000000 0.000000 3.544180 
# 
# 
# High freq. dielectric constant tensor:
#      x y z
#    x 1.789760 0.000000 0.000000 
#    y 0.000000 1.773960 0.000000 
#    z 0.000000 0.000000 1.775900 
# 
# From -- ./inp_files/2491.got.cif
#   From: 2010.03.12/outbox.cif.g09.slc.cpg/sg26_2_cif.got.tgz:2491.got - 2010.04.14 03:33:09.
