data_PCOD8167426
_publ_section_title
;
Structure prediction by ZEFSAII (Michael W. Deem and Ramdas Pophale) SiO2 
 PCOD8167426
Probable space group: P M C 21
;
_chemical_formula_sum "Si O2"
_cell_formula_units_Z 24
_cell_length_a 9.438041
_cell_length_b 8.842702
_cell_length_c 14.655817
_cell_angle_alpha 90.000000
_cell_angle_beta 90.000000
_cell_angle_gamma 90.000000
_cell_volume 1223.142010
_symmetry_space_group_name_H-M "P M C 21"
_symmetry_group_IT_number 26
_symmetry_cell_setting 'orthorhombic'
loop_
_space_group_symop_operation_xyz
x,y,z
-x,-y,1/2+z
-x,y,z
x,-y,1/2+z
loop_
_atom_site_type_symbol
_atom_site_label
_atom_site_fract_x
_atom_site_fract_y
_atom_site_fract_z
Si Si1 0.156933 0.425556 0.460170
Si Si2 0.663474 0.826199 0.731649
Si Si3 0.336514 0.512416 0.299101
Si Si4 0.164630 0.016691 0.086456
Si Si5 0.164699 0.682781 0.152545
Si Si6 0.156993 0.915821 0.892736
O O1 0.268944 0.519057 0.400241
O O2 0.202634 0.425164 0.566333
O O3 0.150707 0.253881 0.428062
O O4 0.000000 0.497578 0.448901
O O5 0.500000 0.870743 0.724318
O O6 0.685539 0.651328 0.754656
O O7 0.732666 0.932119 0.810096
O O8 0.740612 0.856785 0.635677
O O9 0.500000 0.555490 0.308222
O O10 0.259886 0.636412 0.237693
O O11 0.202064 0.854881 0.129522
O O12 0.000000 0.055476 0.100721
O O13 0.202640 0.020026 0.978580
O O14 0.000000 0.663945 0.177789
O O15 0.000000 0.963196 0.857750
#
# Coordination Sequence:
#
# PCOD8167426 Si02
#       6
#     4   4   4   4   4   4
#     4   8  15  30  51  71  92 123 163 202 238 280
#     4  10  20  32  48  73 102 130 160 194 236 288
#     4  10  20  32  48  73 102 130 160 194 236 288
#     4   9  18  33  53  75  96 122 161 204 242 283
#     4   9  18  33  53  75  96 122 161 204 242 283
#     4   8  15  30  51  71  92 123 163 202 238 280
#
# _framework density 19.621599
#
# number of rings (size 3 to 8) (size 9 to 14) (size 15 to 20)
#    0.000    3.000    0.000    3.000    0.000    4.000 
#    0.000    5.000    0.000    2.000    0.000    0.000 
#    0.000    0.000    0.000    0.000    0.000    0.000 
#
# Total GULP energy -297541.891767 kJ/mol
# GULP energy per Si atom -12397.578824 kJ/mol
# Density = 1.957694 g / cm^3
# Si number density = 19.621599 Si / 1000 Ang^3
#
#
#
# Elastic Constant Matrix: (Units=GPa)
#
#
# Indices 1 2 3 4 5 6 
#
# 1 67.5085 8.0235 0.9497 0.0000 0.0000 0.0000
# 2 8.0235 12.1355 -8.1764 0.0000 0.0000 0.0000
# 3 0.9497 -8.1764 21.5854 0.0000 0.0000 0.0000
# 4 0.0000 0.0000 0.0000 29.6164 0.0000 0.0000
# 5 0.0000 0.0000 0.0000 0.0000 22.8136 0.0000
# 6 0.0000 0.0000 0.0000 0.0000 0.0000 24.0474
#
#
#
# Elastic Compliance Matrix: (Units=1/GPa)
#
#
# Indices 1 2 3 4 5 6 
#
# 1 0.016753 -0.015539 -0.006623 0.000000 0.000000 0.000000
# 2 -0.015539 0.125052 0.048052 0.000000 0.000000 0.000000
# 3 -0.006623 0.048052 0.064821 0.000000 0.000000 0.000000
# 4 0.000000 0.000000 0.000000 0.033765 0.000000 0.000000
# 5 0.000000 0.000000 0.000000 0.000000 0.043833 0.000000
# 6 0.000000 0.000000 0.000000 0.000000 0.000000 0.041585
#
#
# Mechanical properties :
#
#
# Convention : Reuss Voigt Hill
#
# Bulk Modulus (GPa) = 3.86986 11.42478 7.64732
# Shear Modulus (GPa) = 13.88262 21.99101 17.93682
#
# Velocity S-wave (km/s) = 2.66281 3.35140 3.02675
# Velocity P-wave (km/s) = 3.38091 4.56191 4.01507
#
# Compressibility (1/GPa) = 0.25840708
#
# Stress axis : x y z
#
# Youngs Moduli (GPa) = 59.69117 7.99670 15.42712
#
# Poissons Ratio (x) = 0.12426 0.10217
# Poissons Ratio (y) = 0.92752 -0.74131
# Poissons Ratio (z) = 0.39533 -0.38426
#
# Static dielectric constant tensor:
#      x y z
#    x 3.586650 0.000000 0.000000 
#    y 0.000000 3.117570 0.000000 
#    z 0.000000 0.000000 3.769800 
# 
# 
# High freq. dielectric constant tensor:
#      x y z
#    x 1.757310 0.000000 0.000000 
#    y 0.000000 1.726460 0.000000 
#    z 0.000000 0.000000 1.771560 
# 
# From -- ./inp_files/2833.got.cif
#   From: 2010.03.12/outbox.cif.g09.slc.cpg/sg26_2_cif.got.tgz:2833.got - 2010.04.14 03:33:09.
