data_PCOD8167591
_publ_section_title
;
Structure prediction by ZEFSAII (Michael W. Deem and Ramdas Pophale) SiO2 
 PCOD8167591
Probable space group: P M C 21
;
_chemical_formula_sum "Si O2"
_cell_formula_units_Z 32
_cell_length_a 8.794913
_cell_length_b 15.215188
_cell_length_c 12.069013
_cell_angle_alpha 90.000000
_cell_angle_beta 90.000000
_cell_angle_gamma 90.000000
_cell_volume 1615.030118
_symmetry_space_group_name_H-M "P M C 21"
_symmetry_group_IT_number 26
_symmetry_cell_setting 'orthorhombic'
loop_
_space_group_symop_operation_xyz
x,y,z
-x,-y,1/2+z
-x,y,z
x,-y,1/2+z
loop_
_atom_site_type_symbol
_atom_site_label
_atom_site_fract_x
_atom_site_fract_y
_atom_site_fract_z
Si Si1 0.320351 0.891887 0.319680
Si Si2 0.680247 0.092212 0.283369
Si Si3 0.176763 0.408725 0.828790
Si Si4 0.179342 0.252863 0.669952
Si Si5 0.330315 0.357801 0.044306
Si Si6 0.677407 0.590950 0.783170
Si Si7 0.179705 0.750909 0.915743
Si Si8 0.670242 0.842954 0.555464
O O1 0.500000 0.876667 0.313414
O O2 0.249288 0.835511 0.220868
O O3 0.249139 0.860301 0.437405
O O4 0.274410 0.993204 0.311061
O O5 0.500000 0.108212 0.284866
O O6 0.752843 0.157549 0.372416
O O7 0.748613 0.109517 0.160191
O O8 0.235538 0.339498 0.736605
O O9 0.272886 0.497269 0.828638
O O10 0.000000 0.430161 0.812441
O O11 0.204802 0.368567 0.949925
O O12 0.232520 0.261910 0.542986
O O13 0.000000 0.244794 0.680644
O O14 0.500000 0.383474 0.001326
O O15 0.284165 0.413101 0.152468
O O16 0.330188 0.258546 0.085986
O O17 0.500000 0.606732 0.804161
O O18 0.765781 0.668144 0.845018
O O19 0.000000 0.756236 0.907140
O O20 0.500000 0.880972 0.543445
#
# Coordination Sequence:
#
# PCOD8167591 Si02
#       8
#     4   4   4   4   4   4   4   4
#     4  10  21  36  63  92 118 156 201 247 298 353
#     4  10  21  38  61  91 122 156 200 249 299 353
#     4  11  24  41  62  89 121 158 199 248 304 363
#     4  10  24  43  59  83 124 163 199 245 297 355
#     4  10  20  39  64  88 118 154 198 252 301 351
#     4  11  24  42  64  91 120 156 202 252 300 357
#     4  11  24  42  61  86 123 164 202 245 300 362
#     4   9  17  35  58  86 120 149 191 250 297 342
#
# _framework density 19.813873000000001
#
# number of rings (size 3 to 8) (size 9 to 14) (size 15 to 20)
#    0.000    1.750    2.500    1.125    3.500    3.000 
#    0.000    0.625    0.000    0.000    0.000    0.000 
#    0.000    0.000    0.000    0.000    0.000    0.000 
#
# Total GULP energy -396806.411727 kJ/mol
# GULP energy per Si atom -12400.200366 kJ/mol
# Density = 1.976878 g / cm^3
# Si number density = 19.813873 Si / 1000 Ang^3
#
#
#
# Elastic Constant Matrix: (Units=GPa)
#
#
# Indices 1 2 3 4 5 6 
#
# 1 40.4969 29.0737 33.4386 0.0000 0.0000 0.0000
# 2 29.0737 111.7538 37.3946 0.0000 0.0000 0.0000
# 3 33.4386 37.3946 112.0486 0.0000 0.0000 0.0000
# 4 0.0000 0.0000 0.0000 29.6040 0.0000 0.0000
# 5 0.0000 0.0000 0.0000 0.0000 29.8423 0.0000
# 6 0.0000 0.0000 0.0000 0.0000 0.0000 27.0117
#
#
#
# Elastic Compliance Matrix: (Units=1/GPa)
#
#
# Indices 1 2 3 4 5 6 
#
# 1 0.036650 -0.006614 -0.008730 0.000000 0.000000 0.000000
# 2 -0.006614 0.011267 -0.001786 0.000000 0.000000 0.000000
# 3 -0.008730 -0.001786 0.012126 0.000000 0.000000 0.000000
# 4 0.000000 0.000000 0.000000 0.033779 0.000000 0.000000
# 5 0.000000 0.000000 0.000000 0.000000 0.033510 0.000000
# 6 0.000000 0.000000 0.000000 0.000000 0.000000 0.037021
#
#
# Mechanical properties :
#
#
# Convention : Reuss Voigt Hill
#
# Bulk Modulus (GPa) = 38.78611 51.56813 45.17712
# Shear Modulus (GPa) = 24.13045 28.25106 26.19076
#
# Velocity S-wave (km/s) = 3.49357 3.78010 3.63966
# Velocity P-wave (km/s) = 5.99092 6.71826 6.36499
#
# Compressibility (1/GPa) = 0.02578242
#
# Stress axis : x y z
#
# Youngs Moduli (GPa) = 27.28517 88.75825 82.46574
#
# Poissons Ratio (x) = 0.58700 0.71995
# Poissons Ratio (y) = 0.18045 0.14732
# Poissons Ratio (z) = 0.23821 0.15856
#
# Static dielectric constant tensor:
#      x y z
#    x 3.387300 0.000000 0.000000 
#    y 0.000000 3.592450 0.000000 
#    z 0.000000 0.000000 3.826460 
# 
# 
# High freq. dielectric constant tensor:
#      x y z
#    x 1.750360 0.000000 0.000000 
#    y 0.000000 1.779840 0.000000 
#    z 0.000000 0.000000 1.788870 
# 
# From -- ./inp_files/2991.got.cif
#   From: 2010.03.12/outbox.cif.g09.slc.cpg/sg26_2_cif.got.tgz:2991.got - 2010.04.14 03:33:09.
