data_PCOD8167993
_publ_section_title
;
Structure prediction by ZEFSAII (Michael W. Deem and Ramdas Pophale) SiO2 
 PCOD8167993
Probable space group: P M A 2
;
_chemical_formula_sum "Si O2"
_cell_formula_units_Z 24
_cell_length_a 8.721617
_cell_length_b 9.973712
_cell_length_c 15.194174
_cell_angle_alpha 90.000000
_cell_angle_beta 90.000000
_cell_angle_gamma 90.000000
_cell_volume 1321.694036
_symmetry_space_group_name_H-M "P M A 2"
_symmetry_group_IT_number 28
_symmetry_cell_setting 'orthorhombic'
loop_
_space_group_symop_operation_xyz
x,y,z
-x,-y,z
1/2-x,y,z
1/2+x,-y,z
loop_
_atom_site_type_symbol
_atom_site_label
_atom_site_fract_x
_atom_site_fract_y
_atom_site_fract_z
Si Si1 0.568083 0.647601 0.837600
Si Si2 0.927929 0.645745 0.294690
Si Si3 0.427260 0.861576 0.170419
Si Si4 0.568219 0.351219 0.659518
Si Si5 0.928052 0.645293 0.488268
Si Si6 0.570879 0.140513 0.965064
O O1 0.500000 0.500000 0.851981
O O2 0.750000 0.637643 0.832707
O O3 0.502677 0.714902 0.747451
O O4 0.517087 0.739219 0.918119
O O5 0.750000 0.630107 0.274587
O O6 0.953687 0.712029 0.392179
O O7 0.000000 0.500000 0.286757
O O8 0.000649 0.739175 0.221929
O O9 0.250000 0.868561 0.192415
O O10 0.500000 0.000000 0.203316
O O11 0.459617 0.838423 0.067901
O O12 0.500000 0.500000 0.654138
O O13 0.750000 0.351463 0.666451
O O14 0.513029 0.276360 0.569181
O O15 0.750000 0.633631 0.512223
O O16 0.000000 0.500000 0.479494
O O17 0.750000 0.143285 0.941502
O O18 0.500000 0.000000 0.932979
#
# Coordination Sequence:
#
# PCOD8167993 Si02
#       6
#     4   4   4   4   4   4
#     4  11  21  34  53  78 107 138 172 215 259 303
#     4  10  20  33  52  78 108 138 173 215 259 303
#     4  10  21  37  57  77 102 135 173 213 256 309
#     4  10  17  27  45  70 101 135 169 208 252 303
#     4   9  16  27  44  69 100 134 169 207 250 300
#     4  10  21  38  57  78 102 134 173 212 256 310
#
# _framework density 18.158512999999999
#
# number of rings (size 3 to 8) (size 9 to 14) (size 15 to 20)
#    0.000    2.000    0.000    7.000    0.000    4.667 
#    0.000    0.000    0.000    1.000    0.000    2.333 
#    0.000    0.000    0.000    0.000    0.000    0.000 
#
# Total GULP energy -297495.765400 kJ/mol
# GULP energy per Si atom -12395.656892 kJ/mol
# Density = 1.811718 g / cm^3
# Si number density = 18.158513 Si / 1000 Ang^3
#
#
#
# Elastic Constant Matrix: (Units=GPa)
#
#
# Indices 1 2 3 4 5 6 
#
# 1 165.5526 51.7739 71.1569 0.0000 0.0000 0.0000
# 2 51.7739 78.8413 55.7237 0.0000 0.0000 0.0000
# 3 71.1569 55.7237 92.9893 0.0000 0.0000 0.0000
# 4 0.0000 0.0000 0.0000 -3.7044 0.0000 0.0000
# 5 0.0000 0.0000 0.0000 0.0000 30.6050 0.0000
# 6 0.0000 0.0000 0.0000 0.0000 0.0000 28.3819
#
#
#
# Elastic Compliance Matrix: (Units=1/GPa)
#
#
# Indices 1 2 3 4 5 6 
#
# 1 0.009152 -0.001839 -0.005901 0.000000 0.000000 0.000000
# 2 -0.001839 0.022372 -0.011999 0.000000 0.000000 0.000000
# 3 -0.005901 -0.011999 0.022460 0.000000 0.000000 0.000000
# 4 0.000000 0.000000 0.000000 -0.269949 0.000000 0.000000
# 5 0.000000 0.000000 0.000000 0.000000 0.032674 0.000000
# 6 0.000000 0.000000 0.000000 0.000000 0.000000 0.035234
#
#
# Mechanical properties :
#
#
# Convention : Reuss Voigt Hill
#
# Bulk Modulus (GPa) = 68.94007 77.18802 73.06404
# Shear Modulus (GPa) = -48.19624 21.63841 -13.27891
#
# Velocity S-wave (km/s) = -5.15748 3.45576 -2.70715
# Velocity P-wave (km/s) = 1.60687 7.65005 5.52744
#
# Compressibility (1/GPa) = 0.01450535
#
# Stress axis : x y z
#
# Youngs Moduli (GPa) = 109.26687 44.69807 44.52344
#
# Poissons Ratio (x) = 0.08221 0.26274
# Poissons Ratio (y) = 0.20096 0.53425
# Poissons Ratio (z) = 0.64479 0.53634
#
# Static dielectric constant tensor:
#      x y z
#    x 3.549820 0.000000 0.000000 
#    y 0.000000 2.971750 0.000000 
#    z 0.000000 0.000000 4.187870 
# 
# 
# High freq. dielectric constant tensor:
#      x y z
#    x 1.728120 0.000000 0.000000 
#    y 0.000000 1.652850 0.000000 
#    z 0.000000 0.000000 1.724280 
# 
# From -- ./inp_files/6680.got.cif
#   From: 2010.03.12/outbox.cif.g09.slc.cpg/sg28_4_cif.got.tgz:6680.got - 2010.04.14 03:39:34.
