data_PCOD8167850
_publ_section_title
;
Structure prediction by ZEFSAII (Michael W. Deem and Ramdas Pophale) SiO2 
 PCOD8167850
Probable space group: P C C 2
;
_chemical_formula_sum "Si O2"
_cell_formula_units_Z 32
_cell_length_a 38.113647
_cell_length_b 7.016934
_cell_length_c 5.255167
_cell_angle_alpha 90.000000
_cell_angle_beta 90.000000
_cell_angle_gamma 90.000000
_cell_volume 1405.446831
_symmetry_space_group_name_H-M "P C C 2"
_symmetry_group_IT_number 27
_symmetry_cell_setting 'orthorhombic'
loop_
_space_group_symop_operation_xyz
x,y,z
-x,-y,z
-x,y,1/2+z
x,-y,1/2+z
loop_
_atom_site_type_symbol
_atom_site_label
_atom_site_fract_x
_atom_site_fract_y
_atom_site_fract_z
Si Si1 0.485122 0.788270 0.220820
Si Si2 0.125752 0.296987 0.590983
Si Si3 0.096237 0.274863 0.090367
Si Si4 0.337275 0.384559 0.711909
Si Si5 0.272996 0.115385 0.606760
Si Si6 0.014815 0.785335 0.587446
Si Si7 0.196037 0.123694 0.672531
Si Si8 0.413755 0.377393 0.639278
O O1 0.495396 0.682649 0.485204
O O2 0.443158 0.785203 0.179920
O O3 0.500000 0.000000 0.262385
O O4 0.107243 0.180632 0.821921
O O5 0.108768 0.505336 0.557530
O O6 0.167748 0.294100 0.635349
O O7 0.116864 0.184258 0.329691
O O8 0.055671 0.236891 0.140120
O O9 0.334984 0.554523 0.506508
O O10 0.304845 0.251996 0.659321
O O11 0.375090 0.282111 0.668503
O O12 0.234982 0.215342 0.648077
O O13 0.275759 0.053792 0.312711
O O14 0.994898 0.681979 0.821841
O O15 0.000000 0.000000 0.553661
O O16 0.190961 0.964996 0.453037
O O17 0.418174 0.460909 0.355521
#
# Coordination Sequence:
#
# PCOD8167850 Si02
#       8
#     4   4   4   4   4   4   4   4
#     4  10  21  37  53  80 117 148 200 262 311 373
#     4  10  21  40  58  89 116 156 192 236 297 341
#     4  10  21  40  62  85 123 147 195 244 285 356
#     4  10  21  40  61  94 128 165 212 262 317 376
#     4  10  21  40  64  93 129 166 210 255 310 376
#     4  10  21  40  59  86 116 150 192 239 289 348
#     4  10  21  40  61  90 125 160 199 244 293 357
#     4  10  21  37  59  83 118 160 203 252 313 379
#
# _framework density 22.768560000000001
#
# number of rings (size 3 to 8) (size 9 to 14) (size 15 to 20)
#    0.000    2.000    0.000    3.000    0.000    1.500 
#   22.500    7.500    0.000    0.000    0.000    0.000 
#    0.000    0.000    0.000    0.000    0.000    0.000 
#
# Total GULP energy -396428.974098 kJ/mol
# GULP energy per Si atom -12388.405441 kJ/mol
# Density = 2.271674 g / cm^3
# Si number density = 22.768560 Si / 1000 Ang^3
#
#
#
# Elastic Constant Matrix: (Units=GPa)
#
#
# Indices 1 2 3 4 5 6 
#
# 1 173.3330 30.8486 5.6688 0.0000 0.0000 0.0000
# 2 30.8486 38.5014 -18.2273 0.0000 0.0000 0.0000
# 3 5.6688 -18.2273 177.8128 0.0000 0.0000 0.0000
# 4 0.0000 0.0000 0.0000 -1.8836 0.0000 0.0000
# 5 0.0000 0.0000 0.0000 0.0000 37.1999 0.0000
# 6 0.0000 0.0000 0.0000 0.0000 0.0000 83.0632
#
#
#
# Elastic Compliance Matrix: (Units=1/GPa)
#
#
# Indices 1 2 3 4 5 6 
#
# 1 0.006841 -0.005869 -0.000820 0.000000 0.000000 0.000000
# 2 -0.005869 0.032333 0.003502 0.000000 0.000000 0.000000
# 3 -0.000820 0.003502 0.006009 0.000000 0.000000 0.000000
# 4 0.000000 0.000000 0.000000 -0.530907 0.000000 0.000000
# 5 0.000000 0.000000 0.000000 0.000000 0.026882 0.000000
# 6 0.000000 0.000000 0.000000 0.000000 0.000000 0.012039
#
#
# Mechanical properties :
#
#
# Convention : Reuss Voigt Hill
#
# Bulk Modulus (GPa) = 25.76762 47.35861 36.56312
# Shear Modulus (GPa) = -11.69610 48.43304 18.36847
#
# Velocity S-wave (km/s) = -2.26894 4.61715 2.84341
# Velocity P-wave (km/s) = 2.11604 7.01921 5.18396
#
# Compressibility (1/GPa) = 0.03880839
#
# Stress axis : x y z
#
# Youngs Moduli (GPa) = 146.18678 30.92804 166.41818
#
# Poissons Ratio (x) = 0.18151 0.13641
# Poissons Ratio (y) = 0.85796 -0.58272
# Poissons Ratio (z) = 0.11983 -0.10829
#
# Static dielectric constant tensor:
#      x y z
#    x 4.393200 0.000000 0.000000 
#    y 0.000000 3.452120 0.000000 
#    z 0.000000 0.000000 5.862520 
# 
# 
# High freq. dielectric constant tensor:
#      x y z
#    x 1.914700 0.000000 0.000000 
#    y 0.000000 1.840510 0.000000 
#    z 0.000000 0.000000 1.946520 
# 
# From -- ./inp_files/739.got.cif
#   From: 2010.03.12/outbox.cif.g09.slc.cpg/sg27_1_cif.got.tgz:739.got - 2010.04.14 03:36:05.
