data_PCOD8167947
_publ_section_title
;
Structure prediction by ZEFSAII (Michael W. Deem and Ramdas Pophale) SiO2 
 PCOD8167947
Probable space group: P C C 2
;
_chemical_formula_sum "Si O2"
_cell_formula_units_Z 32
_cell_length_a 16.925537
_cell_length_b 6.457990
_cell_length_c 13.590865
_cell_angle_alpha 90.000000
_cell_angle_beta 90.000000
_cell_angle_gamma 90.000000
_cell_volume 1485.548801
_symmetry_space_group_name_H-M "P C C 2"
_symmetry_group_IT_number 27
_symmetry_cell_setting 'orthorhombic'
loop_
_space_group_symop_operation_xyz
x,y,z
-x,-y,z
-x,y,1/2+z
x,-y,1/2+z
loop_
_atom_site_type_symbol
_atom_site_label
_atom_site_fract_x
_atom_site_fract_y
_atom_site_fract_z
Si Si1 0.089390 0.453869 0.202600
Si Si2 0.584272 0.608285 0.009432
Si Si3 0.691780 0.226657 0.019174
Si Si4 0.084272 0.108285 0.348538
Si Si5 0.852904 0.410817 0.001055
Si Si6 0.191780 0.273343 0.838797
Si Si7 0.647096 0.910817 0.856915
Si Si8 0.410610 0.953869 0.655370
O O1 0.106759 0.225966 0.246389
O O2 0.148072 0.625009 0.246478
O O3 0.000000 0.500000 0.234036
O O4 0.099956 0.465099 0.085373
O O5 0.500000 0.500000 0.016835
O O6 0.651170 0.441377 0.990522
O O7 0.584888 0.772418 0.919127
O O8 0.606759 0.725966 0.111581
O O9 0.783377 0.267219 0.045832
O O10 0.688650 0.078694 0.925456
O O11 0.648071 0.125009 0.111493
O O12 0.084887 0.272417 0.438843
O O13 0.151170 0.941378 0.367448
O O14 0.000000 0.000000 0.341135
O O15 0.811351 0.578695 0.932515
O O16 0.283377 0.232781 0.812138
O O17 0.599957 0.034902 0.772598
O O18 0.500000 0.000000 0.623935
#
# Coordination Sequence:
#
# PCOD8167947 Si02
#       8
#     4   4   4   4   4   4   4   4
#     4  11  25  42  67 100 132 170 224 273 326 395
#     4  11  24  45  67  95 140 171 215 281 326 382
#     4  11  23  46  66  97 137 171 219 279 323 386
#     4  11  24  45  67  95 140 171 215 281 326 382
#     4  11  25  43  70  99 129 178 224 263 334 397
#     4  11  23  46  66  97 137 171 219 279 323 386
#     4  11  25  43  70  99 129 178 224 263 334 397
#     4  11  25  42  67 100 132 170 224 273 326 395
#
# _framework density 21.540863000000002
#
# number of rings (size 3 to 8) (size 9 to 14) (size 15 to 20)
#    0.000    1.000    5.000    0.750    3.500    3.000 
#    0.000    0.000    0.000    0.000    0.000    0.000 
#    0.000    0.000    0.000    0.000    0.000    0.000 
#
# Total GULP energy -396889.774739 kJ/mol
# GULP energy per Si atom -12402.805461 kJ/mol
# Density = 2.149183 g / cm^3
# Si number density = 21.540863 Si / 1000 Ang^3
#
#
#
# Elastic Constant Matrix: (Units=GPa)
#
#
# Indices 1 2 3 4 5 6 
#
# 1 76.0069 42.2507 36.4751 0.0000 0.0000 0.0000
# 2 42.2507 106.6879 38.4495 0.0000 0.0000 0.0000
# 3 36.4751 38.4495 107.5169 0.0000 0.0000 0.0000
# 4 0.0000 0.0000 0.0000 8.4564 0.0000 0.0000
# 5 0.0000 0.0000 0.0000 0.0000 27.1969 0.0000
# 6 0.0000 0.0000 0.0000 0.0000 0.0000 41.6598
#
#
#
# Elastic Compliance Matrix: (Units=1/GPa)
#
#
# Indices 1 2 3 4 5 6 
#
# 1 0.018364 -0.005771 -0.004166 0.000000 0.000000 0.000000
# 2 -0.005771 0.012574 -0.002539 0.000000 0.000000 0.000000
# 3 -0.004166 -0.002539 0.011622 0.000000 0.000000 0.000000
# 4 0.000000 0.000000 0.000000 0.118253 0.000000 0.000000
# 5 0.000000 0.000000 0.000000 0.000000 0.036769 0.000000
# 6 0.000000 0.000000 0.000000 0.000000 0.000000 0.024004
#
#
# Mechanical properties :
#
#
# Convention : Reuss Voigt Hill
#
# Bulk Modulus (GPa) = 56.79282 58.28471 57.53877
# Shear Modulus (GPa) = 19.80931 26.99838 23.40385
#
# Velocity S-wave (km/s) = 3.03581 3.54412 3.29976
# Velocity P-wave (km/s) = 6.22178 6.62300 6.42552
#
# Compressibility (1/GPa) = 0.01760786
#
# Stress axis : x y z
#
# Youngs Moduli (GPa) = 54.45421 79.53234 86.04307
#
# Poissons Ratio (x) = 0.45899 0.35847
# Poissons Ratio (y) = 0.31426 0.21843
# Poissons Ratio (z) = 0.22687 0.20190
#
# Static dielectric constant tensor:
#      x y z
#    x 3.857220 0.000000 0.000000 
#    y 0.000000 4.013930 0.000000 
#    z 0.000000 0.000000 3.693270 
# 
# 
# High freq. dielectric constant tensor:
#      x y z
#    x 1.853250 0.000000 0.000000 
#    y 0.000000 1.853940 0.000000 
#    z 0.000000 0.000000 1.837600 
# 
# From -- ./inp_files/3762.got.cif
#   From: 2010.03.12/outbox.cif.g09.slc.cpg/sg27_2_cif.got.tgz:3762.got - 2010.04.14 03:36:05.
