data_PCOD8167398
_publ_section_title
;
Structure prediction by ZEFSAII (Michael W. Deem and Ramdas Pophale) SiO2 
 PCOD8167398
Probable space group: P M C 21
;
_chemical_formula_sum "Si O2"
_cell_formula_units_Z 32
_cell_length_a 9.104349
_cell_length_b 15.305338
_cell_length_c 11.868601
_cell_angle_alpha 90.000000
_cell_angle_beta 90.000000
_cell_angle_gamma 90.000000
_cell_volume 1653.831853
_symmetry_space_group_name_H-M "P M C 21"
_symmetry_group_IT_number 26
_symmetry_cell_setting 'orthorhombic'
loop_
_space_group_symop_operation_xyz
x,y,z
-x,-y,1/2+z
-x,y,z
x,-y,1/2+z
loop_
_atom_site_type_symbol
_atom_site_label
_atom_site_fract_x
_atom_site_fract_y
_atom_site_fract_z
Si Si1 0.825665 0.254023 0.493190
Si Si2 0.332982 0.675409 0.348697
Si Si3 0.833847 0.081872 0.628250
Si Si4 0.326065 0.755686 0.753470
Si Si5 0.325975 0.604512 0.586470
Si Si6 0.165984 0.842161 0.363621
Si Si7 0.672333 0.905854 0.581369
Si Si8 0.331781 0.410701 0.618220
O O1 0.778831 0.170313 0.567738
O O2 0.760740 0.241259 0.369419
O O3 0.761911 0.341376 0.548452
O O4 0.000000 0.263210 0.486433
O O5 0.500000 0.709679 0.363850
O O6 0.271511 0.636760 0.465049
O O7 0.225914 0.752671 0.310840
O O8 0.324575 0.603236 0.251995
O O9 0.825898 0.088062 0.763265
O O10 0.000000 0.061114 0.589355
O O11 0.730646 0.003037 0.594378
O O12 0.500000 0.751632 0.776299
O O13 0.271146 0.671108 0.682983
O O14 0.283036 0.843141 0.684649
O O15 0.500000 0.600820 0.590639
O O16 0.263041 0.507050 0.602231
O O17 0.268058 0.867391 0.466122
O O18 0.000000 0.830848 0.406600
O O19 0.500000 0.910548 0.569471
O O20 0.500000 0.404769 0.574819
#
# Coordination Sequence:
#
# PCOD8167398 Si02
#       8
#     4   4   4   4   4   4   4   4
#     4  11  24  42  60  84 123 162 197 243 296 357
#     4  10  19  36  61  89 118 152 201 253 296 342
#     4  10  24  43  61  85 119 162 200 238 296 360
#     4  10  22  41  62  87 120 157 198 246 297 352
#     4   9  19  37  61  89 121 154 195 247 299 352
#     4  11  22  40  64  87 119 160 198 240 297 361
#     4  11  24  41  64  93 120 151 197 254 300 343
#     4  10  21  36  63  92 116 156 202 247 297 351
#
# _framework density 19.349004999999998
#
# number of rings (size 3 to 8) (size 9 to 14) (size 15 to 20)
#    0.000    1.750    2.500    1.125    3.500    3.000 
#    0.000    1.250    0.000    0.000    0.000    0.000 
#    0.000    0.000    0.000    0.000    0.000    0.000 
#
# Total GULP energy -396842.546996 kJ/mol
# GULP energy per Si atom -12401.329594 kJ/mol
# Density = 1.930497 g / cm^3
# Si number density = 19.349005 Si / 1000 Ang^3
#
#
#
# Elastic Constant Matrix: (Units=GPa)
#
#
# Indices 1 2 3 4 5 6 
#
# 1 61.2981 51.9870 43.5212 0.0000 0.0000 0.0000
# 2 51.9870 129.5885 41.0650 0.0000 0.0000 0.0000
# 3 43.5212 41.0650 115.1845 0.0000 0.0000 0.0000
# 4 0.0000 0.0000 0.0000 23.6253 0.0000 0.0000
# 5 0.0000 0.0000 0.0000 0.0000 29.8128 0.0000
# 6 0.0000 0.0000 0.0000 0.0000 0.0000 58.0158
#
#
#
# Elastic Compliance Matrix: (Units=1/GPa)
#
#
# Indices 1 2 3 4 5 6 
#
# 1 0.030046 -0.009533 -0.007954 0.000000 0.000000 0.000000
# 2 -0.009533 0.011724 -0.000578 0.000000 0.000000 0.000000
# 3 -0.007954 -0.000578 0.011893 0.000000 0.000000 0.000000
# 4 0.000000 0.000000 0.000000 0.042328 0.000000 0.000000
# 5 0.000000 0.000000 0.000000 0.000000 0.033543 0.000000
# 6 0.000000 0.000000 0.000000 0.000000 0.000000 0.017237
#
#
# Mechanical properties :
#
#
# Convention : Reuss Voigt Hill
#
# Bulk Modulus (GPa) = 57.03347 64.35752 60.69550
# Shear Modulus (GPa) = 26.49092 33.59064 30.04078
#
# Velocity S-wave (km/s) = 3.70416 4.17110 3.94455
# Velocity P-wave (km/s) = 6.91626 7.51871 7.22377
#
# Compressibility (1/GPa) = 0.01753356
#
# Stress axis : x y z
#
# Youngs Moduli (GPa) = 33.28252 85.29349 84.08294
#
# Poissons Ratio (x) = 0.81310 0.66878
# Poissons Ratio (y) = 0.31728 0.04859
# Poissons Ratio (z) = 0.26472 0.04929
#
# Static dielectric constant tensor:
#      x y z
#    x 3.411660 0.000000 0.000000 
#    y 0.000000 3.738660 0.000000 
#    z 0.000000 0.000000 3.614660 
# 
# 
# High freq. dielectric constant tensor:
#      x y z
#    x 1.737910 0.000000 0.000000 
#    y 0.000000 1.760730 0.000000 
#    z 0.000000 0.000000 1.765670 
# 
# From -- ./inp_files/2926.got.cif
#   From: 2010.03.12/outbox.cif.g09.slc.cpg/sg26_2_cif.got.tgz:2926.got - 2010.04.14 03:33:09.
