data_PCOD8167590
_publ_section_title
;
Structure prediction by ZEFSAII (Michael W. Deem and Ramdas Pophale) SiO2 
 PCOD8167590
Probable space group: P M C 21
;
_chemical_formula_sum "Si O2"
_cell_formula_units_Z 24
_cell_length_a 8.337774
_cell_length_b 9.395765
_cell_length_c 15.181305
_cell_angle_alpha 90.000000
_cell_angle_beta 90.000000
_cell_angle_gamma 90.000000
_cell_volume 1189.299868
_symmetry_space_group_name_H-M "P M C 21"
_symmetry_group_IT_number 26
_symmetry_cell_setting 'orthorhombic'
loop_
_space_group_symop_operation_xyz
x,y,z
-x,-y,1/2+z
-x,y,z
x,-y,1/2+z
loop_
_atom_site_type_symbol
_atom_site_label
_atom_site_fract_x
_atom_site_fract_y
_atom_site_fract_z
Si Si1 0.813378 0.854913 0.148110
Si Si2 0.187377 0.335498 0.309439
Si Si3 0.314681 0.835408 0.649910
Si Si4 0.315185 0.332134 0.497831
Si Si5 0.187432 0.348730 0.798110
Si Si6 0.188345 0.644089 0.496999
O O1 0.793973 0.766715 0.058783
O O2 0.738391 0.763490 0.229355
O O3 0.000000 0.893008 0.161699
O O4 0.710540 0.997264 0.142413
O O5 0.216943 0.222645 0.233148
O O6 0.279829 0.288678 0.397253
O O7 0.251414 0.491285 0.279367
O O8 0.000000 0.344363 0.332877
O O9 0.500000 0.799080 0.662909
O O10 0.250971 0.765581 0.560791
O O11 0.500000 0.303789 0.519452
O O12 0.274794 0.496027 0.517517
O O13 0.000000 0.347989 0.780478
O O14 0.229152 0.304031 0.898020
O O15 0.000000 0.620059 0.509750
#
# Coordination Sequence:
#
# PCOD8167590 Si02
#       6
#     4   4   4   4   4   4
#     4  11  22  39  60  84 116 159 201 240 289 354
#     4  10  20  39  64  88 113 151 198 243 290 354
#     4  12  25  39  55  85 123 157 194 247 302 346
#     4  11  22  38  60  90 121 151 191 247 299 342
#     4   8  18  36  62  88 109 139 192 246 284 332
#     4  10  20  39  63  87 114 153 200 243 288 352
#
# _framework density 20.179938
#
# number of rings (size 3 to 8) (size 9 to 14) (size 15 to 20)
#    0.000    1.667    0.000    6.500    0.000    2.667 
#    0.000   14.167    0.000    0.000    0.000    0.000 
#    0.000    0.000    0.000    0.000    0.000    0.000 
#
# Total GULP energy -297691.568361 kJ/mol
# GULP energy per Si atom -12403.815348 kJ/mol
# Density = 2.013401 g / cm^3
# Si number density = 20.179938 Si / 1000 Ang^3
#
#
#
# Elastic Constant Matrix: (Units=GPa)
#
#
# Indices 1 2 3 4 5 6 
#
# 1 66.2440 2.6325 14.4055 0.0000 0.0000 0.0000
# 2 2.6325 97.7451 75.9543 0.0000 0.0000 0.0000
# 3 14.4055 75.9543 112.5277 0.0000 0.0000 0.0000
# 4 0.0000 0.0000 0.0000 14.5204 0.0000 0.0000
# 5 0.0000 0.0000 0.0000 0.0000 24.5917 0.0000
# 6 0.0000 0.0000 0.0000 0.0000 0.0000 28.9061
#
#
#
# Elastic Compliance Matrix: (Units=1/GPa)
#
#
# Indices 1 2 3 4 5 6 
#
# 1 0.015793 0.002410 -0.003648 0.000000 0.000000 0.000000
# 2 0.002410 0.021884 -0.015080 0.000000 0.000000 0.000000
# 3 -0.003648 -0.015080 0.019532 0.000000 0.000000 0.000000
# 4 0.000000 0.000000 0.000000 0.068869 0.000000 0.000000
# 5 0.000000 0.000000 0.000000 0.000000 0.040664 0.000000
# 6 0.000000 0.000000 0.000000 0.000000 0.000000 0.034595
#
#
# Mechanical properties :
#
#
# Convention : Reuss Voigt Hill
#
# Bulk Modulus (GPa) = 40.69564 51.38906 46.04235
# Shear Modulus (GPa) = 20.64717 25.83859 23.24288
#
# Velocity S-wave (km/s) = 3.20215 3.58216 3.39747
# Velocity P-wave (km/s) = 5.82081 6.52916 6.18513
#
# Compressibility (1/GPa) = 0.02457266
#
# Stress axis : x y z
#
# Youngs Moduli (GPa) = 63.31800 45.69640 51.19761
#
# Poissons Ratio (x) = -0.11011 0.18678
# Poissons Ratio (y) = -0.15257 0.77203
# Poissons Ratio (z) = 0.23100 0.68908
#
# Static dielectric constant tensor:
#      x y z
#    x 3.508690 0.000000 0.000000 
#    y 0.000000 3.633750 0.000000 
#    z 0.000000 0.000000 3.843660 
# 
# 
# High freq. dielectric constant tensor:
#      x y z
#    x 1.781820 0.000000 0.000000 
#    y 0.000000 1.783450 0.000000 
#    z 0.000000 0.000000 1.800010 
# 
# From -- ./inp_files/3928.got.cif
#   From: 2010.03.12/outbox.cif.g09.slc.cpg/sg26_2_cif.got.tgz:3928.got - 2010.04.14 03:33:09.
