data_PCOD8167445
_publ_section_title
;
Structure prediction by ZEFSAII (Michael W. Deem and Ramdas Pophale) SiO2 
 PCOD8167445
Probable space group: P M C 21
;
_chemical_formula_sum "Si O2"
_cell_formula_units_Z 32
_cell_length_a 10.026424
_cell_length_b 16.089264
_cell_length_c 10.826761
_cell_angle_alpha 90.000000
_cell_angle_beta 90.000000
_cell_angle_gamma 90.000000
_cell_volume 1746.549078
_symmetry_space_group_name_H-M "P M C 21"
_symmetry_group_IT_number 26
_symmetry_cell_setting 'orthorhombic'
loop_
_space_group_symop_operation_xyz
x,y,z
-x,-y,1/2+z
-x,y,z
x,-y,1/2+z
loop_
_atom_site_type_symbol
_atom_site_label
_atom_site_fract_x
_atom_site_fract_y
_atom_site_fract_z
Si Si1 0.346166 0.967921 0.432090
Si Si2 0.151019 0.274813 0.997876
Si Si3 0.649452 0.152651 0.413502
Si Si4 0.351178 0.830996 0.628860
Si Si5 0.851556 0.863750 0.292196
Si Si6 0.842179 0.566056 0.131884
Si Si7 0.846921 0.249308 0.563600
Si Si8 0.841924 0.545532 0.407005
O O1 0.500000 0.960866 0.389830
O O2 0.312511 0.912316 0.550714
O O3 0.255074 0.935860 0.318718
O O4 0.310695 0.062535 0.468426
O O5 0.248613 0.244377 0.106335
O O6 0.000000 0.279968 0.049638
O O7 0.162183 0.212437 0.885076
O O8 0.201462 0.363447 0.950631
O O9 0.500000 0.178010 0.455758
O O10 0.656889 0.140520 0.268131
O O11 0.750983 0.225650 0.450520
O O12 0.500000 0.800241 0.593548
O O13 0.824919 0.825234 0.158901
O O14 0.000000 0.902521 0.300232
O O15 0.802392 0.662681 0.120632
O O16 0.787691 0.531169 0.265362
O O17 0.000000 0.555366 0.132350
O O18 0.783318 0.518045 0.010875
O O19 0.000000 0.254259 0.518095
O O20 0.000000 0.537585 0.402195
#
# Coordination Sequence:
#
# PCOD8167445 Si02
#       8
#     4   4   4   4   4   4   4   4
#     4   9  19  34  54  75  96 130 173 213 254 307
#     4   9  16  30  53  76  99 131 169 208 254 307
#     4  10  22  36  52  74 103 136 173 220 265 309
#     4   9  19  35  50  72 103 131 166 215 264 308
#     4   9  17  31  51  74 103 133 164 207 255 301
#     4   9  17  30  49  76 110 142 176 219 267 317
#     4  10  20  34  52  76 108 141 171 211 263 315
#     4   9  16  28  49  77 108 140 176 219 264 314
#
# _framework density 18.321843999999999
#
# number of rings (size 3 to 8) (size 9 to 14) (size 15 to 20)
#    0.000    2.750    1.250    0.000    1.750    2.500 
#    0.000    2.500    0.000    0.750    0.000    0.000 
#    0.000    0.000    0.000    0.000    0.000    0.000 
#
# Total GULP energy -396622.891902 kJ/mol
# GULP energy per Si atom -12394.465372 kJ/mol
# Density = 1.828014 g / cm^3
# Si number density = 18.321844 Si / 1000 Ang^3
#
#
#
# Elastic Constant Matrix: (Units=GPa)
#
#
# Indices 1 2 3 4 5 6 
#
# 1 58.3467 37.9792 34.7038 0.0000 0.0000 0.0000
# 2 37.9792 76.7640 45.9982 0.0000 0.0000 0.0000
# 3 34.7038 45.9982 91.3291 0.0000 0.0000 0.0000
# 4 0.0000 0.0000 0.0000 21.1922 0.0000 0.0000
# 5 0.0000 0.0000 0.0000 0.0000 22.8950 0.0000
# 6 0.0000 0.0000 0.0000 0.0000 0.0000 15.9484
#
#
#
# Elastic Compliance Matrix: (Units=1/GPa)
#
#
# Indices 1 2 3 4 5 6 
#
# 1 0.026796 -0.010249 -0.005020 0.000000 0.000000 0.000000
# 2 -0.010249 0.022578 -0.007477 0.000000 0.000000 0.000000
# 3 -0.005020 -0.007477 0.016623 0.000000 0.000000 0.000000
# 4 0.000000 0.000000 0.000000 0.047187 0.000000 0.000000
# 5 0.000000 0.000000 0.000000 0.000000 0.043678 0.000000
# 6 0.000000 0.000000 0.000000 0.000000 0.000000 0.062702
#
#
# Mechanical properties :
#
#
# Convention : Reuss Voigt Hill
#
# Bulk Modulus (GPa) = 48.77006 51.53359 50.15182
# Shear Modulus (GPa) = 18.38964 19.19103 18.79034
#
# Velocity S-wave (km/s) = 3.17156 3.23993 3.20593
# Velocity P-wave (km/s) = 6.33151 6.49493 6.41374
#
# Compressibility (1/GPa) = 0.02050438
#
# Stress axis : x y z
#
# Youngs Moduli (GPa) = 37.31839 44.29051 60.15853
#
# Poissons Ratio (x) = 0.45396 0.30200
# Poissons Ratio (y) = 0.38249 0.44980
# Poissons Ratio (z) = 0.18734 0.33116
#
# Static dielectric constant tensor:
#      x y z
#    x 3.280320 0.000000 0.000000 
#    y 0.000000 3.345820 0.000000 
#    z 0.000000 0.000000 3.448720 
# 
# 
# High freq. dielectric constant tensor:
#      x y z
#    x 1.677960 0.000000 0.000000 
#    y 0.000000 1.703640 0.000000 
#    z 0.000000 0.000000 1.709780 
# 
# From -- ./inp_files/1976.got.cif
#   From: 2010.03.12/outbox.cif.g09.slc.cpg/sg26_1_cif.got.tgz:1976.got - 2010.04.14 03:33:09.
