data_PCOD8167304
_publ_section_title
;
Structure prediction by ZEFSAII (Michael W. Deem and Ramdas Pophale) SiO2 
 PCOD8167304
Probable space group: P M C 21
;
_chemical_formula_sum "Si O2"
_cell_formula_units_Z 32
_cell_length_a 8.377973
_cell_length_b 35.969537
_cell_length_c 5.196504
_cell_angle_alpha 90.000000
_cell_angle_beta 90.000000
_cell_angle_gamma 90.000000
_cell_volume 1565.975885
_symmetry_space_group_name_H-M "P M C 21"
_symmetry_group_IT_number 26
_symmetry_cell_setting 'orthorhombic'
loop_
_space_group_symop_operation_xyz
x,y,z
-x,-y,1/2+z
-x,y,z
x,-y,1/2+z
loop_
_atom_site_type_symbol
_atom_site_label
_atom_site_fract_x
_atom_site_fract_y
_atom_site_fract_z
Si Si1 0.813303 0.770197 0.525830
Si Si2 0.812917 0.895432 0.012600
Si Si3 0.689894 0.647548 0.014931
Si Si4 0.686841 0.268025 0.525948
Si Si5 0.686801 0.977108 0.998363
Si Si6 0.309652 0.521287 0.516517
Si Si7 0.809776 0.145127 0.012920
Si Si8 0.690516 0.605277 0.514288
O O1 0.718818 0.747187 0.311208
O O2 0.751439 0.812460 0.514551
O O3 0.000000 0.767686 0.464842
O O4 0.780382 0.755167 0.811243
O O5 0.738287 0.875510 0.262875
O O6 0.000000 0.888532 0.012997
O O7 0.780396 0.938928 0.017508
O O8 0.737665 0.876209 0.760216
O O9 0.500000 0.646602 0.019857
O O10 0.750724 0.689818 0.015070
O O11 0.757968 0.626329 0.264152
O O12 0.756655 0.626759 0.763522
O O13 0.500000 0.265995 0.464815
O O14 0.500000 0.968422 0.004712
O O15 0.738510 0.997324 0.736787
O O16 0.500000 0.521527 0.516415
O O17 0.243832 0.499934 0.266771
O O18 0.243622 0.563272 0.516106
O O19 0.000000 0.143173 0.016599
O O20 0.500000 0.605174 0.514273
#
# Coordination Sequence:
#
# PCOD8167304 Si02
#       8
#     4   4   4   4   4   4   4   4
#     4  11  22  39  61  83 111 150 188 221 276 346
#     4  10  19  34  56  79 101 130 172 217 256 298
#     4   9  17  28  43  62  88 124 164 209 258 310
#     4  11  22  37  56  82 113 142 183 237 279 314
#     4  10  21  36  52  73 105 140 169 203 253 308
#     4   9  15  21  30  47  73 107 153 207 249 289
#     4   9  19  35  55  78 105 136 171 215 263 314
#     4   9  15  24  37  54  79 117 164 205 250 311
#
# _framework density 20.434545
#
# number of rings (size 3 to 8) (size 9 to 14) (size 15 to 20)
#    0.000    2.250    0.000    3.750    0.000    7.500 
#    0.000    3.750    0.000    0.000    0.000    0.000 
#    0.000    0.000    0.000    0.000    0.000  157.500 
#
# Total GULP energy -396873.306635 kJ/mol
# GULP energy per Si atom -12402.290832 kJ/mol
# Density = 2.038804 g / cm^3
# Si number density = 20.434545 Si / 1000 Ang^3
#
#
#
# Elastic Constant Matrix: (Units=GPa)
#
#
# Indices 1 2 3 4 5 6 
#
# 1 14.4782 12.8522 9.5846 0.0000 0.0000 0.0000
# 2 12.8522 149.9703 61.6720 0.0000 0.0000 0.0000
# 3 9.5846 61.6720 165.0684 0.0000 0.0000 0.0000
# 4 0.0000 0.0000 0.0000 49.2004 0.0000 0.0000
# 5 0.0000 0.0000 0.0000 0.0000 13.6808 0.0000
# 6 0.0000 0.0000 0.0000 0.0000 0.0000 52.5308
#
#
#
# Elastic Compliance Matrix: (Units=1/GPa)
#
#
# Indices 1 2 3 4 5 6 
#
# 1 0.075503 -0.005515 -0.002324 0.000000 0.000000 0.000000
# 2 -0.005515 0.008281 -0.002774 0.000000 0.000000 0.000000
# 3 -0.002324 -0.002774 0.007229 0.000000 0.000000 0.000000
# 4 0.000000 0.000000 0.000000 0.020325 0.000000 0.000000
# 5 0.000000 0.000000 0.000000 0.000000 0.073095 0.000000
# 6 0.000000 0.000000 0.000000 0.000000 0.000000 0.019036
#
#
# Mechanical properties :
#
#
# Convention : Reuss Voigt Hill
#
# Bulk Modulus (GPa) = 14.32891 55.30387 34.81639
# Shear Modulus (GPa) = 20.16470 39.44295 29.80382
#
# Velocity S-wave (km/s) = 3.14474 4.39818 3.82318
# Velocity P-wave (km/s) = 4.49590 7.27425 6.04681
#
# Compressibility (1/GPa) = 0.06978898
#
# Stress axis : x y z
#
# Youngs Moduli (GPa) = 13.24450 120.75447 138.32529
#
# Poissons Ratio (x) = 0.66596 0.32141
# Poissons Ratio (y) = 0.07304 0.38368
# Poissons Ratio (z) = 0.03077 0.33495
#
# Static dielectric constant tensor:
#      x y z
#    x 3.053770 0.000000 0.000000 
#    y 0.000000 3.845930 0.000000 
#    z 0.000000 0.000000 4.048500 
# 
# 
# High freq. dielectric constant tensor:
#      x y z
#    x 1.739470 0.000000 0.000000 
#    y 0.000000 1.816410 0.000000 
#    z 0.000000 0.000000 1.820140 
# 
# From -- ./inp_files/253.got.cif
#   From: 2010.03.12/outbox.cif.g09.slc.cpg/sg26_1_cif.got.tgz:253.got - 2010.04.14 03:33:09.
