data_PCOD8167889
_publ_section_title
;
Structure prediction by ZEFSAII (Michael W. Deem and Ramdas Pophale) SiO2 
 PCOD8167889
Probable space group: P C C 2
;
_chemical_formula_sum "Si O2"
_cell_formula_units_Z 32
_cell_length_a 8.348656
_cell_length_b 11.921650
_cell_length_c 14.693645
_cell_angle_alpha 90.000000
_cell_angle_beta 90.000000
_cell_angle_gamma 90.000000
_cell_volume 1462.454884
_symmetry_space_group_name_H-M "P C C 2"
_symmetry_group_IT_number 27
_symmetry_cell_setting 'orthorhombic'
loop_
_space_group_symop_operation_xyz
x,y,z
-x,-y,z
-x,y,1/2+z
x,-y,1/2+z
loop_
_atom_site_type_symbol
_atom_site_label
_atom_site_fract_x
_atom_site_fract_y
_atom_site_fract_z
Si Si1 0.338799 0.656240 0.748020
Si Si2 0.150931 0.124663 0.201584
Si Si3 0.840754 0.441714 0.315819
Si Si4 0.539059 0.618706 0.903520
Si Si5 0.641790 0.081514 0.534871
Si Si6 0.545263 0.703110 0.584191
Si Si7 0.321871 0.042529 0.826700
Si Si8 0.183890 0.224366 0.706867
O O1 0.216822 0.751912 0.719057
O O2 0.246484 0.539797 0.760015
O O3 0.439748 0.701303 0.836305
O O4 0.470242 0.639949 0.669513
O O5 0.218747 0.069049 0.109285
O O6 0.960437 0.137292 0.188149
O O7 0.193655 0.046381 0.287564
O O8 0.734234 0.380182 0.395534
O O9 0.882788 0.342376 0.244979
O O10 0.000000 0.500000 0.358494
O O11 0.500000 0.500000 0.857012
O O12 0.451570 0.615810 0.001300
O O13 0.571138 0.205961 0.536905
O O14 0.708605 0.054502 0.434615
O O15 0.500000 0.000000 0.565312
O O16 0.717968 0.753673 0.612788
O O17 0.301693 0.163735 0.779153
O O18 0.500000 0.000000 0.805045
#
# Coordination Sequence:
#
# PCOD8167889 Si02
#       8
#     4   4   4   4   4   4   4   4
#     4  10  22  42  67  96 135 188 230 291 335 427
#     4  11  23  44  67 101 142 174 229 285 369 414
#     4  11  22  43  68  99 144 180 230 286 366 409
#     4  10  23  39  64  99 132 180 238 279 332 412
#     4  10  23  42  67  98 129 178 229 282 338 419
#     4  11  23  40  68  97 135 177 244 280 335 414
#     4  11  24  44  72  96 133 181 235 287 347 426
#     4  12  24  42  70  99 141 183 222 298 356 418
#
# _framework density 21.881018999999998
#
# number of rings (size 3 to 8) (size 9 to 14) (size 15 to 20)
#    0.000    1.250    2.500    3.750    5.250    0.000 
#    2.250    8.125    0.000    0.000    0.000    0.000 
#    0.000    0.000    0.000    0.000    0.000    0.000 
#
# Total GULP energy -396561.628230 kJ/mol
# GULP energy per Si atom -12392.550882 kJ/mol
# Density = 2.183122 g / cm^3
# Si number density = 21.881019 Si / 1000 Ang^3
#
#
#
# Elastic Constant Matrix: (Units=GPa)
#
#
# Indices 1 2 3 4 5 6 
#
# 1 143.4007 33.2421 73.1577 0.0000 0.0000 0.0000
# 2 33.2421 77.2369 30.4639 0.0000 0.0000 0.0000
# 3 73.1577 30.4639 155.7027 0.0000 0.0000 0.0000
# 4 0.0000 0.0000 0.0000 25.3775 0.0000 0.0000
# 5 0.0000 0.0000 0.0000 0.0000 20.3709 0.0000
# 6 0.0000 0.0000 0.0000 0.0000 0.0000 38.4551
#
#
#
# Elastic Compliance Matrix: (Units=1/GPa)
#
#
# Indices 1 2 3 4 5 6 
#
# 1 0.009615 -0.002553 -0.004018 0.000000 0.000000 0.000000
# 2 -0.002553 0.014708 -0.001678 0.000000 0.000000 0.000000
# 3 -0.004018 -0.001678 0.008639 0.000000 0.000000 0.000000
# 4 0.000000 0.000000 0.000000 0.039405 0.000000 0.000000
# 5 0.000000 0.000000 0.000000 0.000000 0.049090 0.000000
# 6 0.000000 0.000000 0.000000 0.000000 0.000000 0.026004
#
#
# Mechanical properties :
#
#
# Convention : Reuss Voigt Hill
#
# Bulk Modulus (GPa) = 60.74278 72.22974 66.48626
# Shear Modulus (GPa) = 29.50762 32.80583 31.15672
#
# Velocity S-wave (km/s) = 3.67624 3.87626 3.77757
# Velocity P-wave (km/s) = 6.77056 7.28805 7.03407
#
# Compressibility (1/GPa) = 0.01646286
#
# Stress axis : x y z
#
# Youngs Moduli (GPa) = 104.00049 67.99026 115.75738
#
# Poissons Ratio (x) = 0.17361 0.46514
# Poissons Ratio (y) = 0.26557 0.19423
# Poissons Ratio (z) = 0.41790 0.11408
#
# Static dielectric constant tensor:
#      x y z
#    x 4.060730 0.000000 0.000000 
#    y 0.000000 4.095720 0.000000 
#    z 0.000000 0.000000 3.769800 
# 
# 
# High freq. dielectric constant tensor:
#      x y z
#    x 1.855660 0.000000 0.000000 
#    y 0.000000 1.879290 0.000000 
#    z 0.000000 0.000000 1.844440 
# 
# From -- ./inp_files/3456.got.cif
#   From: 2010.03.12/outbox.cif.g09.slc.cpg/sg27_2_cif.got.tgz:3456.got - 2010.04.14 03:36:05.
