data_PCOD8167355
_publ_section_title
;
Structure prediction by ZEFSAII (Michael W. Deem and Ramdas Pophale) SiO2 
 PCOD8167355
Probable space group: P M C 21
;
_chemical_formula_sum "Si O2"
_cell_formula_units_Z 32
_cell_length_a 8.866420
_cell_length_b 14.389527
_cell_length_c 12.450644
_cell_angle_alpha 90.000000
_cell_angle_beta 90.000000
_cell_angle_gamma 90.000000
_cell_volume 1588.497859
_symmetry_space_group_name_H-M "P M C 21"
_symmetry_group_IT_number 26
_symmetry_cell_setting 'orthorhombic'
loop_
_space_group_symop_operation_xyz
x,y,z
-x,-y,1/2+z
-x,y,z
x,-y,1/2+z
loop_
_atom_site_type_symbol
_atom_site_label
_atom_site_fract_x
_atom_site_fract_y
_atom_site_fract_z
Si Si1 0.678673 0.139049 0.666810
Si Si2 0.166158 0.371189 0.198068
Si Si3 0.180267 0.733413 0.002191
Si Si4 0.329259 0.565400 0.898180
Si Si5 0.180686 0.951574 0.603625
Si Si6 0.833056 0.173161 0.289583
Si Si7 0.328934 0.632386 0.484309
Si Si8 0.323798 0.836009 0.412234
O O1 0.500000 0.137213 0.652939
O O2 0.744282 0.232733 0.612549
O O3 0.725219 0.135738 0.791800
O O4 0.753701 0.054778 0.601458
O O5 0.286959 0.416955 0.275738
O O6 0.161365 0.261248 0.212128
O O7 0.000000 0.413724 0.219186
O O8 0.214746 0.391248 0.078280
O O9 0.226122 0.626534 0.978895
O O10 0.243690 0.798749 0.903305
O O11 0.000000 0.737924 0.008476
O O12 0.500000 0.596495 0.920190
O O13 0.309658 0.454969 0.906551
O O14 0.246310 0.904839 0.714510
O O15 0.233195 0.897834 0.497220
O O16 0.000000 0.952737 0.603811
O O17 0.000000 0.137379 0.317703
O O18 0.500000 0.640794 0.527964
O O19 0.283363 0.727257 0.424462
O O20 0.500000 0.854399 0.430804
#
# Coordination Sequence:
#
# PCOD8167355 Si02
#       8
#     4   4   4   4   4   4   4   4
#     4  11  25  42  60  89 128 166 203 250 308 369
#     4  10  19  35  57  85 117 152 201 256 306 359
#     4  10  21  40  62  89 123 160 207 256 304 361
#     4  10  21  37  59  89 123 164 207 251 310 374
#     4  11  22  39  63  90 119 156 202 253 306 364
#     4   8  17  34  57  84 113 146 189 249 302 348
#     4  10  21  38  61  87 119 160 204 251 309 368
#     4  10  23  43  63  89 124 160 203 254 305 367
#
# _framework density 20.144817
#
# number of rings (size 3 to 8) (size 9 to 14) (size 15 to 20)
#    0.000    2.000    1.250    2.625    1.750    3.000 
#    0.000    3.750    0.000    0.000    0.000    0.000 
#    0.000    0.000    0.000    0.000    0.000    0.000 
#
# Total GULP energy -396671.738324 kJ/mol
# GULP energy per Si atom -12395.991823 kJ/mol
# Density = 2.009897 g / cm^3
# Si number density = 20.144817 Si / 1000 Ang^3
#
#
#
# Elastic Constant Matrix: (Units=GPa)
#
#
# Indices 1 2 3 4 5 6 
#
# 1 75.5981 42.6943 41.7750 0.0000 0.0000 0.0000
# 2 42.6943 104.2528 43.1996 0.0000 0.0000 0.0000
# 3 41.7750 43.1996 93.5270 0.0000 0.0000 0.0000
# 4 0.0000 0.0000 0.0000 26.7649 0.0000 0.0000
# 5 0.0000 0.0000 0.0000 0.0000 31.6580 0.0000
# 6 0.0000 0.0000 0.0000 0.0000 0.0000 27.3294
#
#
#
# Elastic Compliance Matrix: (Units=1/GPa)
#
#
# Indices 1 2 3 4 5 6 
#
# 1 0.019824 -0.005502 -0.006313 0.000000 0.000000 0.000000
# 2 -0.005502 0.013390 -0.003727 0.000000 0.000000 0.000000
# 3 -0.006313 -0.003727 0.015233 0.000000 0.000000 0.000000
# 4 0.000000 0.000000 0.000000 0.037362 0.000000 0.000000
# 5 0.000000 0.000000 0.000000 0.000000 0.031588 0.000000
# 6 0.000000 0.000000 0.000000 0.000000 0.000000 0.036591
#
#
# Mechanical properties :
#
#
# Convention : Reuss Voigt Hill
#
# Bulk Modulus (GPa) = 57.59639 58.74619 58.17129
# Shear Modulus (GPa) = 26.19721 26.86440 26.53080
#
# Velocity S-wave (km/s) = 3.61008 3.65576 3.63299
# Velocity P-wave (km/s) = 6.78455 6.85891 6.82183
#
# Compressibility (1/GPa) = 0.01736220
#
# Stress axis : x y z
#
# Youngs Moduli (GPa) = 50.44404 74.68355 65.64543
#
# Poissons Ratio (x) = 0.41094 0.41442
# Poissons Ratio (y) = 0.27757 0.24466
# Poissons Ratio (z) = 0.31846 0.27834
#
# Static dielectric constant tensor:
#      x y z
#    x 3.611280 0.000000 0.000000 
#    y 0.000000 3.670180 0.000000 
#    z 0.000000 0.000000 3.634330 
# 
# 
# High freq. dielectric constant tensor:
#      x y z
#    x 1.778950 0.000000 0.000000 
#    y 0.000000 1.785030 0.000000 
#    z 0.000000 0.000000 1.785990 
# 
# From -- ./inp_files/2999.got.cif
#   From: 2010.03.12/outbox.cif.g09.slc.cpg/sg26_2_cif.got.tgz:2999.got - 2010.04.14 03:33:09.
