data_PCOD8167465
_publ_section_title
;
Structure prediction by ZEFSAII (Michael W. Deem and Ramdas Pophale) SiO2 
 PCOD8167465
Probable space group: P M C 21
;
_chemical_formula_sum "Si O2"
_cell_formula_units_Z 32
_cell_length_a 9.105536
_cell_length_b 11.433439
_cell_length_c 16.219125
_cell_angle_alpha 90.000000
_cell_angle_beta 90.000000
_cell_angle_gamma 90.000000
_cell_volume 1688.534022
_symmetry_space_group_name_H-M "P M C 21"
_symmetry_group_IT_number 26
_symmetry_cell_setting 'orthorhombic'
loop_
_space_group_symop_operation_xyz
x,y,z
-x,-y,1/2+z
-x,y,z
x,-y,1/2+z
loop_
_atom_site_type_symbol
_atom_site_label
_atom_site_fract_x
_atom_site_fract_y
_atom_site_fract_z
Si Si1 0.673132 0.190888 0.555990
Si Si2 0.173211 0.441188 0.852475
Si Si3 0.326704 0.926643 0.582741
Si Si4 0.170762 0.269967 0.992503
Si Si5 0.825042 0.298139 0.397314
Si Si6 0.336959 0.361944 0.694799
Si Si7 0.334035 0.789832 0.744713
Si Si8 0.340705 0.599526 0.619092
O O1 0.500000 0.200765 0.536761
O O2 0.762227 0.254372 0.484032
O O3 0.711107 0.246630 0.645210
O O4 0.726345 0.057766 0.566236
O O5 0.228312 0.336347 0.911319
O O6 0.232815 0.569002 0.880347
O O7 0.222137 0.400600 0.762852
O O8 0.000000 0.449293 0.853663
O O9 0.500000 0.914814 0.576680
O O10 0.257411 0.849913 0.508964
O O11 0.276382 0.879741 0.673424
O O12 0.000000 0.240669 0.988384
O O13 0.202698 0.360403 0.065931
O O14 0.768245 0.209794 0.325654
O O15 0.000000 0.291980 0.399824
O O16 0.500000 0.346989 0.733712
O O17 0.338290 0.461082 0.624906
O O18 0.500000 0.823731 0.771208
O O19 0.327554 0.658025 0.709295
O O20 0.500000 0.639633 0.581204
#
# Coordination Sequence:
#
# PCOD8167465 Si02
#       8
#     4   4   4   4   4   4   4   4
#     4  10  22  40  60  83 112 149 191 238 286 330
#     4  10  22  37  53  82 121 150 178 224 283 341
#     4   9  20  40  60  80 110 146 190 236 281 330
#     4  10  20  34  55  81 110 146 184 225 273 331
#     4  11  22  36  57  86 117 150 187 227 280 344
#     4  10  20  35  57  83 111 144 185 230 277 334
#     4   9  17  33  57  81 110 146 184 232 277 324
#     4   9  17  31  53  82 111 139 177 226 277 326
#
# _framework density 18.951350000000001
#
# number of rings (size 3 to 8) (size 9 to 14) (size 15 to 20)
#    0.000    2.250    1.250    2.250    0.000    5.000 
#    2.250    0.000    0.000    0.000    0.000    0.000 
#    0.000    0.000    0.000    0.000    0.000    0.000 
#
# Total GULP energy -396619.791999 kJ/mol
# GULP energy per Si atom -12394.368500 kJ/mol
# Density = 1.890822 g / cm^3
# Si number density = 18.951350 Si / 1000 Ang^3
#
#
#
# Elastic Constant Matrix: (Units=GPa)
#
#
# Indices 1 2 3 4 5 6 
#
# 1 37.1969 31.2979 31.7159 0.0000 0.0000 0.0000
# 2 31.2979 130.5507 58.0335 0.0000 0.0000 0.0000
# 3 31.7159 58.0335 91.2066 0.0000 0.0000 0.0000
# 4 0.0000 0.0000 0.0000 25.3638 0.0000 0.0000
# 5 0.0000 0.0000 0.0000 0.0000 32.9046 0.0000
# 6 0.0000 0.0000 0.0000 0.0000 0.0000 22.6198
#
#
#
# Elastic Compliance Matrix: (Units=1/GPa)
#
#
# Indices 1 2 3 4 5 6 
#
# 1 0.040245 -0.004779 -0.010954 0.000000 0.000000 0.000000
# 2 -0.004779 0.011248 -0.005495 0.000000 0.000000 0.000000
# 3 -0.010954 -0.005495 0.018270 0.000000 0.000000 0.000000
# 4 0.000000 0.000000 0.000000 0.039426 0.000000 0.000000
# 5 0.000000 0.000000 0.000000 0.000000 0.030391 0.000000
# 6 0.000000 0.000000 0.000000 0.000000 0.000000 0.044209
#
#
# Mechanical properties :
#
#
# Convention : Reuss Voigt Hill
#
# Bulk Modulus (GPa) = 36.62100 55.67208 46.14654
# Shear Modulus (GPa) = 21.24514 25.37142 23.30828
#
# Velocity S-wave (km/s) = 3.35182 3.66288 3.51080
# Velocity P-wave (km/s) = 5.86048 6.87961 6.39039
#
# Compressibility (1/GPa) = 0.02730674
#
# Stress axis : x y z
#
# Youngs Moduli (GPa) = 24.84793 88.90146 54.73504
#
# Poissons Ratio (x) = 0.42485 0.59956
# Poissons Ratio (y) = 0.11875 0.30079
# Poissons Ratio (z) = 0.27218 0.48855
#
# Static dielectric constant tensor:
#      x y z
#    x 3.335150 0.000000 0.000000 
#    y 0.000000 3.635980 0.000000 
#    z 0.000000 0.000000 3.350110 
# 
# 
# High freq. dielectric constant tensor:
#      x y z
#    x 1.726720 0.000000 0.000000 
#    y 0.000000 1.734890 0.000000 
#    z 0.000000 0.000000 1.726450 
# 
# From -- ./inp_files/4190.got.cif
#   From: 2010.03.12/outbox.cif.g09.slc.cpg/sg26_3_cif.got.tgz:4190.got - 2010.04.14 03:33:09.
