data_PCOD8167892
_publ_section_title
;
Structure prediction by ZEFSAII (Michael W. Deem and Ramdas Pophale) SiO2 
 PCOD8167892
Probable space group: P C C 2
;
_chemical_formula_sum "Si O2"
_cell_formula_units_Z 30
_cell_length_a 14.105396
_cell_length_b 7.759583
_cell_length_c 13.432606
_cell_angle_alpha 90.000000
_cell_angle_beta 90.000000
_cell_angle_gamma 90.000000
_cell_volume 1470.225471
_symmetry_space_group_name_H-M "P C C 2"
_symmetry_group_IT_number 27
_symmetry_cell_setting 'orthorhombic'
loop_
_space_group_symop_operation_xyz
x,y,z
-x,-y,z
-x,y,1/2+z
x,-y,1/2+z
loop_
_atom_site_type_symbol
_atom_site_label
_atom_site_fract_x
_atom_site_fract_y
_atom_site_fract_z
Si Si1 0.745552 0.439421 0.695070
Si Si2 0.092611 0.597104 0.313035
Si Si3 0.500000 0.000000 0.269642
Si Si4 0.305026 0.894573 0.806490
Si Si5 0.341590 0.800989 0.180976
Si Si6 0.215380 0.099108 0.513370
Si Si7 0.964991 0.807331 0.624705
Si Si8 0.848140 0.285968 0.523837
O O1 0.838419 0.460208 0.762269
O O2 0.695645 0.265672 0.731357
O O3 0.675296 0.601460 0.708492
O O4 0.777612 0.419312 0.579500
O O5 0.064334 0.742371 0.233324
O O6 0.145766 0.678808 0.407071
O O7 0.000000 0.500000 0.352201
O O8 0.416883 0.084001 0.337833
O O9 0.548376 0.146902 0.198438
O O10 0.275183 0.071985 0.749327
O O11 0.233631 0.866695 0.897187
O O12 0.310247 0.835176 0.067923
O O13 0.124380 0.208686 0.549572
O O14 0.196848 0.901179 0.537684
O O15 0.049200 0.696176 0.576219
O O16 0.000000 0.000000 0.638512
#
# Coordination Sequence:
#
# PCOD8167892 Si02
#       8
#     4   4   2   4   4   4   4   4
#     4  12  24  42  69  96 136 174 224 275 331 404
#     4  12  26  38  62  92 137 178 226 280 319 389
#     4   8  22  48  68  98 136 166 212 290 346 402
#     4  10  24  45  69  99 129 176 217 284 344 404
#     4  10  22  44  68  99 131 168 214 283 337 411
#     4  11  22  42  70  94 134 175 230 270 334 403
#     4  10  24  42  61  92 133 180 228 277 322 389
#     4  11  25  41  61  98 134 183 231 271 330 384
#
# _framework density 20.405034000000001
#
# number of rings (size 3 to 8) (size 9 to 14) (size 15 to 20)
#    0.800    0.533    4.000    0.800    5.600    2.667 
#    0.000    0.000    0.000    1.600    0.000    0.000 
#    0.000    0.000    0.000    0.000    0.000    0.000 
#
# Total GULP energy -371860.047396 kJ/mol
# GULP energy per Si atom -12395.334913 kJ/mol
# Density = 2.035859 g / cm^3
# Si number density = 20.405034 Si / 1000 Ang^3
#
#
#
# Elastic Constant Matrix: (Units=GPa)
#
#
# Indices 1 2 3 4 5 6 
#
# 1 88.7104 33.5516 28.2967 0.0000 0.0000 0.0000
# 2 33.5516 92.3601 38.0968 0.0000 0.0000 0.0000
# 3 28.2967 38.0968 118.0363 0.0000 0.0000 0.0000
# 4 0.0000 0.0000 0.0000 30.2272 0.0000 0.0000
# 5 0.0000 0.0000 0.0000 0.0000 23.7199 0.0000
# 6 0.0000 0.0000 0.0000 0.0000 0.0000 35.1293
#
#
#
# Elastic Compliance Matrix: (Units=1/GPa)
#
#
# Indices 1 2 3 4 5 6 
#
# 1 0.013427 -0.004095 -0.001897 0.000000 0.000000 0.000000
# 2 -0.004095 0.013739 -0.003453 0.000000 0.000000 0.000000
# 3 -0.001897 -0.003453 0.010041 0.000000 0.000000 0.000000
# 4 0.000000 0.000000 0.000000 0.033083 0.000000 0.000000
# 5 0.000000 0.000000 0.000000 0.000000 0.042159 0.000000
# 6 0.000000 0.000000 0.000000 0.000000 0.000000 0.028466
#
#
# Mechanical properties :
#
#
# Convention : Reuss Voigt Hill
#
# Bulk Modulus (GPa) = 54.59329 55.44411 55.01870
# Shear Modulus (GPa) = 30.13697 31.09274 30.61485
#
# Velocity S-wave (km/s) = 3.84726 3.90779 3.87765
# Velocity P-wave (km/s) = 6.82262 6.89869 6.86076
#
# Compressibility (1/GPa) = 0.01831727
#
# Stress axis : x y z
#
# Youngs Moduli (GPa) = 74.47948 72.78609 99.59067
#
# Poissons Ratio (x) = 0.29805 0.18893
# Poissons Ratio (y) = 0.30499 0.34385
# Poissons Ratio (z) = 0.14129 0.25130
#
# Static dielectric constant tensor:
#      x y z
#    x 3.613170 0.000000 0.000000 
#    y 0.000000 3.650860 0.000000 
#    z 0.000000 0.000000 3.507810 
# 
# 
# High freq. dielectric constant tensor:
#      x y z
#    x 1.783630 0.000000 0.000000 
#    y 0.000000 1.803280 0.000000 
#    z 0.000000 0.000000 1.789150 
# 
# From -- ./inp_files/2766.got.cif
#   From: 2010.03.12/outbox.cif.g09.slc.cpg/sg27_2_cif.got.tgz:2766.got - 2010.04.14 03:36:05.
