data_PCOD8167574
_publ_section_title
;
Structure prediction by ZEFSAII (Michael W. Deem and Ramdas Pophale) SiO2 
 PCOD8167574
Probable space group: P M C 21
;
_chemical_formula_sum "Si O2"
_cell_formula_units_Z 24
_cell_length_a 8.776796
_cell_length_b 10.805861
_cell_length_c 12.635181
_cell_angle_alpha 90.000000
_cell_angle_beta 90.000000
_cell_angle_gamma 90.000000
_cell_volume 1198.331149
_symmetry_space_group_name_H-M "P M C 21"
_symmetry_group_IT_number 26
_symmetry_cell_setting 'orthorhombic'
loop_
_space_group_symop_operation_xyz
x,y,z
-x,-y,1/2+z
-x,y,z
x,-y,1/2+z
loop_
_atom_site_type_symbol
_atom_site_label
_atom_site_fract_x
_atom_site_fract_y
_atom_site_fract_z
Si Si1 0.678895 0.687962 0.501580
Si Si2 0.172398 0.521254 0.890939
Si Si3 0.678623 0.219706 0.376606
Si Si4 0.823102 0.140680 0.169545
Si Si5 0.822521 0.867464 0.090657
Si Si6 0.172342 0.273358 0.796068
O O1 0.500000 0.670155 0.504280
O O2 0.758234 0.552201 0.492622
O O3 0.732559 0.753257 0.608091
O O4 0.728438 0.769992 0.398290
O O5 0.274257 0.637912 0.862012
O O6 0.175272 0.424269 0.791844
O O7 0.000000 0.563910 0.917059
O O8 0.500000 0.206965 0.359893
O O9 0.763909 0.136448 0.289619
O O10 0.723180 0.169732 0.490956
O O11 0.000000 0.174694 0.168606
O O12 0.791142 0.009609 0.116141
O O13 0.762471 0.783681 0.188231
O O14 0.000000 0.841350 0.068031
O O15 0.000000 0.224248 0.813841
#
# Coordination Sequence:
#
# PCOD8167574 Si02
#       6
#     4   4   4   4   4   4
#     4  10  20  37  62  93 126 160 200 254 315 364
#     4   9  19  39  65  92 124 162 210 254 301 371
#     4  12  26  41  60  94 131 159 201 259 319 367
#     4  11  24  42  65  89 122 169 214 254 299 369
#     4  10  23  43  66  89 120 164 215 256 298 366
#     4   8  18  38  64  91 117 158 208 253 300 363
#
# _framework density 20.027851999999999
#
# number of rings (size 3 to 8) (size 9 to 14) (size 15 to 20)
#    1.000    1.000    0.000    3.500    2.333    3.333 
#    0.000    5.000    0.000    0.000    0.000    0.000 
#    0.000    0.000    0.000    0.000    0.000    0.000 
#
# Total GULP energy -297524.727945 kJ/mol
# GULP energy per Si atom -12396.863664 kJ/mol
# Density = 1.998227 g / cm^3
# Si number density = 20.027852 Si / 1000 Ang^3
#
#
#
# Elastic Constant Matrix: (Units=GPa)
#
#
# Indices 1 2 3 4 5 6 
#
# 1 89.4189 29.6750 29.2589 0.0000 0.0000 0.0000
# 2 29.6750 62.3775 17.6485 0.0000 0.0000 0.0000
# 3 29.2589 17.6485 94.5981 0.0000 0.0000 0.0000
# 4 0.0000 0.0000 0.0000 34.5435 0.0000 0.0000
# 5 0.0000 0.0000 0.0000 0.0000 30.4205 0.0000
# 6 0.0000 0.0000 0.0000 0.0000 0.0000 19.0649
#
#
#
# Elastic Compliance Matrix: (Units=1/GPa)
#
#
# Indices 1 2 3 4 5 6 
#
# 1 0.014196 -0.005818 -0.003305 0.000000 0.000000 0.000000
# 2 -0.005818 0.019309 -0.001803 0.000000 0.000000 0.000000
# 3 -0.003305 -0.001803 0.011930 0.000000 0.000000 0.000000
# 4 0.000000 0.000000 0.000000 0.028949 0.000000 0.000000
# 5 0.000000 0.000000 0.000000 0.000000 0.032873 0.000000
# 6 0.000000 0.000000 0.000000 0.000000 0.000000 0.052453
#
#
# Mechanical properties :
#
#
# Convention : Reuss Voigt Hill
#
# Bulk Modulus (GPa) = 42.40485 44.39546 43.40015
# Shear Modulus (GPa) = 26.39607 28.12659 27.26133
#
# Velocity S-wave (km/s) = 3.63432 3.75156 3.69341
# Velocity P-wave (km/s) = 6.23137 6.40161 6.31706
#
# Compressibility (1/GPa) = 0.02358221
#
# Stress axis : x y z
#
# Youngs Moduli (GPa) = 70.44401 51.78822 83.82456
#
# Poissons Ratio (x) = 0.30131 0.27706
# Poissons Ratio (y) = 0.40986 0.15112
# Poissons Ratio (z) = 0.23283 0.09337
#
# Static dielectric constant tensor:
#      x y z
#    x 3.575040 0.000000 0.000000 
#    y 0.000000 3.547210 0.000000 
#    z 0.000000 0.000000 3.543100 
# 
# 
# High freq. dielectric constant tensor:
#      x y z
#    x 1.781700 0.000000 0.000000 
#    y 0.000000 1.775510 0.000000 
#    z 0.000000 0.000000 1.775640 
# 
# From -- ./inp_files/2807.got.cif
#   From: 2010.03.12/outbox.cif.g09.slc.cpg/sg26_2_cif.got.tgz:2807.got - 2010.04.14 03:33:09.
