data_PCOD8167989
_publ_section_title
;
Structure prediction by ZEFSAII (Michael W. Deem and Ramdas Pophale) SiO2 
 PCOD8167989
Probable space group: P M A 2
;
_chemical_formula_sum "Si O2"
_cell_formula_units_Z 32
_cell_length_a 8.761896
_cell_length_b 20.980015
_cell_length_c 9.806692
_cell_angle_alpha 90.000000
_cell_angle_beta 90.000000
_cell_angle_gamma 90.000000
_cell_volume 1802.712308
_symmetry_space_group_name_H-M "P M A 2"
_symmetry_group_IT_number 28
_symmetry_cell_setting 'orthorhombic'
loop_
_space_group_symop_operation_xyz
x,y,z
-x,-y,z
1/2-x,y,z
1/2+x,-y,z
loop_
_atom_site_type_symbol
_atom_site_label
_atom_site_fract_x
_atom_site_fract_y
_atom_site_fract_z
Si Si1 0.916822 0.938945 0.507130
Si Si2 0.928815 0.439353 0.027534
Si Si3 0.068258 0.805300 0.814223
Si Si4 0.069531 0.436419 0.324414
Si Si5 0.920450 0.937145 0.830266
Si Si6 0.932856 0.799859 0.520646
Si Si7 0.072560 0.700155 0.020599
Si Si8 0.931662 0.306460 0.328930
O O1 0.750000 0.940935 0.442465
O O2 0.910309 0.945406 0.669068
O O3 0.991045 0.870237 0.472449
O O4 0.000000 0.000000 0.441711
O O5 0.750000 0.449889 0.056643
O O6 0.956381 0.370731 0.955819
O O7 0.000000 0.500000 0.943302
O O8 0.021513 0.437441 0.167397
O O9 0.250000 0.802908 0.798127
O O10 0.002252 0.753771 0.922397
O O11 0.018716 0.874835 0.867628
O O12 0.991518 0.786284 0.672188
O O13 0.250000 0.435981 0.342425
O O14 0.000000 0.500000 0.396463
O O15 0.998806 0.372351 0.390332
O O16 0.750000 0.930248 0.891239
O O17 0.000000 0.000000 0.894123
O O18 0.750000 0.796389 0.520925
O O19 0.006123 0.750737 0.418060
O O20 0.250000 0.714045 0.031509
O O21 0.006847 0.704115 0.174390
O O22 0.750000 0.309791 0.335351
#
# Coordination Sequence:
#
# PCOD8167989 Si02
#       8
#     4   4   4   4   4   4   4   4
#     4   8  15  26  42  63  90 117 148 189 232 272
#     4   9  15  26  43  66  93 121 155 197 236 277
#     4  10  18  31  50  71  95 128 161 196 240 286
#     4  10  17  27  44  68  95 123 155 196 238 280
#     4   9  16  27  43  67  94 121 154 197 238 279
#     4  10  20  33  47  71 101 127 158 200 241 288
#     4   8  17  31  48  70  97 124 157 196 237 285
#     4  10  19  33  51  72  96 127 162 199 241 287
#
# _framework density 17.751028999999999
#
# number of rings (size 3 to 8) (size 9 to 14) (size 15 to 20)
#    0.000    2.750    0.000    5.250    0.000    3.500 
#    0.000    7.500    0.000    1.500    0.000    5.250 
#    0.000    0.000    0.000    0.000    0.000    0.000 
#
# Total GULP energy -396477.448222 kJ/mol
# GULP energy per Si atom -12389.920257 kJ/mol
# Density = 1.771063 g / cm^3
# Si number density = 17.751029 Si / 1000 Ang^3
#
#
#
# Elastic Constant Matrix: (Units=GPa)
#
#
# Indices 1 2 3 4 5 6 
#
# 1 99.8679 59.7247 24.0883 0.0000 0.0000 0.0000
# 2 59.7247 188.0888 54.6337 0.0000 0.0000 0.0000
# 3 24.0883 54.6337 41.9151 0.0000 0.0000 0.0000
# 4 0.0000 0.0000 0.0000 25.2249 0.0000 0.0000
# 5 0.0000 0.0000 0.0000 0.0000 7.3846 0.0000
# 6 0.0000 0.0000 0.0000 0.0000 0.0000 34.9579
#
#
#
# Elastic Compliance Matrix: (Units=1/GPa)
#
#
# Indices 1 2 3 4 5 6 
#
# 1 0.012633 -0.003062 -0.003269 0.000000 0.000000 0.000000
# 2 -0.003062 0.009298 -0.010360 0.000000 0.000000 0.000000
# 3 -0.003269 -0.010360 0.039240 0.000000 0.000000 0.000000
# 4 0.000000 0.000000 0.000000 0.039643 0.000000 0.000000
# 5 0.000000 0.000000 0.000000 0.000000 0.135416 0.000000
# 6 0.000000 0.000000 0.000000 0.000000 0.000000 0.028606
#
#
# Mechanical properties :
#
#
# Convention : Reuss Voigt Hill
#
# Bulk Modulus (GPa) = 35.98511 67.41835 51.70173
# Shear Modulus (GPa) = 16.26116 26.27516 21.26816
#
# Velocity S-wave (km/s) = 3.02995 3.85152 3.46517
# Velocity P-wave (km/s) = 5.70586 7.60535 6.72303
#
# Compressibility (1/GPa) = 0.02778928
#
# Stress axis : x y z
#
# Youngs Moduli (GPa) = 79.15897 107.54920 25.48420
#
# Poissons Ratio (x) = 0.32929 0.08331
# Poissons Ratio (y) = 0.24237 0.26401
# Poissons Ratio (z) = 0.25878 1.11420
#
# Static dielectric constant tensor:
#      x y z
#    x 3.391770 0.000000 0.000000 
#    y 0.000000 3.886540 0.000000 
#    z 0.000000 0.000000 2.825470 
# 
# 
# High freq. dielectric constant tensor:
#      x y z
#    x 1.690560 0.000000 0.000000 
#    y 0.000000 1.715940 0.000000 
#    z 0.000000 0.000000 1.613290 
# 
# From -- ./inp_files/5223.got.cif
#   From: 2010.03.12/outbox.cif.g09.slc.cpg/sg28_3_cif.got.tgz:5223.got - 2010.04.14 03:39:34.
