data_PCOD8167718
_publ_section_title
;
Structure prediction by ZEFSAII (Michael W. Deem and Ramdas Pophale) SiO2 
 PCOD8167718
Probable space group: P M C 21
;
_chemical_formula_sum "Si O2"
_cell_formula_units_Z 32
_cell_length_a 8.467587
_cell_length_b 11.775993
_cell_length_c 14.447167
_cell_angle_alpha 90.000000
_cell_angle_beta 90.000000
_cell_angle_gamma 90.000000
_cell_volume 1440.588353
_symmetry_space_group_name_H-M "P M C 21"
_symmetry_group_IT_number 26
_symmetry_cell_setting 'orthorhombic'
loop_
_space_group_symop_operation_xyz
x,y,z
-x,-y,1/2+z
-x,y,z
x,-y,1/2+z
loop_
_atom_site_type_symbol
_atom_site_label
_atom_site_fract_x
_atom_site_fract_y
_atom_site_fract_z
Si Si1 0.314511 0.634740 0.165880
Si Si2 0.815642 0.217843 0.815030
Si Si3 0.318178 0.691815 0.490069
Si Si4 0.316591 0.002578 0.400851
Si Si5 0.317900 0.182544 0.255145
Si Si6 0.815402 0.424053 0.279225
Si Si7 0.182824 0.909268 0.578556
Si Si8 0.814310 0.456090 0.489473
O O1 0.500000 0.650173 0.159726
O O2 0.238062 0.746488 0.212630
O O3 0.274532 0.518869 0.220602
O O4 0.241687 0.638209 0.062477
O O5 0.717589 0.303674 0.880738
O O6 0.777048 0.087926 0.838202
O O7 0.000000 0.240345 0.828708
O O8 0.500000 0.719483 0.512298
O O9 0.205886 0.784092 0.537129
O O10 0.273348 0.568553 0.526731
O O11 0.500000 0.968978 0.398532
O O12 0.256902 0.001282 0.507161
O O13 0.286764 0.126220 0.355889
O O14 0.500000 0.213331 0.241731
O O15 0.220099 0.297913 0.241362
O O16 0.266907 0.089032 0.178426
O O17 0.758884 0.425044 0.386134
O O18 0.000000 0.449602 0.270052
O O19 0.000000 0.937841 0.591261
O O20 0.000000 0.474971 0.493809
#
# Coordination Sequence:
#
# PCOD8167718 Si02
#       8
#     4   4   4   4   4   4   4   4
#     4  12  24  39  62  91 126 165 208 254 308 375
#     4  11  21  37  61  88 119 154 199 253 307 363
#     4  11  20  34  59  88 121 159 203 253 302 361
#     4  10  22  42  66  92 122 161 207 260 314 366
#     4  11  24  43  66  92 127 166 209 259 312 374
#     4  11  24  42  65  92 128 167 208 259 313 372
#     4  11  22  38  64  94 124 162 210 260 309 368
#     4  11  23  39  59  87 125 166 206 252 309 371
#
# _framework density 22.213146999999999
#
# number of rings (size 3 to 8) (size 9 to 14) (size 15 to 20)
#    0.000    1.000    1.250    8.250    0.000    3.500 
#    2.250    0.000    0.000    0.000    0.000    0.000 
#    0.000    0.000    0.000    0.000    0.000    0.000 
#
# Total GULP energy -396882.149326 kJ/mol
# GULP energy per Si atom -12402.567166 kJ/mol
# Density = 2.216259 g / cm^3
# Si number density = 22.213147 Si / 1000 Ang^3
#
#
#
# Elastic Constant Matrix: (Units=GPa)
#
#
# Indices 1 2 3 4 5 6 
#
# 1 96.5217 10.6358 15.5627 0.0000 0.0000 0.0000
# 2 10.6358 35.3726 -2.5244 0.0000 0.0000 0.0000
# 3 15.5627 -2.5244 86.3081 0.0000 0.0000 0.0000
# 4 0.0000 0.0000 0.0000 29.9669 0.0000 0.0000
# 5 0.0000 0.0000 0.0000 0.0000 35.4588 0.0000
# 6 0.0000 0.0000 0.0000 0.0000 0.0000 23.8712
#
#
#
# Elastic Compliance Matrix: (Units=1/GPa)
#
#
# Indices 1 2 3 4 5 6 
#
# 1 0.011083 -0.003482 -0.002100 0.000000 0.000000 0.000000
# 2 -0.003482 0.029424 0.001489 0.000000 0.000000 0.000000
# 3 -0.002100 0.001489 0.012009 0.000000 0.000000 0.000000
# 4 0.000000 0.000000 0.000000 0.033370 0.000000 0.000000
# 5 0.000000 0.000000 0.000000 0.000000 0.028202 0.000000
# 6 0.000000 0.000000 0.000000 0.000000 0.000000 0.041891
#
#
# Mechanical properties :
#
#
# Convention : Reuss Voigt Hill
#
# Bulk Modulus (GPa) = 22.55955 29.50564 26.03259
# Shear Modulus (GPa) = 27.94201 30.82794 29.38497
#
# Velocity S-wave (km/s) = 3.55054 3.72939 3.64107
# Velocity P-wave (km/s) = 5.19485 5.64414 5.42415
#
# Compressibility (1/GPa) = 0.04432713
#
# Stress axis : x y z
#
# Youngs Moduli (GPa) = 90.23071 33.98619 83.27340
#
# Poissons Ratio (x) = 0.11835 0.17489
# Poissons Ratio (y) = 0.31420 -0.12395
# Poissons Ratio (z) = 0.18951 -0.05059
#
# Static dielectric constant tensor:
#      x y z
#    x 3.922570 0.000000 0.000000 
#    y 0.000000 3.682940 0.000000 
#    z 0.000000 0.000000 4.385180 
# 
# 
# High freq. dielectric constant tensor:
#      x y z
#    x 1.881940 0.000000 0.000000 
#    y 0.000000 1.852240 0.000000 
#    z 0.000000 0.000000 1.885450 
# 
# From -- ./inp_files/4276.got.cif
#   From: 2010.03.12/outbox.cif.g09.slc.cpg/sg26_3_cif.got.tgz:4276.got - 2010.04.14 03:33:09.
