data_PCOD8167043
_publ_section_title
;
Structure prediction by ZEFSAII (Michael W. Deem and Ramdas Pophale) SiO2 
 PCOD8167043
Probable space group: P M C 21
;
_chemical_formula_sum "Si O2"
_cell_formula_units_Z 28
_cell_length_a 23.068729
_cell_length_b 17.825787
_cell_length_c 5.281843
_cell_angle_alpha 90.000000
_cell_angle_beta 90.000000
_cell_angle_gamma 90.000000
_cell_volume 2171.990233
_symmetry_space_group_name_H-M "P M C 21"
_symmetry_group_IT_number 26
_symmetry_cell_setting 'orthorhombic'
loop_
_space_group_symop_operation_xyz
x,y,z
-x,-y,1/2+z
-x,y,z
x,-y,1/2+z
loop_
_atom_site_type_symbol
_atom_site_label
_atom_site_fract_x
_atom_site_fract_y
_atom_site_fract_z
Si Si1 0.931103 0.711122 0.482430
Si Si2 0.265254 0.077216 0.482687
Si Si3 0.686418 0.910700 0.482690
Si Si4 0.870170 0.954500 0.982687
Si Si5 0.563071 0.049369 0.982609
Si Si6 0.930878 0.458187 0.982379
Si Si7 0.931087 0.203755 0.482438
O O1 0.906762 0.626530 0.482387
O O2 0.908299 0.752965 0.733525
O O3 0.000000 0.709461 0.482398
O O4 0.908292 0.752994 0.231398
O O5 0.283555 0.124469 0.233070
O O6 0.197751 0.061147 0.482560
O O7 0.301519 0.000072 0.482772
O O8 0.283524 0.124460 0.732366
O O9 0.617353 0.893319 0.482608
O O10 0.888085 0.999900 0.232892
O O11 0.905603 0.878605 0.982327
O O12 0.500000 0.090951 0.982605
O O13 0.568274 0.000002 0.232614
O O14 0.907263 0.499997 0.732374
O O15 0.000000 0.458410 0.982382
O O16 0.000000 0.198098 0.482453
#
# Coordination Sequence:
#
# PCOD8167043 Si02
#       7
#     4   4   4   4   4   4   4
#     4   9  17  31  44  56  77  97 111 125 156 212
#     4  10  16  25  37  49  59  76  99 136 180 207
#     4  10  14  25  36  46  63  80  96 123 174 211
#     4  12  21  31  43  55  65  79 117 162 189 218
#     4  10  16  20  29  45  62  80  98 114 139 199
#     4   9  15  23  40  64  81  93 109 127 143 172
#     4  10  21  33  43  53  69  95 114 137 184 225
#
# _framework density 12.891403
#
# number of rings (size 3 to 8) (size 9 to 14) (size 15 to 20)
#    0.000    2.000    5.714    1.714    0.000    4.000 
#    0.000    0.000    0.000    0.000    0.000    0.000 
#    0.000    0.000    0.000    0.000    0.000    0.000 
#
# Total GULP energy -346991.472095 kJ/mol
# GULP energy per Si atom -12392.552575 kJ/mol
# Density = 1.286206 g / cm^3
# Si number density = 12.891403 Si / 1000 Ang^3
#
#
#
# Elastic Constant Matrix: (Units=GPa)
#
#
# Indices 1 2 3 4 5 6 
#
# 1 25.8486 21.9177 18.9859 0.0000 0.0000 0.0000
# 2 21.9177 71.9021 49.6467 0.0000 0.0000 0.0000
# 3 18.9859 49.6467 153.8059 0.0000 0.0000 0.0000
# 4 0.0000 0.0000 0.0000 18.2107 0.0000 0.0000
# 5 0.0000 0.0000 0.0000 0.0000 6.8620 0.0000
# 6 0.0000 0.0000 0.0000 0.0000 0.0000 0.2792
#
#
#
# Elastic Compliance Matrix: (Units=1/GPa)
#
#
# Indices 1 2 3 4 5 6 
#
# 1 0.052512 -0.014838 -0.001692 0.000000 0.000000 0.000000
# 2 -0.014838 0.022089 -0.005299 0.000000 0.000000 0.000000
# 3 -0.001692 -0.005299 0.008421 0.000000 0.000000 0.000000
# 4 0.000000 0.000000 0.000000 0.054913 0.000000 0.000000
# 5 0.000000 0.000000 0.000000 0.000000 0.145729 0.000000
# 6 0.000000 0.000000 0.000000 0.000000 0.000000 3.582170
#
#
# Mechanical properties :
#
#
# Convention : Reuss Voigt Hill
#
# Bulk Modulus (GPa) = 25.40431 48.07302 36.73867
# Shear Modulus (GPa) = 1.27466 15.80413 8.53939
#
# Velocity S-wave (km/s) = 0.99545 3.50515 2.57652
# Velocity P-wave (km/s) = 4.59025 7.33165 6.11651
#
# Compressibility (1/GPa) = 0.03936340
#
# Stress axis : x y z
#
# Youngs Moduli (GPa) = 19.04333 45.27038 118.75182
#
# Poissons Ratio (x) = 0.67174 0.20098
# Poissons Ratio (y) = 0.28257 0.62921
# Poissons Ratio (z) = 0.03223 0.23987
#
# Static dielectric constant tensor:
#      x y z
#    x 2.591740 0.000000 0.000000 
#    y 0.000000 2.279840 0.000000 
#    z 0.000000 0.000000 3.722020 
# 
# 
# High freq. dielectric constant tensor:
#      x y z
#    x 1.460850 0.000000 0.000000 
#    y 0.000000 1.427950 0.000000 
#    z 0.000000 0.000000 1.527850 
# 
# From -- ./inp_files/899.got.cif
#   From: 2010.03.12/outbox.cif.g09.slc.cpg/sg26_1_cif.got.tgz:899.got - 2010.04.14 03:33:09.
