data_PCOD8167559
_publ_section_title
;
Structure prediction by ZEFSAII (Michael W. Deem and Ramdas Pophale) SiO2 
 PCOD8167559
Probable space group: P M C 21
;
_chemical_formula_sum "Si O2"
_cell_formula_units_Z 32
_cell_length_a 13.963559
_cell_length_b 8.220667
_cell_length_c 13.501246
_cell_angle_alpha 90.000000
_cell_angle_beta 90.000000
_cell_angle_gamma 90.000000
_cell_volume 1549.804905
_symmetry_space_group_name_H-M "P M C 21"
_symmetry_group_IT_number 26
_symmetry_cell_setting 'orthorhombic'
loop_
_space_group_symop_operation_xyz
x,y,z
-x,-y,1/2+z
-x,y,z
x,-y,1/2+z
loop_
_atom_site_type_symbol
_atom_site_label
_atom_site_fract_x
_atom_site_fract_y
_atom_site_fract_z
Si Si1 0.390371 0.425731 0.402930
Si Si2 0.255450 0.899604 0.357649
Si Si3 0.272684 0.756827 0.053310
Si Si4 0.391799 0.757085 0.514748
Si Si5 0.106271 0.138527 0.435570
Si Si6 0.106232 0.294303 0.224458
Si Si7 0.727154 0.914498 0.665341
Si Si8 0.747813 0.428021 0.745015
O O1 0.500000 0.386541 0.373813
O O2 0.342269 0.273085 0.459189
O O3 0.384637 0.571729 0.481107
O O4 0.332275 0.466961 0.302762
O O5 0.340196 0.869889 0.434057
O O6 0.221674 0.732640 0.305763
O O7 0.163676 0.971157 0.414914
O O8 0.296009 0.029593 0.277268
O O9 0.294058 0.626476 0.138961
O O10 0.290097 0.937650 0.091333
O O11 0.162407 0.750490 0.015898
O O12 0.500000 0.818124 0.521485
O O13 0.344075 0.774373 0.624230
O O14 0.097820 0.242945 0.337313
O O15 0.000000 0.096481 0.475918
O O16 0.165206 0.158990 0.161906
O O17 0.157853 0.468193 0.223347
O O18 0.000000 0.309879 0.177379
#
# Coordination Sequence:
#
# PCOD8167559 Si02
#       8
#     4   4   4   4   4   4   4   4
#     4  10  22  40  61  88 125 167 208 259 316 368
#     4   9  20  38  59  87 125 163 200 262 314 367
#     4  11  21  38  62  90 124 164 209 261 310 376
#     4  10  20  37  59  85 121 164 208 254 308 368
#     4  10  20  37  60  86 119 161 205 255 317 374
#     4  10  21  39  61  86 121 158 200 254 314 373
#     4  10  21  37  59  89 122 158 204 254 311 371
#     4  10  21  38  65  91 125 163 210 259 314 377
#
# _framework density 20.647759000000001
#
# number of rings (size 3 to 8) (size 9 to 14) (size 15 to 20)
#    0.000    2.000    2.500    0.750    0.000    3.000 
#    0.000    5.625    0.000    0.000    0.000    0.000 
#    0.000    0.000    0.000    0.000    0.000    0.000 
#
# Total GULP energy -396693.460415 kJ/mol
# GULP energy per Si atom -12396.670638 kJ/mol
# Density = 2.060076 g / cm^3
# Si number density = 20.647759 Si / 1000 Ang^3
#
#
#
# Elastic Constant Matrix: (Units=GPa)
#
#
# Indices 1 2 3 4 5 6 
#
# 1 134.0880 32.0884 47.5936 0.0000 0.0000 0.0000
# 2 32.0884 58.0908 30.9695 0.0000 0.0000 0.0000
# 3 47.5936 30.9695 81.6524 0.0000 0.0000 0.0000
# 4 0.0000 0.0000 0.0000 35.6831 0.0000 0.0000
# 5 0.0000 0.0000 0.0000 0.0000 27.8015 0.0000
# 6 0.0000 0.0000 0.0000 0.0000 0.0000 31.2582
#
#
#
# Elastic Compliance Matrix: (Units=1/GPa)
#
#
# Indices 1 2 3 4 5 6 
#
# 1 0.009795 -0.002967 -0.004584 0.000000 0.000000 0.000000
# 2 -0.002967 0.022476 -0.006796 0.000000 0.000000 0.000000
# 3 -0.004584 -0.006796 0.017496 0.000000 0.000000 0.000000
# 4 0.000000 0.000000 0.000000 0.028025 0.000000 0.000000
# 5 0.000000 0.000000 0.000000 0.000000 0.035969 0.000000
# 6 0.000000 0.000000 0.000000 0.000000 0.000000 0.031992
#
#
# Mechanical properties :
#
#
# Convention : Reuss Voigt Hill
#
# Bulk Modulus (GPa) = 47.45011 55.01489 51.23250
# Shear Modulus (GPa) = 27.55276 29.82721 28.68998
#
# Velocity S-wave (km/s) = 3.65693 3.80488 3.73164
# Velocity P-wave (km/s) = 6.39230 6.78271 6.59040
#
# Compressibility (1/GPa) = 0.02107476
#
# Stress axis : x y z
#
# Youngs Moduli (GPa) = 102.09516 44.49178 57.15458
#
# Poissons Ratio (x) = 0.13199 0.26200
# Poissons Ratio (y) = 0.30288 0.38840
# Poissons Ratio (z) = 0.46800 0.30235
#
# Static dielectric constant tensor:
#      x y z
#    x 3.889980 0.000000 0.000000 
#    y 0.000000 3.810930 0.000000 
#    z 0.000000 0.000000 3.890050 
# 
# 
# High freq. dielectric constant tensor:
#      x y z
#    x 1.792350 0.000000 0.000000 
#    y 0.000000 1.811560 0.000000 
#    z 0.000000 0.000000 1.813820 
# 
# From -- ./inp_files/4572.got.cif
#   From: 2010.03.12/outbox.cif.g09.slc.cpg/sg26_3_cif.got.tgz:4572.got - 2010.04.14 03:33:09.
