data_PCOD8167576
_publ_section_title
;
Structure prediction by ZEFSAII (Michael W. Deem and Ramdas Pophale) SiO2 
 PCOD8167576
Probable space group: P M C 21
;
_chemical_formula_sum "Si O2"
_cell_formula_units_Z 32
_cell_length_a 8.431265
_cell_length_b 12.054710
_cell_length_c 15.318328
_cell_angle_alpha 90.000000
_cell_angle_beta 90.000000
_cell_angle_gamma 90.000000
_cell_volume 1556.900547
_symmetry_space_group_name_H-M "P M C 21"
_symmetry_group_IT_number 26
_symmetry_cell_setting 'orthorhombic'
loop_
_space_group_symop_operation_xyz
x,y,z
-x,-y,1/2+z
-x,y,z
x,-y,1/2+z
loop_
_atom_site_type_symbol
_atom_site_label
_atom_site_fract_x
_atom_site_fract_y
_atom_site_fract_z
Si Si1 0.812352 0.397293 0.599330
Si Si2 0.681953 0.544037 0.752667
Si Si3 0.183849 0.752892 0.680085
Si Si4 0.811519 0.979861 0.442613
Si Si5 0.811728 0.010213 0.246800
Si Si6 0.682210 0.252717 0.997968
Si Si7 0.188130 0.855072 0.091885
Si Si8 0.182916 0.465965 0.928113
O O1 0.732155 0.451112 0.683286
O O2 0.748823 0.270908 0.590912
O O3 0.763484 0.464385 0.512852
O O4 0.000000 0.400780 0.613152
O O5 0.500000 0.575478 0.737704
O O6 0.790685 0.654088 0.748557
O O7 0.704651 0.498661 0.849271
O O8 0.245972 0.868259 0.718853
O O9 0.291410 0.718358 0.598749
O O10 0.000000 0.761357 0.652467
O O11 0.735806 0.872131 0.484250
O O12 0.000000 0.968774 0.443965
O O13 0.744983 0.990474 0.344184
O O14 0.756762 0.083691 0.502699
O O15 0.000000 0.005814 0.249146
O O16 0.745233 0.919465 0.177834
O O17 0.500000 0.269905 0.972298
O O18 0.790942 0.335141 0.941998
O O19 0.000000 0.855999 0.096287
O O20 0.000000 0.488113 0.904896
#
# Coordination Sequence:
#
# PCOD8167576 Si02
#       8
#     4   4   4   4   4   4   4   4
#     4  10  22  40  65  92 122 163 214 261 306 367
#     4  12  26  42  62  92 130 165 202 259 324 376
#     4  11  21  40  67  92 119 160 213 258 303 368
#     4  10  20  37  63  91 120 158 201 249 303 361
#     4   9  19  34  61  94 119 151 202 257 299 349
#     4  12  24  40  62  91 127 162 202 257 315 369
#     4   9  18  35  58  90 122 152 201 256 297 348
#     4  11  24  42  66  92 121 165 217 261 303 368
#
# _framework density 20.553656
#
# number of rings (size 3 to 8) (size 9 to 14) (size 15 to 20)
#    0.000    1.500    2.500    3.000    3.500    0.500 
#    0.000    1.875    0.000    0.000    0.000    0.000 
#    0.000    0.000    0.000    0.000    0.000    0.000 
#
# Total GULP energy -396876.358147 kJ/mol
# GULP energy per Si atom -12402.386192 kJ/mol
# Density = 2.050687 g / cm^3
# Si number density = 20.553656 Si / 1000 Ang^3
#
#
#
# Elastic Constant Matrix: (Units=GPa)
#
#
# Indices 1 2 3 4 5 6 
#
# 1 42.6474 27.0803 26.3688 0.0000 0.0000 0.0000
# 2 27.0803 138.2438 34.7029 0.0000 0.0000 0.0000
# 3 26.3688 34.7029 116.4184 0.0000 0.0000 0.0000
# 4 0.0000 0.0000 0.0000 30.2859 0.0000 0.0000
# 5 0.0000 0.0000 0.0000 0.0000 18.5380 0.0000
# 6 0.0000 0.0000 0.0000 0.0000 0.0000 8.6999
#
#
#
# Elastic Compliance Matrix: (Units=1/GPa)
#
#
# Indices 1 2 3 4 5 6 
#
# 1 0.029598 -0.004448 -0.005378 0.000000 0.000000 0.000000
# 2 -0.004448 0.008487 -0.001522 0.000000 0.000000 0.000000
# 3 -0.005378 -0.001522 0.010262 0.000000 0.000000 0.000000
# 4 0.000000 0.000000 0.000000 0.033019 0.000000 0.000000
# 5 0.000000 0.000000 0.000000 0.000000 0.053943 0.000000
# 6 0.000000 0.000000 0.000000 0.000000 0.000000 0.114943
#
#
# Mechanical properties :
#
#
# Convention : Reuss Voigt Hill
#
# Bulk Modulus (GPa) = 38.98677 52.62375 45.80526
# Shear Modulus (GPa) = 17.76211 25.44860 21.60536
#
# Velocity S-wave (km/s) = 2.94289 3.52256 3.24569
# Velocity P-wave (km/s) = 5.52783 6.49640 6.03159
#
# Compressibility (1/GPa) = 0.02564972
#
# Stress axis : x y z
#
# Youngs Moduli (GPa) = 33.78657 117.82665 97.45019
#
# Poissons Ratio (x) = 0.52407 0.52409
# Poissons Ratio (y) = 0.15028 0.14836
# Poissons Ratio (z) = 0.18170 0.17939
#
# Static dielectric constant tensor:
#      x y z
#    x 3.322370 0.000000 0.000000 
#    y 0.000000 3.920700 0.000000 
#    z 0.000000 0.000000 3.879930 
# 
# 
# High freq. dielectric constant tensor:
#      x y z
#    x 1.771550 0.000000 0.000000 
#    y 0.000000 1.818160 0.000000 
#    z 0.000000 0.000000 1.811940 
# 
# From -- ./inp_files/4259.got.cif
#   From: 2010.03.12/outbox.cif.g09.slc.cpg/sg26_3_cif.got.tgz:4259.got - 2010.04.14 03:33:09.
