data_PCOD8167966
_publ_section_title
;
Structure prediction by ZEFSAII (Michael W. Deem and Ramdas Pophale) SiO2 
 PCOD8167966
Probable space group: P M A 2
;
_chemical_formula_sum "Si O2"
_cell_formula_units_Z 24
_cell_length_a 8.602128
_cell_length_b 9.325156
_cell_length_c 15.852901
_cell_angle_alpha 90.000000
_cell_angle_beta 90.000000
_cell_angle_gamma 90.000000
_cell_volume 1271.659248
_symmetry_space_group_name_H-M "P M A 2"
_symmetry_group_IT_number 28
_symmetry_cell_setting 'orthorhombic'
loop_
_space_group_symop_operation_xyz
x,y,z
-x,-y,z
1/2-x,y,z
1/2+x,-y,z
loop_
_atom_site_type_symbol
_atom_site_label
_atom_site_fract_x
_atom_site_fract_y
_atom_site_fract_z
Si Si1 0.933270 0.839765 0.788720
Si Si2 0.934287 0.840882 0.129810
Si Si3 0.568500 0.156638 0.437705
Si Si4 0.934898 0.341704 0.281742
Si Si5 0.065671 0.840347 0.957281
Si Si6 0.432016 0.842584 0.622287
O O1 0.750000 0.841369 0.798207
O O2 0.006839 0.761436 0.871409
O O3 0.984752 0.760487 0.701170
O O4 0.000000 0.000000 0.782412
O O5 0.750000 0.848518 0.128611
O O6 0.992968 0.740259 0.203333
O O7 0.000000 0.000000 0.143067
O O8 0.995504 0.770295 0.042030
O O9 0.750000 0.135571 0.427365
O O10 0.505291 0.264812 0.367006
O O11 0.531060 0.226019 0.530290
O O12 0.500000 0.000000 0.423398
O O13 0.750000 0.342814 0.274222
O O14 0.000000 0.500000 0.282926
O O15 0.250000 0.839416 0.961854
O O16 0.000000 0.000000 0.952696
O O17 0.250000 0.848169 0.641507
O O18 0.500000 0.000000 0.615338
#
# Coordination Sequence:
#
# PCOD8167966 Si02
#       6
#     4   4   4   4   4   4
#     4  10  16  23  36  60  94 130 162 198 242 293
#     4  11  21  35  54  78 105 136 171 213 257 306
#     4   9  19  33  52  75 102 132 169 210 253 301
#     4  11  23  39  55  76 102 134 172 214 261 311
#     4  10  17  27  43  66  96 131 166 204 247 297
#     4   9  15  25  40  63  93 127 161 199 243 292
#
# _framework density 18.872979000000001
#
# number of rings (size 3 to 8) (size 9 to 14) (size 15 to 20)
#    0.000    2.000    0.000    9.000    0.000    3.333 
#    0.000    0.000    0.000    0.000    0.000    1.167 
#    0.000    2.667    0.000    0.000    0.000    0.000 
#
# Total GULP energy -297396.467412 kJ/mol
# GULP energy per Si atom -12391.519475 kJ/mol
# Density = 1.883002 g / cm^3
# Si number density = 18.872979 Si / 1000 Ang^3
#
#
#
# Elastic Constant Matrix: (Units=GPa)
#
#
# Indices 1 2 3 4 5 6 
#
# 1 138.6900 31.5934 76.4396 0.0000 0.0000 0.0000
# 2 31.5934 58.0214 59.7152 0.0000 0.0000 0.0000
# 3 76.4396 59.7152 225.1986 0.0000 0.0000 0.0000
# 4 0.0000 0.0000 0.0000 -4.7469 0.0000 0.0000
# 5 0.0000 0.0000 0.0000 0.0000 34.2353 0.0000
# 6 0.0000 0.0000 0.0000 0.0000 0.0000 16.2702
#
#
#
# Elastic Compliance Matrix: (Units=1/GPa)
#
#
# Indices 1 2 3 4 5 6 
#
# 1 0.009115 -0.002447 -0.002445 0.000000 0.000000 0.000000
# 2 -0.002447 0.024361 -0.005629 0.000000 0.000000 0.000000
# 3 -0.002445 -0.005629 0.006763 0.000000 0.000000 0.000000
# 4 0.000000 0.000000 0.000000 -0.210664 0.000000 0.000000
# 5 0.000000 0.000000 0.000000 0.000000 0.029210 0.000000
# 6 0.000000 0.000000 0.000000 0.000000 0.000000 0.061462
#
#
# Mechanical properties :
#
#
# Convention : Reuss Voigt Hill
#
# Bulk Modulus (GPa) = 52.09155 84.15628 68.12392
# Shear Modulus (GPa) = -95.58203 26.09584 -34.74309
#
# Velocity S-wave (km/s) = -7.12424 3.72251 -4.29522
# Velocity P-wave (km/s) = 6.32551 7.94757 3.40233
#
# Compressibility (1/GPa) = 0.01919697
#
# Stress axis : x y z
#
# Youngs Moduli (GPa) = 109.70427 41.04949 147.85931
#
# Poissons Ratio (x) = 0.10044 0.36155
# Poissons Ratio (y) = 0.26843 0.83232
# Poissons Ratio (z) = 0.26825 0.23107
#
# Static dielectric constant tensor:
#      x y z
#    x 3.565490 0.000000 0.000000 
#    y 0.000000 2.940040 0.000000 
#    z 0.000000 0.000000 5.409870 
# 
# 
# High freq. dielectric constant tensor:
#      x y z
#    x 1.751110 0.000000 0.000000 
#    y 0.000000 1.649090 0.000000 
#    z 0.000000 0.000000 1.776110 
# 
# From -- ./inp_files/6682.got.cif
#   From: 2010.03.12/outbox.cif.g09.slc.cpg/sg28_4_cif.got.tgz:6682.got - 2010.04.14 03:39:34.
