data_PCOD8167885
_publ_section_title
;
Structure prediction by ZEFSAII (Michael W. Deem and Ramdas Pophale) SiO2 
 PCOD8167885
Probable space group: P C C 2
;
_chemical_formula_sum "Si O2"
_cell_formula_units_Z 22
_cell_length_a 9.301119
_cell_length_b 12.171489
_cell_length_c 8.823880
_cell_angle_alpha 90.000000
_cell_angle_beta 90.000000
_cell_angle_gamma 90.000000
_cell_volume 998.937933
_symmetry_space_group_name_H-M "P C C 2"
_symmetry_group_IT_number 27
_symmetry_cell_setting 'orthorhombic'
loop_
_space_group_symop_operation_xyz
x,y,z
-x,-y,z
-x,y,1/2+z
x,-y,1/2+z
loop_
_atom_site_type_symbol
_atom_site_label
_atom_site_fract_x
_atom_site_fract_y
_atom_site_fract_z
Si Si1 0.102042 0.233041 0.189040
Si Si2 0.609541 0.370893 0.348673
Si Si3 0.822658 0.819020 0.851945
Si Si4 0.500000 0.000000 0.063829
Si Si5 0.297417 0.940218 0.813284
Si Si6 0.325232 0.416659 0.189123
O O1 0.172839 0.353690 0.201467
O O2 0.935812 0.234704 0.235342
O O3 0.178733 0.153582 0.310714
O O4 0.114452 0.184305 0.021022
O O5 0.677937 0.250970 0.336431
O O6 0.443963 0.359955 0.297842
O O7 0.695156 0.457429 0.241578
O O8 0.616308 0.415447 0.519013
O O9 0.782562 0.942725 0.808255
O O10 0.397208 0.924300 0.960531
O O11 0.600879 0.922946 0.166267
#
# Coordination Sequence:
#
# PCOD8167885 Si02
#       6
#     4   4   4   2   4   4
#     4  11  26  42  62  90 128 167 205 251 307 369
#     4  10  22  41  64  93 121 157 205 257 307 360
#     4  11  26  42  62  90 128 167 205 251 307 369
#     4  10  24  38  66  94 122 162 206 258 296 368
#     4  11  23  42  62  96 126 160 204 252 312 358
#     4  10  22  41  64  93 121 157 205 257 307 360
#
# _framework density 22.023389000000002
#
# number of rings (size 3 to 8) (size 9 to 14) (size 15 to 20)
#    0.000    1.455    1.818    2.727    7.636    5.091 
#    0.000    3.636    0.000    0.000    0.000    0.000 
#    0.000    0.000    0.000    0.000    0.000    0.000 
#
# Total GULP energy -272846.507669 kJ/mol
# GULP energy per Si atom -12402.113985 kJ/mol
# Density = 2.197326 g / cm^3
# Si number density = 22.023389 Si / 1000 Ang^3
#
#
#
# Elastic Constant Matrix: (Units=GPa)
#
#
# Indices 1 2 3 4 5 6 
#
# 1 75.3251 5.8130 24.8129 0.0000 0.0000 0.0000
# 2 5.8130 56.9257 7.9484 0.0000 0.0000 0.0000
# 3 24.8129 7.9484 107.6453 0.0000 0.0000 0.0000
# 4 0.0000 0.0000 0.0000 21.2872 0.0000 0.0000
# 5 0.0000 0.0000 0.0000 0.0000 23.9137 0.0000
# 6 0.0000 0.0000 0.0000 0.0000 0.0000 31.3679
#
#
#
# Elastic Compliance Matrix: (Units=1/GPa)
#
#
# Indices 1 2 3 4 5 6 
#
# 1 0.014425 -0.001019 -0.003250 0.000000 0.000000 0.000000
# 2 -0.001019 0.017822 -0.001081 0.000000 0.000000 0.000000
# 3 -0.003250 -0.001081 0.010119 0.000000 0.000000 0.000000
# 4 0.000000 0.000000 0.000000 0.046977 0.000000 0.000000
# 5 0.000000 0.000000 0.000000 0.000000 0.041817 0.000000
# 6 0.000000 0.000000 0.000000 0.000000 0.000000 0.031880
#
#
# Mechanical properties :
#
#
# Convention : Reuss Voigt Hill
#
# Bulk Modulus (GPa) = 31.58024 35.22717 33.40370
# Shear Modulus (GPa) = 27.13056 28.73521 27.93288
#
# Velocity S-wave (km/s) = 3.51365 3.61606 3.56522
# Velocity P-wave (km/s) = 5.55261 5.78486 5.66993
#
# Compressibility (1/GPa) = 0.03166537
#
# Stress axis : x y z
#
# Youngs Moduli (GPa) = 69.32431 56.11113 98.82706
#
# Poissons Ratio (x) = 0.05719 0.32117
# Poissons Ratio (y) = 0.07066 0.10683
# Poissons Ratio (z) = 0.22529 0.06066
#
# Static dielectric constant tensor:
#      x y z
#    x 4.007980 0.000000 0.000000 
#    y 0.000000 3.717470 0.000000 
#    z 0.000000 0.000000 4.196930 
# 
# 
# High freq. dielectric constant tensor:
#      x y z
#    x 1.864240 0.000000 0.000000 
#    y 0.000000 1.853780 0.000000 
#    z 0.000000 0.000000 1.881070 
# 
# From -- ./inp_files/1119.got.cif
#   From: 2010.03.12/outbox.cif.g09.slc.cpg/sg27_1_cif.got.tgz:1119.got - 2010.04.14 03:36:05.
