data_PCOD8167110
_publ_section_title
;
Structure prediction by ZEFSAII (Michael W. Deem and Ramdas Pophale) SiO2 
 PCOD8167110
Probable space group: P M C 21
;
_chemical_formula_sum "Si O2"
_cell_formula_units_Z 32
_cell_length_a 9.043469
_cell_length_b 19.002834
_cell_length_c 10.310621
_cell_angle_alpha 90.000000
_cell_angle_beta 90.000000
_cell_angle_gamma 90.000000
_cell_volume 1771.896099
_symmetry_space_group_name_H-M "P M C 21"
_symmetry_group_IT_number 26
_symmetry_cell_setting 'orthorhombic'
loop_
_space_group_symop_operation_xyz
x,y,z
-x,-y,1/2+z
-x,y,z
x,-y,1/2+z
loop_
_atom_site_type_symbol
_atom_site_label
_atom_site_fract_x
_atom_site_fract_y
_atom_site_fract_z
Si Si1 0.826950 0.589710 0.076550
Si Si2 0.669828 0.789323 0.456524
Si Si3 0.676412 0.055373 0.224782
Si Si4 0.327893 0.054029 0.932717
Si Si5 0.328228 0.645873 0.324825
Si Si6 0.173090 0.573723 0.561365
Si Si7 0.828249 0.802187 0.718848
Si Si8 0.827664 0.652972 0.811542
O O1 0.743060 0.631725 0.187021
O O2 0.794586 0.507514 0.088977
O O3 0.000000 0.606443 0.088891
O O4 0.760742 0.618135 0.940567
O O5 0.500000 0.788564 0.506286
O O6 0.704857 0.865276 0.392059
O O7 0.699794 0.728371 0.353134
O O8 0.776910 0.777086 0.577343
O O9 0.500000 0.058526 0.226237
O O10 0.736968 0.131062 0.270248
O O11 0.742736 0.997287 0.324070
O O12 0.734164 0.039139 0.078241
O O13 0.500000 0.037646 0.934059
O O14 0.500000 0.627701 0.320320
O O15 0.255724 0.596360 0.431980
O O16 0.240636 0.617167 0.682627
O O17 0.000000 0.588169 0.539700
O O18 0.798238 0.736691 0.814773
O O19 0.000000 0.822052 0.713057
O O20 0.000000 0.635163 0.806714
#
# Coordination Sequence:
#
# PCOD8167110 Si02
#       8
#     4   4   4   4   4   4   4   4
#     4  10  21  37  56  77 105 141 182 222 259 312
#     4   9  18  34  54  76 103 139 178 212 251 310
#     4   9  17  32  52  75  99 131 171 212 252 302
#     4   8  15  30  52  73  96 127 170 209 244 296
#     4  11  22  35  53  82 115 139 169 220 275 319
#     4  10  19  36  61  80  97 136 189 225 256 314
#     4  10  18  31  53  77 104 136 172 218 260 305
#     4   9  18  33  53  78 103 133 177 222 261 304
#
# _framework density 18.059750000000001
#
# number of rings (size 3 to 8) (size 9 to 14) (size 15 to 20)
#    0.000    2.500    1.250    2.250    0.000    3.000 
#    2.250    4.375    0.000    0.000    0.000    0.000 
#    0.000    0.000    0.000    0.000    0.000    0.000 
#
# Total GULP energy -396744.793632 kJ/mol
# GULP energy per Si atom -12398.274801 kJ/mol
# Density = 1.801864 g / cm^3
# Si number density = 18.059750 Si / 1000 Ang^3
#
#
#
# Elastic Constant Matrix: (Units=GPa)
#
#
# Indices 1 2 3 4 5 6 
#
# 1 39.4241 35.6172 27.3439 0.0000 0.0000 0.0000
# 2 35.6172 110.5379 56.2926 0.0000 0.0000 0.0000
# 3 27.3439 56.2926 104.0858 0.0000 0.0000 0.0000
# 4 0.0000 0.0000 0.0000 34.3256 0.0000 0.0000
# 5 0.0000 0.0000 0.0000 0.0000 20.1303 0.0000
# 6 0.0000 0.0000 0.0000 0.0000 0.0000 25.9385
#
#
#
# Elastic Compliance Matrix: (Units=1/GPa)
#
#
# Indices 1 2 3 4 5 6 
#
# 1 0.037280 -0.009695 -0.004550 0.000000 0.000000 0.000000
# 2 -0.009695 0.015007 -0.005569 0.000000 0.000000 0.000000
# 3 -0.004550 -0.005569 0.013815 0.000000 0.000000 0.000000
# 4 0.000000 0.000000 0.000000 0.029133 0.000000 0.000000
# 5 0.000000 0.000000 0.000000 0.000000 0.049676 0.000000
# 6 0.000000 0.000000 0.000000 0.000000 0.000000 0.038553
#
#
# Mechanical properties :
#
#
# Convention : Reuss Voigt Hill
#
# Bulk Modulus (GPa) = 37.77486 54.72835 46.25161
# Shear Modulus (GPa) = 21.55949 25.06515 23.31232
#
# Velocity S-wave (km/s) = 3.45887 3.72950 3.59673
# Velocity P-wave (km/s) = 6.07567 6.99395 6.55092
#
# Compressibility (1/GPa) = 0.02647263
#
# Stress axis : x y z
#
# Youngs Moduli (GPa) = 26.82406 66.63693 72.38613
#
# Poissons Ratio (x) = 0.64604 0.32938
# Poissons Ratio (y) = 0.26006 0.40313
# Poissons Ratio (z) = 0.12206 0.37111
#
# Static dielectric constant tensor:
#      x y z
#    x 3.109400 0.000000 0.000000 
#    y 0.000000 3.505610 0.000000 
#    z 0.000000 0.000000 3.437220 
# 
# 
# High freq. dielectric constant tensor:
#      x y z
#    x 1.672210 0.000000 0.000000 
#    y 0.000000 1.711480 0.000000 
#    z 0.000000 0.000000 1.691860 
# 
# From -- ./inp_files/1601.got.cif
#   From: 2010.03.12/outbox.cif.g09.slc.cpg/sg26_1_cif.got.tgz:1601.got - 2010.04.14 03:33:09.
