data_PCOD8167631
_publ_section_title
;
Structure prediction by ZEFSAII (Michael W. Deem and Ramdas Pophale) SiO2 
 PCOD8167631
Probable space group: P M C 21
;
_chemical_formula_sum "Si O2"
_cell_formula_units_Z 32
_cell_length_a 9.028770
_cell_length_b 14.444611
_cell_length_c 12.181704
_cell_angle_alpha 90.000000
_cell_angle_beta 90.000000
_cell_angle_gamma 90.000000
_cell_volume 1588.702149
_symmetry_space_group_name_H-M "P M C 21"
_symmetry_group_IT_number 26
_symmetry_cell_setting 'orthorhombic'
loop_
_space_group_symop_operation_xyz
x,y,z
-x,-y,1/2+z
-x,y,z
x,-y,1/2+z
loop_
_atom_site_type_symbol
_atom_site_label
_atom_site_fract_x
_atom_site_fract_y
_atom_site_fract_z
Si Si1 0.327054 0.682040 0.359150
Si Si2 0.162916 0.132794 0.576343
Si Si3 0.326730 0.056916 0.381443
Si Si4 0.824338 0.224692 0.275153
Si Si5 0.671562 0.649514 0.609362
Si Si6 0.834309 0.672047 0.993062
Si Si7 0.830264 0.124434 0.824871
Si Si8 0.326359 0.553790 0.160358
O O1 0.500000 0.702965 0.340407
O O2 0.296794 0.641006 0.479739
O O3 0.237568 0.776123 0.348219
O O4 0.268806 0.607606 0.268857
O O5 0.295715 0.093900 0.503502
O O6 0.171253 0.243818 0.579493
O O7 0.181813 0.096156 0.698131
O O8 0.000000 0.104251 0.528296
O O9 0.500000 0.056077 0.356517
O O10 0.246582 0.123163 0.292516
O O11 0.263766 0.953431 0.385650
O O12 0.767066 0.267397 0.161279
O O13 0.774791 0.292341 0.374986
O O14 0.000000 0.212287 0.271925
O O15 0.500000 0.671640 0.631442
O O16 0.719969 0.553753 0.667864
O O17 0.000000 0.633179 0.979617
O O18 0.735394 0.591999 0.045039
O O19 0.000000 0.124106 0.865447
O O20 0.500000 0.563381 0.150345
#
# Coordination Sequence:
#
# PCOD8167631 Si02
#       8
#     4   4   4   4   4   4   4   4
#     4  10  22  40  59  89 127 158 201 256 304 361
#     4   9  19  37  58  83 115 152 198 249 299 355
#     4  11  23  38  61  91 121 158 202 250 307 369
#     4  10  22  41  61  86 121 159 203 254 304 360
#     4  10  23  40  60  88 125 166 206 252 306 366
#     4   9  18  35  58  84 113 146 193 250 297 350
#     4  11  22  39  63  88 119 160 203 251 304 363
#     4  10  21  36  60  89 119 157 200 248 303 360
#
# _framework density 20.142227999999999
#
# number of rings (size 3 to 8) (size 9 to 14) (size 15 to 20)
#    0.000    2.000    1.250    2.625    1.750    5.500 
#    0.000    0.000    0.000    0.000    0.000    0.000 
#    0.000    0.000    0.000    0.000    0.000    0.000 
#
# Total GULP energy -396788.625185 kJ/mol
# GULP energy per Si atom -12399.644537 kJ/mol
# Density = 2.009638 g / cm^3
# Si number density = 20.142228 Si / 1000 Ang^3
#
#
#
# Elastic Constant Matrix: (Units=GPa)
#
#
# Indices 1 2 3 4 5 6 
#
# 1 93.4808 56.1315 33.4583 0.0000 0.0000 0.0000
# 2 56.1315 112.9716 33.8454 0.0000 0.0000 0.0000
# 3 33.4583 33.8454 66.3319 0.0000 0.0000 0.0000
# 4 0.0000 0.0000 0.0000 26.7146 0.0000 0.0000
# 5 0.0000 0.0000 0.0000 0.0000 31.6239 0.0000
# 6 0.0000 0.0000 0.0000 0.0000 0.0000 24.4229
#
#
#
# Elastic Compliance Matrix: (Units=1/GPa)
#
#
# Indices 1 2 3 4 5 6 
#
# 1 0.016485 -0.006728 -0.004882 0.000000 0.000000 0.000000
# 2 -0.006728 0.013195 -0.003339 0.000000 0.000000 0.000000
# 3 -0.004882 -0.003339 0.019242 0.000000 0.000000 0.000000
# 4 0.000000 0.000000 0.000000 0.037433 0.000000 0.000000
# 5 0.000000 0.000000 0.000000 0.000000 0.031622 0.000000
# 6 0.000000 0.000000 0.000000 0.000000 0.000000 0.040945
#
#
# Mechanical properties :
#
#
# Convention : Reuss Voigt Hill
#
# Bulk Modulus (GPa) = 52.56661 57.73940 55.15300
# Shear Modulus (GPa) = 25.61996 26.50891 26.06443
#
# Velocity S-wave (km/s) = 3.57031 3.63173 3.60115
# Velocity P-wave (km/s) = 6.56891 6.80544 6.68822
#
# Compressibility (1/GPa) = 0.01902348
#
# Stress axis : x y z
#
# Youngs Moduli (GPa) = 60.66251 75.78609 51.96977
#
# Poissons Ratio (x) = 0.50989 0.25372
# Poissons Ratio (y) = 0.40814 0.17353
# Poissons Ratio (z) = 0.29616 0.25305
#
# Static dielectric constant tensor:
#      x y z
#    x 3.583310 0.000000 0.000000 
#    y 0.000000 3.617480 0.000000 
#    z 0.000000 0.000000 3.649330 
# 
# 
# High freq. dielectric constant tensor:
#      x y z
#    x 1.781000 0.000000 0.000000 
#    y 0.000000 1.784130 0.000000 
#    z 0.000000 0.000000 1.783150 
# 
# From -- ./inp_files/2948.got.cif
#   From: 2010.03.12/outbox.cif.g09.slc.cpg/sg26_2_cif.got.tgz:2948.got - 2010.04.14 03:33:09.
