data_PCOD8167368
_publ_section_title
;
Structure prediction by ZEFSAII (Michael W. Deem and Ramdas Pophale) SiO2 
 PCOD8167368
Probable space group: P M C 21
;
_chemical_formula_sum "Si O2"
_cell_formula_units_Z 32
_cell_length_a 8.822958
_cell_length_b 7.711726
_cell_length_c 23.963999
_cell_angle_alpha 90.000000
_cell_angle_beta 90.000000
_cell_angle_gamma 90.000000
_cell_volume 1630.516114
_symmetry_space_group_name_H-M "P M C 21"
_symmetry_group_IT_number 26
_symmetry_cell_setting 'orthorhombic'
loop_
_space_group_symop_operation_xyz
x,y,z
-x,-y,1/2+z
-x,y,z
x,-y,1/2+z
loop_
_atom_site_type_symbol
_atom_site_label
_atom_site_fract_x
_atom_site_fract_y
_atom_site_fract_z
Si Si1 0.677821 0.181962 0.539730
Si Si2 0.823663 0.181492 0.309238
Si Si3 0.679116 0.296813 0.420076
Si Si4 0.322079 0.205612 0.033756
Si Si5 0.321445 0.486595 0.239632
Si Si6 0.174225 0.336273 0.924139
Si Si7 0.171536 0.208087 0.803278
Si Si8 0.319957 0.489337 0.614399
O O1 0.500000 0.215761 0.536983
O O2 0.743505 0.221541 0.478294
O O3 0.747041 0.316105 0.584892
O O4 0.715178 0.985494 0.557781
O O5 0.753177 0.189070 0.370510
O O6 0.750589 0.319970 0.268207
O O7 0.000000 0.223995 0.314484
O O8 0.794209 0.989276 0.284751
O O9 0.500000 0.277382 0.415250
O O10 0.722321 0.496810 0.415367
O O11 0.500000 0.227522 0.020856
O O12 0.265729 0.343472 0.079428
O O13 0.231353 0.227438 0.976694
O O14 0.500000 0.460138 0.239935
O O15 0.284138 0.663710 0.271613
O O16 0.255396 0.498769 0.176903
O O17 0.194269 0.217549 0.869766
O O18 0.000000 0.391726 0.932951
O O19 0.000000 0.261143 0.787546
O O20 0.500000 0.482082 0.616682
#
# Coordination Sequence:
#
# PCOD8167368 Si02
#       8
#     4   4   4   4   4   4   4   4
#     4   9  18  33  57  87 114 144 183 232 286 338
#     4  11  23  40  60  84 119 157 191 235 294 352
#     4  11  20  34  59  89 117 148 189 236 288 346
#     4  10  19  35  60  84 113 149 184 231 286 341
#     4  11  23  38  61  88 114 150 198 249 290 336
#     4  11  21  35  57  85 117 152 188 231 288 349
#     4  10  23  41  60  82 116 160 194 233 291 351
#     4   9  19  36  56  83 114 146 189 237 287 333
#
# _framework density 19.625686999999999
#
# number of rings (size 3 to 8) (size 9 to 14) (size 15 to 20)
#    0.000    1.750    2.500    2.250    0.000    2.500 
#    0.000    4.375    0.000    0.000    0.000    0.000 
#    0.000    0.000    0.000    0.000    0.000    0.000 
#
# Total GULP energy -396854.562173 kJ/mol
# GULP energy per Si atom -12401.705068 kJ/mol
# Density = 1.958102 g / cm^3
# Si number density = 19.625687 Si / 1000 Ang^3
#
#
#
# Elastic Constant Matrix: (Units=GPa)
#
#
# Indices 1 2 3 4 5 6 
#
# 1 63.7643 36.0255 40.7899 0.0000 0.0000 0.0000
# 2 36.0255 141.0881 60.8798 0.0000 0.0000 0.0000
# 3 40.7899 60.8798 137.5786 0.0000 0.0000 0.0000
# 4 0.0000 0.0000 0.0000 12.8631 0.0000 0.0000
# 5 0.0000 0.0000 0.0000 0.0000 6.5574 0.0000
# 6 0.0000 0.0000 0.0000 0.0000 0.0000 16.6643
#
#
#
# Elastic Compliance Matrix: (Units=1/GPa)
#
#
# Indices 1 2 3 4 5 6 
#
# 1 0.020475 -0.003224 -0.004644 0.000000 0.000000 0.000000
# 2 -0.003224 0.009268 -0.003145 0.000000 0.000000 0.000000
# 3 -0.004644 -0.003145 0.010037 0.000000 0.000000 0.000000
# 4 0.000000 0.000000 0.000000 0.077742 0.000000 0.000000
# 5 0.000000 0.000000 0.000000 0.000000 0.152500 0.000000
# 6 0.000000 0.000000 0.000000 0.000000 0.000000 0.060009
#
#
# Mechanical properties :
#
#
# Convention : Reuss Voigt Hill
#
# Bulk Modulus (GPa) = 56.32621 68.64682 62.48651
# Shear Modulus (GPa) = 13.96744 20.86601 17.41673
#
# Velocity S-wave (km/s) = 2.67065 3.26421 2.98223
# Velocity P-wave (km/s) = 6.18647 7.01860 6.61563
#
# Compressibility (1/GPa) = 0.01775373
#
# Stress axis : x y z
#
# Youngs Moduli (GPa) = 48.84008 107.89474 99.62931
#
# Poissons Ratio (x) = 0.34789 0.46265
# Poissons Ratio (y) = 0.15748 0.31337
# Poissons Ratio (z) = 0.22680 0.33937
#
# Static dielectric constant tensor:
#      x y z
#    x 3.384630 0.000000 0.000000 
#    y 0.000000 3.664680 0.000000 
#    z 0.000000 0.000000 3.792550 
# 
# 
# High freq. dielectric constant tensor:
#      x y z
#    x 1.742390 0.000000 0.000000 
#    y 0.000000 1.778340 0.000000 
#    z 0.000000 0.000000 1.763600 
# 
# From -- ./inp_files/5571.got.cif
#   From: 2010.03.12/outbox.cif.g09.slc.cpg/sg26_3_cif.got.tgz:5571.got - 2010.04.14 03:33:09.
