data_PCOD8167357
_publ_section_title
;
Structure prediction by ZEFSAII (Michael W. Deem and Ramdas Pophale) SiO2 
 PCOD8167357
Probable space group: P M C 21
;
_chemical_formula_sum "Si O2"
_cell_formula_units_Z 32
_cell_length_a 9.207376
_cell_length_b 14.521877
_cell_length_c 12.330819
_cell_angle_alpha 90.000000
_cell_angle_beta 90.000000
_cell_angle_gamma 90.000000
_cell_volume 1648.733854
_symmetry_space_group_name_H-M "P M C 21"
_symmetry_group_IT_number 26
_symmetry_cell_setting 'orthorhombic'
loop_
_space_group_symop_operation_xyz
x,y,z
-x,-y,1/2+z
-x,y,z
x,-y,1/2+z
loop_
_atom_site_type_symbol
_atom_site_label
_atom_site_fract_x
_atom_site_fract_y
_atom_site_fract_z
Si Si1 0.338618 0.879202 0.415060
Si Si2 0.171047 0.319178 0.223088
Si Si3 0.167586 0.760736 0.952647
Si Si4 0.671871 0.326432 0.865666
Si Si5 0.668342 0.352119 0.623611
Si Si6 0.669608 0.443362 0.069551
Si Si7 0.661358 0.854267 0.660801
Si Si8 0.170251 0.948279 0.839736
O O1 0.500000 0.894524 0.362979
O O2 0.277537 0.778153 0.386188
O O3 0.353923 0.893860 0.541972
O O4 0.220141 0.952318 0.377923
O O5 0.205779 0.304861 0.350237
O O6 0.241820 0.412174 0.176682
O O7 0.245965 0.238580 0.154700
O O8 0.000000 0.317558 0.201501
O O9 0.208090 0.866559 0.924717
O O10 0.000000 0.751868 0.982594
O O11 0.256039 0.729791 0.057719
O O12 0.500000 0.333168 0.871653
O O13 0.729345 0.357488 0.747089
O O14 0.731720 0.394605 0.960272
O O15 0.500000 0.326785 0.628339
O O16 0.696045 0.447575 0.560719
O O17 0.500000 0.420559 0.088036
O O18 0.500000 0.834963 0.709126
O O19 0.744862 0.930724 0.729095
O O20 0.000000 0.948795 0.815118
#
# Coordination Sequence:
#
# PCOD8167357 Si02
#       8
#     4   4   4   4   4   4   4   4
#     4  10  20  36  59  83 114 154 192 241 296 346
#     4  10  20  35  57  83 112 148 191 242 292 344
#     4   9  21  40  56  77 117 155 187 238 294 342
#     4   9  19  38  56  84 123 148 187 246 295 342
#     4  10  22  36  60  88 115 155 196 241 291 348
#     4  10  20  36  59  86 115 150 191 240 293 345
#     4  10  19  35  58  83 110 148 195 242 293 346
#     4  10  22  38  57  84 118 154 195 246 296 351
#
# _framework density 19.408832
#
# number of rings (size 3 to 8) (size 9 to 14) (size 15 to 20)
#    0.000    2.250    1.250    1.875    1.750    5.500 
#    0.000    5.000    0.000    0.000    0.000    0.000 
#    0.000    0.000    0.000    0.000    0.000    0.000 
#
# Total GULP energy -396742.765600 kJ/mol
# GULP energy per Si atom -12398.211425 kJ/mol
# Density = 1.936466 g / cm^3
# Si number density = 19.408832 Si / 1000 Ang^3
#
#
#
# Elastic Constant Matrix: (Units=GPa)
#
#
# Indices 1 2 3 4 5 6 
#
# 1 73.7629 35.4828 34.6064 0.0000 0.0000 0.0000
# 2 35.4828 99.9766 52.1976 0.0000 0.0000 0.0000
# 3 34.6064 52.1976 99.7336 0.0000 0.0000 0.0000
# 4 0.0000 0.0000 0.0000 26.3861 0.0000 0.0000
# 5 0.0000 0.0000 0.0000 0.0000 21.9581 0.0000
# 6 0.0000 0.0000 0.0000 0.0000 0.0000 24.3216
#
#
#
# Elastic Compliance Matrix: (Units=1/GPa)
#
#
# Indices 1 2 3 4 5 6 
#
# 1 0.017361 -0.004150 -0.003852 0.000000 0.000000 0.000000
# 2 -0.004150 0.014755 -0.006282 0.000000 0.000000 0.000000
# 3 -0.003852 -0.006282 0.014651 0.000000 0.000000 0.000000
# 4 0.000000 0.000000 0.000000 0.037899 0.000000 0.000000
# 5 0.000000 0.000000 0.000000 0.000000 0.045541 0.000000
# 6 0.000000 0.000000 0.000000 0.000000 0.000000 0.041116
#
#
# Mechanical properties :
#
#
# Convention : Reuss Voigt Hill
#
# Bulk Modulus (GPa) = 54.95081 57.56073 56.25577
# Shear Modulus (GPa) = 24.27683 24.61227 24.44455
#
# Velocity S-wave (km/s) = 3.54052 3.56490 3.55273
# Velocity P-wave (km/s) = 6.71472 6.83125 6.77324
#
# Compressibility (1/GPa) = 0.01819809
#
# Stress axis : x y z
#
# Youngs Moduli (GPa) = 57.60197 67.77184 68.25385
#
# Poissons Ratio (x) = 0.28129 0.26289
# Poissons Ratio (y) = 0.23908 0.42879
# Poissons Ratio (z) = 0.22186 0.42577
#
# Static dielectric constant tensor:
#      x y z
#    x 3.430320 0.000000 0.000000 
#    y 0.000000 3.483380 0.000000 
#    z 0.000000 0.000000 3.587680 
# 
# 
# High freq. dielectric constant tensor:
#      x y z
#    x 1.742370 0.000000 0.000000 
#    y 0.000000 1.752160 0.000000 
#    z 0.000000 0.000000 1.752810 
# 
# From -- ./inp_files/2983.got.cif
#   From: 2010.03.12/outbox.cif.g09.slc.cpg/sg26_2_cif.got.tgz:2983.got - 2010.04.14 03:33:09.
