data_PCOD8167734
_publ_section_title
;
Structure prediction by ZEFSAII (Michael W. Deem and Ramdas Pophale) SiO2 
 PCOD8167734
Probable space group: P M C 21
;
_chemical_formula_sum "Si O2"
_cell_formula_units_Z 24
_cell_length_a 17.406409
_cell_length_b 6.348272
_cell_length_c 10.150746
_cell_angle_alpha 90.000000
_cell_angle_beta 90.000000
_cell_angle_gamma 90.000000
_cell_volume 1121.663715
_symmetry_space_group_name_H-M "P M C 21"
_symmetry_group_IT_number 26
_symmetry_cell_setting 'orthorhombic'
loop_
_space_group_symop_operation_xyz
x,y,z
-x,-y,1/2+z
-x,y,z
x,-y,1/2+z
loop_
_atom_site_type_symbol
_atom_site_label
_atom_site_fract_x
_atom_site_fract_y
_atom_site_fract_z
Si Si1 0.803626 0.942922 0.286510
Si Si2 0.841707 0.341986 0.417636
Si Si3 0.589455 0.114244 0.965644
Si Si4 0.303626 0.442925 0.866318
Si Si5 0.089455 0.385759 0.687182
Si Si6 0.341707 0.841989 0.735190
O O1 0.750001 0.749998 0.326415
O O2 0.875527 0.848059 0.207819
O O3 0.840265 0.086762 0.403787
O O4 0.746797 0.093098 0.201911
O O5 0.753203 0.406898 0.450916
O O6 0.870547 0.440491 0.279368
O O7 0.895983 0.432124 0.532805
O O8 0.500000 0.116957 0.934671
O O9 0.604018 0.067876 0.120021
O O10 0.624474 0.348062 0.945008
O O11 0.629452 0.940494 0.873457
O O12 0.340264 0.586764 0.749040
O O13 0.000000 0.383051 0.718156
#
# Coordination Sequence:
#
# PCOD8167734 Si02
#       6
#     4   4   4   4   4   4
#     4   9  22  40  64  91 125 172 222 263 321 385
#     4  10  23  42  67  93 131 172 218 270 325 393
#     4  11  24  40  65  99 133 170 215 271 329 385
#     4   9  22  40  64  91 125 172 222 263 321 385
#     4  11  24  40  65  99 133 170 215 271 329 385
#     4  10  23  42  67  93 131 172 218 270 325 393
#
# _framework density 21.396785999999999
#
# number of rings (size 3 to 8) (size 9 to 14) (size 15 to 20)
#    0.000    2.000    0.000    1.000   14.000    5.333 
#    0.000    0.000    0.000    0.000    0.000    0.000 
#    0.000    0.000    0.000    0.000    0.000    0.000 
#
# Total GULP energy -297318.950883 kJ/mol
# GULP energy per Si atom -12388.289620 kJ/mol
# Density = 2.134809 g / cm^3
# Si number density = 21.396786 Si / 1000 Ang^3
#
#
#
# Elastic Constant Matrix: (Units=GPa)
#
#
# Indices 1 2 3 4 5 6 
#
# 1 126.0135 37.4401 29.7814 0.0000 0.0000 0.0000
# 2 37.4401 117.4453 45.8121 0.0000 0.0000 0.0000
# 3 29.7814 45.8121 110.5288 0.0000 0.0000 0.0000
# 4 0.0000 0.0000 0.0000 31.1907 0.0000 0.0000
# 5 0.0000 0.0000 0.0000 0.0000 31.7001 0.0000
# 6 0.0000 0.0000 0.0000 0.0000 0.0000 23.2844
#
#
#
# Elastic Compliance Matrix: (Units=1/GPa)
#
#
# Indices 1 2 3 4 5 6 
#
# 1 0.008961 -0.002284 -0.001468 0.000000 0.000000 0.000000
# 2 -0.002284 0.010739 -0.003836 0.000000 0.000000 0.000000
# 3 -0.001468 -0.003836 0.011033 0.000000 0.000000 0.000000
# 4 0.000000 0.000000 0.000000 0.032061 0.000000 0.000000
# 5 0.000000 0.000000 0.000000 0.000000 0.031546 0.000000
# 6 0.000000 0.000000 0.000000 0.000000 0.000000 0.042947
#
#
# Mechanical properties :
#
#
# Convention : Reuss Voigt Hill
#
# Bulk Modulus (GPa) = 64.27711 64.45054 64.36383
# Shear Modulus (GPa) = 31.71628 33.29862 32.50745
#
# Velocity S-wave (km/s) = 3.85423 3.94921 3.90201
# Velocity P-wave (km/s) = 7.06488 7.14017 7.10262
#
# Compressibility (1/GPa) = 0.01555764
#
# Stress axis : x y z
#
# Youngs Moduli (GPa) = 111.59215 93.11908 90.63960
#
# Poissons Ratio (x) = 0.21270 0.13304
# Poissons Ratio (y) = 0.25490 0.34766
# Poissons Ratio (z) = 0.16380 0.35717
#
# Static dielectric constant tensor:
#      x y z
#    x 4.062080 0.000000 0.000000 
#    y 0.000000 4.296490 0.000000 
#    z 0.000000 0.000000 3.625510 
# 
# 
# High freq. dielectric constant tensor:
#      x y z
#    x 1.837760 0.000000 0.000000 
#    y 0.000000 1.847400 0.000000 
#    z 0.000000 0.000000 1.817580 
# 
# From -- ./inp_files/3632.got.cif
#   From: 2010.03.12/outbox.cif.g09.slc.cpg/sg26_2_cif.got.tgz:3632.got - 2010.04.14 03:33:09.
