data_PCOD8167864
_publ_section_title
;
Structure prediction by ZEFSAII (Michael W. Deem and Ramdas Pophale) SiO2 
 PCOD8167864
Probable space group: P C C 2
;
_chemical_formula_sum "Si O2"
_cell_formula_units_Z 16
_cell_length_a 6.167020
_cell_length_b 12.255899
_cell_length_c 9.523809
_cell_angle_alpha 90.000000
_cell_angle_beta 90.000000
_cell_angle_gamma 90.000000
_cell_volume 719.832096
_symmetry_space_group_name_H-M "P C C 2"
_symmetry_group_IT_number 27
_symmetry_cell_setting 'orthorhombic'
loop_
_space_group_symop_operation_xyz
x,y,z
-x,-y,z
-x,y,1/2+z
x,-y,1/2+z
loop_
_atom_site_type_symbol
_atom_site_label
_atom_site_fract_x
_atom_site_fract_y
_atom_site_fract_z
Si Si1 0.500000 0.000000 0.806551
Si Si2 0.383192 0.611404 0.893987
Si Si3 0.714862 0.688755 0.114208
Si Si4 0.791594 0.079291 0.556749
Si Si5 0.000000 0.500000 0.029169
O O1 0.650021 0.067885 0.699017
O O2 0.343075 0.066692 0.912103
O O3 0.500000 0.500000 0.845865
O O4 0.377949 0.701050 0.770759
O O5 0.139043 0.582659 0.936069
O O6 0.507545 0.673821 0.016258
O O7 0.858610 0.792847 0.064589
O O8 0.851090 0.577061 0.123778
O O9 0.000000 0.000000 0.557655
#
# Coordination Sequence:
#
# PCOD8167864 Si02
#       5
#     2   4   4   4   2
#     4  10  24  44  64  94 126 164 218 274 330 390
#     4  10  21  39  61  92 128 164 205 253 312 378
#     4  11  23  40  64  91 125 164 207 257 312 380
#     4  11  24  43  67  94 127 170 219 271 330 390
#     4  10  22  36  62  96 128 162 204 250 308 376
#
# _framework density 22.227406999999999
#
# number of rings (size 3 to 8) (size 9 to 14) (size 15 to 20)
#    0.000    1.500    0.000    5.250    0.000   10.000 
#    0.000    0.000    0.000    0.000    0.000    0.000 
#    0.000    0.000    0.000    0.000    0.000    0.000 
#
# Total GULP energy -198260.351026 kJ/mol
# GULP energy per Si atom -12391.271939 kJ/mol
# Density = 2.217682 g / cm^3
# Si number density = 22.227407 Si / 1000 Ang^3
#
#
#
# Elastic Constant Matrix: (Units=GPa)
#
#
# Indices 1 2 3 4 5 6 
#
# 1 118.0403 38.6173 52.7097 0.0000 0.0000 0.0000
# 2 38.6173 94.3601 34.7084 0.0000 0.0000 0.0000
# 3 52.7097 34.7084 148.1356 0.0000 0.0000 0.0000
# 4 0.0000 0.0000 0.0000 -8.5045 0.0000 0.0000
# 5 0.0000 0.0000 0.0000 0.0000 20.5589 0.0000
# 6 0.0000 0.0000 0.0000 0.0000 0.0000 30.9036
#
#
#
# Elastic Compliance Matrix: (Units=1/GPa)
#
#
# Indices 1 2 3 4 5 6 
#
# 1 0.010955 -0.003337 -0.003116 0.000000 0.000000 0.000000
# 2 -0.003337 0.012614 -0.001768 0.000000 0.000000 0.000000
# 3 -0.003116 -0.001768 0.008274 0.000000 0.000000 0.000000
# 4 0.000000 0.000000 0.000000 -0.117584 0.000000 0.000000
# 5 0.000000 0.000000 0.000000 0.000000 0.048641 0.000000
# 6 0.000000 0.000000 0.000000 0.000000 0.000000 0.032359
#
#
# Mechanical properties :
#
#
# Convention : Reuss Voigt Hill
#
# Bulk Modulus (GPa) = 64.93597 68.06741 66.50169
# Shear Modulus (GPa) = 297.03740 24.22498 160.63119
#
# Velocity S-wave (km/s) = 11.57263 3.30490 8.51023
# Velocity P-wave (km/s) = 14.41685 6.72702 11.24941
#
# Compressibility (1/GPa) = 0.01539979
#
# Stress axis : x y z
#
# Youngs Moduli (GPa) = 91.28343 79.27850 120.86666
#
# Poissons Ratio (x) = 0.26456 0.37663
# Poissons Ratio (y) = 0.30463 0.21369
# Poissons Ratio (z) = 0.28445 0.14016
#
# Static dielectric constant tensor:
#      x y z
#    x 4.103490 0.000000 0.000000 
#    y 0.000000 4.037250 0.000000 
#    z 0.000000 0.000000 4.089500 
# 
# 
# High freq. dielectric constant tensor:
#      x y z
#    x 1.870090 0.000000 0.000000 
#    y 0.000000 1.870080 0.000000 
#    z 0.000000 0.000000 1.891390 
# 
# From -- ./inp_files/836.got.cif
#   From: 2010.03.12/outbox.cif.g09.slc.cpg/sg27_1_cif.got.tgz:836.got - 2010.04.14 03:36:05.
