data_PCOD8167473
_publ_section_title
;
Structure prediction by ZEFSAII (Michael W. Deem and Ramdas Pophale) SiO2 
 PCOD8167473
Probable space group: P M C 21
;
_chemical_formula_sum "Si O2"
_cell_formula_units_Z 32
_cell_length_a 9.535762
_cell_length_b 29.355664
_cell_length_c 5.392138
_cell_angle_alpha 90.000000
_cell_angle_beta 90.000000
_cell_angle_gamma 90.000000
_cell_volume 1509.413778
_symmetry_space_group_name_H-M "P M C 21"
_symmetry_group_IT_number 26
_symmetry_cell_setting 'orthorhombic'
loop_
_space_group_symop_operation_xyz
x,y,z
-x,-y,1/2+z
-x,y,z
x,-y,1/2+z
loop_
_atom_site_type_symbol
_atom_site_label
_atom_site_fract_x
_atom_site_fract_y
_atom_site_fract_z
Si Si1 0.667183 0.372400 0.015750
Si Si2 0.666892 0.475921 0.998960
Si Si3 0.651934 0.762360 0.765734
Si Si4 0.152778 0.808461 0.447109
Si Si5 0.338132 0.027596 0.995141
Si Si6 0.345956 0.147259 0.548639
Si Si7 0.154582 0.900289 0.718179
Si Si8 0.662848 0.326709 0.518446
O O1 0.500000 0.370031 0.016478
O O2 0.726606 0.350642 0.271167
O O3 0.720555 0.424107 0.998387
O O4 0.729326 0.345041 0.775902
O O5 0.500000 0.478190 0.999591
O O6 0.725033 0.499869 0.748664
O O7 0.500000 0.746071 0.651886
O O8 0.778369 0.762880 0.566695
O O9 0.631545 0.814755 0.839834
O O10 0.690282 0.727848 0.990153
O O11 0.261868 0.827011 0.254858
O O12 0.128199 0.848373 0.644289
O O13 0.000000 0.795487 0.332835
O O14 0.500000 0.043403 0.000204
O O15 0.234799 0.071206 0.004341
O O16 0.302823 0.998525 0.241801
O O17 0.500000 0.130047 0.639280
O O18 0.259278 0.102675 0.455729
O O19 0.000000 0.921610 0.780532
O O20 0.500000 0.338834 0.530256
#
# Coordination Sequence:
#
# PCOD8167473 Si02
#       8
#     4   4   4   4   4   4   4   4
#     4   9  16  25  37  57  84 120 163 215 267 310
#     4   9  15  22  33  49  75 113 161 210 255 310
#     4   9  19  33  50  74 100 135 179 225 271 321
#     4  10  21  36  55  80 110 142 180 228 276 332
#     4  10  23  42  63  90 121 154 192 233 280 336
#     4  10  20  34  56  81 107 140 182 229 276 328
#     4  10  22  39  58  83 114 147 186 230 279 331
#     4   9  17  27  42  62  90 121 163 216 264 314
#
# _framework density 21.200282000000001
#
# number of rings (size 3 to 8) (size 9 to 14) (size 15 to 20)
#    0.000    2.500    0.000    1.875    3.500    5.500 
#    0.000    0.000    0.000    0.000    0.000    0.000 
#    0.000    0.000    0.000    0.000    0.000   12.500 
#
# Total GULP energy -396431.113702 kJ/mol
# GULP energy per Si atom -12388.472303 kJ/mol
# Density = 2.115203 g / cm^3
# Si number density = 21.200282 Si / 1000 Ang^3
#
#
#
# Elastic Constant Matrix: (Units=GPa)
#
#
# Indices 1 2 3 4 5 6 
#
# 1 98.0115 -0.6008 9.3095 0.0000 0.0000 0.0000
# 2 -0.6008 59.4636 5.2981 0.0000 0.0000 0.0000
# 3 9.3095 5.2981 99.6023 0.0000 0.0000 0.0000
# 4 0.0000 0.0000 0.0000 32.3683 0.0000 0.0000
# 5 0.0000 0.0000 0.0000 0.0000 12.3528 0.0000
# 6 0.0000 0.0000 0.0000 0.0000 0.0000 -115.6405
#
#
#
# Elastic Compliance Matrix: (Units=1/GPa)
#
#
# Indices 1 2 3 4 5 6 
#
# 1 0.010296 0.000191 -0.000973 0.000000 0.000000 0.000000
# 2 0.000191 0.016901 -0.000917 0.000000 0.000000 0.000000
# 3 -0.000973 -0.000917 0.010180 0.000000 0.000000 0.000000
# 4 0.000000 0.000000 0.000000 0.030894 0.000000 0.000000
# 5 0.000000 0.000000 0.000000 0.000000 0.080953 0.000000
# 6 0.000000 0.000000 0.000000 0.000000 0.000000 -0.008647
#
#
# Mechanical properties :
#
#
# Convention : Reuss Voigt Hill
#
# Bulk Modulus (GPa) = 29.42965 31.67679 30.55322
# Shear Modulus (GPa) = 32.19565 2.02083 17.10824
#
# Velocity S-wave (km/s) = 3.90120 0.97738 2.84382
# Velocity P-wave (km/s) = 5.84845 4.03086 5.02256
#
# Compressibility (1/GPa) = 0.03397934
#
# Stress axis : x y z
#
# Youngs Moduli (GPa) = 97.12108 59.16940 98.23576
#
# Poissons Ratio (x) = -0.01128 0.09554
# Poissons Ratio (y) = -0.01852 0.09006
# Poissons Ratio (z) = 0.09445 0.05425
#
# Static dielectric constant tensor:
#      x y z
#    x 3.906750 0.000000 0.000000 
#    y 0.000000 3.957070 0.000000 
#    z 0.000000 0.000000 3.966210 
# 
# 
# High freq. dielectric constant tensor:
#      x y z
#    x 1.781530 0.000000 0.000000 
#    y 0.000000 1.822900 0.000000 
#    z 0.000000 0.000000 1.831200 
# 
# From -- ./inp_files/231.got.cif
#   From: 2010.03.12/outbox.cif.g09.slc.cpg/sg26_1_cif.got.tgz:231.got - 2010.04.14 03:33:09.
