data_PCOD8167301
_publ_section_title
;
Structure prediction by ZEFSAII (Michael W. Deem and Ramdas Pophale) SiO2 
 PCOD8167301
Probable space group: P M C 21
;
_chemical_formula_sum "Si O2"
_cell_formula_units_Z 24
_cell_length_a 8.675589
_cell_length_b 15.385272
_cell_length_c 9.451886
_cell_angle_alpha 90.000000
_cell_angle_beta 90.000000
_cell_angle_gamma 90.000000
_cell_volume 1261.602738
_symmetry_space_group_name_H-M "P M C 21"
_symmetry_group_IT_number 26
_symmetry_cell_setting 'orthorhombic'
loop_
_space_group_symop_operation_xyz
x,y,z
-x,-y,1/2+z
-x,y,z
x,-y,1/2+z
loop_
_atom_site_type_symbol
_atom_site_label
_atom_site_fract_x
_atom_site_fract_y
_atom_site_fract_z
Si Si1 0.182852 0.074800 0.128380
Si Si2 0.177876 0.420851 0.627407
Si Si3 0.681180 0.763114 0.131892
Si Si4 0.824141 0.578792 0.452934
Si Si5 0.184040 0.769856 0.434022
Si Si6 0.183531 0.089189 0.449684
O O1 0.242436 0.073905 0.289326
O O2 0.000000 0.075249 0.124406
O O3 0.244674 0.160585 0.047756
O O4 0.244318 0.990166 0.046136
O O5 0.273501 0.334923 0.592121
O O6 0.191548 0.446386 0.790202
O O7 0.254578 0.501669 0.542658
O O8 0.000000 0.403912 0.584085
O O9 0.500000 0.771260 0.145724
O O10 0.756165 0.794888 0.278694
O O11 0.742135 0.822607 0.005197
O O12 0.751069 0.674577 0.479399
O O13 0.000000 0.583226 0.503306
O O14 0.000000 0.767691 0.422698
O O15 0.000000 0.097157 0.454636
#
# Coordination Sequence:
#
# PCOD8167301 Si02
#       6
#     4   4   4   4   4   4
#     4   9  18  32  57  85 105 128 166 211 261 313
#     4   9  17  32  52  75 101 132 168 213 259 303
#     4  11  22  35  50  73 104 143 181 213 251 301
#     4   8  15  27  49  76 100 126 162 204 251 299
#     4   9  17  34  57  81 105 132 167 213 261 310
#     4  10  19  34  55  80 105 133 168 212 259 308
#
# _framework density 19.023420999999999
#
# number of rings (size 3 to 8) (size 9 to 14) (size 15 to 20)
#    0.000    2.667    0.000    3.500    0.000    4.000 
#    0.000   12.500    0.000    0.000    0.000    0.000 
#    0.000    0.000    0.000    0.000    0.000    0.000 
#
# Total GULP energy -297549.521396 kJ/mol
# GULP energy per Si atom -12397.896725 kJ/mol
# Density = 1.898012 g / cm^3
# Si number density = 19.023421 Si / 1000 Ang^3
#
#
#
# Elastic Constant Matrix: (Units=GPa)
#
#
# Indices 1 2 3 4 5 6 
#
# 1 36.8260 20.8171 20.3427 0.0000 0.0000 0.0000
# 2 20.8171 132.1133 82.1876 0.0000 0.0000 0.0000
# 3 20.3427 82.1876 118.7641 0.0000 0.0000 0.0000
# 4 0.0000 0.0000 0.0000 46.6401 0.0000 0.0000
# 5 0.0000 0.0000 0.0000 0.0000 6.2810 0.0000
# 6 0.0000 0.0000 0.0000 0.0000 0.0000 5.6226
#
#
#
# Elastic Compliance Matrix: (Units=1/GPa)
#
#
# Indices 1 2 3 4 5 6 
#
# 1 0.030546 -0.002736 -0.003339 0.000000 0.000000 0.000000
# 2 -0.002736 0.013536 -0.008899 0.000000 0.000000 0.000000
# 3 -0.003339 -0.008899 0.015150 0.000000 0.000000 0.000000
# 4 0.000000 0.000000 0.000000 0.021441 0.000000 0.000000
# 5 0.000000 0.000000 0.000000 0.000000 0.159210 0.000000
# 6 0.000000 0.000000 0.000000 0.000000 0.000000 0.177854
#
#
# Mechanical properties :
#
#
# Convention : Reuss Voigt Hill
#
# Bulk Modulus (GPa) = 34.14717 59.37758 46.76238
# Shear Modulus (GPa) = 10.93026 22.66580 16.79803
#
# Velocity S-wave (km/s) = 2.39962 3.45551 2.97479
# Velocity P-wave (km/s) = 5.06622 6.87033 6.03606
#
# Compressibility (1/GPa) = 0.02928500
#
# Stress axis : x y z
#
# Youngs Moduli (GPa) = 32.73790 73.87518 66.00616
#
# Poissons Ratio (x) = 0.20213 0.22037
# Poissons Ratio (y) = 0.08958 0.58738
# Poissons Ratio (z) = 0.10930 0.65740
#
# Static dielectric constant tensor:
#      x y z
#    x 2.984150 0.000000 0.000000 
#    y 0.000000 3.819170 0.000000 
#    z 0.000000 0.000000 3.559950 
# 
# 
# High freq. dielectric constant tensor:
#      x y z
#    x 1.687650 0.000000 0.000000 
#    y 0.000000 1.756230 0.000000 
#    z 0.000000 0.000000 1.739970 
# 
# From -- ./inp_files/1443.got.cif
#   From: 2010.03.12/outbox.cif.g09.slc.cpg/sg26_1_cif.got.tgz:1443.got - 2010.04.14 03:33:09.
