data_PCOD8167923
_publ_section_title
;
Structure prediction by ZEFSAII (Michael W. Deem and Ramdas Pophale) SiO2 
 PCOD8167923
Probable space group: P C C 2
;
_chemical_formula_sum "Si O2"
_cell_formula_units_Z 14
_cell_length_a 5.289897
_cell_length_b 5.250587
_cell_length_c 19.432177
_cell_angle_alpha 90.000000
_cell_angle_beta 90.000000
_cell_angle_gamma 90.000000
_cell_volume 539.729968
_symmetry_space_group_name_H-M "P C C 2"
_symmetry_group_IT_number 27
_symmetry_cell_setting 'orthorhombic'
loop_
_space_group_symop_operation_xyz
x,y,z
-x,-y,z
-x,y,1/2+z
x,-y,1/2+z
loop_
_atom_site_type_symbol
_atom_site_label
_atom_site_fract_x
_atom_site_fract_y
_atom_site_fract_z
Si Si1 0.169470 0.251087 0.257370
Si Si2 0.500000 0.000000 0.861010
Si Si3 0.261309 0.343620 0.960125
Si Si4 0.163199 0.749465 0.606999
O O1 0.392318 0.228138 0.312989
O O2 0.303323 0.262342 0.181143
O O3 0.000000 0.500000 0.272471
O O4 0.000000 0.000000 0.261525
O O5 0.266482 0.101098 0.908650
O O6 0.500000 0.500000 0.933446
O O7 0.000000 0.500000 0.953906
O O8 0.332465 0.251391 0.038044
O O9 0.000000 0.500000 0.601342
O O10 0.000000 0.000000 0.602892
#
# Coordination Sequence:
#
# PCOD8167923 Si02
#       4
#     4   2   4   4
#     4  10  25  49  76 108 155 203 262 323 393 466
#     4  12  30  44  78 116 166 206 260 318 408 486
#     4  11  29  50  77 113 156 205 264 322 396 469
#     4   9  21  48  77 108 146 200 264 327 380 459
#
# _framework density 25.938894999999999
#
# number of rings (size 3 to 8) (size 9 to 14) (size 15 to 20)
#    0.000    1.714    0.000    0.000   16.000    1.143 
#   15.429    0.000    0.000    0.000    0.000    0.000 
#    0.000    0.000    0.000    0.000    0.000    0.000 
#
# Total GULP energy -173449.273407 kJ/mol
# GULP energy per Si atom -12389.233815 kJ/mol
# Density = 2.587986 g / cm^3
# Si number density = 25.938895 Si / 1000 Ang^3
#
#
#
# Elastic Constant Matrix: (Units=GPa)
#
#
# Indices 1 2 3 4 5 6 
#
# 1 107.1889 40.7715 62.6179 0.0000 0.0000 0.0000
# 2 40.7715 162.0904 58.8848 0.0000 0.0000 0.0000
# 3 62.6179 58.8848 258.6074 0.0000 0.0000 0.0000
# 4 0.0000 0.0000 0.0000 32.9838 0.0000 0.0000
# 5 0.0000 0.0000 0.0000 0.0000 43.0126 0.0000
# 6 0.0000 0.0000 0.0000 0.0000 0.0000 36.1865
#
#
#
# Elastic Compliance Matrix: (Units=1/GPa)
#
#
# Indices 1 2 3 4 5 6 
#
# 1 0.011455 -0.002043 -0.002309 0.000000 0.000000 0.000000
# 2 -0.002043 0.007090 -0.001120 0.000000 0.000000 0.000000
# 3 -0.002309 -0.001120 0.004681 0.000000 0.000000 0.000000
# 4 0.000000 0.000000 0.000000 0.030318 0.000000 0.000000
# 5 0.000000 0.000000 0.000000 0.000000 0.023249 0.000000
# 6 0.000000 0.000000 0.000000 0.000000 0.000000 0.027635
#
#
# Mechanical properties :
#
#
# Convention : Reuss Voigt Hill
#
# Bulk Modulus (GPa) = 81.40827 94.71501 88.06164
# Shear Modulus (GPa) = 41.85368 46.81073 44.33221
#
# Velocity S-wave (km/s) = 4.02126 4.25273 4.13861
# Velocity P-wave (km/s) = 7.28103 7.79155 7.54061
#
# Compressibility (1/GPa) = 0.01228376
#
# Stress axis : x y z
#
# Youngs Moduli (GPa) = 87.29895 141.04367 213.63808
#
# Poissons Ratio (x) = 0.28811 0.49319
# Poissons Ratio (y) = 0.17832 0.23923
# Poissons Ratio (z) = 0.20153 0.15794
#
# Static dielectric constant tensor:
#      x y z
#    x 3.990180 0.000000 0.000000 
#    y 0.000000 5.029920 0.000000 
#    z 0.000000 0.000000 6.047260 
# 
# 
# High freq. dielectric constant tensor:
#      x y z
#    x 1.989020 0.000000 0.000000 
#    y 0.000000 2.056760 0.000000 
#    z 0.000000 0.000000 2.080550 
# 
# From -- ./inp_files/4541.got.cif
#   From: 2010.03.12/outbox.cif.g09.slc.cpg/sg27_3_cif.got.tgz:4541.got - 2010.04.14 03:36:05.
