data_PCOD8167294
_publ_section_title
;
Structure prediction by ZEFSAII (Michael W. Deem and Ramdas Pophale) SiO2 
 PCOD8167294
Probable space group: P M C 21
;
_chemical_formula_sum "Si O2"
_cell_formula_units_Z 28
_cell_length_a 13.262885
_cell_length_b 19.947664
_cell_length_c 5.220588
_cell_angle_alpha 90.000000
_cell_angle_beta 90.000000
_cell_angle_gamma 90.000000
_cell_volume 1381.177418
_symmetry_space_group_name_H-M "P M C 21"
_symmetry_group_IT_number 26
_symmetry_cell_setting 'orthorhombic'
loop_
_space_group_symop_operation_xyz
x,y,z
-x,-y,1/2+z
-x,y,z
x,-y,1/2+z
loop_
_atom_site_type_symbol
_atom_site_label
_atom_site_fract_x
_atom_site_fract_y
_atom_site_fract_z
Si Si1 0.386299 0.727567 0.653250
Si Si2 0.612240 0.413266 0.894911
Si Si3 0.216762 0.465298 0.169665
Si Si4 0.116093 0.957004 0.633808
Si Si5 0.116272 0.753678 0.118094
Si Si6 0.744055 0.354309 0.503419
Si Si7 0.201035 0.816575 0.604317
O O1 0.500000 0.754571 0.697939
O O2 0.387424 0.666538 0.452220
O O3 0.342242 0.697835 0.917061
O O4 0.315974 0.790164 0.565785
O O5 0.500000 0.438177 0.830948
O O6 0.690648 0.416844 0.653704
O O7 0.659330 0.459319 0.123254
O O8 0.172914 0.515014 0.391380
O O9 0.194035 0.389099 0.266115
O O10 0.194434 0.895634 0.660442
O O11 0.000000 0.931288 0.646548
O O12 0.138131 0.006655 0.867039
O O13 0.140327 0.806646 0.339933
O O14 0.000000 0.736951 0.115843
O O15 0.176043 0.684857 0.179731
O O16 0.148593 0.778068 0.837373
#
# Coordination Sequence:
#
# PCOD8167294 Si02
#       7
#     4   4   4   4   4   4   4
#     4   9  19  34  55  83 113 148 188 232 282 339
#     4  10  19  34  53  77 110 144 179 224 277 336
#     4  11  22  37  52  75 104 143 184 228 274 334
#     4  10  20  34  54  80 114 154 191 229 279 335
#     4  11  22  36  59  89 117 144 184 239 294 340
#     4  10  20  36  58  81 112 148 183 231 291 338
#     4  11  21  37  58  87 118 151 190 233 284 338
#
# _framework density 20.272558
#
# number of rings (size 3 to 8) (size 9 to 14) (size 15 to 20)
#    0.000    1.714    2.857    2.571    0.000    2.286 
#    0.000    0.000    0.000    1.714    0.000    0.000 
#    0.000    0.000    0.000    0.000    0.000    0.000 
#
# Total GULP energy -346872.482056 kJ/mol
# GULP energy per Si atom -12388.302931 kJ/mol
# Density = 2.022642 g / cm^3
# Si number density = 20.272558 Si / 1000 Ang^3
#
#
#
# Elastic Constant Matrix: (Units=GPa)
#
#
# Indices 1 2 3 4 5 6 
#
# 1 83.1387 20.8214 20.9726 0.0000 0.0000 0.0000
# 2 20.8214 68.4672 10.0728 0.0000 0.0000 0.0000
# 3 20.9726 10.0728 94.8569 0.0000 0.0000 0.0000
# 4 0.0000 0.0000 0.0000 29.3259 0.0000 0.0000
# 5 0.0000 0.0000 0.0000 0.0000 17.9446 0.0000
# 6 0.0000 0.0000 0.0000 0.0000 0.0000 22.9230
#
#
#
# Elastic Compliance Matrix: (Units=1/GPa)
#
#
# Indices 1 2 3 4 5 6 
#
# 1 0.013629 -0.003760 -0.002614 0.000000 0.000000 0.000000
# 2 -0.003760 0.015875 -0.000854 0.000000 0.000000 0.000000
# 3 -0.002614 -0.000854 0.011211 0.000000 0.000000 0.000000
# 4 0.000000 0.000000 0.000000 0.034100 0.000000 0.000000
# 5 0.000000 0.000000 0.000000 0.000000 0.055727 0.000000
# 6 0.000000 0.000000 0.000000 0.000000 0.000000 0.043624
#
#
# Mechanical properties :
#
#
# Convention : Reuss Voigt Hill
#
# Bulk Modulus (GPa) = 38.08423 38.91070 38.49747
# Shear Modulus (GPa) = 25.33241 27.01177 26.17209
#
# Velocity S-wave (km/s) = 3.53879 3.65421 3.59696
# Velocity P-wave (km/s) = 5.96022 6.08603 6.02346
#
# Compressibility (1/GPa) = 0.02625759
#
# Stress axis : x y z
#
# Youngs Moduli (GPa) = 73.37175 62.99325 89.19903
#
# Poissons Ratio (x) = 0.23686 0.23317
# Poissons Ratio (y) = 0.27589 0.07621
# Poissons Ratio (z) = 0.19180 0.05382
#
# Static dielectric constant tensor:
#      x y z
#    x 3.479470 0.000000 0.000000 
#    y 0.000000 3.580400 0.000000 
#    z 0.000000 0.000000 3.824030 
# 
# 
# High freq. dielectric constant tensor:
#      x y z
#    x 1.751220 0.000000 0.000000 
#    y 0.000000 1.779680 0.000000 
#    z 0.000000 0.000000 1.808330 
# 
# From -- ./inp_files/433.got.cif
#   From: 2010.03.12/outbox.cif.g09.slc.cpg/sg26_1_cif.got.tgz:433.got - 2010.04.14 03:33:09.
