data_PCOD8167776
_publ_section_title
;
Structure prediction by ZEFSAII (Michael W. Deem and Ramdas Pophale) SiO2 
 PCOD8167776
Probable space group: P M C 21
;
_chemical_formula_sum "Si O2"
_cell_formula_units_Z 32
_cell_length_a 9.121835
_cell_length_b 20.962963
_cell_length_c 9.642080
_cell_angle_alpha 90.000000
_cell_angle_beta 90.000000
_cell_angle_gamma 90.000000
_cell_volume 1843.765187
_symmetry_space_group_name_H-M "P M C 21"
_symmetry_group_IT_number 26
_symmetry_cell_setting 'orthorhombic'
loop_
_space_group_symop_operation_xyz
x,y,z
-x,-y,1/2+z
-x,y,z
x,-y,1/2+z
loop_
_atom_site_type_symbol
_atom_site_label
_atom_site_fract_x
_atom_site_fract_y
_atom_site_fract_z
Si Si1 0.171543 0.190916 0.463580
Si Si2 0.338059 0.323355 0.165709
Si Si3 0.170726 0.051342 0.452350
Si Si4 0.175551 0.063020 0.138856
Si Si5 0.826503 0.562378 0.999095
Si Si6 0.665720 0.688234 0.995354
Si Si7 0.828221 0.554637 0.681645
Si Si8 0.673000 0.185279 0.171401
O O1 0.200062 0.120096 0.526867
O O2 0.255423 0.246672 0.548420
O O3 0.231539 0.186962 0.309324
O O4 0.000000 0.207872 0.459990
O O5 0.500000 0.346240 0.124101
O O6 0.327556 0.312851 0.330014
O O7 0.229674 0.379038 0.116400
O O8 0.303382 0.254286 0.095676
O O9 0.231884 0.049223 0.295408
O O10 0.000000 0.038607 0.441724
O O11 0.237329 0.994916 0.545540
O O12 0.257904 0.127075 0.082541
O O13 0.000000 0.072118 0.130674
O O14 0.750183 0.626644 0.054547
O O15 0.767003 0.504910 0.094325
O O16 0.000000 0.571667 0.011129
O O17 0.779117 0.547065 0.841180
O O18 0.500000 0.687702 0.051424
O O19 0.000000 0.557259 0.666152
O O20 0.500000 0.175149 0.202455
#
# Coordination Sequence:
#
# PCOD8167776 Si02
#       8
#     4   4   4   4   4   4   4   4
#     4   9  15  25  42  63  85 112 142 176 214 252
#     4   8  15  26  40  59  84 109 136 170 209 246
#     4   8  15  26  43  64  85 108 138 172 209 250
#     4   9  16  28  44  63  85 111 140 173 210 252
#     4   9  17  29  44  64  87 112 139 173 212 251
#     4   9  16  26  41  63  87 111 140 177 212 248
#     4   9  17  28  44  64  86 109 138 173 210 249
#     4   9  16  26  40  62  87 110 139 178 214 248
#
# _framework density 17.355788
#
# number of rings (size 3 to 8) (size 9 to 14) (size 15 to 20)
#    0.000    3.250    0.000    2.625    0.000    4.000 
#    0.000    3.125    0.000    1.500    0.000    8.750 
#    0.000    0.000    0.000    0.000    0.000    0.000 
#
# Total GULP energy -396460.643445 kJ/mol
# GULP energy per Si atom -12389.395108 kJ/mol
# Density = 1.731629 g / cm^3
# Si number density = 17.355788 Si / 1000 Ang^3
#
#
#
# Elastic Constant Matrix: (Units=GPa)
#
#
# Indices 1 2 3 4 5 6 
#
# 1 51.8453 40.1073 11.7193 0.0000 0.0000 0.0000
# 2 40.1073 121.7350 21.9093 0.0000 0.0000 0.0000
# 3 11.7193 21.9093 24.9691 0.0000 0.0000 0.0000
# 4 0.0000 0.0000 0.0000 24.3510 0.0000 0.0000
# 5 0.0000 0.0000 0.0000 0.0000 8.4794 0.0000
# 6 0.0000 0.0000 0.0000 0.0000 0.0000 25.1814
#
#
#
# Elastic Compliance Matrix: (Units=1/GPa)
#
#
# Indices 1 2 3 4 5 6 
#
# 1 0.026548 -0.007724 -0.005683 0.000000 0.000000 0.000000
# 2 -0.007724 0.012002 -0.006906 0.000000 0.000000 0.000000
# 3 -0.005683 -0.006906 0.048777 0.000000 0.000000 0.000000
# 4 0.000000 0.000000 0.000000 0.041066 0.000000 0.000000
# 5 0.000000 0.000000 0.000000 0.000000 0.117933 0.000000
# 6 0.000000 0.000000 0.000000 0.000000 0.000000 0.039712
#
#
# Mechanical properties :
#
#
# Convention : Reuss Voigt Hill
#
# Bulk Modulus (GPa) = 21.41295 38.44680 29.92988
# Shear Modulus (GPa) = 14.61002 19.92326 17.26664
#
# Velocity S-wave (km/s) = 2.90452 3.39179 3.15757
# Velocity P-wave (km/s) = 4.85929 6.12693 5.52955
#
# Compressibility (1/GPa) = 0.04670072
#
# Stress axis : x y z
#
# Youngs Moduli (GPa) = 37.66788 83.31801 20.50157
#
# Poissons Ratio (x) = 0.64353 0.11651
# Poissons Ratio (y) = 0.29094 0.14159
# Poissons Ratio (z) = 0.21407 0.57542
#
# Static dielectric constant tensor:
#      x y z
#    x 3.173000 0.000000 0.000000 
#    y 0.000000 3.940290 0.000000 
#    z 0.000000 0.000000 2.813070 
# 
# 
# High freq. dielectric constant tensor:
#      x y z
#    x 1.661900 0.000000 0.000000 
#    y 0.000000 1.696550 0.000000 
#    z 0.000000 0.000000 1.598270 
# 
# From -- ./inp_files/3121.got.cif
#   From: 2010.03.12/outbox.cif.g09.slc.cpg/sg26_2_cif.got.tgz:3121.got - 2010.04.14 03:33:09.
