data_PCOD8167877
_publ_section_title
;
Structure prediction by ZEFSAII (Michael W. Deem and Ramdas Pophale) SiO2 
 PCOD8167877
Probable space group: P C C 2
;
_chemical_formula_sum "Si O2"
_cell_formula_units_Z 24
_cell_length_a 10.457821
_cell_length_b 11.641644
_cell_length_c 9.165207
_cell_angle_alpha 90.000000
_cell_angle_beta 90.000000
_cell_angle_gamma 90.000000
_cell_volume 1115.829391
_symmetry_space_group_name_H-M "P C C 2"
_symmetry_group_IT_number 27
_symmetry_cell_setting 'orthorhombic'
loop_
_space_group_symop_operation_xyz
x,y,z
-x,-y,z
-x,y,1/2+z
x,-y,1/2+z
loop_
_atom_site_type_symbol
_atom_site_label
_atom_site_fract_x
_atom_site_fract_y
_atom_site_fract_z
Si Si1 0.531046 0.754179 0.596830
Si Si2 0.422715 0.615627 0.351953
Si Si3 0.274177 0.849211 0.694101
Si Si4 0.644633 0.033716 0.975405
Si Si5 0.921364 0.642907 0.207618
Si Si6 0.138865 0.576932 0.389809
O O1 0.498765 0.716572 0.433311
O O2 0.596793 0.648779 0.682607
O O3 0.403936 0.777216 0.690764
O O4 0.627230 0.861990 0.591096
O O5 0.500000 0.500000 0.369181
O O6 0.283517 0.611320 0.422683
O O7 0.152906 0.764130 0.700387
O O8 0.275669 0.931128 0.550972
O O9 0.271709 0.928549 0.837534
O O10 0.500000 0.000000 0.926737
O O11 0.860547 0.552726 0.324508
O O12 0.065557 0.660192 0.272650
O O13 0.929277 0.586662 0.047436
#
# Coordination Sequence:
#
# PCOD8167877 Si02
#       6
#     4   4   4   4   4   4
#     4  11  22  39  62  99 140 178 220 293 366 410
#     4  12  25  39  64 105 145 180 227 292 356 427
#     4  11  22  41  65  99 133 179 236 286 345 417
#     4  10  22  37  65  98 135 179 231 291 360 412
#     4  11  24  45  68  99 136 187 235 281 341 425
#     4  11  25  43  68  98 140 184 233 277 352 427
#
# _framework density 21.508665000000001
#
# number of rings (size 3 to 8) (size 9 to 14) (size 15 to 20)
#    0.000    1.000    3.333    5.000    4.667    1.333 
#    0.000    0.000    0.000    8.000    0.000    0.000 
#    0.000    0.000    0.000    0.000    0.000    0.000 
#
# Total GULP energy -297442.490343 kJ/mol
# GULP energy per Si atom -12393.437098 kJ/mol
# Density = 2.145971 g / cm^3
# Si number density = 21.508665 Si / 1000 Ang^3
#
#
#
# Elastic Constant Matrix: (Units=GPa)
#
#
# Indices 1 2 3 4 5 6 
#
# 1 61.9820 46.0544 35.5494 0.0000 0.0000 0.0000
# 2 46.0544 123.4809 49.7062 0.0000 0.0000 0.0000
# 3 35.5494 49.7062 134.4478 0.0000 0.0000 0.0000
# 4 0.0000 0.0000 0.0000 37.9042 0.0000 0.0000
# 5 0.0000 0.0000 0.0000 0.0000 21.2893 0.0000
# 6 0.0000 0.0000 0.0000 0.0000 0.0000 43.7198
#
#
#
# Elastic Compliance Matrix: (Units=1/GPa)
#
#
# Indices 1 2 3 4 5 6 
#
# 1 0.023654 -0.007407 -0.003516 0.000000 0.000000 0.000000
# 2 -0.007407 0.011834 -0.002417 0.000000 0.000000 0.000000
# 3 -0.003516 -0.002417 0.009261 0.000000 0.000000 0.000000
# 4 0.000000 0.000000 0.000000 0.026382 0.000000 0.000000
# 5 0.000000 0.000000 0.000000 0.000000 0.046972 0.000000
# 6 0.000000 0.000000 0.000000 0.000000 0.000000 0.022873
#
#
# Mechanical properties :
#
#
# Convention : Reuss Voigt Hill
#
# Bulk Modulus (GPa) = 55.34116 64.72563 60.03340
# Shear Modulus (GPa) = 28.78902 33.15602 30.97252
#
# Velocity S-wave (km/s) = 3.66250 3.93048 3.79885
# Velocity P-wave (km/s) = 6.60839 7.12435 6.87121
#
# Compressibility (1/GPa) = 0.01806973
#
# Stress axis : x y z
#
# Youngs Moduli (GPa) = 42.27661 84.50464 107.98074
#
# Poissons Ratio (x) = 0.62591 0.37966
# Poissons Ratio (y) = 0.31313 0.26094
# Poissons Ratio (z) = 0.14864 0.20421
#
# Static dielectric constant tensor:
#      x y z
#    x 3.691480 0.000000 0.000000 
#    y 0.000000 3.875920 0.000000 
#    z 0.000000 0.000000 3.908610 
# 
# 
# High freq. dielectric constant tensor:
#      x y z
#    x 1.811350 0.000000 0.000000 
#    y 0.000000 1.842910 0.000000 
#    z 0.000000 0.000000 1.862990 
# 
# From -- ./inp_files/1386.got.cif
#   From: 2010.03.12/outbox.cif.g09.slc.cpg/sg27_1_cif.got.tgz:1386.got - 2010.04.14 03:36:05.
