data_PCOD8167013
_publ_section_title
;
Structure prediction by ZEFSAII (Michael W. Deem and Ramdas Pophale) SiO2 
 PCOD8167013
Probable space group: P M M 2
;
_chemical_formula_sum "Si O2"
_cell_formula_units_Z 32
_cell_length_a 9.832599
_cell_length_b 9.336038
_cell_length_c 20.753577
_cell_angle_alpha 90.000000
_cell_angle_beta 90.000000
_cell_angle_gamma 90.000000
_cell_volume 1905.126856
_symmetry_space_group_name_H-M "P M M 2"
_symmetry_group_IT_number 25
_symmetry_cell_setting 'orthorhombic'
loop_
_space_group_symop_operation_xyz
x,y,z
-x,-y,z
-x,y,z
x,-y,z
loop_
_atom_site_type_symbol
_atom_site_label
_atom_site_fract_x
_atom_site_fract_y
_atom_site_fract_z
Si Si1 0.843464 0.331387 0.240790
Si Si2 0.157865 0.332491 0.609827
Si Si3 0.652150 0.329913 0.496111
Si Si4 0.161809 0.838671 0.977092
Si Si5 0.161487 0.160547 0.119062
Si Si6 0.652614 0.670225 0.353285
Si Si7 0.838328 0.161965 0.735084
Si Si8 0.837583 0.661721 0.857074
O O1 0.825946 0.500000 0.234036
O O2 0.783247 0.263887 0.175079
O O3 0.757944 0.268343 0.300803
O O4 0.000000 0.288034 0.252292
O O5 0.184926 0.500000 0.622887
O O6 0.241190 0.272411 0.548617
O O7 0.210665 0.245057 0.671471
O O8 0.000000 0.303449 0.595647
O O9 0.500000 0.276826 0.513709
O O10 0.655745 0.500000 0.495512
O O11 0.692965 0.273433 0.424740
O O12 0.219979 0.731824 0.922902
O O13 0.000000 0.836794 0.974977
O O14 0.213018 0.000000 0.962723
O O15 0.212804 0.788898 0.048181
O O16 0.000000 0.164244 0.119080
O O17 0.213686 0.000000 0.132835
O O18 0.500000 0.721470 0.335947
O O19 0.659160 0.500000 0.352913
O O20 0.781077 0.246278 0.797110
O O21 0.000000 0.159725 0.737659
O O22 0.780664 0.000000 0.734839
O O23 0.781855 0.500000 0.851924
O O24 0.000000 0.661896 0.856750
#
# Coordination Sequence:
#
# PCOD8167013 Si02
#       8
#     4   4   4   4   4   4   4   4
#     4   9  16  24  37  59  82 102 130 170 206 233
#     4   9  16  25  39  60  82 102 129 168 206 235
#     4   8  14  25  41  60  81 105 132 162 199 243
#     4   8  13  21  32  46  67  99 136 165 191 233
#     4   8  14  24  36  50  73 106 137 163 197 242
#     4   8  14  25  40  58  81 107 132 160 199 245
#     4   9  16  25  36  50  73 106 137 163 196 240
#     4   9  15  21  31  49  73 101 133 168 202 234
#
# _framework density 16.796782
#
# number of rings (size 3 to 8) (size 9 to 14) (size 15 to 20)
#    0.000    3.500    0.000    2.250    0.000    4.000 
#    0.000    5.000    0.000    1.500    0.000    5.250 
#    0.000    1.000    0.000    9.750    0.000   11.750 
#
# Total GULP energy -396553.876907 kJ/mol
# GULP energy per Si atom -12392.308653 kJ/mol
# Density = 1.675855 g / cm^3
# Si number density = 16.796782 Si / 1000 Ang^3
#
#
#
# Elastic Constant Matrix: (Units=GPa)
#
#
# Indices 1 2 3 4 5 6 
#
# 1 36.2027 22.4399 52.6965 0.0000 0.0000 0.0000
# 2 22.4399 71.6435 67.4511 0.0000 0.0000 0.0000
# 3 52.6965 67.4511 184.4680 0.0000 0.0000 0.0000
# 4 0.0000 0.0000 0.0000 14.6419 0.0000 0.0000
# 5 0.0000 0.0000 0.0000 0.0000 3.3632 0.0000
# 6 0.0000 0.0000 0.0000 0.0000 0.0000 4.9723
#
#
#
# Elastic Compliance Matrix: (Units=1/GPa)
#
#
# Indices 1 2 3 4 5 6 
#
# 1 0.047767 -0.003224 -0.012466 0.000000 0.000000 0.000000
# 2 -0.003224 0.021503 -0.006942 0.000000 0.000000 0.000000
# 3 -0.012466 -0.006942 0.011520 0.000000 0.000000 0.000000
# 4 0.000000 0.000000 0.000000 0.068297 0.000000 0.000000
# 5 0.000000 0.000000 0.000000 0.000000 0.297332 0.000000
# 6 0.000000 0.000000 0.000000 0.000000 0.000000 0.201113
#
#
# Mechanical properties :
#
#
# Convention : Reuss Voigt Hill
#
# Bulk Modulus (GPa) = 28.14856 64.16544 46.15700
# Shear Modulus (GPa) = 7.09583 14.57728 10.83656
#
# Velocity S-wave (km/s) = 2.05759 2.94915 2.54275
# Velocity P-wave (km/s) = 4.73705 7.06262 6.01333
#
# Compressibility (1/GPa) = 0.03552580
#
# Stress axis : x y z
#
# Youngs Moduli (GPa) = 20.93498 46.50432 86.80195
#
# Poissons Ratio (x) = 0.14995 1.08211
# Poissons Ratio (y) = 0.06750 0.60255
# Poissons Ratio (z) = 0.26098 0.32282
#
# Static dielectric constant tensor:
#      x y z
#    x 2.708590 0.000000 0.000000 
#    y 0.000000 3.015750 0.000000 
#    z 0.000000 0.000000 3.631940 
# 
# 
# High freq. dielectric constant tensor:
#      x y z
#    x 1.582930 0.000000 0.000000 
#    y 0.000000 1.622240 0.000000 
#    z 0.000000 0.000000 1.666240 
# 
# From -- ./inp_files/6273.got.cif
#   From: 2010.03.12/outbox.cif.g09.slc.cpg/sg25_4_cif.got.tgz:6273.got - 2010.04.14 03:30:10.
