data_PCOD8167041
_publ_section_title
;
Structure prediction by ZEFSAII (Michael W. Deem and Ramdas Pophale) SiO2 
 PCOD8167041
Probable space group: P M M 2
;
_chemical_formula_sum "Si O2"
_cell_formula_units_Z 20
_cell_length_a 12.000000
_cell_length_b 9.000000
_cell_length_c 9.000000
_cell_angle_alpha 90.000000
_cell_angle_beta 90.000000
_cell_angle_gamma 90.000000
_cell_volume 972.000000
_symmetry_space_group_name_H-M "P M M 2"
_symmetry_group_IT_number 25
_symmetry_cell_setting 'orthorhombic'
loop_
_space_group_symop_operation_xyz
x,y,z
-x,-y,z
-x,y,z
x,-y,z
loop_
_atom_site_type_symbol
_atom_site_label
_atom_site_fract_x
_atom_site_fract_y
_atom_site_fract_z
Si Si1 0.873742 0.834036 0.652260
Si Si2 0.500000 0.821580 0.770339
Si Si3 0.126927 0.331761 0.149635
Si Si4 0.275896 0.167379 0.370301
Si Si5 0.723830 0.668821 0.867757
Si Si6 0.500000 0.678319 0.445834
O O1 0.776181 0.830716 0.532285
O O2 0.829796 0.717646 0.771100
O O3 0.000000 0.789156 0.599536
O O4 0.878402 0.000000 0.720358
O O5 0.612246 0.768934 0.855207
O O6 0.500000 0.751875 0.607310
O O7 0.500000 0.000000 0.759894
O O8 0.122089 0.500000 0.208969
O O9 0.171186 0.224817 0.276695
O O10 0.000000 0.284239 0.100585
O O11 0.224460 0.317976 0.029530
O O12 0.387879 0.268038 0.360616
O O13 0.308497 0.000000 0.322107
O O14 0.690567 0.500000 0.826887
O O15 0.500000 0.500000 0.454976
#
# Coordination Sequence:
#
# PCOD8167041 Si02
#       6
#     4   2   4   4   4   2
#     4  10  21  37  59  89 124 162 206 258 314 373
#     4  12  24  41  64  93 128 164 206 262 318 375
#     4  10  23  43  64  91 130 171 212 259 311 371
#     4  11  23  40  64  93 126 167 210 258 314 372
#     4  11  23  40  64  92 123 166 213 260 314 371
#     4  12  24  41  66  95 126 164 208 260 316 373
#
# _framework density 20.576132000000001
#
# number of rings (size 3 to 8) (size 9 to 14) (size 15 to 20)
#    0.000    1.200    2.000    4.200    0.000    5.600 
#    0.000    1.000    0.000    0.000    0.000    0.000 
#    0.000    0.000    0.000    0.000    0.000    0.000 
#
# Total GULP energy -247862.008181 kJ/mol
# GULP energy per Si atom -12393.100409 kJ/mol
# Density = 2.052930 g / cm^3
# Si number density = 20.576132 Si / 1000 Ang^3
#
#
#
# Elastic Constant Matrix: (Units=GPa)
#
#
# Indices 1 2 3 4 5 6 
#
# 1 181.8264 62.8846 17.6026 0.0000 0.0000 0.0000
# 2 62.8846 146.6176 34.7990 0.0000 0.0000 0.0000
# 3 17.6026 34.7990 34.9093 0.0000 0.0000 0.0000
# 4 0.0000 0.0000 0.0000 68.9121 0.0000 0.0000
# 5 0.0000 0.0000 0.0000 0.0000 36.1143 0.0000
# 6 0.0000 0.0000 0.0000 0.0000 0.0000 46.2494
#
#
#
# Elastic Compliance Matrix: (Units=1/GPa)
#
#
# Indices 1 2 3 4 5 6 
#
# 1 0.006469 -0.002620 -0.000650 0.000000 0.000000 0.000000
# 2 -0.002620 0.009996 -0.008643 0.000000 0.000000 0.000000
# 3 -0.000650 -0.008643 0.037589 0.000000 0.000000 0.000000
# 4 0.000000 0.000000 0.000000 0.014511 0.000000 0.000000
# 5 0.000000 0.000000 0.000000 0.000000 0.027690 0.000000
# 6 0.000000 0.000000 0.000000 0.000000 0.000000 0.021622
#
#
# Mechanical properties :
#
#
# Convention : Reuss Voigt Hill
#
# Bulk Modulus (GPa) = 33.08246 65.99172 49.53709
# Shear Modulus (GPa) = 32.94284 46.79298 39.86791
#
# Velocity S-wave (km/s) = 4.00562 4.77397 4.40657
# Velocity P-wave (km/s) = 6.12424 7.90755 7.07233
#
# Compressibility (1/GPa) = 0.03022750
#
# Stress axis : x y z
#
# Youngs Moduli (GPa) = 154.58612 100.04372 26.60363
#
# Poissons Ratio (x) = 0.26214 0.01729
# Poissons Ratio (y) = 0.40506 0.22993
# Poissons Ratio (z) = 0.10046 0.86466
#
# Static dielectric constant tensor:
#      x y z
#    x 4.167150 0.000000 0.000000 
#    y 0.000000 3.924220 0.000000 
#    z 0.000000 0.000000 3.464910 
# 
# 
# High freq. dielectric constant tensor:
#      x y z
#    x 1.847380 0.000000 0.000000 
#    y 0.000000 1.816360 0.000000 
#    z 0.000000 0.000000 1.777780 
# 
# From -- ./inp_files/2546.got.cif
#   From: 2010.03.12/outbox.ucp.g09.slc.cvg/sg25_2_cif.got.tgz:2546.got - 2010.05.04 21:07:13.
