data_PCOD8167195
_publ_section_title
;
Structure prediction by ZEFSAII (Michael W. Deem and Ramdas Pophale) SiO2 
 PCOD8167195
Probable space group: P M C 21
;
_chemical_formula_sum "Si O2"
_cell_formula_units_Z 32
_cell_length_a 8.374856
_cell_length_b 35.974635
_cell_length_c 5.196996
_cell_angle_alpha 90.000000
_cell_angle_beta 90.000000
_cell_angle_gamma 90.000000
_cell_volume 1565.763364
_symmetry_space_group_name_H-M "P M C 21"
_symmetry_group_IT_number 26
_symmetry_cell_setting 'orthorhombic'
loop_
_space_group_symop_operation_xyz
x,y,z
-x,-y,1/2+z
-x,y,z
x,-y,1/2+z
loop_
_atom_site_type_symbol
_atom_site_label
_atom_site_fract_x
_atom_site_fract_y
_atom_site_fract_z
Si Si1 0.310016 0.271834 0.902800
Si Si2 0.309540 0.229653 0.402188
Si Si3 0.687074 0.895397 0.402664
Si Si4 0.690892 0.854520 0.902707
Si Si5 0.813036 0.022866 0.888444
Si Si6 0.313064 0.643729 0.413745
Si Si7 0.186906 0.394559 0.413717
Si Si8 0.809925 0.520947 0.900964
O O1 0.500000 0.270826 0.907586
O O2 0.242984 0.251029 0.651591
O O3 0.249354 0.314110 0.902727
O O4 0.241738 0.250660 0.152091
O O5 0.500000 0.229823 0.402179
O O6 0.245003 0.187585 0.403853
O O7 0.500000 0.888586 0.402349
O O8 0.761027 0.875672 0.653837
O O9 0.720117 0.938858 0.405760
O O10 0.761140 0.875970 0.150413
O O11 0.500000 0.855162 0.902810
O O12 0.000000 0.031390 0.894175
O O13 0.760883 0.002434 0.627929
O O14 0.500000 0.641643 0.352850
O O15 0.280773 0.628562 0.698984
O O16 0.219395 0.620570 0.198992
O O17 0.250150 0.436743 0.402664
O O18 0.000000 0.392370 0.352829
O O19 0.741307 0.499618 0.149626
O O20 0.000000 0.519718 0.905644
#
# Coordination Sequence:
#
# PCOD8167195 Si02
#       8
#     4   4   4   4   4   4   4   4
#     4   9  17  28  46  72 101 136 175 211 251 304
#     4   9  15  26  44  69 101 132 165 207 251 294
#     4  10  19  31  48  73 101 126 154 193 248 302
#     4   9  17  28  45  72 103 128 155 201 253 296
#     4  10  21  36  52  70  93 124 163 201 235 278
#     4  11  22  37  56  82 117 150 183 229 281 326
#     4  11  22  37  59  85 110 143 188 229 274 335
#     4   9  17  31  53  79 104 133 177 231 273 313
#
# _framework density 20.437314000000001
#
# number of rings (size 3 to 8) (size 9 to 14) (size 15 to 20)
#    0.000    2.250    0.000    3.750    0.000    7.500 
#    0.000    0.000    0.000    7.500    0.000   17.500 
#    0.000    0.000    0.000    0.000    0.000    0.000 
#
# Total GULP energy -396872.657245 kJ/mol
# GULP energy per Si atom -12402.270539 kJ/mol
# Density = 2.039080 g / cm^3
# Si number density = 20.437314 Si / 1000 Ang^3
#
#
#
# Elastic Constant Matrix: (Units=GPa)
#
#
# Indices 1 2 3 4 5 6 
#
# 1 13.6381 11.6129 9.0367 0.0000 0.0000 0.0000
# 2 11.6129 147.6292 60.2716 0.0000 0.0000 0.0000
# 3 9.0367 60.2716 164.0794 0.0000 0.0000 0.0000
# 4 0.0000 0.0000 0.0000 49.5286 0.0000 0.0000
# 5 0.0000 0.0000 0.0000 0.0000 13.5968 0.0000
# 6 0.0000 0.0000 0.0000 0.0000 0.0000 -53.3557
#
#
#
# Elastic Compliance Matrix: (Units=1/GPa)
#
#
# Indices 1 2 3 4 5 6 
#
# 1 0.079414 -0.005248 -0.002446 0.000000 0.000000 0.000000
# 2 -0.005248 0.008316 -0.002766 0.000000 0.000000 0.000000
# 3 -0.002446 -0.002766 0.007245 0.000000 0.000000 0.000000
# 4 0.000000 0.000000 0.000000 0.020190 0.000000 0.000000
# 5 0.000000 0.000000 0.000000 0.000000 0.073547 0.000000
# 6 0.000000 0.000000 0.000000 0.000000 0.000000 -0.018742
#
#
# Mechanical properties :
#
#
# Convention : Reuss Voigt Hill
#
# Bulk Modulus (GPa) = 13.50345 54.13211 33.81778
# Shear Modulus (GPa) = 23.19390 18.24899 20.72144
#
# Velocity S-wave (km/s) = 3.37245 2.99143 3.18764
# Velocity P-wave (km/s) = 4.66757 6.20290 5.48918
#
# Compressibility (1/GPa) = 0.07405514
#
# Stress axis : x y z
#
# Youngs Moduli (GPa) = 12.59228 120.25527 138.02268
#
# Poissons Ratio (x) = 0.63114 0.33758
# Poissons Ratio (y) = 0.06609 0.38171
# Poissons Ratio (z) = 0.03080 0.33257
#
# Static dielectric constant tensor:
#      x y z
#    x 3.064400 0.000000 0.000000 
#    y 0.000000 3.843840 0.000000 
#    z 0.000000 0.000000 4.061410 
# 
# 
# High freq. dielectric constant tensor:
#      x y z
#    x 1.740400 0.000000 0.000000 
#    y 0.000000 1.816550 0.000000 
#    z 0.000000 0.000000 1.820280 
# 
# From -- ./inp_files/238.got.cif
#   From: 2010.03.12/outbox.cif.g09.slc.cpg/sg26_1_cif.got.tgz:238.got - 2010.04.14 03:33:09.
