data_PCOD8167530
_publ_section_title
;
Structure prediction by ZEFSAII (Michael W. Deem and Ramdas Pophale) SiO2 
 PCOD8167530
Probable space group: P M C 21
;
_chemical_formula_sum "Si O2"
_cell_formula_units_Z 32
_cell_length_a 8.852347
_cell_length_b 11.991748
_cell_length_c 15.337096
_cell_angle_alpha 90.000000
_cell_angle_beta 90.000000
_cell_angle_gamma 90.000000
_cell_volume 1628.111181
_symmetry_space_group_name_H-M "P M C 21"
_symmetry_group_IT_number 26
_symmetry_cell_setting 'orthorhombic'
loop_
_space_group_symop_operation_xyz
x,y,z
-x,-y,1/2+z
-x,y,z
x,-y,1/2+z
loop_
_atom_site_type_symbol
_atom_site_label
_atom_site_fract_x
_atom_site_fract_y
_atom_site_fract_z
Si Si1 0.175096 0.217597 0.959400
Si Si2 0.679354 0.004202 0.022754
Si Si3 0.679035 0.394290 0.621109
Si Si4 0.677424 0.237667 0.470490
Si Si5 0.821794 0.000916 0.206947
Si Si6 0.322714 0.791101 0.777920
Si Si7 0.173716 0.754586 0.262170
Si Si8 0.679018 0.353955 0.113477
O O1 0.252579 0.096569 0.958552
O O2 0.198980 0.270252 0.864026
O O3 0.000000 0.202091 0.981648
O O4 0.249078 0.299308 0.028867
O O5 0.500000 0.011046 0.018473
O O6 0.743522 0.883843 0.994511
O O7 0.734096 0.032664 0.119389
O O8 0.500000 0.395454 0.619206
O O9 0.746246 0.329743 0.536311
O O10 0.729154 0.334425 0.709448
O O11 0.740740 0.520135 0.620057
O O12 0.500000 0.233201 0.485871
O O13 0.716144 0.267957 0.370404
O O14 0.771537 0.879483 0.239829
O O15 0.000000 0.008623 0.192232
O O16 0.768599 0.092949 0.276659
O O17 0.500000 0.818210 0.771822
O O18 0.268979 0.709454 0.700999
O O19 0.000000 0.740367 0.235473
O O20 0.500000 0.349334 0.102962
#
# Coordination Sequence:
#
# PCOD8167530 Si02
#       8
#     4   4   4   4   4   4   4   4
#     4  11  23  39  59  84 119 156 190 235 288 344
#     4  11  20  34  58  86 114 148 190 234 288 348
#     4  10  21  39  61  85 114 152 197 242 287 335
#     4   9  19  35  57  84 114 147 187 236 288 339
#     4  11  21  35  57  85 116 150 187 232 288 348
#     4  10  20  36  57  83 115 149 187 235 288 342
#     4  10  23  40  58  85 119 154 192 235 287 345
#     4  10  22  38  59  86 115 150 196 243 286 335
#
# _framework density 19.654675999999998
#
# number of rings (size 3 to 8) (size 9 to 14) (size 15 to 20)
#    0.000    1.750    2.500    1.875    0.000    3.000 
#    0.000    3.750    0.000    0.000    0.000    0.000 
#    0.000    0.000    0.000    0.000    0.000    0.000 
#
# Total GULP energy -396881.161092 kJ/mol
# GULP energy per Si atom -12402.536284 kJ/mol
# Density = 1.960994 g / cm^3
# Si number density = 19.654676 Si / 1000 Ang^3
#
#
#
# Elastic Constant Matrix: (Units=GPa)
#
#
# Indices 1 2 3 4 5 6 
#
# 1 31.5083 32.7818 19.1323 0.0000 0.0000 0.0000
# 2 32.7818 150.1031 55.4972 0.0000 0.0000 0.0000
# 3 19.1323 55.4972 114.9454 0.0000 0.0000 0.0000
# 4 0.0000 0.0000 0.0000 17.0728 0.0000 0.0000
# 5 0.0000 0.0000 0.0000 0.0000 24.9226 0.0000
# 6 0.0000 0.0000 0.0000 0.0000 0.0000 19.9196
#
#
#
# Elastic Compliance Matrix: (Units=1/GPa)
#
#
# Indices 1 2 3 4 5 6 
#
# 1 0.041967 -0.008013 -0.003116 0.000000 0.000000 0.000000
# 2 -0.008013 0.009640 -0.003320 0.000000 0.000000 0.000000
# 3 -0.003116 -0.003320 0.010822 0.000000 0.000000 0.000000
# 4 0.000000 0.000000 0.000000 0.058573 0.000000 0.000000
# 5 0.000000 0.000000 0.000000 0.000000 0.040124 0.000000
# 6 0.000000 0.000000 0.000000 0.000000 0.000000 0.050202
#
#
# Mechanical properties :
#
#
# Convention : Reuss Voigt Hill
#
# Bulk Modulus (GPa) = 29.82549 56.81993 43.32271
# Shear Modulus (GPa) = 19.88835 24.99269 22.44052
#
# Velocity S-wave (km/s) = 3.18447 3.56980 3.38263
# Velocity P-wave (km/s) = 5.35993 6.77962 6.11114
#
# Compressibility (1/GPa) = 0.03352836
#
# Stress axis : x y z
#
# Youngs Moduli (GPa) = 23.82826 103.73675 92.40729
#
# Poissons Ratio (x) = 0.83126 0.28798
# Poissons Ratio (y) = 0.19094 0.30683
# Poissons Ratio (z) = 0.07426 0.34445
#
# Static dielectric constant tensor:
#      x y z
#    x 3.364500 0.000000 0.000000 
#    y 0.000000 3.740490 0.000000 
#    z 0.000000 0.000000 3.670520 
# 
# 
# High freq. dielectric constant tensor:
#      x y z
#    x 1.747180 0.000000 0.000000 
#    y 0.000000 1.765560 0.000000 
#    z 0.000000 0.000000 1.777940 
# 
# From -- ./inp_files/4101.got.cif
#   From: 2010.03.12/outbox.cif.g09.slc.cpg/sg26_3_cif.got.tgz:4101.got - 2010.04.14 03:33:09.
