data_PCOD8167026
_publ_section_title
;
Structure prediction by ZEFSAII (Michael W. Deem and Ramdas Pophale) SiO2 
 PCOD8167026
Probable space group: P M M 2
;
_chemical_formula_sum "Si O2"
_cell_formula_units_Z 32
_cell_length_a 9.713968
_cell_length_b 9.604248
_cell_length_c 20.569858
_cell_angle_alpha 90.000000
_cell_angle_beta 90.000000
_cell_angle_gamma 90.000000
_cell_volume 1919.072261
_symmetry_space_group_name_H-M "P M M 2"
_symmetry_group_IT_number 25
_symmetry_cell_setting 'orthorhombic'
loop_
_space_group_symop_operation_xyz
x,y,z
-x,-y,z
-x,y,z
x,-y,z
loop_
_atom_site_type_symbol
_atom_site_label
_atom_site_fract_x
_atom_site_fract_y
_atom_site_fract_z
Si Si1 0.658212 0.163770 0.595020
Si Si2 0.836198 0.842729 0.235866
Si Si3 0.336499 0.846065 0.740138
Si Si4 0.836433 0.654603 0.351497
Si Si5 0.839495 0.338196 0.113723
Si Si6 0.346907 0.334383 0.995866
Si Si7 0.159089 0.662063 0.497699
Si Si8 0.336173 0.345547 0.853484
O O1 0.500000 0.203931 0.582150
O O2 0.702421 0.208030 0.668129
O O3 0.751811 0.246453 0.545564
O O4 0.680744 0.000000 0.585250
O O5 0.777044 0.766846 0.300350
O O6 0.786977 0.754281 0.173787
O O7 0.000000 0.845980 0.238342
O O8 0.777218 0.000000 0.232397
O O9 0.500000 0.851950 0.746019
O O10 0.272352 0.747674 0.795799
O O11 0.275259 0.000000 0.751051
O O12 0.779230 0.500000 0.334677
O O13 0.792720 0.697673 0.424264
O O14 0.000000 0.649251 0.347068
O O15 0.807376 0.500000 0.128917
O O16 0.758774 0.282719 0.050550
O O17 0.000000 0.315653 0.100061
O O18 0.500000 0.276890 0.011954
O O19 0.351604 0.500000 0.993149
O O20 0.297160 0.282216 0.924478
O O21 0.183369 0.500000 0.512488
O O22 0.000000 0.701670 0.507357
O O23 0.500000 0.351920 0.848160
O O24 0.273969 0.500000 0.845079
#
# Coordination Sequence:
#
# PCOD8167026 Si02
#       8
#     4   4   4   4   4   4   4   4
#     4   9  18  31  46  66  92 121 152 184 219 263
#     4   9  16  25  39  61  86 109 136 172 210 246
#     4   8  14  25  40  59  84 111 140 176 213 248
#     4   8  14  26  43  62  85 111 139 174 213 251
#     4   9  16  26  42  62  82 107 138 169 203 245
#     4   8  14  25  41  61  84 108 135 169 207 247
#     4   9  18  31  47  69  94 117 145 184 226 266
#     4   8  13  22  38  59  79 101 135 176 211 244
#
# _framework density 16.674724000000001
#
# number of rings (size 3 to 8) (size 9 to 14) (size 15 to 20)
#    0.000    3.500    0.000    2.625    0.000    3.000 
#    0.000    3.125    0.000    2.625    0.000    3.500 
#    0.000    0.000    0.000    0.000    0.000    0.000 
#
# Total GULP energy -396572.593323 kJ/mol
# GULP energy per Si atom -12392.893541 kJ/mol
# Density = 1.663677 g / cm^3
# Si number density = 16.674724 Si / 1000 Ang^3
#
#
#
# Elastic Constant Matrix: (Units=GPa)
#
#
# Indices 1 2 3 4 5 6 
#
# 1 34.3871 29.6798 47.0494 0.0000 0.0000 0.0000
# 2 29.6798 86.8164 84.1392 0.0000 0.0000 0.0000
# 3 47.0494 84.1392 172.1082 0.0000 0.0000 0.0000
# 4 0.0000 0.0000 0.0000 14.0009 0.0000 0.0000
# 5 0.0000 0.0000 0.0000 0.0000 24.5179 0.0000
# 6 0.0000 0.0000 0.0000 0.0000 0.0000 15.7016
#
#
#
# Elastic Compliance Matrix: (Units=1/GPa)
#
#
# Indices 1 2 3 4 5 6 
#
# 1 0.048665 -0.007115 -0.009825 0.000000 0.000000 0.000000
# 2 -0.007115 0.022930 -0.009265 0.000000 0.000000 0.000000
# 3 -0.009825 -0.009265 0.013026 0.000000 0.000000 0.000000
# 4 0.000000 0.000000 0.000000 0.071424 0.000000 0.000000
# 5 0.000000 0.000000 0.000000 0.000000 0.040787 0.000000
# 6 0.000000 0.000000 0.000000 0.000000 0.000000 0.063688
#
#
# Mechanical properties :
#
#
# Convention : Reuss Voigt Hill
#
# Bulk Modulus (GPa) = 31.04576 68.33872 49.69224
# Shear Modulus (GPa) = 15.44806 19.67364 17.56085
#
# Velocity S-wave (km/s) = 3.04704 3.43862 3.24874
# Velocity P-wave (km/s) = 5.57119 7.53909 6.62857
#
# Compressibility (1/GPa) = 0.03221052
#
# Stress axis : x y z
#
# Youngs Moduli (GPa) = 20.54883 43.61076 76.77140
#
# Poissons Ratio (x) = 0.31027 0.75431
# Poissons Ratio (y) = 0.14620 0.71129
# Poissons Ratio (z) = 0.20190 0.40405
#
# Static dielectric constant tensor:
#      x y z
#    x 2.545830 0.000000 0.000000 
#    y 0.000000 3.242550 0.000000 
#    z 0.000000 0.000000 3.450760 
# 
# 
# High freq. dielectric constant tensor:
#      x y z
#    x 1.583380 0.000000 0.000000 
#    y 0.000000 1.629990 0.000000 
#    z 0.000000 0.000000 1.657980 
# 
# From -- ./inp_files/6288.got.cif
#   From: 2010.03.12/outbox.cif.g09.slc.cpg/sg25_4_cif.got.tgz:6288.got - 2010.04.14 03:30:10.
