data_PCOD8167392
_publ_section_title
;
Structure prediction by ZEFSAII (Michael W. Deem and Ramdas Pophale) SiO2 
 PCOD8167392
Probable space group: P M C 21
;
_chemical_formula_sum "Si O2"
_cell_formula_units_Z 24
_cell_length_a 8.371349
_cell_length_b 5.057978
_cell_length_c 26.445586
_cell_angle_alpha 90.000000
_cell_angle_beta 90.000000
_cell_angle_gamma 90.000000
_cell_volume 1119.761622
_symmetry_space_group_name_H-M "P M C 21"
_symmetry_group_IT_number 26
_symmetry_cell_setting 'orthorhombic'
loop_
_space_group_symop_operation_xyz
x,y,z
-x,-y,1/2+z
-x,y,z
x,-y,1/2+z
loop_
_atom_site_type_symbol
_atom_site_label
_atom_site_fract_x
_atom_site_fract_y
_atom_site_fract_z
Si Si1 0.814252 0.176859 0.232210
Si Si2 0.684155 0.671171 0.285070
Si Si3 0.812267 0.722084 0.068992
Si Si4 0.313365 0.222551 0.122513
Si Si5 0.188823 0.296327 0.894118
Si Si6 0.188090 0.790008 0.956105
O O1 0.722649 0.912780 0.248119
O O2 0.000000 0.108504 0.229075
O O3 0.787503 0.412589 0.272019
O O4 0.748785 0.274539 0.178724
O O5 0.500000 0.595634 0.279114
O O6 0.722523 0.759517 0.341880
O O7 0.777741 0.422667 0.085351
O O8 0.000000 0.779785 0.071504
O O9 0.723123 0.923132 0.106284
O O10 0.742261 0.761985 0.012531
O O11 0.500000 0.280736 0.120233
O O12 0.254868 0.565738 0.918571
O O13 0.000000 0.298316 0.883769
O O14 0.237694 0.070567 0.933698
O O15 0.000000 0.750817 0.959586
#
# Coordination Sequence:
#
# PCOD8167392 Si02
#       6
#     4   4   4   4   4   4
#     4  12  25  44  67  91 119 163 212 253 298 367
#     4  12  25  42  63  94 129 161 198 255 316 365
#     4  11  22  41  66  93 122 163 212 255 298 361
#     4  12  25  42  62  92 129 163 198 253 316 367
#     4  10  19  36  60  88 119 160 206 249 296 358
#     4   9  19  35  60  88 118 156 206 255 294 344
#
# _framework density 21.433133000000002
#
# number of rings (size 3 to 8) (size 9 to 14) (size 15 to 20)
#    0.000    1.000    0.000    8.000    0.000    4.000 
#    0.000    5.000    0.000    0.000    0.000    0.000 
#    0.000    0.000    0.000    0.000    0.000    0.000 
#
# Total GULP energy -297801.003099 kJ/mol
# GULP energy per Si atom -12408.375129 kJ/mol
# Density = 2.138435 g / cm^3
# Si number density = 21.433133 Si / 1000 Ang^3
#
#
#
# Elastic Constant Matrix: (Units=GPa)
#
#
# Indices 1 2 3 4 5 6 
#
# 1 72.6746 13.8640 34.7229 0.0000 0.0000 0.0000
# 2 13.8640 93.8159 10.1948 0.0000 0.0000 0.0000
# 3 34.7229 10.1948 105.2719 0.0000 0.0000 0.0000
# 4 0.0000 0.0000 0.0000 41.4703 0.0000 0.0000
# 5 0.0000 0.0000 0.0000 0.0000 2.4252 0.0000
# 6 0.0000 0.0000 0.0000 0.0000 0.0000 29.7608
#
#
#
# Elastic Compliance Matrix: (Units=1/GPa)
#
#
# Indices 1 2 3 4 5 6 
#
# 1 0.016657 -0.001884 -0.005312 0.000000 0.000000 0.000000
# 2 -0.001884 0.010986 -0.000442 0.000000 0.000000 0.000000
# 3 -0.005312 -0.000442 0.011294 0.000000 0.000000 0.000000
# 4 0.000000 0.000000 0.000000 0.024114 0.000000 0.000000
# 5 0.000000 0.000000 0.000000 0.000000 0.412337 0.000000
# 6 0.000000 0.000000 0.000000 0.000000 0.000000 0.033601
#
#
# Mechanical properties :
#
#
# Convention : Reuss Voigt Hill
#
# Bulk Modulus (GPa) = 42.26514 43.25841 42.76177
# Shear Modulus (GPa) = 9.39581 28.92997 19.16289
#
# Velocity S-wave (km/s) = 2.09602 3.67792 2.99336
# Velocity P-wave (km/s) = 5.06163 6.18570 5.65168
#
# Compressibility (1/GPa) = 0.02366016
#
# Stress axis : x y z
#
# Youngs Moduli (GPa) = 60.03358 91.02734 88.54193
#
# Poissons Ratio (x) = 0.17153 0.47031
# Poissons Ratio (y) = 0.11313 0.03917
# Poissons Ratio (z) = 0.31888 0.04026
#
# Static dielectric constant tensor:
#      x y z
#    x 3.687640 0.000000 0.000000 
#    y 0.000000 3.873800 0.000000 
#    z 0.000000 0.000000 4.011210 
# 
# 
# High freq. dielectric constant tensor:
#      x y z
#    x 1.825900 0.000000 0.000000 
#    y 0.000000 1.854430 0.000000 
#    z 0.000000 0.000000 1.856620 
# 
# From -- ./inp_files/5492.got.cif
#   From: 2010.03.12/outbox.cif.g09.slc.cpg/sg26_3_cif.got.tgz:5492.got - 2010.04.14 03:33:09.
