data_PCOD8167189
_publ_section_title
;
Structure prediction by ZEFSAII (Michael W. Deem and Ramdas Pophale) SiO2 
 PCOD8167189
Probable space group: P M C 21
;
_chemical_formula_sum "Si O2"
_cell_formula_units_Z 32
_cell_length_a 8.964598
_cell_length_b 35.984305
_cell_length_c 5.211992
_cell_angle_alpha 90.000000
_cell_angle_beta 90.000000
_cell_angle_gamma 90.000000
_cell_volume 1681.309546
_symmetry_space_group_name_H-M "P M C 21"
_symmetry_group_IT_number 26
_symmetry_cell_setting 'orthorhombic'
loop_
_space_group_symop_operation_xyz
x,y,z
-x,-y,1/2+z
-x,y,z
x,-y,1/2+z
loop_
_atom_site_type_symbol
_atom_site_label
_atom_site_fract_x
_atom_site_fract_y
_atom_site_fract_z
Si Si1 0.322718 0.271594 0.801540
Si Si2 0.322876 0.228055 0.301443
Si Si3 0.677097 0.898104 0.296855
Si Si4 0.677840 0.855536 0.797146
Si Si5 0.173520 0.023086 0.778126
Si Si6 0.177290 0.648426 0.300921
Si Si7 0.822890 0.395099 0.300860
Si Si8 0.822017 0.478740 0.300280
O O1 0.500000 0.275904 0.801524
O O2 0.265306 0.249246 0.553447
O O3 0.249952 0.311578 0.800003
O O4 0.265054 0.249581 0.050876
O O5 0.500000 0.226331 0.300751
O O6 0.257986 0.186305 0.300536
O O7 0.500000 0.898599 0.296155
O O8 0.738314 0.876248 0.544682
O O9 0.732752 0.939856 0.304694
O O10 0.739088 0.877311 0.045151
O O11 0.500000 0.854682 0.798629
O O12 0.000000 0.033384 0.787703
O O13 0.217614 0.003742 0.511864
O O14 0.234947 0.626331 0.549932
O O15 0.000000 0.652711 0.301001
O O16 0.234787 0.626174 0.052484
O O17 0.758319 0.436866 0.300402
O O18 0.000000 0.396800 0.300535
O O19 0.761220 0.500019 0.550206
O O20 0.000000 0.478232 0.300324
#
# Coordination Sequence:
#
# PCOD8167189 Si02
#       8
#     4   4   4   4   4   4   4   4
#     4  10  19  31  49  71  92 119 158 196 226 263
#     4   9  17  30  49  71  95 122 152 190 232 274
#     4  10  19  31  51  76  98 121 153 194 233 273
#     4   9  17  30  49  74  99 122 151 188 235 282
#     4  10  21  36  52  70  96 131 164 192 228 275
#     4  10  19  31  46  64  92 125 151 182 227 277
#     4   9  17  28  42  62  89 122 153 180 225 282
#     4   9  15  23  37  58  85 114 144 182 224 266
#
# _framework density 19.032785000000001
#
# number of rings (size 3 to 8) (size 9 to 14) (size 15 to 20)
#    0.000    2.500    0.000    3.000    0.000    6.500 
#    0.000    0.000    0.000    4.500    0.000    0.000 
#    0.000   10.000    0.000    0.000    0.000    0.000 
#
# Total GULP energy -396837.702132 kJ/mol
# GULP energy per Si atom -12401.178192 kJ/mol
# Density = 1.898947 g / cm^3
# Si number density = 19.032785 Si / 1000 Ang^3
#
#
#
# Elastic Constant Matrix: (Units=GPa)
#
#
# Indices 1 2 3 4 5 6 
#
# 1 10.1237 18.9220 16.6081 0.0000 0.0000 0.0000
# 2 18.9220 163.5597 78.7069 0.0000 0.0000 0.0000
# 3 16.6081 78.7069 184.0591 0.0000 0.0000 0.0000
# 4 0.0000 0.0000 0.0000 42.8084 0.0000 0.0000
# 5 0.0000 0.0000 0.0000 0.0000 6.6458 0.0000
# 6 0.0000 0.0000 0.0000 0.0000 0.0000 25.0723
#
#
#
# Elastic Compliance Matrix: (Units=1/GPa)
#
#
# Indices 1 2 3 4 5 6 
#
# 1 0.132458 -0.012052 -0.006798 0.000000 0.000000 0.000000
# 2 -0.012052 0.008795 -0.002673 0.000000 0.000000 0.000000
# 3 -0.006798 -0.002673 0.007190 0.000000 0.000000 0.000000
# 4 0.000000 0.000000 0.000000 0.023360 0.000000 0.000000
# 5 0.000000 0.000000 0.000000 0.000000 0.150470 0.000000
# 6 0.000000 0.000000 0.000000 0.000000 0.000000 0.039885
#
#
# Mechanical properties :
#
#
# Convention : Reuss Voigt Hill
#
# Bulk Modulus (GPa) = 9.48819 65.13517 37.31168
# Shear Modulus (GPa) = 11.35497 31.13899 21.24698
#
# Velocity S-wave (km/s) = 2.44519 4.04923 3.34479
# Velocity P-wave (km/s) = 3.60110 7.49390 5.87905
#
# Compressibility (1/GPa) = 0.10539414
#
# Stress axis : x y z
#
# Youngs Moduli (GPa) = 7.54958 113.70478 139.09021
#
# Poissons Ratio (x) = 1.37043 0.94556
# Poissons Ratio (y) = 0.09099 0.37182
# Poissons Ratio (z) = 0.05132 0.30396
#
# Static dielectric constant tensor:
#      x y z
#    x 2.856390 0.000000 0.000000 
#    y 0.000000 3.623860 0.000000 
#    z 0.000000 0.000000 4.050070 
# 
# 
# High freq. dielectric constant tensor:
#      x y z
#    x 1.671780 0.000000 0.000000 
#    y 0.000000 1.759230 0.000000 
#    z 0.000000 0.000000 1.764100 
# 
# From -- ./inp_files/241.got.cif
#   From: 2010.03.12/outbox.cif.g09.slc.cpg/sg26_1_cif.got.tgz:241.got - 2010.04.14 03:33:09.
