data_PCOD8167887
_publ_section_title
;
Structure prediction by ZEFSAII (Michael W. Deem and Ramdas Pophale) SiO2 
 PCOD8167887
Probable space group: P C C 2
;
_chemical_formula_sum "Si O2"
_cell_formula_units_Z 26
_cell_length_a 5.007334
_cell_length_b 18.133804
_cell_length_c 13.009566
_cell_angle_alpha 90.000000
_cell_angle_beta 90.000000
_cell_angle_gamma 90.000000
_cell_volume 1181.294785
_symmetry_space_group_name_H-M "P C C 2"
_symmetry_group_IT_number 27
_symmetry_cell_setting 'orthorhombic'
loop_
_space_group_symop_operation_xyz
x,y,z
-x,-y,z
-x,y,1/2+z
x,-y,1/2+z
loop_
_atom_site_type_symbol
_atom_site_label
_atom_site_fract_x
_atom_site_fract_y
_atom_site_fract_z
Si Si1 0.621832 0.374854 0.390340
Si Si2 0.095189 0.850241 0.760154
Si Si3 0.500000 0.500000 0.764657
Si Si4 0.426532 0.083195 0.855033
Si Si5 0.089416 0.319228 0.277737
Si Si6 0.161339 0.575480 0.604479
Si Si7 0.744283 0.049560 0.576732
O O1 0.698623 0.453723 0.338224
O O2 0.323589 0.351242 0.354284
O O3 0.668342 0.388766 0.511815
O O4 0.832143 0.315160 0.351493
O O5 0.297140 0.871751 0.851518
O O6 0.131102 0.763774 0.742565
O O7 0.201676 0.886309 0.656442
O O8 0.797839 0.880252 0.781944
O O9 0.370078 0.559492 0.692585
O O10 0.500000 0.000000 0.820699
O O11 0.327872 0.088860 0.970734
O O12 0.004371 0.362434 0.171197
O O13 0.000000 0.500000 0.574201
O O14 0.500000 0.000000 0.617426
O O15 0.000000 0.000000 0.557132
#
# Coordination Sequence:
#
# PCOD8167887 Si02
#       7
#     4   4   2   4   4   4   4
#     4  11  25  42  68  93 132 166 219 272 337 386
#     4  12  24  42  68  92 141 179 211 270 337 391
#     4  10  22  42  66 100 122 158 216 284 318 398
#     4  11  23  42  68 100 131 173 226 273 318 388
#     4  11  27  45  61 102 135 172 222 268 329 412
#     4  11  24  42  70  95 126 173 222 282 336 384
#     4  11  23  40  67 102 128 169 226 274 315 383
#
# _framework density 22.009748999999999
#
# number of rings (size 3 to 8) (size 9 to 14) (size 15 to 20)
#    0.000    0.923    1.538    6.000    6.462    2.462 
#    0.000    0.000    0.000    0.000    0.000    0.000 
#    0.000    0.000    0.000    0.000    0.000    0.000 
#
# Total GULP energy -322095.759903 kJ/mol
# GULP energy per Si atom -12388.298458 kJ/mol
# Density = 2.195965 g / cm^3
# Si number density = 22.009749 Si / 1000 Ang^3
#
#
#
# Elastic Constant Matrix: (Units=GPa)
#
#
# Indices 1 2 3 4 5 6 
#
# 1 88.3829 12.4572 14.8235 0.0000 0.0000 0.0000
# 2 12.4572 120.3717 38.9106 0.0000 0.0000 0.0000
# 3 14.8235 38.9106 104.8728 0.0000 0.0000 0.0000
# 4 0.0000 0.0000 0.0000 17.8603 0.0000 0.0000
# 5 0.0000 0.0000 0.0000 0.0000 35.8000 0.0000
# 6 0.0000 0.0000 0.0000 0.0000 0.0000 29.4228
#
#
#
# Elastic Compliance Matrix: (Units=1/GPa)
#
#
# Indices 1 2 3 4 5 6 
#
# 1 0.011651 -0.000765 -0.001363 0.000000 0.000000 0.000000
# 2 -0.000765 0.009490 -0.003413 0.000000 0.000000 0.000000
# 3 -0.001363 -0.003413 0.010994 0.000000 0.000000 0.000000
# 4 0.000000 0.000000 0.000000 0.055990 0.000000 0.000000
# 5 0.000000 0.000000 0.000000 0.000000 0.027933 0.000000
# 6 0.000000 0.000000 0.000000 0.000000 0.000000 0.033987
#
#
# Mechanical properties :
#
#
# Convention : Reuss Voigt Hill
#
# Bulk Modulus (GPa) = 47.49878 49.55667 48.52773
# Shear Modulus (GPa) = 29.73619 33.11235 31.42427
#
# Velocity S-wave (km/s) = 3.67965 3.88292 3.78265
# Velocity P-wave (km/s) = 6.29926 6.53203 6.41670
#
# Compressibility (1/GPa) = 0.02105317
#
# Stress axis : x y z
#
# Youngs Moduli (GPa) = 85.83075 105.37391 90.95642
#
# Poissons Ratio (x) = 0.08063 0.12397
# Poissons Ratio (y) = 0.06567 0.31042
# Poissons Ratio (z) = 0.11698 0.35963
#
# Static dielectric constant tensor:
#      x y z
#    x 4.053870 0.000000 0.000000 
#    y 0.000000 2.980240 0.000000 
#    z 0.000000 0.000000 3.949490 
# 
# 
# High freq. dielectric constant tensor:
#      x y z
#    x 1.870720 0.000000 0.000000 
#    y 0.000000 1.860540 0.000000 
#    z 0.000000 0.000000 1.876000 
# 
# From -- ./inp_files/2068.got.cif
#   From: 2010.03.12/outbox.cif.g09.slc.cpg/sg27_2_cif.got.tgz:2068.got - 2010.04.14 03:36:05.
