data_PCOD8167697
_publ_section_title
;
Structure prediction by ZEFSAII (Michael W. Deem and Ramdas Pophale) SiO2 
 PCOD8167697
Probable space group: P M C 21
;
_chemical_formula_sum "Si O2"
_cell_formula_units_Z 32
_cell_length_a 9.111237
_cell_length_b 11.384350
_cell_length_c 16.210009
_cell_angle_alpha 90.000000
_cell_angle_beta 90.000000
_cell_angle_gamma 90.000000
_cell_volume 1681.391466
_symmetry_space_group_name_H-M "P M C 21"
_symmetry_group_IT_number 26
_symmetry_cell_setting 'orthorhombic'
loop_
_space_group_symop_operation_xyz
x,y,z
-x,-y,1/2+z
-x,y,z
x,-y,1/2+z
loop_
_atom_site_type_symbol
_atom_site_label
_atom_site_fract_x
_atom_site_fract_y
_atom_site_fract_z
Si Si1 0.674019 0.062366 0.048750
Si Si2 0.827469 0.439812 0.277565
Si Si3 0.671228 0.680241 0.242703
Si Si4 0.160019 0.775041 0.662797
Si Si5 0.840837 0.930288 0.817408
Si Si6 0.172366 0.722099 0.920707
Si Si7 0.667734 0.131228 0.868597
Si Si8 0.825315 0.815823 0.094277
O O1 0.500000 0.041351 0.054180
O O2 0.716075 0.177553 0.101477
O O3 0.756492 0.943820 0.076735
O O4 0.730855 0.104071 0.959004
O O5 0.735362 0.551399 0.250620
O O6 0.789921 0.344455 0.207315
O O7 0.773983 0.392616 0.368653
O O8 0.000000 0.470517 0.278734
O O9 0.500000 0.675257 0.218565
O O10 0.693993 0.738137 0.333404
O O11 0.755196 0.755916 0.173911
O O12 0.138400 0.875630 0.729051
O O13 0.000000 0.756314 0.619340
O O14 0.759600 0.840101 0.880318
O O15 0.000000 0.967502 0.853113
O O16 0.743853 0.044822 0.803766
O O17 0.000000 0.729581 0.902470
O O18 0.208586 0.724990 0.018014
O O19 0.500000 0.097936 0.868786
O O20 0.000000 0.830710 0.106121
#
# Coordination Sequence:
#
# PCOD8167697 Si02
#       8
#     4   4   4   4   4   4   4   4
#     4  11  22  36  55  84 120 152 188 232 286 347
#     4   9  19  40  63  83 110 146 195 242 284 338
#     4  11  24  41  57  81 118 158 197 237 286 344
#     4   9  19  35  58  85 111 142 185 234 283 337
#     4   9  16  31  56  83 108 138 178 226 279 334
#     4   8  16  33  59  86 111 140 181 236 285 334
#     4  10  22  37  52  75 115 155 185 226 278 340
#     4  11  21  37  62  89 117 149 191 241 293 344
#
# _framework density 19.031855
#
# number of rings (size 3 to 8) (size 9 to 14) (size 15 to 20)
#    0.000    2.250    1.250    3.375    0.000    4.500 
#    2.250    3.125    0.000    0.000    0.000    0.000 
#    0.000    0.000    0.000    0.000    0.000    0.000 
#
# Total GULP energy -396484.188336 kJ/mol
# GULP energy per Si atom -12390.130886 kJ/mol
# Density = 1.898854 g / cm^3
# Si number density = 19.031855 Si / 1000 Ang^3
#
#
#
# Elastic Constant Matrix: (Units=GPa)
#
#
# Indices 1 2 3 4 5 6 
#
# 1 69.4289 56.9480 49.7473 0.0000 0.0000 0.0000
# 2 56.9480 124.0917 61.9930 0.0000 0.0000 0.0000
# 3 49.7473 61.9930 93.7375 0.0000 0.0000 0.0000
# 4 0.0000 0.0000 0.0000 26.9675 0.0000 0.0000
# 5 0.0000 0.0000 0.0000 0.0000 22.2952 0.0000
# 6 0.0000 0.0000 0.0000 0.0000 0.0000 29.0356
#
#
#
# Elastic Compliance Matrix: (Units=1/GPa)
#
#
# Indices 1 2 3 4 5 6 
#
# 1 0.027725 -0.008024 -0.009408 0.000000 0.000000 0.000000
# 2 -0.008024 0.014357 -0.005237 0.000000 0.000000 0.000000
# 3 -0.009408 -0.005237 0.019124 0.000000 0.000000 0.000000
# 4 0.000000 0.000000 0.000000 0.037082 0.000000 0.000000
# 5 0.000000 0.000000 0.000000 0.000000 0.044853 0.000000
# 6 0.000000 0.000000 0.000000 0.000000 0.000000 0.034441
#
#
# Mechanical properties :
#
#
# Convention : Reuss Voigt Hill
#
# Bulk Modulus (GPa) = 63.01090 69.40385 66.20737
# Shear Modulus (GPa) = 21.90991 23.56432 22.73712
#
# Velocity S-wave (km/s) = 3.39665 3.52256 3.46017
# Velocity P-wave (km/s) = 6.96871 7.28635 7.12930
#
# Compressibility (1/GPa) = 0.01587027
#
# Stress axis : x y z
#
# Youngs Moduli (GPa) = 36.06792 69.65272 52.29061
#
# Poissons Ratio (x) = 0.55889 0.49193
# Poissons Ratio (y) = 0.28941 0.27382
# Poissons Ratio (z) = 0.33931 0.36474
#
# Static dielectric constant tensor:
#      x y z
#    x 3.415570 0.000000 0.000000 
#    y 0.000000 3.413400 0.000000 
#    z 0.000000 0.000000 3.709140 
# 
# 
# High freq. dielectric constant tensor:
#      x y z
#    x 1.729000 0.000000 0.000000 
#    y 0.000000 1.731540 0.000000 
#    z 0.000000 0.000000 1.741380 
# 
# From -- ./inp_files/4201.got.cif
#   From: 2010.03.12/outbox.cif.g09.slc.cpg/sg26_3_cif.got.tgz:4201.got - 2010.04.14 03:33:09.
