data_PCOD8167288
_publ_section_title
;
Structure prediction by ZEFSAII (Michael W. Deem and Ramdas Pophale) SiO2 
 PCOD8167288
Probable space group: P M C 21
;
_chemical_formula_sum "Si O2"
_cell_formula_units_Z 32
_cell_length_a 9.153910
_cell_length_b 12.357690
_cell_length_c 13.749159
_cell_angle_alpha 90.000000
_cell_angle_beta 90.000000
_cell_angle_gamma 90.000000
_cell_volume 1555.321119
_symmetry_space_group_name_H-M "P M C 21"
_symmetry_group_IT_number 26
_symmetry_cell_setting 'orthorhombic'
loop_
_space_group_symop_operation_xyz
x,y,z
-x,-y,1/2+z
-x,y,z
x,-y,1/2+z
loop_
_atom_site_type_symbol
_atom_site_label
_atom_site_fract_x
_atom_site_fract_y
_atom_site_fract_z
Si Si1 0.660655 0.915225 0.154100
Si Si2 0.834660 0.117607 0.158853
Si Si3 0.830005 0.561781 0.969022
Si Si4 0.827710 0.160991 0.942218
Si Si5 0.338997 0.044247 0.429980
Si Si6 0.329623 0.671237 0.149400
Si Si7 0.163390 0.767003 0.848727
Si Si8 0.669955 0.631783 0.367085
O O1 0.500000 0.910710 0.202281
O O2 0.730920 0.794937 0.160170
O O3 0.752516 0.012142 0.204570
O O4 0.651266 0.956618 0.044984
O O5 0.780312 0.162635 0.055465
O O6 0.817901 0.218243 0.232827
O O7 0.000000 0.078196 0.146445
O O8 0.761859 0.608136 0.068189
O O9 0.000000 0.536552 0.988489
O O10 0.808467 0.643865 0.879177
O O11 0.749357 0.453877 0.935933
O O12 0.000000 0.174348 0.926007
O O13 0.740902 0.253087 0.887123
O O14 0.771623 0.049167 0.893900
O O15 0.500000 0.025631 0.384871
O O16 0.281711 0.161684 0.402724
O O17 0.500000 0.675129 0.118121
O O18 0.309476 0.608562 0.251872
O O19 0.000000 0.802421 0.880986
O O20 0.500000 0.633730 0.395009
#
# Coordination Sequence:
#
# PCOD8167288 Si02
#       8
#     4   4   4   4   4   4   4   4
#     4   9  18  34  56  85 120 157 200 248 299 355
#     4   9  20  36  56  86 125 165 201 244 300 363
#     4  11  24  42  65  91 124 164 209 259 312 370
#     4  10  21  39  60  86 123 162 203 251 306 365
#     4  10  19  33  57  86 119 158 197 247 304 360
#     4  10  22  42  64  89 121 159 205 258 308 365
#     4  10  21  37  57  87 121 158 202 248 301 362
#     4  11  25  43  65  92 123 161 209 259 312 370
#
# _framework density 20.574528999999998
#
# number of rings (size 3 to 8) (size 9 to 14) (size 15 to 20)
#    0.000    2.000    1.250    1.500    1.750    4.500 
#    0.000    1.250    0.000    0.000    0.000    0.000 
#    0.000    0.000    0.000    0.000    0.000    0.000 
#
# Total GULP energy -396724.348222 kJ/mol
# GULP energy per Si atom -12397.635882 kJ/mol
# Density = 2.052770 g / cm^3
# Si number density = 20.574529 Si / 1000 Ang^3
#
#
#
# Elastic Constant Matrix: (Units=GPa)
#
#
# Indices 1 2 3 4 5 6 
#
# 1 104.9179 37.5739 34.7623 0.0000 0.0000 0.0000
# 2 37.5739 76.2447 15.2083 0.0000 0.0000 0.0000
# 3 34.7623 15.2083 56.3451 0.0000 0.0000 0.0000
# 4 0.0000 0.0000 0.0000 30.4841 0.0000 0.0000
# 5 0.0000 0.0000 0.0000 0.0000 23.0071 0.0000
# 6 0.0000 0.0000 0.0000 0.0000 0.0000 37.0058
#
#
#
# Elastic Compliance Matrix: (Units=1/GPa)
#
#
# Indices 1 2 3 4 5 6 
#
# 1 0.013802 -0.005394 -0.007059 0.000000 0.000000 0.000000
# 2 -0.005394 0.015970 -0.000983 0.000000 0.000000 0.000000
# 3 -0.007059 -0.000983 0.022368 0.000000 0.000000 0.000000
# 4 0.000000 0.000000 0.000000 0.032804 0.000000 0.000000
# 5 0.000000 0.000000 0.000000 0.000000 0.043465 0.000000
# 6 0.000000 0.000000 0.000000 0.000000 0.000000 0.027023
#
#
# Mechanical properties :
#
#
# Convention : Reuss Voigt Hill
#
# Bulk Modulus (GPa) = 39.57507 45.84407 42.70957
# Shear Modulus (GPa) = 26.21568 28.09694 27.15631
#
# Velocity S-wave (km/s) = 3.57344 3.69944 3.63698
# Velocity P-wave (km/s) = 6.02517 6.37009 6.20003
#
# Compressibility (1/GPa) = 0.02526843
#
# Stress axis : x y z
#
# Youngs Moduli (GPa) = 72.45454 62.61865 44.70611
#
# Poissons Ratio (x) = 0.33773 0.31559
# Poissons Ratio (y) = 0.39078 0.04394
# Poissons Ratio (z) = 0.51148 0.06155
#
# Static dielectric constant tensor:
#      x y z
#    x 3.920220 0.000000 0.000000 
#    y 0.000000 3.609620 0.000000 
#    z 0.000000 0.000000 3.744460 
# 
# 
# High freq. dielectric constant tensor:
#      x y z
#    x 1.806800 0.000000 0.000000 
#    y 0.000000 1.794140 0.000000 
#    z 0.000000 0.000000 1.809640 
# 
# From -- ./inp_files/4174.got.cif
#   From: 2010.03.12/outbox.cif.g09.slc.cpg/sg26_3_cif.got.tgz:4174.got - 2010.04.14 03:33:09.
