data_PCOD8167466
_publ_section_title
;
Structure prediction by ZEFSAII (Michael W. Deem and Ramdas Pophale) SiO2 
 PCOD8167466
Probable space group: P M C 21
;
_chemical_formula_sum "Si O2"
_cell_formula_units_Z 24
_cell_length_a 8.703993
_cell_length_b 7.674210
_cell_length_c 19.053324
_cell_angle_alpha 90.000000
_cell_angle_beta 90.000000
_cell_angle_gamma 90.000000
_cell_volume 1272.690977
_symmetry_space_group_name_H-M "P M C 21"
_symmetry_group_IT_number 26
_symmetry_cell_setting 'orthorhombic'
loop_
_space_group_symop_operation_xyz
x,y,z
-x,-y,1/2+z
-x,y,z
x,-y,1/2+z
loop_
_atom_site_type_symbol
_atom_site_label
_atom_site_fract_x
_atom_site_fract_y
_atom_site_fract_z
Si Si1 0.317293 0.199645 0.604970
Si Si2 0.180971 0.812234 0.955082
Si Si3 0.317900 0.512791 0.863700
Si Si4 0.682914 0.496059 0.204235
Si Si5 0.318985 0.813637 0.611607
Si Si6 0.319399 0.181688 0.953307
O O1 0.500000 0.204612 0.598073
O O2 0.252458 0.247825 0.528850
O O3 0.255621 0.334888 0.662670
O O4 0.258770 0.008172 0.628524
O O5 0.234920 0.678848 0.895917
O O6 0.000000 0.809243 0.961813
O O7 0.234483 0.004435 0.931750
O O8 0.500000 0.539583 0.869264
O O9 0.259693 0.496880 0.783830
O O10 0.266035 0.336128 0.902361
O O11 0.500000 0.493871 0.201575
O O12 0.752977 0.324674 0.166026
O O13 0.500000 0.808809 0.620249
O O14 0.273312 0.762357 0.532244
O O15 0.500000 0.145087 0.947469
#
# Coordination Sequence:
#
# PCOD8167466 Si02
#       6
#     4   4   4   4   4   4
#     4   9  17  32  53  75 100 132 173 218 260 306
#     4  11  22  35  53  77 106 141 178 217 262 311
#     4  10  20  34  55  82 109 138 174 217 264 314
#     4   9  17  29  50  80 106 129 164 214 267 312
#     4   8  14  26  47  74 100 125 159 208 258 299
#     4   9  18  34  56  78 101 135 178 220 259 304
#
# _framework density 18.857679000000001
#
# number of rings (size 3 to 8) (size 9 to 14) (size 15 to 20)
#    0.000    2.667    0.000    3.500    0.000    4.667 
#    0.000    5.833    0.000    8.000    0.000    0.000 
#    0.000    0.000    0.000    0.000    0.000    0.000 
#
# Total GULP energy -297567.553579 kJ/mol
# GULP energy per Si atom -12398.648066 kJ/mol
# Density = 1.881476 g / cm^3
# Si number density = 18.857679 Si / 1000 Ang^3
#
#
#
# Elastic Constant Matrix: (Units=GPa)
#
#
# Indices 1 2 3 4 5 6 
#
# 1 31.8197 17.5558 16.2862 0.0000 0.0000 0.0000
# 2 17.5558 138.2156 97.8093 0.0000 0.0000 0.0000
# 3 16.2862 97.8093 149.4909 0.0000 0.0000 0.0000
# 4 0.0000 0.0000 0.0000 21.8804 0.0000 0.0000
# 5 0.0000 0.0000 0.0000 0.0000 5.2132 0.0000
# 6 0.0000 0.0000 0.0000 0.0000 0.0000 6.0502
#
#
#
# Elastic Compliance Matrix: (Units=1/GPa)
#
#
# Indices 1 2 3 4 5 6 
#
# 1 0.034009 -0.003162 -0.001636 0.000000 0.000000 0.000000
# 2 -0.003162 0.013767 -0.008663 0.000000 0.000000 0.000000
# 3 -0.001636 -0.008663 0.012536 0.000000 0.000000 0.000000
# 4 0.000000 0.000000 0.000000 0.045703 0.000000 0.000000
# 5 0.000000 0.000000 0.000000 0.000000 0.191819 0.000000
# 6 0.000000 0.000000 0.000000 0.000000 0.000000 0.165285
#
#
# Mechanical properties :
#
#
# Convention : Reuss Voigt Hill
#
# Bulk Modulus (GPa) = 29.94961 64.75875 47.35418
# Shear Modulus (GPa) = 9.97662 19.15375 14.56518
#
# Velocity S-wave (km/s) = 2.30260 3.19046 2.78218
# Velocity P-wave (km/s) = 4.79434 6.92729 5.95706
#
# Compressibility (1/GPa) = 0.03338942
#
# Stress axis : x y z
#
# Youngs Moduli (GPa) = 29.40393 72.63619 79.77123
#
# Poissons Ratio (x) = 0.22965 0.13054
# Poissons Ratio (y) = 0.09297 0.69108
# Poissons Ratio (z) = 0.04812 0.62926
#
# Static dielectric constant tensor:
#      x y z
#    x 2.967180 0.000000 0.000000 
#    y 0.000000 3.804530 0.000000 
#    z 0.000000 0.000000 3.628380 
# 
# 
# High freq. dielectric constant tensor:
#      x y z
#    x 1.684480 0.000000 0.000000 
#    y 0.000000 1.748870 0.000000 
#    z 0.000000 0.000000 1.731030 
# 
# From -- ./inp_files/4874.got.cif
#   From: 2010.03.12/outbox.cif.g09.slc.cpg/sg26_3_cif.got.tgz:4874.got - 2010.04.14 03:33:09.
