data_PCOD8167914
_publ_section_title
;
Structure prediction by ZEFSAII (Michael W. Deem and Ramdas Pophale) SiO2 
 PCOD8167914
Probable space group: P C C 2
;
_chemical_formula_sum "Si O2"
_cell_formula_units_Z 16
_cell_length_a 4.892030
_cell_length_b 11.181937
_cell_length_c 11.402412
_cell_angle_alpha 90.000000
_cell_angle_beta 90.000000
_cell_angle_gamma 90.000000
_cell_volume 623.738975
_symmetry_space_group_name_H-M "P C C 2"
_symmetry_group_IT_number 27
_symmetry_cell_setting 'orthorhombic'
loop_
_space_group_symop_operation_xyz
x,y,z
-x,-y,z
-x,y,1/2+z
x,-y,1/2+z
loop_
_atom_site_type_symbol
_atom_site_label
_atom_site_fract_x
_atom_site_fract_y
_atom_site_fract_z
Si Si1 0.000000 0.000000 0.521860
Si Si2 0.257650 0.191654 0.359050
Si Si3 0.531952 0.365735 0.533151
Si Si4 0.969003 0.365576 0.188306
Si Si5 0.500000 0.000000 0.196236
O O1 0.055366 0.112829 0.438775
O O2 0.751226 0.008564 0.609684
O O3 0.463957 0.272807 0.432505
O O4 0.045446 0.271374 0.286822
O O5 0.467019 0.114505 0.280171
O O6 0.500000 0.500000 0.483375
O O7 0.843422 0.346150 0.573068
O O8 0.342267 0.344382 0.647823
O O9 0.000000 0.500000 0.238644
#
# Coordination Sequence:
#
# PCOD8167914 Si02
#       5
#     2   4   4   4   2
#     4  12  28  48  72 108 148 192 250 308 358 428
#     4  12  26  48  78 104 146 198 242 294 370 436
#     4  10  24  45  71 106 144 182 234 297 358 431
#     4  10  24  45  71 106 144 182 234 297 358 431
#     4  12  28  48  72 108 148 192 250 308 358 428
#
# _framework density 25.651754
#
# number of rings (size 3 to 8) (size 9 to 14) (size 15 to 20)
#    0.000    1.000    0.000    4.500    0.000   16.000 
#    0.000    0.000    0.000    0.000    0.000    0.000 
#    0.000    0.000    0.000    0.000    0.000    0.000 
#
# Total GULP energy -198435.487455 kJ/mol
# GULP energy per Si atom -12402.217966 kJ/mol
# Density = 2.559337 g / cm^3
# Si number density = 25.651754 Si / 1000 Ang^3
#
#
#
# Elastic Constant Matrix: (Units=GPa)
#
#
# Indices 1 2 3 4 5 6 
#
# 1 78.1680 20.6762 12.2953 0.0000 0.0000 0.0000
# 2 20.6762 178.4058 83.8084 0.0000 0.0000 0.0000
# 3 12.2953 83.8084 123.0359 0.0000 0.0000 0.0000
# 4 0.0000 0.0000 0.0000 57.3840 0.0000 0.0000
# 5 0.0000 0.0000 0.0000 0.0000 12.5362 0.0000
# 6 0.0000 0.0000 0.0000 0.0000 0.0000 44.6378
#
#
#
# Elastic Compliance Matrix: (Units=1/GPa)
#
#
# Indices 1 2 3 4 5 6 
#
# 1 0.013211 -0.001340 -0.000408 0.000000 0.000000 0.000000
# 2 -0.001340 0.008379 -0.005573 0.000000 0.000000 0.000000
# 3 -0.000408 -0.005573 0.011965 0.000000 0.000000 0.000000
# 4 0.000000 0.000000 0.000000 0.017426 0.000000 0.000000
# 5 0.000000 0.000000 0.000000 0.000000 0.079769 0.000000
# 6 0.000000 0.000000 0.000000 0.000000 0.000000 0.022403
#
#
# Mechanical properties :
#
#
# Convention : Reuss Voigt Hill
#
# Bulk Modulus (GPa) = 52.87243 68.12995 60.50119
# Shear Modulus (GPa) = 28.71929 40.43358 34.57643
#
# Velocity S-wave (km/s) = 3.34965 3.97451 3.67538
# Velocity P-wave (km/s) = 5.96796 6.90504 6.45353
#
# Compressibility (1/GPa) = 0.01891345
#
# Stress axis : x y z
#
# Youngs Moduli (GPa) = 75.69203 119.35136 83.57785
#
# Poissons Ratio (x) = 0.15988 0.03408
# Poissons Ratio (y) = 0.10139 0.46581
# Poissons Ratio (z) = 0.03087 0.66519
#
# Static dielectric constant tensor:
#      x y z
#    x 4.560210 0.000000 0.000000 
#    y 0.000000 5.020790 0.000000 
#    z 0.000000 0.000000 4.905100 
# 
# 
# High freq. dielectric constant tensor:
#      x y z
#    x 2.039230 0.000000 0.000000 
#    y 0.000000 2.044220 0.000000 
#    z 0.000000 0.000000 2.029510 
# 
# From -- ./inp_files/1846.got.cif
#   From: 2010.03.12/outbox.cif.g09.slc.cpg/sg27_1_cif.got.tgz:1846.got - 2010.04.14 03:36:05.
