data_PCOD8167315
_publ_section_title
;
Structure prediction by ZEFSAII (Michael W. Deem and Ramdas Pophale) SiO2 
 PCOD8167315
Probable space group: P M C 21
;
_chemical_formula_sum "Si O2"
_cell_formula_units_Z 32
_cell_length_a 13.561343
_cell_length_b 15.105770
_cell_length_c 8.776873
_cell_angle_alpha 90.000000
_cell_angle_beta 90.000000
_cell_angle_gamma 90.000000
_cell_volume 1797.982178
_symmetry_space_group_name_H-M "P M C 21"
_symmetry_group_IT_number 26
_symmetry_cell_setting 'orthorhombic'
loop_
_space_group_symop_operation_xyz
x,y,z
-x,-y,1/2+z
-x,y,z
x,-y,1/2+z
loop_
_atom_site_type_symbol
_atom_site_label
_atom_site_fract_x
_atom_site_fract_y
_atom_site_fract_z
Si Si1 0.886526 0.054412 0.964840
Si Si2 0.196948 0.778951 0.628916
Si Si3 0.194466 0.895910 0.140164
Si Si4 0.389525 0.121452 0.107000
Si Si5 0.883791 0.436141 0.632643
Si Si6 0.882152 0.610654 0.467065
Si Si7 0.389187 0.054225 0.771932
Si Si8 0.116581 0.735846 0.957305
O O1 0.864430 0.077883 0.791349
O O2 0.000000 0.029159 0.982591
O O3 0.862193 0.134450 0.078102
O O4 0.822904 0.968906 0.010058
O O5 0.314069 0.797519 0.624758
O O6 0.172140 0.700014 0.514458
O O7 0.167793 0.753593 0.798224
O O8 0.311163 0.888266 0.175300
O O9 0.155447 0.801700 0.086246
O O10 0.500000 0.161064 0.112310
O O11 0.373019 0.050318 0.241635
O O12 0.370106 0.069673 0.949706
O O13 0.846484 0.532091 0.578619
O O14 0.852712 0.362384 0.509729
O O15 0.000000 0.439194 0.645187
O O16 0.842452 0.413152 0.799167
O O17 0.000000 0.624867 0.473262
O O18 0.500000 0.082643 0.722869
O O19 0.000000 0.746155 0.938512
#
# Coordination Sequence:
#
# PCOD8167315 Si02
#       8
#     4   4   4   4   4   4   4   4
#     4  12  23  34  49  72 109 149 185 216 261 331
#     4  12  22  35  54  80 108 145 183 227 275 331
#     4  12  22  37  51  75 105 149 185 224 277 322
#     4  10  22  39  58  80 105 140 185 241 289 326
#     4   9  19  35  55  80 111 147 185 228 267 314
#     4  10  19  34  56  82 113 146 183 224 272 323
#     4  10  20  38  58  77 102 137 186 239 281 318
#     4  11  23  36  52  78 115 151 187 225 265 323
#
# _framework density 17.797729
#
# number of rings (size 3 to 8) (size 9 to 14) (size 15 to 20)
#    0.000    1.250    2.500    4.500    1.750    3.000 
#    0.000    0.000    0.000    0.000    0.000    4.375 
#    0.000    0.000    0.000    0.000    0.000    0.000 
#
# Total GULP energy -396895.256684 kJ/mol
# GULP energy per Si atom -12402.976771 kJ/mol
# Density = 1.775722 g / cm^3
# Si number density = 17.797729 Si / 1000 Ang^3
#
#
#
# Elastic Constant Matrix: (Units=GPa)
#
#
# Indices 1 2 3 4 5 6 
#
# 1 106.3540 39.4554 32.5490 0.0000 0.0000 0.0000
# 2 39.4554 70.3617 7.2656 0.0000 0.0000 0.0000
# 3 32.5490 7.2656 68.9952 0.0000 0.0000 0.0000
# 4 0.0000 0.0000 0.0000 29.8032 0.0000 0.0000
# 5 0.0000 0.0000 0.0000 0.0000 25.3726 0.0000
# 6 0.0000 0.0000 0.0000 0.0000 0.0000 12.7195
#
#
#
# Elastic Compliance Matrix: (Units=1/GPa)
#
#
# Indices 1 2 3 4 5 6 
#
# 1 0.013822 -0.007155 -0.005767 0.000000 0.000000 0.000000
# 2 -0.007155 0.018073 0.001472 0.000000 0.000000 0.000000
# 3 -0.005767 0.001472 0.017059 0.000000 0.000000 0.000000
# 4 0.000000 0.000000 0.000000 0.033553 0.000000 0.000000
# 5 0.000000 0.000000 0.000000 0.000000 0.039413 0.000000
# 6 0.000000 0.000000 0.000000 0.000000 0.000000 0.078619
#
#
# Mechanical properties :
#
#
# Convention : Reuss Voigt Hill
#
# Bulk Modulus (GPa) = 38.38182 44.91677 41.64930
# Shear Modulus (GPa) = 21.54023 24.67513 23.10768
#
# Velocity S-wave (km/s) = 3.48268 3.72751 3.60717
# Velocity P-wave (km/s) = 6.14691 6.61951 6.38758
#
# Compressibility (1/GPa) = 0.02605400
#
# Stress axis : x y z
#
# Youngs Moduli (GPa) = 72.34842 55.33266 58.61868
#
# Poissons Ratio (x) = 0.39592 0.33806
# Poissons Ratio (y) = 0.51767 -0.08631
# Poissons Ratio (z) = 0.41724 -0.08147
#
# Static dielectric constant tensor:
#      x y z
#    x 3.324930 0.000000 0.000000 
#    y 0.000000 3.389680 0.000000 
#    z 0.000000 0.000000 3.520910 
# 
# 
# High freq. dielectric constant tensor:
#      x y z
#    x 1.667720 0.000000 0.000000 
#    y 0.000000 1.675010 0.000000 
#    z 0.000000 0.000000 1.708880 
# 
# From -- ./inp_files/2249.got.cif
#   From: 2010.03.12/outbox.cif.g09.slc.cpg/sg26_2_cif.got.tgz:2249.got - 2010.04.14 03:33:09.
