data_PCOD8167126
_publ_section_title
;
Structure prediction by ZEFSAII (Michael W. Deem and Ramdas Pophale) SiO2 
 PCOD8167126
Probable space group: P M C 21
;
_chemical_formula_sum "Si O2"
_cell_formula_units_Z 32
_cell_length_a 8.851291
_cell_length_b 12.316111
_cell_length_c 14.559469
_cell_angle_alpha 90.000000
_cell_angle_beta 90.000000
_cell_angle_gamma 90.000000
_cell_volume 1587.178418
_symmetry_space_group_name_H-M "P M C 21"
_symmetry_group_IT_number 26
_symmetry_cell_setting 'orthorhombic'
loop_
_space_group_symop_operation_xyz
x,y,z
-x,-y,1/2+z
-x,y,z
x,-y,1/2+z
loop_
_atom_site_type_symbol
_atom_site_label
_atom_site_fract_x
_atom_site_fract_y
_atom_site_fract_z
Si Si1 0.670685 0.684183 0.129870
Si Si2 0.329210 0.898577 0.235725
Si Si3 0.823595 0.209473 0.466474
Si Si4 0.175015 0.468277 0.143632
Si Si5 0.178450 0.159027 0.915776
Si Si6 0.821264 0.599148 0.442558
Si Si7 0.321099 0.996526 0.044858
Si Si8 0.824632 0.390829 0.336126
O O1 0.500000 0.679161 0.089970
O O2 0.678514 0.772323 0.209875
O O3 0.791692 0.711399 0.051571
O O4 0.721878 0.570127 0.171048
O O5 0.500000 0.933468 0.259637
O O6 0.228547 0.911614 0.326949
O O7 0.267586 0.970685 0.149739
O O8 0.728855 0.099622 0.476172
O O9 0.764090 0.277367 0.377927
O O10 0.000000 0.179449 0.461704
O O11 0.203074 0.384429 0.227060
O O12 0.000000 0.503932 0.139885
O O13 0.228313 0.415236 0.048612
O O14 0.238934 0.283176 0.908986
O O15 0.000000 0.153837 0.924363
O O16 0.247540 0.107373 0.008736
O O17 0.751623 0.499940 0.382302
O O18 0.000000 0.600582 0.433299
O O19 0.500000 0.004400 0.042107
O O20 0.000000 0.396673 0.362066
#
# Coordination Sequence:
#
# PCOD8167126 Si02
#       8
#     4   4   4   4   4   4   4   4
#     4  10  19  32  52  81 114 147 188 232 280 336
#     4   9  20  38  59  82 111 152 194 237 293 345
#     4  10  18  33  57  82 108 139 188 237 281 336
#     4  10  18  32  54  77 111 152 183 225 284 340
#     4  11  22  37  60  88 116 150 198 244 287 347
#     4   9  18  33  52  82 117 147 181 230 288 335
#     4  10  22  41  61  82 116 152 188 239 299 353
#     4   9  17  30  53  84 111 141 182 228 282 334
#
# _framework density 20.161563999999998
#
# number of rings (size 3 to 8) (size 9 to 14) (size 15 to 20)
#    0.000    2.250    1.250    3.000    0.000    4.000 
#    2.250    2.500    0.000    0.000    0.000    0.000 
#    0.000    0.000    0.000    0.000    0.000    0.000 
#
# Total GULP energy -396658.474312 kJ/mol
# GULP energy per Si atom -12395.577322 kJ/mol
# Density = 2.011568 g / cm^3
# Si number density = 20.161564 Si / 1000 Ang^3
#
#
#
# Elastic Constant Matrix: (Units=GPa)
#
#
# Indices 1 2 3 4 5 6 
#
# 1 52.2019 11.8395 19.2058 0.0000 0.0000 0.0000
# 2 11.8395 46.9742 15.5380 0.0000 0.0000 0.0000
# 3 19.2058 15.5380 99.4502 0.0000 0.0000 0.0000
# 4 0.0000 0.0000 0.0000 24.8333 0.0000 0.0000
# 5 0.0000 0.0000 0.0000 0.0000 22.6783 0.0000
# 6 0.0000 0.0000 0.0000 0.0000 0.0000 22.9056
#
#
#
# Elastic Compliance Matrix: (Units=1/GPa)
#
#
# Indices 1 2 3 4 5 6 
#
# 1 0.021395 -0.004245 -0.003469 0.000000 0.000000 0.000000
# 2 -0.004245 0.023291 -0.002819 0.000000 0.000000 0.000000
# 3 -0.003469 -0.002819 0.011166 0.000000 0.000000 0.000000
# 4 0.000000 0.000000 0.000000 0.040269 0.000000 0.000000
# 5 0.000000 0.000000 0.000000 0.000000 0.044095 0.000000
# 6 0.000000 0.000000 0.000000 0.000000 0.000000 0.043658
#
#
# Mechanical properties :
#
#
# Convention : Reuss Voigt Hill
#
# Bulk Modulus (GPa) = 28.74728 32.42143 30.58435
# Shear Modulus (GPa) = 23.09108 24.21963 23.65535
#
# Velocity S-wave (km/s) = 3.38790 3.46970 3.42905
# Velocity P-wave (km/s) = 5.43997 5.67164 5.55701
#
# Compressibility (1/GPa) = 0.03478590
#
# Stress axis : x y z
#
# Youngs Moduli (GPa) = 46.73910 42.93547 89.56083
#
# Poissons Ratio (x) = 0.18227 0.31065
# Poissons Ratio (y) = 0.19842 0.25248
# Poissons Ratio (z) = 0.16212 0.12104
#
# Static dielectric constant tensor:
#      x y z
#    x 3.366480 0.000000 0.000000 
#    y 0.000000 3.716190 0.000000 
#    z 0.000000 0.000000 3.640580 
# 
# 
# High freq. dielectric constant tensor:
#      x y z
#    x 1.758940 0.000000 0.000000 
#    y 0.000000 1.777920 0.000000 
#    z 0.000000 0.000000 1.787000 
# 
# From -- ./inp_files/4292.got.cif
#   From: 2010.03.12/outbox.cif.g09.slc.cpg/sg26_3_cif.got.tgz:4292.got - 2010.04.14 03:33:09.
