data_PCOD8167908
_publ_section_title
;
Structure prediction by ZEFSAII (Michael W. Deem and Ramdas Pophale) SiO2 
 PCOD8167908
Probable space group: P C C 2
;
_chemical_formula_sum "Si O2"
_cell_formula_units_Z 32
_cell_length_a 14.964343
_cell_length_b 11.218498
_cell_length_c 8.794322
_cell_angle_alpha 90.000000
_cell_angle_beta 90.000000
_cell_angle_gamma 90.000000
_cell_volume 1476.368370
_symmetry_space_group_name_H-M "P C C 2"
_symmetry_group_IT_number 27
_symmetry_cell_setting 'orthorhombic'
loop_
_space_group_symop_operation_xyz
x,y,z
-x,-y,z
-x,y,1/2+z
x,-y,1/2+z
loop_
_atom_site_type_symbol
_atom_site_label
_atom_site_fract_x
_atom_site_fract_y
_atom_site_fract_z
Si Si1 0.931987 0.851780 0.450580
Si Si2 0.607940 0.416464 0.307399
Si Si3 0.800965 0.408775 0.203506
Si Si4 0.692875 0.152659 0.715589
Si Si5 0.439010 0.347489 0.149547
Si Si6 0.816326 0.649163 0.358372
Si Si7 0.896046 0.183774 0.280959
Si Si8 0.766656 0.974036 0.918037
O O1 0.907797 0.720664 0.386666
O O2 0.938934 0.863488 0.628829
O O3 0.034939 0.869233 0.404089
O O4 0.855407 0.944053 0.403625
O O5 0.709235 0.373881 0.288931
O O6 0.544430 0.343823 0.189762
O O7 0.604781 0.557981 0.268237
O O8 0.576181 0.393621 0.479086
O O9 0.833626 0.541272 0.243105
O O10 0.880554 0.325515 0.267134
O O11 0.781943 0.396641 0.023008
O O12 0.598500 0.212047 0.668380
O O13 0.748023 0.265006 0.773357
O O14 0.740216 0.080426 0.579279
O O15 0.684649 0.053167 0.849975
O O16 0.795419 0.135074 0.309808
#
# Coordination Sequence:
#
# PCOD8167908 Si02
#       8
#     4   4   4   4   4   4   4   4
#     4  10  24  41  60  98 128 174 233 287 337 396
#     4  11  22  39  67 107 139 177 221 276 347 423
#     4  11  23  41  66  99 141 180 223 277 355 432
#     4  11  24  43  68  99 135 178 233 291 347 409
#     4  11  23  39  68 105 141 178 222 288 341 415
#     4  10  24  40  65  99 137 181 222 285 351 420
#     4  11  24  40  65  94 130 178 224 290 339 406
#     4  11  23  43  67  94 129 177 239 287 338 400
#
# _framework density 21.674807000000001
#
# number of rings (size 3 to 8) (size 9 to 14) (size 15 to 20)
#    0.000    1.250    2.500    3.375    7.000    1.500 
#    0.000    2.500    0.000    6.000    0.000    0.000 
#    0.000    0.000    0.000    0.000    0.000    0.000 
#
# Total GULP energy -396476.044695 kJ/mol
# GULP energy per Si atom -12389.876397 kJ/mol
# Density = 2.162547 g / cm^3
# Si number density = 21.674807 Si / 1000 Ang^3
#
#
#
# Elastic Constant Matrix: (Units=GPa)
#
#
# Indices 1 2 3 4 5 6 
#
# 1 52.1373 10.5613 16.5225 0.0000 0.0000 0.0000
# 2 10.5613 101.2525 46.7250 0.0000 0.0000 0.0000
# 3 16.5225 46.7250 122.4407 0.0000 0.0000 0.0000
# 4 0.0000 0.0000 0.0000 34.4663 0.0000 0.0000
# 5 0.0000 0.0000 0.0000 0.0000 -19.0494 0.0000
# 6 0.0000 0.0000 0.0000 0.0000 0.0000 39.5608
#
#
#
# Elastic Compliance Matrix: (Units=1/GPa)
#
#
# Indices 1 2 3 4 5 6 
#
# 1 0.020125 -0.001027 -0.002324 0.000000 0.000000 0.000000
# 2 -0.001027 0.012040 -0.004456 0.000000 0.000000 0.000000
# 3 -0.002324 -0.004456 0.010181 0.000000 0.000000 0.000000
# 4 0.000000 0.000000 0.000000 0.029014 0.000000 0.000000
# 5 0.000000 0.000000 0.000000 0.000000 -0.052495 0.000000
# 6 0.000000 0.000000 0.000000 0.000000 0.000000 0.025278
#
#
# Mechanical properties :
#
#
# Convention : Reuss Voigt Hill
#
# Bulk Modulus (GPa) = 37.40780 47.04981 42.22880
# Shear Modulus (GPa) = 72.81673 24.46367 48.64020
#
# Velocity S-wave (km/s) = 5.80242 3.36321 4.74232
# Velocity P-wave (km/s) = 7.88586 6.06925 7.03643
#
# Compressibility (1/GPa) = 0.02673239
#
# Stress axis : x y z
#
# Youngs Moduli (GPa) = 49.69057 83.05867 98.21968
#
# Poissons Ratio (x) = 0.08528 0.22825
# Poissons Ratio (y) = 0.05102 0.43766
# Poissons Ratio (z) = 0.11547 0.37011
#
# Static dielectric constant tensor:
#      x y z
#    x 4.716840 0.000000 0.000000 
#    y 0.000000 4.181530 0.000000 
#    z 0.000000 0.000000 3.964560 
# 
# 
# High freq. dielectric constant tensor:
#      x y z
#    x 1.829030 0.000000 0.000000 
#    y 0.000000 1.857780 0.000000 
#    z 0.000000 0.000000 1.861310 
# 
# From -- ./inp_files/1613.got.cif
#   From: 2010.03.12/outbox.cif.g09.slc.cpg/sg27_1_cif.got.tgz:1613.got - 2010.04.14 03:36:05.
