data_PCOD8167879
_publ_section_title
;
Structure prediction by ZEFSAII (Michael W. Deem and Ramdas Pophale) SiO2 
 PCOD8167879
Probable space group: P C C 2
;
_chemical_formula_sum "Si O2"
_cell_formula_units_Z 28
_cell_length_a 16.050485
_cell_length_b 9.040563
_cell_length_c 9.331095
_cell_angle_alpha 90.000000
_cell_angle_beta 90.000000
_cell_angle_gamma 90.000000
_cell_volume 1353.992467
_symmetry_space_group_name_H-M "P C C 2"
_symmetry_group_IT_number 27
_symmetry_cell_setting 'orthorhombic'
loop_
_space_group_symop_operation_xyz
x,y,z
-x,-y,z
-x,y,1/2+z
x,-y,1/2+z
loop_
_atom_site_type_symbol
_atom_site_label
_atom_site_fract_x
_atom_site_fract_y
_atom_site_fract_z
Si Si1 0.581303 0.850096 0.391470
Si Si2 0.114861 0.744906 0.712675
Si Si3 0.741417 0.350278 0.224374
Si Si4 0.417598 0.150516 0.730159
Si Si5 0.000000 0.000000 0.806694
Si Si6 0.000000 0.500000 0.312732
Si Si7 0.259478 0.653498 0.893423
Si Si8 0.885595 0.755712 0.906147
O O1 0.564925 0.878271 0.561011
O O2 0.499353 0.786563 0.311360
O O3 0.653232 0.732238 0.368627
O O4 0.608126 0.000090 0.310982
O O5 0.066954 0.588099 0.717985
O O6 0.184067 0.756862 0.837160
O O7 0.161114 0.750179 0.559166
O O8 0.049553 0.879689 0.713229
O O9 0.655138 0.267631 0.251753
O O10 0.739457 0.503020 0.306822
O O11 0.818082 0.251051 0.279725
O O12 0.757065 0.381389 0.058342
O O13 0.066449 0.088605 0.901377
O O14 0.951114 0.379683 0.407297
#
# Coordination Sequence:
#
# PCOD8167879 Si02
#       8
#     4   4   4   4   2   2   4   4
#     4  10  22  41  66  96 127 164 205 252 304 368
#     4  11  23  41  64  90 125 165 207 259 310 367
#     4  11  25  42  63  94 128 163 209 256 310 371
#     4  10  22  41  66  96 127 164 205 252 304 368
#     4  10  26  42  60  96 124 158 216 256 318 366
#     4  10  22  38  64  92 120 158 214 254 310 362
#     4  11  25  42  63  94 128 163 209 256 310 371
#     4  11  23  41  64  90 125 165 207 259 310 367
#
# _framework density 20.679582
#
# number of rings (size 3 to 8) (size 9 to 14) (size 15 to 20)
#    0.000    1.429    1.429    3.429    2.000   10.857 
#    0.000    2.857    0.000    0.000    0.000    0.000 
#    0.000    0.000    0.000    0.000    0.000    0.000 
#
# Total GULP energy -347135.111463 kJ/mol
# GULP energy per Si atom -12397.682552 kJ/mol
# Density = 2.063251 g / cm^3
# Si number density = 20.679582 Si / 1000 Ang^3
#
#
#
# Elastic Constant Matrix: (Units=GPa)
#
#
# Indices 1 2 3 4 5 6 
#
# 1 113.6937 48.7006 67.5156 0.0000 0.0000 0.0000
# 2 48.7006 96.8114 46.2772 0.0000 0.0000 0.0000
# 3 67.5156 46.2772 171.1299 0.0000 0.0000 0.0000
# 4 0.0000 0.0000 0.0000 12.0191 0.0000 0.0000
# 5 0.0000 0.0000 0.0000 0.0000 28.8239 0.0000
# 6 0.0000 0.0000 0.0000 0.0000 0.0000 34.2355
#
#
#
# Elastic Compliance Matrix: (Units=1/GPa)
#
#
# Indices 1 2 3 4 5 6 
#
# 1 0.013147 -0.004748 -0.003903 0.000000 0.000000 0.000000
# 2 -0.004748 0.013577 -0.001798 0.000000 0.000000 0.000000
# 3 -0.003903 -0.001798 0.007870 0.000000 0.000000 0.000000
# 4 0.000000 0.000000 0.000000 0.083201 0.000000 0.000000
# 5 0.000000 0.000000 0.000000 0.000000 0.034693 0.000000
# 6 0.000000 0.000000 0.000000 0.000000 0.000000 0.029209
#
#
# Mechanical properties :
#
#
# Convention : Reuss Voigt Hill
#
# Bulk Modulus (GPa) = 73.01629 78.51353 75.76491
# Shear Modulus (GPa) = 24.13575 29.62515 26.88045
#
# Velocity S-wave (km/s) = 3.42003 3.78905 3.60926
# Velocity P-wave (km/s) = 7.14007 7.56252 7.35433
#
# Compressibility (1/GPa) = 0.01369557
#
# Stress axis : x y z
#
# Youngs Moduli (GPa) = 76.06269 73.65141 127.07006
#
# Poissons Ratio (x) = 0.34969 0.49595
# Poissons Ratio (y) = 0.36114 0.22853
# Poissons Ratio (z) = 0.29687 0.13246
#
# Static dielectric constant tensor:
#      x y z
#    x 3.902020 0.000000 0.000000 
#    y 0.000000 3.805270 0.000000 
#    z 0.000000 0.000000 3.834420 
# 
# 
# High freq. dielectric constant tensor:
#      x y z
#    x 1.813490 0.000000 0.000000 
#    y 0.000000 1.810710 0.000000 
#    z 0.000000 0.000000 1.820420 
# 
# From -- ./inp_files/1696.got.cif
#   From: 2010.03.12/outbox.cif.g09.slc.cpg/sg27_1_cif.got.tgz:1696.got - 2010.04.14 03:36:05.
