data_PCOD8167531
_publ_section_title
;
Structure prediction by ZEFSAII (Michael W. Deem and Ramdas Pophale) SiO2 
 PCOD8167531
Probable space group: P M C 21
;
_chemical_formula_sum "Si O2"
_cell_formula_units_Z 32
_cell_length_a 8.943849
_cell_length_b 11.905167
_cell_length_c 15.318191
_cell_angle_alpha 90.000000
_cell_angle_beta 90.000000
_cell_angle_gamma 90.000000
_cell_volume 1631.050586
_symmetry_space_group_name_H-M "P M C 21"
_symmetry_group_IT_number 26
_symmetry_cell_setting 'orthorhombic'
loop_
_space_group_symop_operation_xyz
x,y,z
-x,-y,1/2+z
-x,y,z
x,-y,1/2+z
loop_
_atom_site_type_symbol
_atom_site_label
_atom_site_fract_x
_atom_site_fract_y
_atom_site_fract_z
Si Si1 0.174411 0.497506 0.787830
Si Si2 0.327780 0.710577 0.549562
Si Si3 0.825674 0.497626 0.487780
Si Si4 0.675263 0.107178 0.396821
Si Si5 0.322556 0.716791 0.221002
Si Si6 0.822444 0.747478 0.043200
Si Si7 0.329163 0.275022 0.244814
Si Si8 0.322590 0.146750 0.889001
O O1 0.213747 0.473135 0.888246
O O2 0.266307 0.411337 0.728173
O O3 0.218635 0.623906 0.765814
O O4 0.000000 0.481798 0.768088
O O5 0.500000 0.689466 0.527827
O O6 0.250398 0.589066 0.549655
O O7 0.305256 0.765257 0.644978
O O8 0.258489 0.793525 0.476472
O O9 0.764674 0.374140 0.510776
O O10 0.000000 0.502006 0.506260
O O11 0.500000 0.111392 0.419582
O O12 0.766826 0.160166 0.475636
O O13 0.710750 0.170686 0.306521
O O14 0.735197 0.980683 0.385404
O O15 0.500000 0.718149 0.212624
O O16 0.250499 0.774558 0.136477
O O17 0.264177 0.786787 0.304322
O O18 0.000000 0.752850 0.050114
O O19 0.500000 0.314971 0.259666
O O20 0.500000 0.147354 0.890323
#
# Coordination Sequence:
#
# PCOD8167531 Si02
#       8
#     4   4   4   4   4   4   4   4
#     4  11  21  36  58  84 117 154 188 234 291 347
#     4  10  20  36  58  85 115 147 187 239 288 340
#     4  10  21  36  56  82 114 152 188 229 287 346
#     4  10  21  39  61  85 113 152 197 242 287 339
#     4  11  22  38  61  90 118 152 193 239 290 346
#     4  11  23  40  59  86 120 155 192 237 290 349
#     4  10  21  35  57  87 115 147 191 238 286 341
#     4   9  20  38  60  85 114 149 192 240 289 334
#
# _framework density 19.619257999999999
#
# number of rings (size 3 to 8) (size 9 to 14) (size 15 to 20)
#    0.000    1.750    2.500    1.875    0.000    5.000 
#    0.000    5.625    0.000    1.500    0.000    0.000 
#    0.000    0.000    0.000    0.000    0.000    0.000 
#
# Total GULP energy -396933.440611 kJ/mol
# GULP energy per Si atom -12404.170019 kJ/mol
# Density = 1.957460 g / cm^3
# Si number density = 19.619258 Si / 1000 Ang^3
#
#
#
# Elastic Constant Matrix: (Units=GPa)
#
#
# Indices 1 2 3 4 5 6 
#
# 1 50.7394 31.2471 45.8151 0.0000 0.0000 0.0000
# 2 31.2471 127.8050 48.4977 0.0000 0.0000 0.0000
# 3 45.8151 48.4977 117.0239 0.0000 0.0000 0.0000
# 4 0.0000 0.0000 0.0000 17.7565 0.0000 0.0000
# 5 0.0000 0.0000 0.0000 0.0000 26.6186 0.0000
# 6 0.0000 0.0000 0.0000 0.0000 0.0000 14.8774
#
#
#
# Elastic Compliance Matrix: (Units=1/GPa)
#
#
# Indices 1 2 3 4 5 6 
#
# 1 0.031840 -0.003624 -0.010963 0.000000 0.000000 0.000000
# 2 -0.003624 0.009697 -0.002600 0.000000 0.000000 0.000000
# 3 -0.010963 -0.002600 0.013915 0.000000 0.000000 0.000000
# 4 0.000000 0.000000 0.000000 0.056317 0.000000 0.000000
# 5 0.000000 0.000000 0.000000 0.000000 0.037568 0.000000
# 6 0.000000 0.000000 0.000000 0.000000 0.000000 0.067216
#
#
# Mechanical properties :
#
#
# Convention : Reuss Voigt Hill
#
# Bulk Modulus (GPa) = 47.44533 60.74311 54.09422
# Shear Modulus (GPa) = 19.38334 23.18441 21.28387
#
# Velocity S-wave (km/s) = 3.14662 3.44134 3.29727
# Velocity P-wave (km/s) = 6.11859 6.84241 6.49060
#
# Compressibility (1/GPa) = 0.02107689
#
# Stress axis : x y z
#
# Youngs Moduli (GPa) = 31.40709 103.12410 71.86560
#
# Poissons Ratio (x) = 0.37375 0.78789
# Poissons Ratio (y) = 0.11383 0.18683
# Poissons Ratio (z) = 0.34433 0.26810
#
# Static dielectric constant tensor:
#      x y z
#    x 3.350120 0.000000 0.000000 
#    y 0.000000 3.559720 0.000000 
#    z 0.000000 0.000000 3.815090 
# 
# 
# High freq. dielectric constant tensor:
#      x y z
#    x 1.747200 0.000000 0.000000 
#    y 0.000000 1.757610 0.000000 
#    z 0.000000 0.000000 1.781250 
# 
# From -- ./inp_files/4213.got.cif
#   From: 2010.03.12/outbox.cif.g09.slc.cpg/sg26_3_cif.got.tgz:4213.got - 2010.04.14 03:33:09.
