data_PCOD8167787
_publ_section_title
;
Structure prediction by ZEFSAII (Michael W. Deem and Ramdas Pophale) SiO2 
 PCOD8167787
Probable space group: P C C 2
;
_chemical_formula_sum "Si O2"
_cell_formula_units_Z 32
_cell_length_a 7.725470
_cell_length_b 5.237870
_cell_length_c 34.535180
_cell_angle_alpha 90.000000
_cell_angle_beta 90.000000
_cell_angle_gamma 90.000000
_cell_volume 1397.466319
_symmetry_space_group_name_H-M "P C C 2"
_symmetry_group_IT_number 27
_symmetry_cell_setting 'orthorhombic'
loop_
_space_group_symop_operation_xyz
x,y,z
-x,-y,z
-x,y,1/2+z
x,-y,1/2+z
loop_
_atom_site_type_symbol
_atom_site_label
_atom_site_fract_x
_atom_site_fract_y
_atom_site_fract_z
Si Si1 0.797637 0.997683 0.962820
Si Si2 0.695402 0.819628 0.620999
Si Si3 0.690267 0.319658 0.590723
Si Si4 0.302602 0.017992 0.708873
Si Si5 0.302947 0.999713 0.876198
Si Si6 0.293495 0.486206 0.248250
Si Si7 0.293477 0.503140 0.836607
Si Si8 0.203549 0.501714 0.509438
O O1 0.701500 0.018183 0.922320
O O2 0.740611 0.230463 0.991005
O O3 0.744390 0.726446 0.980342
O O4 0.000000 0.000000 0.954641
O O5 0.786211 0.541070 0.616821
O O6 0.499782 0.748935 0.607563
O O7 0.710006 0.941262 0.663135
O O8 0.783382 0.040643 0.593449
O O9 0.686815 0.438313 0.547876
O O10 0.212266 0.257809 0.729756
O O11 0.500000 0.000000 0.722339
O O12 0.216822 0.754215 0.723868
O O13 0.213112 0.748223 0.858460
O O14 0.500000 0.000000 0.862248
O O15 0.214908 0.253540 0.858177
O O16 0.500000 0.500000 0.244591
O O17 0.231081 0.477480 0.292437
O O18 0.500000 0.500000 0.839468
O O19 0.000000 0.500000 0.519476
#
# Coordination Sequence:
#
# PCOD8167787 Si02
#       8
#     4   4   4   4   4   4   4   4
#     4  10  21  38  56  77 101 132 176 221 258 307
#     4  10  19  30  46  70 105 137 154 211 254 307
#     4  10  19  32  48  68  99 133 164 202 267 302
#     4  10  16  25  40  62  99 136 163 191 242 293
#     4  10  19  33  52  73 104 137 162 211 258 307
#     4   9  17  24  40  65  94 138 165 191 228 306
#     4   9  17  30  46  69 104 136 161 201 250 295
#     4  10  21  38  56  72  98 132 173 221 259 306
#
# _framework density 22.898585000000001
#
# number of rings (size 3 to 8) (size 9 to 14) (size 15 to 20)
#    0.000    2.250    1.250    3.000    3.500    3.000 
#    6.750    0.000    0.000    0.000    0.000    0.000 
#    0.000   20.000    0.000    0.000    0.000    0.000 
#
# Total GULP energy -396449.964727 kJ/mol
# GULP energy per Si atom -12389.061398 kJ/mol
# Density = 2.284647 g / cm^3
# Si number density = 22.898585 Si / 1000 Ang^3
#
#
#
# Elastic Constant Matrix: (Units=GPa)
#
#
# Indices 1 2 3 4 5 6 
#
# 1 12.7748 6.2391 7.5360 0.0000 0.0000 0.0000
# 2 6.2391 254.7772 90.3191 0.0000 0.0000 0.0000
# 3 7.5360 90.3191 169.5742 0.0000 0.0000 0.0000
# 4 0.0000 0.0000 0.0000 53.6449 0.0000 0.0000
# 5 0.0000 0.0000 0.0000 0.0000 -11.7353 0.0000
# 6 0.0000 0.0000 0.0000 0.0000 0.0000 3.4151
#
#
#
# Elastic Compliance Matrix: (Units=1/GPa)
#
#
# Indices 1 2 3 4 5 6 
#
# 1 0.080542 -0.000867 -0.003117 0.000000 0.000000 0.000000
# 2 -0.000867 0.004848 -0.002544 0.000000 0.000000 0.000000
# 3 -0.003117 -0.002544 0.007390 0.000000 0.000000 0.000000
# 4 0.000000 0.000000 0.000000 0.018641 0.000000 0.000000
# 5 0.000000 0.000000 0.000000 0.000000 -0.085213 0.000000
# 6 0.000000 0.000000 0.000000 0.000000 0.000000 0.292819
#
#
# Mechanical properties :
#
#
# Convention : Reuss Voigt Hill
#
# Bulk Modulus (GPa) = 12.54331 71.70162 42.12247
# Shear Modulus (GPa) = 13.94084 31.26706 22.60395
#
# Velocity S-wave (km/s) = 2.47008 3.69922 3.14528
# Velocity P-wave (km/s) = 3.69117 7.04459 5.62366
#
# Compressibility (1/GPa) = 0.07972375
#
# Stress axis : x y z
#
# Youngs Moduli (GPa) = 12.41590 206.27311 135.30994
#
# Poissons Ratio (x) = 0.17888 0.42183
# Poissons Ratio (y) = 0.01077 0.34417
# Poissons Ratio (z) = 0.03871 0.52467
#
# Static dielectric constant tensor:
#      x y z
#    x 3.440660 0.000000 0.000000 
#    y 0.000000 12.692840 0.000000 
#    z 0.000000 0.000000 3.983830 
# 
# 
# High freq. dielectric constant tensor:
#      x y z
#    x 1.833530 0.000000 0.000000 
#    y 0.000000 1.944510 0.000000 
#    z 0.000000 0.000000 1.905920 
# 
# From -- ./inp_files/5363.got.cif
#   From: 2010.03.12/outbox.cif.g09.slc.cpg/sg27_3_cif.got.tgz:5363.got - 2010.04.14 03:36:05.
