data_PCOD8167330
_publ_section_title
;
Structure prediction by ZEFSAII (Michael W. Deem and Ramdas Pophale) SiO2 
 PCOD8167330
Probable space group: P M C 21
;
_chemical_formula_sum "Si O2"
_cell_formula_units_Z 32
_cell_length_a 9.253670
_cell_length_b 15.977238
_cell_length_c 10.960343
_cell_angle_alpha 90.000000
_cell_angle_beta 90.000000
_cell_angle_gamma 90.000000
_cell_volume 1620.465756
_symmetry_space_group_name_H-M "P M C 21"
_symmetry_group_IT_number 26
_symmetry_cell_setting 'orthorhombic'
loop_
_space_group_symop_operation_xyz
x,y,z
-x,-y,1/2+z
-x,y,z
x,-y,1/2+z
loop_
_atom_site_type_symbol
_atom_site_label
_atom_site_fract_x
_atom_site_fract_y
_atom_site_fract_z
Si Si1 0.662617 0.144268 0.798880
Si Si2 0.163354 0.750567 0.476269
Si Si3 0.332298 0.854095 0.932609
Si Si4 0.834711 0.961836 0.120978
Si Si5 0.171223 0.451114 0.663652
Si Si6 0.828403 0.437060 0.938571
Si Si7 0.659680 0.710342 0.102796
Si Si8 0.158517 0.143325 0.198605
O O1 0.500000 0.113281 0.827446
O O2 0.737001 0.177882 0.919912
O O3 0.753731 0.067574 0.744103
O O4 0.661381 0.220637 0.706369
O O5 0.227754 0.658060 0.452720
O O6 0.164987 0.771688 0.619651
O O7 0.000000 0.755694 0.423476
O O8 0.500000 0.876516 0.949548
O O9 0.288800 0.854795 0.792604
O O10 0.241426 0.924524 0.002117
O O11 0.300225 0.759773 0.979196
O O12 0.000000 0.930420 0.125351
O O13 0.824772 0.061992 0.112406
O O14 0.233806 0.511660 0.556135
O O15 0.220950 0.358351 0.630193
O O16 0.000000 0.452379 0.660463
O O17 0.222163 0.472753 0.804207
O O18 0.000000 0.439227 0.945916
O O19 0.500000 0.668836 0.094175
O O20 0.000000 0.139396 0.263406
#
# Coordination Sequence:
#
# PCOD8167330 Si02
#       8
#     4   4   4   4   4   4   4   4
#     4  10  20  35  57  84 111 144 190 237 283 342
#     4  10  20  37  58  83 115 153 193 239 290 346
#     4  10  22  39  57  81 115 149 189 239 291 350
#     4  10  21  37  57  82 113 150 192 239 290 341
#     4  10  19  34  57  85 113 149 193 242 294 352
#     4   9  19  34  56  86 117 148 194 246 297 352
#     4   9  19  36  56  80 109 142 185 233 279 338
#     4  10  23  38  56  83 115 151 192 239 290 347
#
# _framework density 19.747408
#
# number of rings (size 3 to 8) (size 9 to 14) (size 15 to 20)
#    0.000    2.250    1.250    1.875    1.750    5.000 
#    0.000    3.750    0.000    0.000    0.000    0.000 
#    0.000    0.000    0.000    0.000    0.000    0.000 
#
# Total GULP energy -396646.297205 kJ/mol
# GULP energy per Si atom -12395.196788 kJ/mol
# Density = 1.970246 g / cm^3
# Si number density = 19.747408 Si / 1000 Ang^3
#
#
#
# Elastic Constant Matrix: (Units=GPa)
#
#
# Indices 1 2 3 4 5 6 
#
# 1 77.9110 22.1456 36.2356 0.0000 0.0000 0.0000
# 2 22.1456 65.6822 40.8527 0.0000 0.0000 0.0000
# 3 36.2356 40.8527 113.3471 0.0000 0.0000 0.0000
# 4 0.0000 0.0000 0.0000 23.1839 0.0000 0.0000
# 5 0.0000 0.0000 0.0000 0.0000 26.6002 0.0000
# 6 0.0000 0.0000 0.0000 0.0000 0.0000 17.4061
#
#
#
# Elastic Compliance Matrix: (Units=1/GPa)
#
#
# Indices 1 2 3 4 5 6 
#
# 1 0.015454 -0.002755 -0.003947 0.000000 0.000000 0.000000
# 2 -0.002755 0.020115 -0.006369 0.000000 0.000000 0.000000
# 3 -0.003947 -0.006369 0.012380 0.000000 0.000000 0.000000
# 4 0.000000 0.000000 0.000000 0.043133 0.000000 0.000000
# 5 0.000000 0.000000 0.000000 0.000000 0.037594 0.000000
# 6 0.000000 0.000000 0.000000 0.000000 0.000000 0.057451
#
#
# Mechanical properties :
#
#
# Convention : Reuss Voigt Hill
#
# Bulk Modulus (GPa) = 45.85969 50.60090 48.23029
# Shear Modulus (GPa) = 22.77485 23.95178 23.36331
#
# Velocity S-wave (km/s) = 3.39972 3.48646 3.44337
# Velocity P-wave (km/s) = 6.21968 6.47201 6.34710
#
# Compressibility (1/GPa) = 0.02180564
#
# Stress axis : x y z
#
# Youngs Moduli (GPa) = 64.70708 49.71342 80.77568
#
# Poissons Ratio (x) = 0.13698 0.31886
# Poissons Ratio (y) = 0.17829 0.51447
# Poissons Ratio (z) = 0.25543 0.31663
#
# Static dielectric constant tensor:
#      x y z
#    x 3.646630 0.000000 0.000000 
#    y 0.000000 3.591470 0.000000 
#    z 0.000000 0.000000 3.719820 
# 
# 
# High freq. dielectric constant tensor:
#      x y z
#    x 1.756960 0.000000 0.000000 
#    y 0.000000 1.759340 0.000000 
#    z 0.000000 0.000000 1.769160 
# 
# From -- ./inp_files/2939.got.cif
#   From: 2010.03.12/outbox.cif.g09.slc.cpg/sg26_2_cif.got.tgz:2939.got - 2010.04.14 03:33:09.
