data_PCOD8167090
_publ_section_title
;
Structure prediction by ZEFSAII (Michael W. Deem and Ramdas Pophale) SiO2 
 PCOD8167090
Probable space group: P M C 21
;
_chemical_formula_sum "Si O2"
_cell_formula_units_Z 24
_cell_length_a 8.388988
_cell_length_b 9.254089
_cell_length_c 16.574572
_cell_angle_alpha 90.000000
_cell_angle_beta 90.000000
_cell_angle_gamma 90.000000
_cell_volume 1286.724492
_symmetry_space_group_name_H-M "P M C 21"
_symmetry_group_IT_number 26
_symmetry_cell_setting 'orthorhombic'
loop_
_space_group_symop_operation_xyz
x,y,z
-x,-y,1/2+z
-x,y,z
x,-y,1/2+z
loop_
_atom_site_type_symbol
_atom_site_label
_atom_site_fract_x
_atom_site_fract_y
_atom_site_fract_z
Si Si1 0.812636 0.665175 0.474530
Si Si2 0.188625 0.834054 0.801646
Si Si3 0.314663 0.072388 0.899549
Si Si4 0.315502 0.180365 0.130292
Si Si5 0.816968 0.078862 0.551095
Si Si6 0.189299 0.342757 0.456270
O O1 0.726675 0.756885 0.402988
O O2 0.777243 0.728050 0.563050
O O3 0.741881 0.503043 0.468375
O O4 0.000000 0.664804 0.458809
O O5 0.251532 0.771850 0.717268
O O6 0.249274 0.724464 0.871390
O O7 0.000000 0.849339 0.799142
O O8 0.267569 0.993243 0.816096
O O9 0.500000 0.048758 0.920083
O O10 0.199062 0.003408 0.966301
O O11 0.500000 0.215906 0.122492
O O12 0.285671 0.007510 0.117751
O O13 0.756137 0.242660 0.532826
O O14 0.000000 0.076521 0.579438
O O15 0.000000 0.343675 0.454970
#
# Coordination Sequence:
#
# PCOD8167090 Si02
#       6
#     4   4   4   4   4   4
#     4  10  18  33  54  76 101 135 170 205 246 300
#     4  10  19  35  55  75  97 130 171 214 256 300
#     4  10  18  30  48  74 101 128 161 202 244 293
#     4  11  21  33  49  76 105 132 166 210 256 302
#     4   9  16  31  52  73  95 129 169 204 240 290
#     4   8  17  32  54  78  99 126 171 213 246 293
#
# _framework density 18.652011000000002
#
# number of rings (size 3 to 8) (size 9 to 14) (size 15 to 20)
#    0.000    2.333    0.000    7.500    0.000    0.000 
#    0.000   11.667    0.000    4.000    0.000    0.000 
#    0.000    0.000    0.000    0.000    0.000    0.000 
#
# Total GULP energy -297432.257932 kJ/mol
# GULP energy per Si atom -12393.010747 kJ/mol
# Density = 1.860956 g / cm^3
# Si number density = 18.652011 Si / 1000 Ang^3
#
#
#
# Elastic Constant Matrix: (Units=GPa)
#
#
# Indices 1 2 3 4 5 6 
#
# 1 60.4377 15.5037 9.6993 0.0000 0.0000 0.0000
# 2 15.5037 131.4792 33.9336 0.0000 0.0000 0.0000
# 3 9.6993 33.9336 77.3181 0.0000 0.0000 0.0000
# 4 0.0000 0.0000 0.0000 20.2551 0.0000 0.0000
# 5 0.0000 0.0000 0.0000 0.0000 20.3170 0.0000
# 6 0.0000 0.0000 0.0000 0.0000 0.0000 6.9826
#
#
#
# Elastic Compliance Matrix: (Units=1/GPa)
#
#
# Indices 1 2 3 4 5 6 
#
# 1 0.017201 -0.001659 -0.001430 0.000000 0.000000 0.000000
# 2 -0.001659 0.008737 -0.003627 0.000000 0.000000 0.000000
# 3 -0.001430 -0.003627 0.014705 0.000000 0.000000 0.000000
# 4 0.000000 0.000000 0.000000 0.049370 0.000000 0.000000
# 5 0.000000 0.000000 0.000000 0.000000 0.049220 0.000000
# 6 0.000000 0.000000 0.000000 0.000000 0.000000 0.143214
#
#
# Mechanical properties :
#
#
# Convention : Reuss Voigt Hill
#
# Bulk Modulus (GPa) = 36.74833 43.05646 39.90240
# Shear Modulus (GPa) = 16.39620 23.51750 19.95685
#
# Velocity S-wave (km/s) = 2.96811 3.55471 3.27457
# Velocity P-wave (km/s) = 5.61169 6.32314 5.97801
#
# Compressibility (1/GPa) = 0.02721212
#
# Stress axis : x y z
#
# Youngs Moduli (GPa) = 58.13599 114.45041 68.00624
#
# Poissons Ratio (x) = 0.18991 0.09722
# Poissons Ratio (y) = 0.09647 0.24663
# Poissons Ratio (z) = 0.08311 0.41506
#
# Static dielectric constant tensor:
#      x y z
#    x 3.243890 0.000000 0.000000 
#    y 0.000000 3.929430 0.000000 
#    z 0.000000 0.000000 3.364670 
# 
# 
# High freq. dielectric constant tensor:
#      x y z
#    x 1.720490 0.000000 0.000000 
#    y 0.000000 1.718290 0.000000 
#    z 0.000000 0.000000 1.697630 
# 
# From -- ./inp_files/4879.got.cif
#   From: 2010.03.12/outbox.cif.g09.slc.cpg/sg26_3_cif.got.tgz:4879.got - 2010.04.14 03:33:09.
