data_PCOD8167150
_publ_section_title
;
Structure prediction by ZEFSAII (Michael W. Deem and Ramdas Pophale) SiO2 
 PCOD8167150
Probable space group: P M C 21
;
_chemical_formula_sum "Si O2"
_cell_formula_units_Z 32
_cell_length_a 9.166174
_cell_length_b 16.180224
_cell_length_c 10.964628
_cell_angle_alpha 90.000000
_cell_angle_beta 90.000000
_cell_angle_gamma 90.000000
_cell_volume 1626.172186
_symmetry_space_group_name_H-M "P M C 21"
_symmetry_group_IT_number 26
_symmetry_cell_setting 'orthorhombic'
loop_
_space_group_symop_operation_xyz
x,y,z
-x,-y,1/2+z
-x,y,z
x,-y,1/2+z
loop_
_atom_site_type_symbol
_atom_site_label
_atom_site_fract_x
_atom_site_fract_y
_atom_site_fract_z
Si Si1 0.666904 0.163348 0.734890
Si Si2 0.164429 0.245458 0.540292
Si Si3 0.173498 0.433338 0.571008
Si Si4 0.335145 0.980875 0.400207
Si Si5 0.668938 0.162525 0.090105
Si Si6 0.828184 0.724635 0.423264
Si Si7 0.827382 0.456922 0.845855
Si Si8 0.163631 0.130715 0.327960
O O1 0.500000 0.192918 0.751786
O O2 0.724591 0.179232 0.599374
O O3 0.679097 0.066505 0.769559
O O4 0.773941 0.218639 0.814696
O O5 0.224042 0.338318 0.556732
O O6 0.162435 0.217607 0.399685
O O7 0.000000 0.239060 0.594974
O O8 0.236104 0.480592 0.450132
O O9 0.229339 0.469041 0.704092
O O10 0.000000 0.439319 0.568966
O O11 0.500000 0.014914 0.417547
O O12 0.296716 0.913709 0.502123
O O13 0.218528 0.054234 0.410863
O O14 0.500000 0.184887 0.090977
O O15 0.719643 0.136610 0.222196
O O16 0.755026 0.244742 0.048773
O O17 0.778549 0.632255 0.393471
O O18 0.000000 0.731856 0.437972
O O19 0.000000 0.465548 0.841855
O O20 0.000000 0.111714 0.280661
#
# Coordination Sequence:
#
# PCOD8167150 Si02
#       8
#     4   4   4   4   4   4   4   4
#     4  10  20  35  58  83 108 148 193 230 281 349
#     4  10  21  37  56  83 117 150 190 243 293 342
#     4   9  17  32  53  83 118 152 193 242 299 358
#     4   9  21  39  57  79 107 147 193 236 281 344
#     4  10  22  40  58  80 113 153 193 233 285 355
#     4  10  18  33  58  86 111 142 188 240 290 334
#     4   9  17  29  53  85 116 150 190 242 299 352
#     4  11  24  37  55  85 116 148 188 244 300 342
#
# _framework density 19.678113
#
# number of rings (size 3 to 8) (size 9 to 14) (size 15 to 20)
#    0.000    2.250    1.250    2.250    1.750    5.000 
#    0.000    3.750    0.000    1.500    0.000    0.000 
#    0.000    0.000    0.000    0.000    0.000    0.000 
#
# Total GULP energy -396573.155792 kJ/mol
# GULP energy per Si atom -12392.911118 kJ/mol
# Density = 1.963332 g / cm^3
# Si number density = 19.678113 Si / 1000 Ang^3
#
#
#
# Elastic Constant Matrix: (Units=GPa)
#
#
# Indices 1 2 3 4 5 6 
#
# 1 48.9870 25.0398 30.6998 0.0000 0.0000 0.0000
# 2 25.0398 80.9606 48.3045 0.0000 0.0000 0.0000
# 3 30.6998 48.3045 107.2924 0.0000 0.0000 0.0000
# 4 0.0000 0.0000 0.0000 25.2109 0.0000 0.0000
# 5 0.0000 0.0000 0.0000 0.0000 22.0296 0.0000
# 6 0.0000 0.0000 0.0000 0.0000 0.0000 10.2705
#
#
#
# Elastic Compliance Matrix: (Units=1/GPa)
#
#
# Indices 1 2 3 4 5 6 
#
# 1 0.026262 -0.004976 -0.005274 0.000000 0.000000 0.000000
# 2 -0.004976 0.017831 -0.006604 0.000000 0.000000 0.000000
# 3 -0.005274 -0.006604 0.013803 0.000000 0.000000 0.000000
# 4 0.000000 0.000000 0.000000 0.039665 0.000000 0.000000
# 5 0.000000 0.000000 0.000000 0.000000 0.045394 0.000000
# 6 0.000000 0.000000 0.000000 0.000000 0.000000 0.097366
#
#
# Mechanical properties :
#
#
# Convention : Reuss Voigt Hill
#
# Bulk Modulus (GPa) = 41.34309 49.48089 45.41199
# Shear Modulus (GPa) = 17.72478 20.38194 19.05336
#
# Velocity S-wave (km/s) = 3.00448 3.22182 3.11505
# Velocity P-wave (km/s) = 5.75249 6.24819 6.00546
#
# Compressibility (1/GPa) = 0.02418784
#
# Stress axis : x y z
#
# Youngs Moduli (GPa) = 38.07743 56.08283 72.44961
#
# Poissons Ratio (x) = 0.27904 0.38213
# Poissons Ratio (y) = 0.18946 0.47846
# Poissons Ratio (z) = 0.20084 0.37037
#
# Static dielectric constant tensor:
#      x y z
#    x 3.386190 0.000000 0.000000 
#    y 0.000000 3.623590 0.000000 
#    z 0.000000 0.000000 3.802410 
# 
# 
# High freq. dielectric constant tensor:
#      x y z
#    x 1.741730 0.000000 0.000000 
#    y 0.000000 1.758790 0.000000 
#    z 0.000000 0.000000 1.771550 
# 
# From -- ./inp_files/3034.got.cif
#   From: 2010.03.12/outbox.cif.g09.slc.cpg/sg26_2_cif.got.tgz:3034.got - 2010.04.14 03:33:09.
