data_PCOD8167379
_publ_section_title
;
Structure prediction by ZEFSAII (Michael W. Deem and Ramdas Pophale) SiO2 
 PCOD8167379
Probable space group: P M C 21
;
_chemical_formula_sum "Si O2"
_cell_formula_units_Z 24
_cell_length_a 8.708264
_cell_length_b 9.969880
_cell_length_c 14.039849
_cell_angle_alpha 90.000000
_cell_angle_beta 90.000000
_cell_angle_gamma 90.000000
_cell_volume 1218.944563
_symmetry_space_group_name_H-M "P M C 21"
_symmetry_group_IT_number 26
_symmetry_cell_setting 'orthorhombic'
loop_
_space_group_symop_operation_xyz
x,y,z
-x,-y,1/2+z
-x,y,z
x,-y,1/2+z
loop_
_atom_site_type_symbol
_atom_site_label
_atom_site_fract_x
_atom_site_fract_y
_atom_site_fract_z
Si Si1 0.681268 0.281608 0.216780
Si Si2 0.678326 0.634342 0.926856
Si Si3 0.181595 0.617533 0.527916
Si Si4 0.827276 0.135363 0.537070
Si Si5 0.824909 0.126989 0.920971
Si Si6 0.820284 0.008670 0.728936
O O1 0.500000 0.281611 0.209675
O O2 0.734198 0.342765 0.318434
O O3 0.747649 0.376273 0.133689
O O4 0.738159 0.130115 0.204496
O O5 0.500000 0.596178 0.931330
O O6 0.777879 0.519828 0.976069
O O7 0.704871 0.769966 0.986420
O O8 0.251282 0.737949 0.462928
O O9 0.000000 0.631684 0.539150
O O10 0.793158 0.122542 0.649199
O O11 0.000000 0.189722 0.517824
O O12 0.809959 0.984633 0.500998
O O13 0.746076 0.073184 0.824224
O O14 0.000000 0.160286 0.895414
O O15 0.000000 0.974557 0.741491
#
# Coordination Sequence:
#
# PCOD8167379 Si02
#       6
#     4   4   4   4   4   4
#     4  11  23  39  60  87 122 162 200 244 309 370
#     4  11  25  42  59  88 127 163 199 247 306 371
#     4  11  23  41  64  90 120 161 207 254 304 356
#     4  10  19  35  61  90 117 154 201 250 298 351
#     4   9  18  34  59  90 118 146 196 253 297 346
#     4  10  19  35  61  91 122 154 201 254 298 354
#
# _framework density 19.689164000000002
#
# number of rings (size 3 to 8) (size 9 to 14) (size 15 to 20)
#    0.000    1.667    3.333    1.500    0.000    4.000 
#    0.000    3.333    0.000    0.000    0.000    0.000 
#    0.000    0.000    0.000    0.000    0.000    0.000 
#
# Total GULP energy -297611.920334 kJ/mol
# GULP energy per Si atom -12400.496681 kJ/mol
# Density = 1.964435 g / cm^3
# Si number density = 19.689164 Si / 1000 Ang^3
#
#
#
# Elastic Constant Matrix: (Units=GPa)
#
#
# Indices 1 2 3 4 5 6 
#
# 1 50.0087 25.2443 34.8176 0.0000 0.0000 0.0000
# 2 25.2443 88.5260 46.3348 0.0000 0.0000 0.0000
# 3 34.8176 46.3348 138.0513 0.0000 0.0000 0.0000
# 4 0.0000 0.0000 0.0000 33.5633 0.0000 0.0000
# 5 0.0000 0.0000 0.0000 0.0000 25.8447 0.0000
# 6 0.0000 0.0000 0.0000 0.0000 0.0000 17.5071
#
#
#
# Elastic Compliance Matrix: (Units=1/GPa)
#
#
# Indices 1 2 3 4 5 6 
#
# 1 0.025834 -0.004800 -0.004905 0.000000 0.000000 0.000000
# 2 -0.004800 0.014595 -0.003688 0.000000 0.000000 0.000000
# 3 -0.004905 -0.003688 0.009719 0.000000 0.000000 0.000000
# 4 0.000000 0.000000 0.000000 0.029794 0.000000 0.000000
# 5 0.000000 0.000000 0.000000 0.000000 0.038693 0.000000
# 6 0.000000 0.000000 0.000000 0.000000 0.000000 0.057120
#
#
# Mechanical properties :
#
#
# Convention : Reuss Voigt Hill
#
# Bulk Modulus (GPa) = 42.80302 54.37550 48.58926
# Shear Modulus (GPa) = 23.77245 26.72898 25.25072
#
# Velocity S-wave (km/s) = 3.47852 3.68849 3.58504
# Velocity P-wave (km/s) = 6.15792 6.76881 6.47058
#
# Compressibility (1/GPa) = 0.02336284
#
# Stress axis : x y z
#
# Youngs Moduli (GPa) = 38.70834 68.51560 102.89634
#
# Poissons Ratio (x) = 0.32887 0.50466
# Poissons Ratio (y) = 0.18579 0.37949
# Poissons Ratio (z) = 0.18985 0.25269
#
# Static dielectric constant tensor:
#      x y z
#    x 3.367670 0.000000 0.000000 
#    y 0.000000 3.463520 0.000000 
#    z 0.000000 0.000000 3.907970 
# 
# 
# High freq. dielectric constant tensor:
#      x y z
#    x 1.744670 0.000000 0.000000 
#    y 0.000000 1.760440 0.000000 
#    z 0.000000 0.000000 1.787800 
# 
# From -- ./inp_files/3927.got.cif
#   From: 2010.03.12/outbox.cif.g09.slc.cpg/sg26_2_cif.got.tgz:3927.got - 2010.04.14 03:33:09.
