data_PCOD8167975
_publ_section_title
;
Structure prediction by ZEFSAII (Michael W. Deem and Ramdas Pophale) SiO2 
 PCOD8167975
Probable space group: P M A 2
;
_chemical_formula_sum "Si O2"
_cell_formula_units_Z 28
_cell_length_a 8.831465
_cell_length_b 15.341676
_cell_length_c 12.632311
_cell_angle_alpha 90.000000
_cell_angle_beta 90.000000
_cell_angle_gamma 90.000000
_cell_volume 1711.545181
_symmetry_space_group_name_H-M "P M A 2"
_symmetry_group_IT_number 28
_symmetry_cell_setting 'orthorhombic'
loop_
_space_group_symop_operation_xyz
x,y,z
-x,-y,z
1/2-x,y,z
1/2+x,-y,z
loop_
_atom_site_type_symbol
_atom_site_label
_atom_site_fract_x
_atom_site_fract_y
_atom_site_fract_z
Si Si1 0.927766 0.739458 0.294030
Si Si2 0.071540 0.914391 0.301304
Si Si3 0.573286 0.593431 0.135787
Si Si4 0.576366 0.724553 0.539665
Si Si5 0.072771 0.405875 0.902916
Si Si6 0.926646 0.917458 0.530363
Si Si7 0.928117 0.404892 0.695675
O O1 0.750000 0.754043 0.279043
O O2 0.989376 0.659350 0.224004
O O3 0.967500 0.721046 0.416090
O O4 0.010415 0.825507 0.249009
O O5 0.250000 0.918595 0.291230
O O6 0.019190 0.913675 0.422269
O O7 0.000000 0.000000 0.244450
O O8 0.500000 0.500000 0.153175
O O9 0.750000 0.578466 0.150235
O O10 0.540007 0.635064 0.018859
O O11 0.750000 0.695591 0.556130
O O12 0.552560 0.823141 0.585984
O O13 0.467151 0.657867 0.598458
O O14 0.250000 0.411481 0.879050
O O15 0.000000 0.500000 0.905639
O O16 0.992513 0.358366 0.803252
O O17 0.750000 0.934398 0.507083
O O18 0.000000 0.000000 0.595593
O O19 0.750000 0.415840 0.704267
O O20 0.000000 0.500000 0.676902
#
# Coordination Sequence:
#
# PCOD8167975 Si02
#       7
#     4   4   4   4   4   4   4
#     4   9  18  32  46  65  94 123 150 181 221 267
#     4  10  17  26  42  63  87 117 151 186 222 260
#     4   9  18  31  48  68  91 119 149 184 223 264
#     4   9  18  31  45  64  93 124 151 181 218 264
#     4   9  16  29  48  67  86 110 145 187 228 265
#     4   9  16  27  44  64  88 117 147 183 222 261
#     4  11  21  32  47  65  88 118 152 190 226 263
#
# _framework density 16.359486
#
# number of rings (size 3 to 8) (size 9 to 14) (size 15 to 20)
#    0.000    2.571    0.000    6.000    0.000    4.571 
#    0.000    1.429    0.000    0.000    0.000    1.000 
#    0.000    4.571    0.000    0.000    0.000    0.000 
#
# Total GULP energy -346921.027565 kJ/mol
# GULP energy per Si atom -12390.036699 kJ/mol
# Density = 1.632225 g / cm^3
# Si number density = 16.359486 Si / 1000 Ang^3
#
#
#
# Elastic Constant Matrix: (Units=GPa)
#
#
# Indices 1 2 3 4 5 6 
#
# 1 101.0704 54.2396 39.2455 0.0000 0.0000 0.0000
# 2 54.2396 116.6624 54.0916 0.0000 0.0000 0.0000
# 3 39.2455 54.0916 72.0483 0.0000 0.0000 0.0000
# 4 0.0000 0.0000 0.0000 1.5983 0.0000 0.0000
# 5 0.0000 0.0000 0.0000 0.0000 18.8034 0.0000
# 6 0.0000 0.0000 0.0000 0.0000 0.0000 29.1996
#
#
#
# Elastic Compliance Matrix: (Units=1/GPa)
#
#
# Indices 1 2 3 4 5 6 
#
# 1 0.013962 -0.004548 -0.004191 0.000000 0.000000 0.000000
# 2 -0.004548 0.014631 -0.008507 0.000000 0.000000 0.000000
# 3 -0.004191 -0.008507 0.022549 0.000000 0.000000 0.000000
# 4 0.000000 0.000000 0.000000 0.625678 0.000000 0.000000
# 5 0.000000 0.000000 0.000000 0.000000 0.053182 0.000000
# 6 0.000000 0.000000 0.000000 0.000000 0.000000 0.034247
#
#
# Mechanical properties :
#
#
# Convention : Reuss Voigt Hill
#
# Bulk Modulus (GPa) = 60.05887 64.99272 62.52580
# Shear Modulus (GPa) = 6.21666 19.40055 12.80861
#
# Velocity S-wave (km/s) = 1.95148 3.44741 2.80115
# Velocity P-wave (km/s) = 6.47065 7.46058 6.98318
#
# Compressibility (1/GPa) = 0.01665033
#
# Stress axis : x y z
#
# Youngs Moduli (GPa) = 71.62200 68.34995 44.34840
#
# Poissons Ratio (x) = 0.31088 0.18584
# Poissons Ratio (y) = 0.32577 0.37725
# Poissons Ratio (z) = 0.30014 0.58143
#
# Static dielectric constant tensor:
#      x y z
#    x 3.269570 0.000000 0.000000 
#    y 0.000000 3.519040 0.000000 
#    z 0.000000 0.000000 3.281880 
# 
# 
# High freq. dielectric constant tensor:
#      x y z
#    x 1.639760 0.000000 0.000000 
#    y 0.000000 1.624130 0.000000 
#    z 0.000000 0.000000 1.591680 
# 
# From -- ./inp_files/6371.got.cif
#   From: 2010.03.12/outbox.cif.g09.slc.cpg/sg28_4_cif.got.tgz:6371.got - 2010.04.14 03:39:34.
