data_PCOD8167708
_publ_section_title
;
Structure prediction by ZEFSAII (Michael W. Deem and Ramdas Pophale) SiO2 
 PCOD8167708
Probable space group: P M C 21
;
_chemical_formula_sum "Si O2"
_cell_formula_units_Z 32
_cell_length_a 14.038394
_cell_length_b 10.894002
_cell_length_c 10.981292
_cell_angle_alpha 90.000000
_cell_angle_beta 90.000000
_cell_angle_gamma 90.000000
_cell_volume 1679.416121
_symmetry_space_group_name_H-M "P M C 21"
_symmetry_group_IT_number 26
_symmetry_cell_setting 'orthorhombic'
loop_
_space_group_symop_operation_xyz
x,y,z
-x,-y,1/2+z
-x,y,z
x,-y,1/2+z
loop_
_atom_site_type_symbol
_atom_site_label
_atom_site_fract_x
_atom_site_fract_y
_atom_site_fract_z
Si Si1 0.232863 0.443420 0.965480
Si Si2 0.245997 0.789232 0.305677
Si Si3 0.890879 0.671763 0.907672
Si Si4 0.390879 0.828236 0.098746
Si Si5 0.254003 0.710768 0.700742
Si Si6 0.267137 0.943420 0.540938
Si Si7 0.390847 0.377490 0.397700
Si Si8 0.890847 0.877490 0.108718
O O1 0.220992 0.342340 0.860729
O O2 0.148416 0.540065 0.947993
O O3 0.336170 0.506269 0.954004
O O4 0.222129 0.384733 0.097792
O O5 0.333124 0.774100 0.212414
O O6 0.277871 0.884734 0.408626
O O7 0.152539 0.841365 0.239136
O O8 0.833124 0.725900 0.794004
O O9 0.000000 0.658045 0.868056
O O10 0.878378 0.762197 0.020567
O O11 0.500000 0.841954 0.138362
O O12 0.378378 0.737802 0.985851
O O13 0.351584 0.959935 0.058425
O O14 0.279007 0.842340 0.645690
O O15 0.347461 0.658636 0.767282
O O16 0.163831 0.006269 0.552415
O O17 0.500000 0.415853 0.379687
O O18 0.000000 0.915853 0.126731
#
# Coordination Sequence:
#
# PCOD8167708 Si02
#       8
#     4   4   4   4   4   4   4   4
#     4  10  22  39  61  87 116 152 193 238 286 339
#     4  10  22  39  61  87 116 152 193 238 286 339
#     4  10  23  39  60  87 117 153 192 235 289 345
#     4  10  23  39  60  87 117 153 192 235 289 345
#     4  10  22  39  61  87 116 152 193 238 286 339
#     4  10  22  39  61  87 116 152 193 238 286 339
#     4  10  23  39  60  87 117 153 192 235 289 345
#     4  10  23  39  60  87 117 153 192 235 289 345
#
# _framework density 19.054241000000001
#
# number of rings (size 3 to 8) (size 9 to 14) (size 15 to 20)
#    0.000    2.000    0.000    3.000   14.000    4.000 
#    0.000    5.000    0.000    0.000    0.000    0.000 
#    0.000    0.000    0.000    0.000    0.000    0.000 
#
# Total GULP energy -396943.696004 kJ/mol
# GULP energy per Si atom -12404.490500 kJ/mol
# Density = 1.901087 g / cm^3
# Si number density = 19.054241 Si / 1000 Ang^3
#
#
#
# Elastic Constant Matrix: (Units=GPa)
#
#
# Indices 1 2 3 4 5 6 
#
# 1 78.4507 -17.6259 4.7196 0.0000 0.0000 0.0000
# 2 -17.6259 51.5599 6.7564 0.0000 0.0000 0.0000
# 3 4.7196 6.7564 77.5861 0.0000 0.0000 0.0000
# 4 0.0000 0.0000 0.0000 8.4905 0.0000 0.0000
# 5 0.0000 0.0000 0.0000 0.0000 4.2472 0.0000
# 6 0.0000 0.0000 0.0000 0.0000 0.0000 18.2988
#
#
#
# Elastic Compliance Matrix: (Units=1/GPa)
#
#
# Indices 1 2 3 4 5 6 
#
# 1 0.013931 0.004930 -0.001277 0.000000 0.000000 0.000000
# 2 0.004930 0.021363 -0.002160 0.000000 0.000000 0.000000
# 3 -0.001277 -0.002160 0.013155 0.000000 0.000000 0.000000
# 4 0.000000 0.000000 0.000000 0.117778 0.000000 0.000000
# 5 0.000000 0.000000 0.000000 0.000000 0.235451 0.000000
# 6 0.000000 0.000000 0.000000 0.000000 0.000000 0.054648
#
#
# Mechanical properties :
#
#
# Convention : Reuss Voigt Hill
#
# Bulk Modulus (GPa) = 19.44212 21.69965 20.57088
# Shear Modulus (GPa) = 10.62731 20.45708 15.54220
#
# Velocity S-wave (km/s) = 2.36421 3.28017 2.85911
# Velocity P-wave (km/s) = 4.20457 5.07535 4.66034
#
# Compressibility (1/GPa) = 0.05143473
#
# Stress axis : x y z
#
# Youngs Moduli (GPa) = 71.78099 46.80938 76.01849
#
# Poissons Ratio (x) = -0.23076 0.09706
# Poissons Ratio (y) = -0.35386 0.16422
# Poissons Ratio (z) = 0.09165 0.10112
#
# Static dielectric constant tensor:
#      x y z
#    x 3.534780 0.000000 0.000000 
#    y 0.000000 3.551070 0.000000 
#    z 0.000000 0.000000 3.591220 
# 
# 
# High freq. dielectric constant tensor:
#      x y z
#    x 1.740000 0.000000 0.000000 
#    y 0.000000 1.751470 0.000000 
#    z 0.000000 0.000000 1.752470 
# 
# From -- ./inp_files/3583.got.cif
#   From: 2010.03.12/outbox.cif.g09.slc.cpg/sg26_2_cif.got.tgz:3583.got - 2010.04.14 03:33:09.
