data_PCOD8167673
_publ_section_title
;
Structure prediction by ZEFSAII (Michael W. Deem and Ramdas Pophale) SiO2 
 PCOD8167673
Probable space group: P M C 21
;
_chemical_formula_sum "Si O2"
_cell_formula_units_Z 32
_cell_length_a 8.879562
_cell_length_b 15.242219
_cell_length_c 11.877726
_cell_angle_alpha 90.000000
_cell_angle_beta 90.000000
_cell_angle_gamma 90.000000
_cell_volume 1607.581663
_symmetry_space_group_name_H-M "P M C 21"
_symmetry_group_IT_number 26
_symmetry_cell_setting 'orthorhombic'
loop_
_space_group_symop_operation_xyz
x,y,z
-x,-y,1/2+z
-x,y,z
x,-y,1/2+z
loop_
_atom_site_type_symbol
_atom_site_label
_atom_site_fract_x
_atom_site_fract_y
_atom_site_fract_z
Si Si1 0.673159 0.609697 0.633220
Si Si2 0.823265 0.897991 0.648605
Si Si3 0.823706 0.336504 0.908766
Si Si4 0.675749 0.758745 0.807678
Si Si5 0.324112 0.585152 0.208325
Si Si6 0.678639 0.748034 0.061558
Si Si7 0.327727 0.078914 0.690597
Si Si8 0.328359 0.160878 0.923146
O O1 0.500000 0.622863 0.595320
O O2 0.784775 0.640592 0.536483
O O3 0.708395 0.667791 0.743240
O O4 0.708844 0.508789 0.655167
O O5 0.752463 0.841322 0.748294
O O6 0.774931 0.862453 0.527809
O O7 0.000000 0.890457 0.659308
O O8 0.775271 0.998545 0.655696
O O9 0.769059 0.412614 0.824610
O O10 0.731448 0.250936 0.869843
O O11 0.000000 0.319799 0.897934
O O12 0.500000 0.780112 0.811230
O O13 0.741254 0.749342 0.933942
O O14 0.500000 0.597351 0.235597
O O15 0.262565 0.660189 0.123584
O O16 0.500000 0.744764 0.060903
O O17 0.734453 0.834773 0.127048
O O18 0.500000 0.060196 0.654219
O O19 0.317465 0.088715 0.825398
O O20 0.500000 0.171959 0.964884
#
# Coordination Sequence:
#
# PCOD8167673 Si02
#       8
#     4   4   4   4   4   4   4   4
#     4  10  22  38  65  94 122 163 212 259 301 355
#     4  12  26  41  60  91 128 163 199 251 314 374
#     4  12  24  39  62  91 129 166 201 254 318 372
#     4  10  21  39  62  90 122 162 208 255 301 358
#     4  10  21  40  66  95 122 158 210 259 302 360
#     4   9  19  38  63  91 121 154 203 258 303 350
#     4  10  22  41  65  91 119 159 206 257 305 360
#     4  11  22  42  69  91 117 159 215 263 302 357
#
# _framework density 19.905677000000001
#
# number of rings (size 3 to 8) (size 9 to 14) (size 15 to 20)
#    0.000    1.500    2.500    2.625    3.500    1.500 
#    0.000    0.625    0.000    0.000    0.000    0.000 
#    0.000    0.000    0.000    0.000    0.000    0.000 
#
# Total GULP energy -396925.017377 kJ/mol
# GULP energy per Si atom -12403.906793 kJ/mol
# Density = 1.986037 g / cm^3
# Si number density = 19.905677 Si / 1000 Ang^3
#
#
#
# Elastic Constant Matrix: (Units=GPa)
#
#
# Indices 1 2 3 4 5 6 
#
# 1 65.1748 34.1770 31.8429 0.0000 0.0000 0.0000
# 2 34.1770 120.7319 36.8224 0.0000 0.0000 0.0000
# 3 31.8429 36.8224 113.8856 0.0000 0.0000 0.0000
# 4 0.0000 0.0000 0.0000 19.9970 0.0000 0.0000
# 5 0.0000 0.0000 0.0000 0.0000 11.2909 0.0000
# 6 0.0000 0.0000 0.0000 0.0000 0.0000 0.3545
#
#
#
# Elastic Compliance Matrix: (Units=1/GPa)
#
#
# Indices 1 2 3 4 5 6 
#
# 1 0.019596 -0.004300 -0.004089 0.000000 0.000000 0.000000
# 2 -0.004300 0.010133 -0.002074 0.000000 0.000000 0.000000
# 3 -0.004089 -0.002074 0.010594 0.000000 0.000000 0.000000
# 4 0.000000 0.000000 0.000000 0.050007 0.000000 0.000000
# 5 0.000000 0.000000 0.000000 0.000000 0.088567 0.000000
# 6 0.000000 0.000000 0.000000 0.000000 0.000000 2.820892
#
#
# Mechanical properties :
#
#
# Convention : Reuss Voigt Hill
#
# Bulk Modulus (GPa) = 51.55280 56.16408 53.85844
# Shear Modulus (GPa) = 1.65170 19.45849 10.55510
#
# Velocity S-wave (km/s) = 0.91190 3.12995 2.30523
# Velocity P-wave (km/s) = 5.20226 6.42950 5.84816
#
# Compressibility (1/GPa) = 0.01939759
#
# Stress axis : x y z
#
# Youngs Moduli (GPa) = 51.03076 98.69106 94.38865
#
# Poissons Ratio (x) = 0.42439 0.38593
# Poissons Ratio (y) = 0.21944 0.19574
# Poissons Ratio (z) = 0.20865 0.20467
#
# Static dielectric constant tensor:
#      x y z
#    x 3.359810 0.000000 0.000000 
#    y 0.000000 3.761890 0.000000 
#    z 0.000000 0.000000 3.715390 
# 
# 
# High freq. dielectric constant tensor:
#      x y z
#    x 1.751600 0.000000 0.000000 
#    y 0.000000 1.784970 0.000000 
#    z 0.000000 0.000000 1.787710 
# 
# From -- ./inp_files/2915.got.cif
#   From: 2010.03.12/outbox.cif.g09.slc.cpg/sg26_2_cif.got.tgz:2915.got - 2010.04.14 03:33:09.
