data_PCOD8167748
_publ_section_title
;
Structure prediction by ZEFSAII (Michael W. Deem and Ramdas Pophale) SiO2 
 PCOD8167748
Probable space group: P M C 21
;
_chemical_formula_sum "Si O2"
_cell_formula_units_Z 12
_cell_length_a 8.973361
_cell_length_b 4.860278
_cell_length_c 9.716517
_cell_angle_alpha 90.000000
_cell_angle_beta 90.000000
_cell_angle_gamma 90.000000
_cell_volume 423.766738
_symmetry_space_group_name_H-M "P M C 21"
_symmetry_group_IT_number 26
_symmetry_cell_setting 'orthorhombic'
loop_
_space_group_symop_operation_xyz
x,y,z
-x,-y,1/2+z
-x,y,z
x,-y,1/2+z
loop_
_atom_site_type_symbol
_atom_site_label
_atom_site_fract_x
_atom_site_fract_y
_atom_site_fract_z
Si Si1 0.000000 0.541095 0.430750
Si Si2 0.500000 0.645533 0.671314
Si Si3 0.000000 0.029740 0.250261
Si Si4 0.500000 0.017658 0.430271
Si Si5 0.248754 0.287834 0.597744
O O1 0.856638 0.505695 0.524111
O O2 0.000000 0.861681 0.392875
O O3 0.000000 0.352549 0.291751
O O4 0.500000 0.931896 0.762343
O O5 0.353999 0.458828 0.704733
O O6 0.500000 0.716408 0.504953
O O7 0.152102 0.949865 0.171510
O O8 0.349173 0.156511 0.480405
#
# Coordination Sequence:
#
# PCOD8167748 Si02
#       5
#     2   2   2   2   4
#     4  11  26  45  78 105 152 196 260 319 393 463
#     4  11  26  48  73 116 156 214 258 332 388 475
#     4  11  26  45  76 107 150 198 256 321 393 463
#     4  11  26  44  79 106 158 204 268 320 396 471
#     4  10  26  46  71 109 153 202 261 324 395 469
#
# _framework density 28.317464999999999
#
# number of rings (size 3 to 8) (size 9 to 14) (size 15 to 20)
#    0.000    1.333    0.000    2.000   14.000    8.000 
#    0.000    0.000    0.000    0.000    0.000    0.000 
#    0.000    0.000    0.000    0.000    0.000    0.000 
#
# Total GULP energy -148725.480730 kJ/mol
# GULP energy per Si atom -12393.790061 kJ/mol
# Density = 2.825301 g / cm^3
# Si number density = 28.317465 Si / 1000 Ang^3
#
#
#
# Elastic Constant Matrix: (Units=GPa)
#
#
# Indices 1 2 3 4 5 6 
#
# 1 172.3358 5.7690 28.4618 0.0000 0.0000 0.0000
# 2 5.7690 71.2244 12.3726 0.0000 0.0000 0.0000
# 3 28.4618 12.3726 98.9634 0.0000 0.0000 0.0000
# 4 0.0000 0.0000 0.0000 63.7373 0.0000 0.0000
# 5 0.0000 0.0000 0.0000 0.0000 2.1124 0.0000
# 6 0.0000 0.0000 0.0000 0.0000 0.0000 -11.7346
#
#
#
# Elastic Compliance Matrix: (Units=1/GPa)
#
#
# Indices 1 2 3 4 5 6 
#
# 1 0.006095 -0.000193 -0.001729 0.000000 0.000000 0.000000
# 2 -0.000193 0.014358 -0.001739 0.000000 0.000000 0.000000
# 3 -0.001729 -0.001739 0.010819 0.000000 0.000000 0.000000
# 4 0.000000 0.000000 0.000000 0.015689 0.000000 0.000000
# 5 0.000000 0.000000 0.000000 0.000000 0.473387 0.000000
# 6 0.000000 0.000000 0.000000 0.000000 0.000000 -0.085218
#
#
# Mechanical properties :
#
#
# Convention : Reuss Voigt Hill
#
# Bulk Modulus (GPa) = 41.75532 48.41448 45.08490
# Shear Modulus (GPa) = 11.10034 30.55105 20.82570
#
# Velocity S-wave (km/s) = 1.98204 3.28819 2.71484
# Velocity P-wave (km/s) = 4.47386 5.61697 5.07769
#
# Compressibility (1/GPa) = 0.02394904
#
# Stress axis : x y z
#
# Youngs Moduli (GPa) = 164.08010 69.64777 92.42684
#
# Poissons Ratio (x) = 0.01347 0.15977
# Poissons Ratio (y) = 0.03173 0.16077
# Poissons Ratio (z) = 0.28363 0.12115
#
# Static dielectric constant tensor:
#      x y z
#    x 5.604000 0.000000 0.000000 
#    y 0.000000 5.004160 0.000000 
#    z 0.000000 0.000000 5.069680 
# 
# 
# High freq. dielectric constant tensor:
#      x y z
#    x 2.175600 0.000000 0.000000 
#    y 0.000000 2.141560 0.000000 
#    z 0.000000 0.000000 2.134570 
# 
# From -- ./inp_files/1664.got.cif
#   From: 2010.03.12/outbox.cif.g09.slc.cpg/sg26_1_cif.got.tgz:1664.got - 2010.04.14 03:33:09.
