data_PCOD8167715
_publ_section_title
;
Structure prediction by ZEFSAII (Michael W. Deem and Ramdas Pophale) SiO2 
 PCOD8167715
Probable space group: P M C 21
;
_chemical_formula_sum "Si O2"
_cell_formula_units_Z 32
_cell_length_a 17.456691
_cell_length_b 6.668583
_cell_length_c 13.301182
_cell_angle_alpha 90.000000
_cell_angle_beta 90.000000
_cell_angle_gamma 90.000000
_cell_volume 1548.409123
_symmetry_space_group_name_H-M "P M C 21"
_symmetry_group_IT_number 26
_symmetry_cell_setting 'orthorhombic'
loop_
_space_group_symop_operation_xyz
x,y,z
-x,-y,1/2+z
-x,y,z
x,-y,1/2+z
loop_
_atom_site_type_symbol
_atom_site_label
_atom_site_fract_x
_atom_site_fract_y
_atom_site_fract_z
Si Si1 0.913181 0.518274 0.277030
Si Si2 0.681388 0.002715 0.222316
Si Si3 0.335544 0.680890 0.895601
Si Si4 0.914322 0.761915 0.587636
Si Si5 0.821344 0.535351 0.968192
Si Si6 0.413949 0.293349 0.847184
Si Si7 0.840862 0.156309 0.647148
Si Si8 0.588101 0.993342 0.529945
O O1 0.907369 0.356454 0.190508
O O2 0.873490 0.415516 0.372416
O O3 0.870831 0.722929 0.243958
O O4 0.000000 0.573246 0.303903
O O5 0.645505 0.801805 0.269105
O O6 0.763242 0.954395 0.176198
O O7 0.690893 0.177227 0.304374
O O8 0.625891 0.078058 0.133816
O O9 0.266914 0.537741 0.934137
O O10 0.400509 0.530972 0.855304
O O11 0.368540 0.811637 0.986823
O O12 0.849400 0.680985 0.510338
O O13 0.000000 0.733424 0.542018
O O14 0.902493 0.994063 0.611563
O O15 0.831495 0.702021 0.051995
O O16 0.500000 0.257105 0.806917
O O17 0.403688 0.193511 0.955765
O O18 0.500000 0.051643 0.547835
#
# Coordination Sequence:
#
# PCOD8167715 Si02
#       8
#     4   4   4   4   4   4   4   4
#     4  10  22  41  62  92 130 165 208 262 314 374
#     4  11  23  40  64  94 128 165 214 269 319 381
#     4  11  23  40  64  91 125 167 216 264 324 382
#     4  10  23  40  63  93 128 168 215 260 312 377
#     4  11  23  40  64  93 127 164 211 265 315 377
#     4  10  23  41  64  91 126 169 215 263 321 382
#     4  11  23  41  65  91 126 170 211 259 321 380
#     4  10  22  41  62  91 130 166 212 270 318 379
#
# _framework density 20.666374000000001
#
# number of rings (size 3 to 8) (size 9 to 14) (size 15 to 20)
#    0.000    1.500    1.250    3.000    1.750    7.000 
#    0.000    2.500    0.000    0.000    0.000    0.000 
#    0.000    0.000    0.000    0.000    0.000    0.000 
#
# Total GULP energy -396902.281815 kJ/mol
# GULP energy per Si atom -12403.196307 kJ/mol
# Density = 2.061934 g / cm^3
# Si number density = 20.666374 Si / 1000 Ang^3
#
#
#
# Elastic Constant Matrix: (Units=GPa)
#
#
# Indices 1 2 3 4 5 6 
#
# 1 113.1248 19.9245 42.7902 0.0000 0.0000 0.0000
# 2 19.9245 81.1518 11.1168 0.0000 0.0000 0.0000
# 3 42.7902 11.1168 77.9610 0.0000 0.0000 0.0000
# 4 0.0000 0.0000 0.0000 17.6328 0.0000 0.0000
# 5 0.0000 0.0000 0.0000 0.0000 35.7955 0.0000
# 6 0.0000 0.0000 0.0000 0.0000 0.0000 30.9609
#
#
#
# Elastic Compliance Matrix: (Units=1/GPa)
#
#
# Indices 1 2 3 4 5 6 
#
# 1 0.011463 -0.001991 -0.006008 0.000000 0.000000 0.000000
# 2 -0.001991 0.012914 -0.000748 0.000000 0.000000 0.000000
# 3 -0.006008 -0.000748 0.016231 0.000000 0.000000 0.000000
# 4 0.000000 0.000000 0.000000 0.056712 0.000000 0.000000
# 5 0.000000 0.000000 0.000000 0.000000 0.027937 0.000000
# 6 0.000000 0.000000 0.000000 0.000000 0.000000 0.032299
#
#
# Mechanical properties :
#
#
# Convention : Reuss Voigt Hill
#
# Bulk Modulus (GPa) = 43.26571 46.65563 44.96067
# Shear Modulus (GPa) = 27.35897 30.10489 28.73193
#
# Velocity S-wave (km/s) = 3.64241 3.82083 3.73268
# Velocity P-wave (km/s) = 6.21854 6.48765 6.35452
#
# Compressibility (1/GPa) = 0.02311299
#
# Stress axis : x y z
#
# Youngs Moduli (GPa) = 87.23724 77.43499 61.61021
#
# Poissons Ratio (x) = 0.15421 0.37014
# Poissons Ratio (y) = 0.17373 0.04611
# Poissons Ratio (z) = 0.52409 0.05796
#
# Static dielectric constant tensor:
#      x y z
#    x 3.923350 0.000000 0.000000 
#    y 0.000000 3.608720 0.000000 
#    z 0.000000 0.000000 3.796910 
# 
# 
# High freq. dielectric constant tensor:
#      x y z
#    x 1.822430 0.000000 0.000000 
#    y 0.000000 1.803000 0.000000 
#    z 0.000000 0.000000 1.814490 
# 
# From -- ./inp_files/4722.got.cif
#   From: 2010.03.12/outbox.cif.g09.slc.cpg/sg26_3_cif.got.tgz:4722.got - 2010.04.14 03:33:09.
