data_PCOD8167548
_publ_section_title
;
Structure prediction by ZEFSAII (Michael W. Deem and Ramdas Pophale) SiO2 
 PCOD8167548
Probable space group: P M C 21
;
_chemical_formula_sum "Si O2"
_cell_formula_units_Z 32
_cell_length_a 9.317425
_cell_length_b 16.438932
_cell_length_c 10.550917
_cell_angle_alpha 90.000000
_cell_angle_beta 90.000000
_cell_angle_gamma 90.000000
_cell_volume 1616.068299
_symmetry_space_group_name_H-M "P M C 21"
_symmetry_group_IT_number 26
_symmetry_cell_setting 'orthorhombic'
loop_
_space_group_symop_operation_xyz
x,y,z
-x,-y,1/2+z
-x,y,z
x,-y,1/2+z
loop_
_atom_site_type_symbol
_atom_site_label
_atom_site_fract_x
_atom_site_fract_y
_atom_site_fract_z
Si Si1 0.837534 0.243606 0.551550
Si Si2 0.339834 0.646880 0.651216
Si Si3 0.164537 0.583829 0.422851
Si Si4 0.332447 0.284422 0.789138
Si Si5 0.840453 0.395688 0.379850
Si Si6 0.829767 0.957326 0.651756
Si Si7 0.341405 0.185495 0.040338
Si Si8 0.831952 0.076844 0.433891
O O1 0.728816 0.237979 0.667965
O O2 0.824681 0.333845 0.495908
O O3 0.795761 0.172839 0.450236
O O4 0.000000 0.227420 0.599322
O O5 0.500000 0.612756 0.623176
O O6 0.224811 0.609471 0.557393
O O7 0.291003 0.623211 0.789697
O O8 0.341121 0.744020 0.644979
O O9 0.253127 0.628927 0.311415
O O10 0.180488 0.487441 0.423234
O O11 0.000000 0.611200 0.409401
O O12 0.500000 0.302997 0.772432
O O13 0.302031 0.224426 0.905466
O O14 0.000000 0.384471 0.318679
O O15 0.779734 0.877240 0.578816
O O16 0.768357 0.957174 0.798181
O O17 0.000000 0.955925 0.658236
O O18 0.773221 0.031066 0.561361
O O19 0.500000 0.144633 0.035305
O O20 0.000000 0.061354 0.427109
#
# Coordination Sequence:
#
# PCOD8167548 Si02
#       8
#     4   4   4   4   4   4   4   4
#     4  10  21  38  59  85 119 158 198 246 303 358
#     4  10  21  37  57  81 112 148 190 239 292 353
#     4  10  21  37  57  83 115 152 194 243 296 351
#     4  10  22  39  58  85 119 153 197 248 298 360
#     4  10  22  37  57  83 114 151 194 241 291 353
#     4  10  20  36  61  90 119 154 197 246 296 355
#     4   9  20  38  57  81 114 149 190 239 290 350
#     4   9  20  36  58  90 124 153 196 250 300 356
#
# _framework density 19.801145000000002
#
# number of rings (size 3 to 8) (size 9 to 14) (size 15 to 20)
#    0.000    2.250    0.000    2.625    3.500    5.500 
#    0.000    1.875    0.000    0.000    0.000    0.000 
#    0.000    0.000    0.000    0.000    0.000    0.000 
#
# Total GULP energy -396617.748425 kJ/mol
# GULP energy per Si atom -12394.304638 kJ/mol
# Density = 1.975608 g / cm^3
# Si number density = 19.801145 Si / 1000 Ang^3
#
#
#
# Elastic Constant Matrix: (Units=GPa)
#
#
# Indices 1 2 3 4 5 6 
#
# 1 78.1191 37.0125 39.3305 0.0000 0.0000 0.0000
# 2 37.0125 96.7114 50.3032 0.0000 0.0000 0.0000
# 3 39.3305 50.3032 95.2623 0.0000 0.0000 0.0000
# 4 0.0000 0.0000 0.0000 21.9312 0.0000 0.0000
# 5 0.0000 0.0000 0.0000 0.0000 27.6400 0.0000
# 6 0.0000 0.0000 0.0000 0.0000 0.0000 21.8575
#
#
#
# Elastic Compliance Matrix: (Units=1/GPa)
#
#
# Indices 1 2 3 4 5 6 
#
# 1 0.017206 -0.003984 -0.005000 0.000000 0.000000 0.000000
# 2 -0.003984 0.015178 -0.006370 0.000000 0.000000 0.000000
# 3 -0.005000 -0.006370 0.015925 0.000000 0.000000 0.000000
# 4 0.000000 0.000000 0.000000 0.045597 0.000000 0.000000
# 5 0.000000 0.000000 0.000000 0.000000 0.036179 0.000000
# 6 0.000000 0.000000 0.000000 0.000000 0.000000 0.045751
#
#
# Mechanical properties :
#
#
# Convention : Reuss Voigt Hill
#
# Bulk Modulus (GPa) = 56.81390 58.15389 57.48389
# Shear Modulus (GPa) = 23.53919 23.84884 23.69401
#
# Velocity S-wave (km/s) = 3.45161 3.47424 3.46294
# Velocity P-wave (km/s) = 6.68127 6.74733 6.71438
#
# Compressibility (1/GPa) = 0.01760133
#
# Stress axis : x y z
#
# Youngs Moduli (GPa) = 58.11934 65.88475 62.79381
#
# Poissons Ratio (x) = 0.26250 0.31396
# Poissons Ratio (y) = 0.23157 0.39998
# Poissons Ratio (z) = 0.29059 0.41967
#
# Static dielectric constant tensor:
#      x y z
#    x 3.551980 0.000000 0.000000 
#    y 0.000000 3.623990 0.000000 
#    z 0.000000 0.000000 3.694170 
# 
# 
# High freq. dielectric constant tensor:
#      x y z
#    x 1.761090 0.000000 0.000000 
#    y 0.000000 1.770650 0.000000 
#    z 0.000000 0.000000 1.770740 
# 
# From -- ./inp_files/3131.got.cif
#   From: 2010.03.12/outbox.cif.g09.slc.cpg/sg26_2_cif.got.tgz:3131.got - 2010.04.14 03:33:09.
