data_PCOD8167903
_publ_section_title
;
Structure prediction by ZEFSAII (Michael W. Deem and Ramdas Pophale) SiO2 
 PCOD8167903
Probable space group: P C C 2
;
_chemical_formula_sum "Si O2"
_cell_formula_units_Z 32
_cell_length_a 8.941396
_cell_length_b 12.624701
_cell_length_c 13.598831
_cell_angle_alpha 90.000000
_cell_angle_beta 90.000000
_cell_angle_gamma 90.000000
_cell_volume 1535.069374
_symmetry_space_group_name_H-M "P C C 2"
_symmetry_group_IT_number 27
_symmetry_cell_setting 'orthorhombic'
loop_
_space_group_symop_operation_xyz
x,y,z
-x,-y,z
-x,y,1/2+z
x,-y,1/2+z
loop_
_atom_site_type_symbol
_atom_site_label
_atom_site_fract_x
_atom_site_fract_y
_atom_site_fract_z
Si Si1 0.984118 0.749808 0.120900
Si Si2 0.659233 0.039267 0.628882
Si Si3 0.208142 0.143742 0.753279
Si Si4 0.879906 0.913327 0.965097
Si Si5 0.658291 0.282817 0.656299
Si Si6 0.377180 0.644167 0.257085
Si Si7 0.154493 0.451511 0.613250
Si Si8 0.362632 0.422291 0.980230
O O1 0.836155 0.690505 0.166245
O O2 0.048058 0.829522 0.203874
O O3 0.110143 0.668175 0.084379
O O4 0.946834 0.815205 0.024103
O O5 0.758296 0.028596 0.531949
O O6 0.643587 0.157515 0.671022
O O7 0.500000 0.000000 0.594383
O O8 0.728071 0.966692 0.714007
O O9 0.194219 0.135333 0.869368
O O10 0.320530 0.239116 0.729924
O O11 0.000000 0.000000 0.932770
O O12 0.555976 0.350201 0.733262
O O13 0.607672 0.318017 0.546545
O O14 0.289018 0.555078 0.193325
O O15 0.344879 0.614437 0.368920
O O16 0.212978 0.517116 0.518617
O O17 0.000000 0.500000 0.656512
O O18 0.500000 0.500000 0.991915
#
# Coordination Sequence:
#
# PCOD8167903 Si02
#       8
#     4   4   4   4   4   4   4   4
#     4  10  23  45  69  97 136 181 223 285 344 408
#     4  11  23  44  68  97 139 187 225 277 341 402
#     4  11  24  45  64 103 137 179 231 278 335 415
#     4  11  24  41  69  98 137 174 228 284 339 402
#     4  11  23  44  69  97 137 177 223 285 340 399
#     4  11  25  46  68 101 136 174 232 280 342 414
#     4  11  24  45  71  96 137 176 223 282 345 408
#     4  12  26  45  70  98 137 178 225 286 345 414
#
# _framework density 20.845963999999999
#
# number of rings (size 3 to 8) (size 9 to 14) (size 15 to 20)
#    0.000    1.000    5.000    1.500    5.250    1.000 
#    6.750    0.000    0.000    0.000    0.000    0.000 
#    0.000    0.000    0.000    0.000    0.000    0.000 
#
# Total GULP energy -396722.418050 kJ/mol
# GULP energy per Si atom -12397.575564 kJ/mol
# Density = 2.079852 g / cm^3
# Si number density = 20.845964 Si / 1000 Ang^3
#
#
#
# Elastic Constant Matrix: (Units=GPa)
#
#
# Indices 1 2 3 4 5 6 
#
# 1 103.2506 49.9127 35.8560 0.0000 0.0000 0.0000
# 2 49.9127 94.6816 48.3431 0.0000 0.0000 0.0000
# 3 35.8560 48.3431 130.7132 0.0000 0.0000 0.0000
# 4 0.0000 0.0000 0.0000 32.5836 0.0000 0.0000
# 5 0.0000 0.0000 0.0000 0.0000 20.9954 0.0000
# 6 0.0000 0.0000 0.0000 0.0000 0.0000 43.9343
#
#
#
# Elastic Compliance Matrix: (Units=1/GPa)
#
#
# Indices 1 2 3 4 5 6 
#
# 1 0.013171 -0.006286 -0.001288 0.000000 0.000000 0.000000
# 2 -0.006286 0.016020 -0.004201 0.000000 0.000000 0.000000
# 3 -0.001288 -0.004201 0.009557 0.000000 0.000000 0.000000
# 4 0.000000 0.000000 0.000000 0.030690 0.000000 0.000000
# 5 0.000000 0.000000 0.000000 0.000000 0.047629 0.000000
# 6 0.000000 0.000000 0.000000 0.000000 0.000000 0.022761
#
#
# Mechanical properties :
#
#
# Convention : Reuss Voigt Hill
#
# Bulk Modulus (GPa) = 65.79213 66.31877 66.05545
# Shear Modulus (GPa) = 29.68332 32.47159 31.07745
#
# Velocity S-wave (km/s) = 3.77760 3.95104 3.86529
# Velocity P-wave (km/s) = 7.11735 7.25928 7.18866
#
# Compressibility (1/GPa) = 0.01519939
#
# Stress axis : x y z
#
# Youngs Moduli (GPa) = 75.92393 62.42189 104.63194
#
# Poissons Ratio (x) = 0.39235 0.13480
# Poissons Ratio (y) = 0.47722 0.43952
# Poissons Ratio (z) = 0.09781 0.26221
#
# Static dielectric constant tensor:
#      x y z
#    x 4.133070 0.000000 0.000000 
#    y 0.000000 4.093670 0.000000 
#    z 0.000000 0.000000 3.548620 
# 
# 
# High freq. dielectric constant tensor:
#      x y z
#    x 1.829780 0.000000 0.000000 
#    y 0.000000 1.838360 0.000000 
#    z 0.000000 0.000000 1.792400 
# 
# From -- ./inp_files/2450.got.cif
#   From: 2010.03.12/outbox.cif.g09.slc.cpg/sg27_2_cif.got.tgz:2450.got - 2010.04.14 03:36:05.
