data_PCOD8167822
_publ_section_title
;
Structure prediction by ZEFSAII (Michael W. Deem and Ramdas Pophale) SiO2 
 PCOD8167822
Probable space group: P C C 2
;
_chemical_formula_sum "Si O2"
_cell_formula_units_Z 32
_cell_length_a 9.793937
_cell_length_b 9.347163
_cell_length_c 16.569783
_cell_angle_alpha 90.000000
_cell_angle_beta 90.000000
_cell_angle_gamma 90.000000
_cell_volume 1516.889493
_symmetry_space_group_name_H-M "P C C 2"
_symmetry_group_IT_number 27
_symmetry_cell_setting 'orthorhombic'
loop_
_space_group_symop_operation_xyz
x,y,z
-x,-y,z
-x,y,1/2+z
x,-y,1/2+z
loop_
_atom_site_type_symbol
_atom_site_label
_atom_site_fract_x
_atom_site_fract_y
_atom_site_fract_z
Si Si1 0.550924 0.148099 0.838570
Si Si2 0.862431 0.086784 0.540448
Si Si3 0.710726 0.180408 0.991160
Si Si4 0.719020 0.203723 0.689645
Si Si5 0.469818 0.347129 0.609914
Si Si6 0.377873 0.606267 0.282771
Si Si7 0.123680 0.580120 0.798041
Si Si8 0.024652 0.340160 0.472320
O O1 0.658934 0.216979 0.900927
O O2 0.627768 0.115988 0.753921
O O3 0.417021 0.246666 0.827561
O O4 0.500000 0.000000 0.876042
O O5 0.807789 0.105311 0.631352
O O6 0.894519 0.236384 0.493037
O O7 0.749151 0.988631 0.495237
O O8 0.000000 0.000000 0.547523
O O9 0.840816 0.276629 0.014671
O O10 0.590673 0.225533 0.052028
O O11 0.619303 0.299160 0.636718
O O12 0.823032 0.301430 0.738239
O O13 0.500000 0.500000 0.566205
O O14 0.368553 0.368595 0.686323
O O15 0.500000 0.500000 0.302064
O O16 0.240183 0.537902 0.318974
O O17 0.055635 0.652591 0.877022
O O18 0.000000 0.500000 0.752458
O O19 0.000000 0.500000 0.506828
#
# Coordination Sequence:
#
# PCOD8167822 Si02
#       8
#     4   4   4   4   4   4   4   4
#     4  11  25  41  67  97 129 182 225 280 343 406
#     4  10  26  45  64  97 141 175 222 281 340 413
#     4  11  24  44  66  99 138 175 225 283 344 406
#     4  11  23  46  66  97 134 180 222 283 332 419
#     4  10  22  38  68 102 131 173 222 283 345 399
#     4  10  19  43  66  95 137 167 228 287 328 401
#     4  11  22  41  72 100 132 177 226 282 337 399
#     4  10  23  44  68  98 131 179 223 275 342 405
#
# _framework density 21.095801999999999
#
# number of rings (size 3 to 8) (size 9 to 14) (size 15 to 20)
#    0.000    1.500    5.000    0.000    7.000    6.000 
#    2.250    0.000    0.000    0.000    0.000    0.000 
#    0.000    0.000    0.000    0.000    0.000    0.000 
#
# Total GULP energy -396661.738269 kJ/mol
# GULP energy per Si atom -12395.679321 kJ/mol
# Density = 2.104779 g / cm^3
# Si number density = 21.095802 Si / 1000 Ang^3
#
#
#
# Elastic Constant Matrix: (Units=GPa)
#
#
# Indices 1 2 3 4 5 6 
#
# 1 85.2785 37.2159 35.6514 0.0000 0.0000 0.0000
# 2 37.2159 123.6759 37.7648 0.0000 0.0000 0.0000
# 3 35.6514 37.7648 83.8347 0.0000 0.0000 0.0000
# 4 0.0000 0.0000 0.0000 24.2092 0.0000 0.0000
# 5 0.0000 0.0000 0.0000 0.0000 30.3565 0.0000
# 6 0.0000 0.0000 0.0000 0.0000 0.0000 28.7818
#
#
#
# Elastic Compliance Matrix: (Units=1/GPa)
#
#
# Indices 1 2 3 4 5 6 
#
# 1 0.015170 -0.003009 -0.005096 0.000000 0.000000 0.000000
# 2 -0.003009 0.009972 -0.003213 0.000000 0.000000 0.000000
# 3 -0.005096 -0.003213 0.015542 0.000000 0.000000 0.000000
# 4 0.000000 0.000000 0.000000 0.041307 0.000000 0.000000
# 5 0.000000 0.000000 0.000000 0.000000 0.032942 0.000000
# 6 0.000000 0.000000 0.000000 0.000000 0.000000 0.034744
#
#
# Mechanical properties :
#
#
# Convention : Reuss Voigt Hill
#
# Bulk Modulus (GPa) = 55.40167 57.11704 56.25935
# Shear Modulus (GPa) = 28.03832 28.81328 28.42580
#
# Velocity S-wave (km/s) = 3.64963 3.69972 3.67476
# Velocity P-wave (km/s) = 6.63918 6.73680 6.68817
#
# Compressibility (1/GPa) = 0.01805000
#
# Stress axis : x y z
#
# Youngs Moduli (GPa) = 65.92119 100.28077 64.34033
#
# Poissons Ratio (x) = 0.30172 0.32786
# Poissons Ratio (y) = 0.19834 0.20670
# Poissons Ratio (z) = 0.33591 0.32216
#
# Static dielectric constant tensor:
#      x y z
#    x 4.738730 0.000000 0.000000 
#    y 0.000000 4.497680 0.000000 
#    z 0.000000 0.000000 3.680500 
# 
# 
# High freq. dielectric constant tensor:
#      x y z
#    x 1.831200 0.000000 0.000000 
#    y 0.000000 1.830920 0.000000 
#    z 0.000000 0.000000 1.810200 
# 
# From -- ./inp_files/3667.got.cif
#   From: 2010.03.12/outbox.cif.g09.slc.cpg/sg27_2_cif.got.tgz:3667.got - 2010.04.14 03:36:05.
