data_PCOD8167488
_publ_section_title
;
Structure prediction by ZEFSAII (Michael W. Deem and Ramdas Pophale) SiO2 
 PCOD8167488
Probable space group: P M C 21
;
_chemical_formula_sum "Si O2"
_cell_formula_units_Z 32
_cell_length_a 9.179342
_cell_length_b 14.657255
_cell_length_c 12.391737
_cell_angle_alpha 90.000000
_cell_angle_beta 90.000000
_cell_angle_gamma 90.000000
_cell_volume 1667.233323
_symmetry_space_group_name_H-M "P M C 21"
_symmetry_group_IT_number 26
_symmetry_cell_setting 'orthorhombic'
loop_
_space_group_symop_operation_xyz
x,y,z
-x,-y,1/2+z
-x,y,z
x,-y,1/2+z
loop_
_atom_site_type_symbol
_atom_site_label
_atom_site_fract_x
_atom_site_fract_y
_atom_site_fract_z
Si Si1 0.831072 0.279415 0.525730
Si Si2 0.826273 0.141938 0.345201
Si Si3 0.827931 0.617011 0.547137
Si Si4 0.335611 0.448039 0.615187
Si Si5 0.662557 0.358492 0.843900
Si Si6 0.164220 0.200419 0.752458
Si Si7 0.167556 0.949707 0.415249
Si Si8 0.173576 0.179385 0.104653
O O1 0.777486 0.228391 0.417412
O O2 0.739762 0.371782 0.539744
O O3 0.805713 0.208318 0.624718
O O4 0.000000 0.307253 0.517742
O O5 0.766758 0.152428 0.223172
O O6 0.000000 0.135486 0.342700
O O7 0.760842 0.049698 0.399824
O O8 0.754501 0.541440 0.622429
O O9 0.769991 0.593117 0.427933
O O10 0.773322 0.717865 0.579840
O O11 0.000000 0.607009 0.553736
O O12 0.500000 0.463258 0.571847
O O13 0.336872 0.417428 0.737389
O O14 0.500000 0.350188 0.891757
O O15 0.721468 0.258191 0.820057
O O16 0.183257 0.098283 0.797603
O O17 0.000000 0.235599 0.778236
O O18 0.237545 0.890508 0.513749
O O19 0.000000 0.962580 0.446213
O O20 0.000000 0.178008 0.101194
#
# Coordination Sequence:
#
# PCOD8167488 Si02
#       8
#     4   4   4   4   4   4   4   4
#     4   9  18  32  51  79 110 142 182 229 277 325
#     4   9  18  29  47  78 115 148 180 221 275 333
#     4  11  21  35  56  81 111 145 183 233 282 332
#     4  10  22  38  56  80 108 145 189 230 280 340
#     4  10  20  35  54  77 106 140 182 230 278 330
#     4   9  16  29  50  75 103 135 179 228 273 320
#     4   9  16  27  47  75 107 143 178 221 272 325
#     4   9  18  31  47  75 112 144 177 218 275 329
#
# _framework density 19.193473999999998
#
# number of rings (size 3 to 8) (size 9 to 14) (size 15 to 20)
#    0.000    2.500    1.250    1.125    1.750    2.500 
#    0.000    1.250    0.000    1.500    0.000    0.000 
#    0.000    0.000    0.000    0.000    0.000    0.000 
#
# Total GULP energy -396635.258222 kJ/mol
# GULP energy per Si atom -12394.851819 kJ/mol
# Density = 1.914979 g / cm^3
# Si number density = 19.193474 Si / 1000 Ang^3
#
#
#
# Elastic Constant Matrix: (Units=GPa)
#
#
# Indices 1 2 3 4 5 6 
#
# 1 63.2376 40.5038 23.6859 0.0000 0.0000 0.0000
# 2 40.5038 127.7787 49.0009 0.0000 0.0000 0.0000
# 3 23.6859 49.0009 93.5336 0.0000 0.0000 0.0000
# 4 0.0000 0.0000 0.0000 21.3320 0.0000 0.0000
# 5 0.0000 0.0000 0.0000 0.0000 17.3394 0.0000
# 6 0.0000 0.0000 0.0000 0.0000 0.0000 7.4865
#
#
#
# Elastic Compliance Matrix: (Units=1/GPa)
#
#
# Indices 1 2 3 4 5 6 
#
# 1 0.020198 -0.005558 -0.002203 0.000000 0.000000 0.000000
# 2 -0.005558 0.011323 -0.004524 0.000000 0.000000 0.000000
# 3 -0.002203 -0.004524 0.013620 0.000000 0.000000 0.000000
# 4 0.000000 0.000000 0.000000 0.046878 0.000000 0.000000
# 5 0.000000 0.000000 0.000000 0.000000 0.057672 0.000000
# 6 0.000000 0.000000 0.000000 0.000000 0.000000 0.133574
#
#
# Mechanical properties :
#
#
# Convention : Reuss Voigt Hill
#
# Bulk Modulus (GPa) = 48.61482 56.77014 52.69248
# Shear Modulus (GPa) = 15.88857 20.65554 18.27205
#
# Velocity S-wave (km/s) = 2.88029 3.28407 3.08879
# Velocity P-wave (km/s) = 6.03699 6.63492 6.34301
#
# Compressibility (1/GPa) = 0.02056986
#
# Stress axis : x y z
#
# Youngs Moduli (GPa) = 49.50906 88.31776 73.42357
#
# Poissons Ratio (x) = 0.49084 0.16178
# Poissons Ratio (y) = 0.27515 0.33220
# Poissons Ratio (z) = 0.10909 0.39959
#
# Static dielectric constant tensor:
#      x y z
#    x 3.283360 0.000000 0.000000 
#    y 0.000000 3.560560 0.000000 
#    z 0.000000 0.000000 3.685800 
# 
# 
# High freq. dielectric constant tensor:
#      x y z
#    x 1.701370 0.000000 0.000000 
#    y 0.000000 1.746780 0.000000 
#    z 0.000000 0.000000 1.750270 
# 
# From -- ./inp_files/2992.got.cif
#   From: 2010.03.12/outbox.cif.g09.slc.cpg/sg26_2_cif.got.tgz:2992.got - 2010.04.14 03:33:09.
