data_PCOD8167583
_publ_section_title
;
Structure prediction by ZEFSAII (Michael W. Deem and Ramdas Pophale) SiO2 
 PCOD8167583
Probable space group: P M C 21
;
_chemical_formula_sum "Si O2"
_cell_formula_units_Z 32
_cell_length_a 9.235313
_cell_length_b 16.178504
_cell_length_c 10.900225
_cell_angle_alpha 90.000000
_cell_angle_beta 90.000000
_cell_angle_gamma 90.000000
_cell_volume 1628.641295
_symmetry_space_group_name_H-M "P M C 21"
_symmetry_group_IT_number 26
_symmetry_cell_setting 'orthorhombic'
loop_
_space_group_symop_operation_xyz
x,y,z
-x,-y,1/2+z
-x,y,z
x,-y,1/2+z
loop_
_atom_site_type_symbol
_atom_site_label
_atom_site_fract_x
_atom_site_fract_y
_atom_site_fract_z
Si Si1 0.662848 0.132861 0.166520
Si Si2 0.332454 0.846970 0.383986
Si Si3 0.160671 0.719319 0.249689
Si Si4 0.168486 0.024946 0.719532
Si Si5 0.172379 0.431767 0.385772
Si Si6 0.171541 0.456218 0.660262
Si Si7 0.664914 0.738243 0.857859
Si Si8 0.841705 0.154523 0.528488
O O1 0.500000 0.100399 0.191105
O O2 0.680846 0.225417 0.221114
O O3 0.774336 0.068372 0.226102
O O4 0.696086 0.140776 0.025384
O O5 0.500000 0.847475 0.346681
O O6 0.266517 0.757243 0.351302
O O7 0.252674 0.921993 0.319071
O O8 0.228080 0.633911 0.199813
O O9 0.148401 0.782613 0.139907
O O10 0.000000 0.704165 0.306270
O O11 0.194875 0.063964 0.583798
O O12 0.000000 0.025960 0.754251
O O13 0.221120 0.473267 0.517620
O O14 0.231554 0.480557 0.264959
O O15 0.233382 0.339674 0.378549
O O16 0.000000 0.425248 0.383146
O O17 0.000000 0.458935 0.663755
O O18 0.500000 0.713951 0.889784
O O19 0.714065 0.816070 0.940508
O O20 0.000000 0.152613 0.462562
#
# Coordination Sequence:
#
# PCOD8167583 Si02
#       8
#     4   4   4   4   4   4   4   4
#     4  10  24  41  55  78 116 156 193 236 289 350
#     4  10  21  38  57  80 113 151 190 234 289 353
#     4   9  17  34  58  84 111 142 186 237 285 339
#     4  10  22  38  59  86 113 144 188 243 292 338
#     4  10  20  38  61  87 117 153 197 246 301 358
#     4   9  18  34  59  87 116 149 191 242 295 354
#     4  11  23  38  57  83 115 155 196 236 284 345
#     4   9  18  35  58  83 111 142 181 234 283 335
#
# _framework density 19.648281000000001
#
# number of rings (size 3 to 8) (size 9 to 14) (size 15 to 20)
#    0.000    2.250    1.250    1.875    1.750    5.500 
#    0.000    2.500    0.000    0.000    0.000    0.000 
#    0.000    0.000    0.000    0.000    0.000    0.000 
#
# Total GULP energy -396617.142106 kJ/mol
# GULP energy per Si atom -12394.285691 kJ/mol
# Density = 1.960356 g / cm^3
# Si number density = 19.648281 Si / 1000 Ang^3
#
#
#
# Elastic Constant Matrix: (Units=GPa)
#
#
# Indices 1 2 3 4 5 6 
#
# 1 71.5138 19.4782 50.7640 0.0000 0.0000 0.0000
# 2 19.4782 74.7527 48.3481 0.0000 0.0000 0.0000
# 3 50.7640 48.3481 104.9788 0.0000 0.0000 0.0000
# 4 0.0000 0.0000 0.0000 17.2081 0.0000 0.0000
# 5 0.0000 0.0000 0.0000 0.0000 21.6958 0.0000
# 6 0.0000 0.0000 0.0000 0.0000 0.0000 18.8642
#
#
#
# Elastic Compliance Matrix: (Units=1/GPa)
#
#
# Indices 1 2 3 4 5 6 
#
# 1 0.021424 0.001592 -0.011093 0.000000 0.000000 0.000000
# 2 0.001592 0.019171 -0.009599 0.000000 0.000000 0.000000
# 3 -0.011093 -0.009599 0.019311 0.000000 0.000000 0.000000
# 4 0.000000 0.000000 0.000000 0.058112 0.000000 0.000000
# 5 0.000000 0.000000 0.000000 0.000000 0.046092 0.000000
# 6 0.000000 0.000000 0.000000 0.000000 0.000000 0.053010
#
#
# Mechanical properties :
#
#
# Convention : Reuss Voigt Hill
#
# Bulk Modulus (GPa) = 46.07053 54.26955 50.17004
# Shear Modulus (GPa) = 19.04350 20.39728 19.72039
#
# Velocity S-wave (km/s) = 3.11661 3.22548 3.17151
# Velocity P-wave (km/s) = 6.03734 6.44609 6.24506
#
# Compressibility (1/GPa) = 0.02170585
#
# Stress axis : x y z
#
# Youngs Moduli (GPa) = 46.67615 52.16186 51.78379
#
# Poissons Ratio (x) = -0.08306 0.57446
# Poissons Ratio (y) = -0.07433 0.49709
# Poissons Ratio (z) = 0.51780 0.50072
#
# Static dielectric constant tensor:
#      x y z
#    x 3.530750 0.000000 0.000000 
#    y 0.000000 3.650140 0.000000 
#    z 0.000000 0.000000 3.833370 
# 
# 
# High freq. dielectric constant tensor:
#      x y z
#    x 1.751360 0.000000 0.000000 
#    y 0.000000 1.760600 0.000000 
#    z 0.000000 0.000000 1.766510 
# 
# From -- ./inp_files/3006.got.cif
#   From: 2010.03.12/outbox.cif.g09.slc.cpg/sg26_2_cif.got.tgz:3006.got - 2010.04.14 03:33:09.
