data_PCOD8167571
_publ_section_title
;
Structure prediction by ZEFSAII (Michael W. Deem and Ramdas Pophale) SiO2 
 PCOD8167571
Probable space group: P M C 21
;
_chemical_formula_sum "Si O2"
_cell_formula_units_Z 32
_cell_length_a 15.017644
_cell_length_b 8.531764
_cell_length_c 12.472615
_cell_angle_alpha 90.000000
_cell_angle_beta 90.000000
_cell_angle_gamma 90.000000
_cell_volume 1598.078673
_symmetry_space_group_name_H-M "P M C 21"
_symmetry_group_IT_number 26
_symmetry_cell_setting 'orthorhombic'
loop_
_space_group_symop_operation_xyz
x,y,z
-x,-y,1/2+z
-x,y,z
x,-y,1/2+z
loop_
_atom_site_type_symbol
_atom_site_label
_atom_site_fract_x
_atom_site_fract_y
_atom_site_fract_z
Si Si1 0.601705 0.461826 0.781580
Si Si2 0.255982 0.028674 0.791815
Si Si3 0.904389 0.464309 0.867574
Si Si4 0.844362 0.613567 0.581339
Si Si5 0.100344 0.794986 0.791226
Si Si6 0.328992 0.736475 0.470388
Si Si7 0.774459 0.336131 0.702866
Si Si8 0.598973 0.196275 0.193281
O O1 0.500000 0.413559 0.754733
O O2 0.626309 0.405373 0.902322
O O3 0.669422 0.377151 0.699886
O O4 0.616512 0.645899 0.762110
O O5 0.170973 0.925986 0.827318
O O6 0.331221 0.927311 0.736668
O O7 0.298912 0.120525 0.892780
O O8 0.219205 0.147818 0.699222
O O9 0.889134 0.651202 0.873426
O O10 0.817907 0.383237 0.817488
O O11 0.000000 0.430410 0.808578
O O12 0.915458 0.395681 0.986661
O O13 0.880703 0.725793 0.673316
O O14 0.751823 0.678148 0.541524
O O15 0.829960 0.431590 0.615944
O O16 0.000000 0.865254 0.794353
O O17 0.397255 0.788954 0.563605
O O18 0.500000 0.135567 0.219949
#
# Coordination Sequence:
#
# PCOD8167571 Si02
#       8
#     4   4   4   4   4   4   4   4
#     4  10  20  38  63  90 115 156 209 254 296 356
#     4  11  23  39  60  93 126 163 197 245 312 381
#     4  10  20  37  62  88 114 154 207 254 296 351
#     4  11  19  39  65  85 112 160 210 250 298 352
#     4  10  22  40  61  88 127 162 196 252 308 366
#     4  11  22  40  66  89 118 165 206 254 305 359
#     4  10  21  37  61  86 117 156 199 250 299 357
#     4  11  23  42  64  89 129 164 200 255 308 364
#
# _framework density 20.024045000000001
#
# number of rings (size 3 to 8) (size 9 to 14) (size 15 to 20)
#    0.000    1.500    5.000    1.500    0.000    4.500 
#    0.000    0.000    0.000    0.000    0.000    0.000 
#    0.000    0.000    0.000    0.000    0.000    0.000 
#
# Total GULP energy -396461.061739 kJ/mol
# GULP energy per Si atom -12389.408179 kJ/mol
# Density = 1.997847 g / cm^3
# Si number density = 20.024045 Si / 1000 Ang^3
#
#
#
# Elastic Constant Matrix: (Units=GPa)
#
#
# Indices 1 2 3 4 5 6 
#
# 1 115.4260 50.6536 16.6709 0.0000 0.0000 0.0000
# 2 50.6536 105.3902 25.7815 0.0000 0.0000 0.0000
# 3 16.6709 25.7815 78.9498 0.0000 0.0000 0.0000
# 4 0.0000 0.0000 0.0000 23.6871 0.0000 0.0000
# 5 0.0000 0.0000 0.0000 0.0000 18.1413 0.0000
# 6 0.0000 0.0000 0.0000 0.0000 0.0000 17.7705
#
#
#
# Elastic Compliance Matrix: (Units=1/GPa)
#
#
# Indices 1 2 3 4 5 6 
#
# 1 0.011010 -0.005133 -0.000649 0.000000 0.000000 0.000000
# 2 -0.005133 0.012705 -0.003065 0.000000 0.000000 0.000000
# 3 -0.000649 -0.003065 0.013804 0.000000 0.000000 0.000000
# 4 0.000000 0.000000 0.000000 0.042217 0.000000 0.000000
# 5 0.000000 0.000000 0.000000 0.000000 0.055123 0.000000
# 6 0.000000 0.000000 0.000000 0.000000 0.000000 0.056273
#
#
# Mechanical properties :
#
#
# Convention : Reuss Voigt Hill
#
# Bulk Modulus (GPa) = 50.43896 53.99754 52.21825
# Shear Modulus (GPa) = 23.20893 25.69712 24.45302
#
# Velocity S-wave (km/s) = 3.40818 3.58622 3.49833
# Velocity P-wave (km/s) = 6.38212 6.64627 6.51553
#
# Compressibility (1/GPa) = 0.01982594
#
# Stress axis : x y z
#
# Youngs Moduli (GPa) = 90.82835 78.70662 72.44177
#
# Poissons Ratio (x) = 0.40400 0.04699
# Poissons Ratio (y) = 0.46622 0.22205
# Poissons Ratio (z) = 0.05891 0.24125
#
# Static dielectric constant tensor:
#      x y z
#    x 3.915300 0.000000 0.000000 
#    y 0.000000 3.649200 0.000000 
#    z 0.000000 0.000000 3.744990 
# 
# 
# High freq. dielectric constant tensor:
#      x y z
#    x 1.802080 0.000000 0.000000 
#    y 0.000000 1.770670 0.000000 
#    z 0.000000 0.000000 1.766240 
# 
# From -- ./inp_files/3604.got.cif
#   From: 2010.03.12/outbox.cif.g09.slc.cpg/sg26_2_cif.got.tgz:3604.got - 2010.04.14 03:33:09.
