data_PCOD8167124
_publ_section_title
;
Structure prediction by ZEFSAII (Michael W. Deem and Ramdas Pophale) SiO2 
 PCOD8167124
Probable space group: P M C 21
;
_chemical_formula_sum "Si O2"
_cell_formula_units_Z 32
_cell_length_a 8.945935
_cell_length_b 11.417008
_cell_length_c 16.711966
_cell_angle_alpha 90.000000
_cell_angle_beta 90.000000
_cell_angle_gamma 90.000000
_cell_volume 1706.890209
_symmetry_space_group_name_H-M "P M C 21"
_symmetry_group_IT_number 26
_symmetry_cell_setting 'orthorhombic'
loop_
_space_group_symop_operation_xyz
x,y,z
-x,-y,1/2+z
-x,y,z
x,-y,1/2+z
loop_
_atom_site_type_symbol
_atom_site_label
_atom_site_fract_x
_atom_site_fract_y
_atom_site_fract_z
Si Si1 0.827069 0.059584 0.112310
Si Si2 0.327835 0.290097 0.725460
Si Si3 0.825816 0.138098 0.279307
Si Si4 0.828474 0.571850 0.366543
Si Si5 0.821847 0.798652 0.072102
Si Si6 0.667192 0.073840 0.833544
Si Si7 0.831932 0.204863 0.960859
Si Si8 0.178166 0.316020 0.406736
O O1 0.748966 0.109650 0.193285
O O2 0.000000 0.036176 0.130451
O O3 0.762398 0.933795 0.081988
O O4 0.804557 0.167570 0.051819
O O5 0.500000 0.325376 0.712715
O O6 0.257574 0.382097 0.788086
O O7 0.242737 0.287453 0.640682
O O8 0.311519 0.158521 0.758071
O O9 0.760671 0.249573 0.327155
O O10 0.000000 0.156702 0.267912
O O11 0.791220 0.026386 0.333827
O O12 0.814520 0.656840 0.443879
O O13 0.762377 0.448589 0.397738
O O14 0.000000 0.557902 0.339743
O O15 0.000000 0.793960 0.076505
O O16 0.762186 0.747153 0.987438
O O17 0.500000 0.022136 0.836209
O O18 0.698925 0.144469 0.913458
O O19 0.000000 0.165311 0.934076
O O20 0.000000 0.311792 0.409721
#
# Coordination Sequence:
#
# PCOD8167124 Si02
#       8
#     4   4   4   4   4   4   4   4
#     4   9  17  29  50  80 105 133 171 212 262 318
#     4  10  20  34  53  77 104 137 177 220 260 309
#     4  10  18  32  53  75 108 141 169 209 263 318
#     4   9  18  35  55  77 105 139 178 216 263 312
#     4  10  18  32  53  78 107 137 175 220 269 318
#     4  10  19  31  49  75 104 133 171 212 260 311
#     4   9  17  31  52  75 101 133 172 213 257 312
#     4   9  19  34  53  81 110 139 177 224 264 308
#
# _framework density 18.747544000000001
#
# number of rings (size 3 to 8) (size 9 to 14) (size 15 to 20)
#    0.000    2.500    1.250    1.500    0.000    3.000 
#    2.250    4.375    0.000    0.000    0.000    0.000 
#    0.000    0.000    0.000    0.000    0.000    0.000 
#
# Total GULP energy -396501.256078 kJ/mol
# GULP energy per Si atom -12390.664252 kJ/mol
# Density = 1.870487 g / cm^3
# Si number density = 18.747544 Si / 1000 Ang^3
#
#
#
# Elastic Constant Matrix: (Units=GPa)
#
#
# Indices 1 2 3 4 5 6 
#
# 1 28.7871 20.2357 27.1095 0.0000 0.0000 0.0000
# 2 20.2357 133.2754 85.1618 0.0000 0.0000 0.0000
# 3 27.1095 85.1618 127.9869 0.0000 0.0000 0.0000
# 4 0.0000 0.0000 0.0000 27.4544 0.0000 0.0000
# 5 0.0000 0.0000 0.0000 0.0000 11.2583 0.0000
# 6 0.0000 0.0000 0.0000 0.0000 0.0000 10.5874
#
#
#
# Elastic Compliance Matrix: (Units=1/GPa)
#
#
# Indices 1 2 3 4 5 6 
#
# 1 0.043512 -0.001248 -0.008386 0.000000 0.000000 0.000000
# 2 -0.001248 0.013089 -0.008445 0.000000 0.000000 0.000000
# 3 -0.008386 -0.008445 0.015209 0.000000 0.000000 0.000000
# 4 0.000000 0.000000 0.000000 0.036424 0.000000 0.000000
# 5 0.000000 0.000000 0.000000 0.000000 0.088824 0.000000
# 6 0.000000 0.000000 0.000000 0.000000 0.000000 0.094452
#
#
# Mechanical properties :
#
#
# Convention : Reuss Voigt Hill
#
# Bulk Modulus (GPa) = 28.04889 61.67371 44.86130
# Shear Modulus (GPa) = 14.72527 20.36284 17.54406
#
# Velocity S-wave (km/s) = 2.80563 3.29927 3.06241
# Velocity P-wave (km/s) = 5.04869 6.89071 6.04033
#
# Compressibility (1/GPa) = 0.03565204
#
# Stress axis : x y z
#
# Youngs Moduli (GPa) = 22.98191 76.39977 65.75091
#
# Poissons Ratio (x) = 0.09534 0.55140
# Poissons Ratio (y) = 0.02868 0.55527
# Poissons Ratio (z) = 0.19273 0.64520
#
# Static dielectric constant tensor:
#      x y z
#    x 3.106880 0.000000 0.000000 
#    y 0.000000 3.512540 0.000000 
#    z 0.000000 0.000000 3.553570 
# 
# 
# High freq. dielectric constant tensor:
#      x y z
#    x 1.691090 0.000000 0.000000 
#    y 0.000000 1.718090 0.000000 
#    z 0.000000 0.000000 1.730380 
# 
# From -- ./inp_files/4152.got.cif
#   From: 2010.03.12/outbox.cif.g09.slc.cpg/sg26_3_cif.got.tgz:4152.got - 2010.04.14 03:33:09.
