data_PCOD8167442
_publ_section_title
;
Structure prediction by ZEFSAII (Michael W. Deem and Ramdas Pophale) SiO2 
 PCOD8167442
Probable space group: P M C 21
;
_chemical_formula_sum "Si O2"
_cell_formula_units_Z 24
_cell_length_a 8.866620
_cell_length_b 9.148252
_cell_length_c 16.592079
_cell_angle_alpha 90.000000
_cell_angle_beta 90.000000
_cell_angle_gamma 90.000000
_cell_volume 1345.851126
_symmetry_space_group_name_H-M "P M C 21"
_symmetry_group_IT_number 26
_symmetry_cell_setting 'orthorhombic'
loop_
_space_group_symop_operation_xyz
x,y,z
-x,-y,1/2+z
-x,y,z
x,-y,1/2+z
loop_
_atom_site_type_symbol
_atom_site_label
_atom_site_fract_x
_atom_site_fract_y
_atom_site_fract_z
Si Si1 0.176360 0.652703 0.528590
Si Si2 0.325460 0.062990 0.474360
Si Si3 0.329228 0.650877 0.056735
Si Si4 0.820971 0.162187 0.877085
Si Si5 0.175459 0.078721 0.123663
Si Si6 0.676756 0.835940 0.213264
O O1 0.231045 0.489710 0.540332
O O2 0.238358 0.725062 0.445698
O O3 0.218208 0.750520 0.607783
O O4 0.000000 0.647176 0.518502
O O5 0.500000 0.017900 0.490722
O O6 0.312207 0.239155 0.480256
O O7 0.263578 0.995189 0.390682
O O8 0.211454 0.999209 0.539890
O O9 0.500000 0.598044 0.066213
O O10 0.277733 0.732298 0.138608
O O11 0.766292 0.222817 0.790947
O O12 0.000000 0.140595 0.877790
O O13 0.000000 0.059521 0.145005
O O14 0.273284 0.003603 0.194130
O O15 0.500000 0.833907 0.230124
#
# Coordination Sequence:
#
# PCOD8167442 Si02
#       6
#     4   4   4   4   4   4
#     4   9  19  33  51  75 102 132 168 204 247 300
#     4   9  17  31  50  73  98 128 165 203 242 292
#     4   9  19  33  51  75 102 132 168 204 247 300
#     4  10  20  34  52  76 101 130 168 211 256 302
#     4   9  17  31  50  73  98 128 165 203 242 292
#     4  10  20  34  52  76 101 130 168 211 256 302
#
# _framework density 17.832581000000001
#
# number of rings (size 3 to 8) (size 9 to 14) (size 15 to 20)
#    0.000    2.667    0.000    4.000    0.000    8.000 
#    0.000    1.667    0.000    4.000    0.000    0.000 
#    0.000    0.000    0.000    0.000    0.000    0.000 
#
# Total GULP energy -297391.747965 kJ/mol
# GULP energy per Si atom -12391.322832 kJ/mol
# Density = 1.779199 g / cm^3
# Si number density = 17.832581 Si / 1000 Ang^3
#
#
#
# Elastic Constant Matrix: (Units=GPa)
#
#
# Indices 1 2 3 4 5 6 
#
# 1 46.9627 33.9768 24.7640 0.0000 0.0000 0.0000
# 2 33.9768 105.7832 39.0647 0.0000 0.0000 0.0000
# 3 24.7640 39.0647 79.3805 0.0000 0.0000 0.0000
# 4 0.0000 0.0000 0.0000 17.6787 0.0000 0.0000
# 5 0.0000 0.0000 0.0000 0.0000 30.5935 0.0000
# 6 0.0000 0.0000 0.0000 0.0000 0.0000 32.2167
#
#
#
# Elastic Compliance Matrix: (Units=1/GPa)
#
#
# Indices 1 2 3 4 5 6 
#
# 1 0.029628 -0.007458 -0.005572 0.000000 0.000000 0.000000
# 2 -0.007458 0.013430 -0.004283 0.000000 0.000000 0.000000
# 3 -0.005572 -0.004283 0.016444 0.000000 0.000000 0.000000
# 4 0.000000 0.000000 0.000000 0.056565 0.000000 0.000000
# 5 0.000000 0.000000 0.000000 0.000000 0.032687 0.000000
# 6 0.000000 0.000000 0.000000 0.000000 0.000000 0.031040
#
#
# Mechanical properties :
#
#
# Convention : Reuss Voigt Hill
#
# Bulk Modulus (GPa) = 40.20118 47.52640 43.86379
# Shear Modulus (GPa) = 22.45048 25.05250 23.75149
#
# Velocity S-wave (km/s) = 3.55203 3.75223 3.65350
# Velocity P-wave (km/s) = 6.27815 6.74400 6.51524
#
# Compressibility (1/GPa) = 0.02487489
#
# Stress axis : x y z
#
# Youngs Moduli (GPa) = 33.75187 74.45783 60.81418
#
# Poissons Ratio (x) = 0.55534 0.33889
# Poissons Ratio (y) = 0.25174 0.26044
# Poissons Ratio (z) = 0.18808 0.31887
#
# Static dielectric constant tensor:
#      x y z
#    x 3.296300 0.000000 0.000000 
#    y 0.000000 3.411560 0.000000 
#    z 0.000000 0.000000 3.325000 
# 
# 
# High freq. dielectric constant tensor:
#      x y z
#    x 1.698640 0.000000 0.000000 
#    y 0.000000 1.676350 0.000000 
#    z 0.000000 0.000000 1.670560 
# 
# From -- ./inp_files/3904.got.cif
#   From: 2010.03.12/outbox.cif.g09.slc.cpg/sg26_2_cif.got.tgz:3904.got - 2010.04.14 03:33:09.
