data_PCOD8167949
_publ_section_title
;
Structure prediction by ZEFSAII (Michael W. Deem and Ramdas Pophale) SiO2 
 PCOD8167949
Probable space group: P C C 2
;
_chemical_formula_sum "Si O2"
_cell_formula_units_Z 14
_cell_length_a 5.298339
_cell_length_b 5.390541
_cell_length_c 18.727915
_cell_angle_alpha 90.000000
_cell_angle_beta 90.000000
_cell_angle_gamma 90.000000
_cell_volume 534.886362
_symmetry_space_group_name_H-M "P C C 2"
_symmetry_group_IT_number 27
_symmetry_cell_setting 'orthorhombic'
loop_
_space_group_symop_operation_xyz
x,y,z
-x,-y,z
-x,y,1/2+z
x,-y,1/2+z
loop_
_atom_site_type_symbol
_atom_site_label
_atom_site_fract_x
_atom_site_fract_y
_atom_site_fract_z
Si Si1 0.248404 0.138045 0.613670
Si Si2 0.500000 0.500000 0.021824
Si Si3 0.845385 0.242506 0.419886
Si Si4 0.750180 0.339317 0.264940
O O1 0.271597 0.402620 0.573000
O O2 0.241378 0.150277 0.699278
O O3 0.500000 0.000000 0.589337
O O4 0.000000 0.000000 0.585208
O O5 0.393098 0.278467 0.971978
O O6 0.745670 0.190052 0.339514
O O7 0.000000 0.500000 0.421392
O O8 0.000000 0.000000 0.445196
O O9 0.500000 0.500000 0.257928
O O10 0.000000 0.500000 0.259006
#
# Coordination Sequence:
#
# PCOD8167949 Si02
#       4
#     4   2   4   4
#     4  12  29  49  82 117 162 218 277 343 421 496
#     4  12  30  50  76 120 178 210 288 336 434 510
#     4  11  28  51  82 117 167 219 279 345 420 499
#     4  11  23  51  81 118 156 212 281 347 410 492
#
# _framework density 26.173780000000001
#
# number of rings (size 3 to 8) (size 9 to 14) (size 15 to 20)
#    0.000    0.571    2.857    2.571    8.000    2.286 
#    0.000    0.000    0.000    0.000    0.000    0.000 
#    0.000    0.000    0.000    0.000    0.000    0.000 
#
# Total GULP energy -173636.611545 kJ/mol
# GULP energy per Si atom -12402.615110 kJ/mol
# Density = 2.611421 g / cm^3
# Si number density = 26.173780 Si / 1000 Ang^3
#
#
#
# Elastic Constant Matrix: (Units=GPa)
#
#
# Indices 1 2 3 4 5 6 
#
# 1 195.9311 60.0679 43.0739 0.0000 0.0000 0.0000
# 2 60.0679 126.9561 45.8419 0.0000 0.0000 0.0000
# 3 43.0739 45.8419 188.1061 0.0000 0.0000 0.0000
# 4 0.0000 0.0000 0.0000 5.9767 0.0000 0.0000
# 5 0.0000 0.0000 0.0000 0.0000 5.9510 0.0000
# 6 0.0000 0.0000 0.0000 0.0000 0.0000 61.0209
#
#
#
# Elastic Compliance Matrix: (Units=1/GPa)
#
#
# Indices 1 2 3 4 5 6 
#
# 1 0.006066 -0.002597 -0.000756 0.000000 0.000000 0.000000
# 2 -0.002597 0.009749 -0.001781 0.000000 0.000000 0.000000
# 3 -0.000756 -0.001781 0.005923 0.000000 0.000000 0.000000
# 4 0.000000 0.000000 0.000000 0.167315 0.000000 0.000000
# 5 0.000000 0.000000 0.000000 0.000000 0.168038 0.000000
# 6 0.000000 0.000000 0.000000 0.000000 0.000000 0.016388
#
#
# Mechanical properties :
#
#
# Convention : Reuss Voigt Hill
#
# Bulk Modulus (GPa) = 87.18746 89.88453 88.53599
# Shear Modulus (GPa) = 12.90085 38.72371 25.81228
#
# Velocity S-wave (km/s) = 2.22253 3.85058 3.14377
# Velocity P-wave (km/s) = 6.32214 7.36107 6.86130
#
# Compressibility (1/GPa) = 0.01146954
#
# Stress axis : x y z
#
# Youngs Moduli (GPa) = 164.84506 102.57812 168.82340
#
# Poissons Ratio (x) = 0.26641 0.12766
# Poissons Ratio (y) = 0.42813 0.30068
# Poissons Ratio (z) = 0.12465 0.18270
#
# Static dielectric constant tensor:
#      x y z
#    x 4.798500 0.000000 0.000000 
#    y 0.000000 4.443910 0.000000 
#    z 0.000000 0.000000 5.274240 
# 
# 
# High freq. dielectric constant tensor:
#      x y z
#    x 2.056700 0.000000 0.000000 
#    y 0.000000 2.030500 0.000000 
#    z 0.000000 0.000000 2.081470 
# 
# From -- ./inp_files/3825.got.cif
#   From: 2010.03.12/outbox.cif.g09.slc.cpg/sg27_2_cif.got.tgz:3825.got - 2010.04.14 03:36:05.
