data_PCOD8167133
_publ_section_title
;
Structure prediction by ZEFSAII (Michael W. Deem and Ramdas Pophale) SiO2 
 PCOD8167133
Probable space group: P M C 21
;
_chemical_formula_sum "Si O2"
_cell_formula_units_Z 32
_cell_length_a 9.426014
_cell_length_b 15.394148
_cell_length_c 11.956163
_cell_angle_alpha 90.000000
_cell_angle_beta 90.000000
_cell_angle_gamma 90.000000
_cell_volume 1734.904467
_symmetry_space_group_name_H-M "P M C 21"
_symmetry_group_IT_number 26
_symmetry_cell_setting 'orthorhombic'
loop_
_space_group_symop_operation_xyz
x,y,z
-x,-y,1/2+z
-x,y,z
x,-y,1/2+z
loop_
_atom_site_type_symbol
_atom_site_label
_atom_site_fract_x
_atom_site_fract_y
_atom_site_fract_z
Si Si1 0.339267 0.669311 0.989950
Si Si2 0.839516 0.170066 0.488468
Si Si3 0.668793 0.601991 0.224256
Si Si4 0.667381 0.757693 0.638925
Si Si5 0.837717 0.909433 0.758614
Si Si6 0.832054 0.105791 0.729418
Si Si7 0.333561 0.240447 0.877054
Si Si8 0.661633 0.412967 0.261842
O O1 0.500000 0.699537 0.009591
O O2 0.253127 0.750615 0.944869
O O3 0.328846 0.596224 0.895488
O O4 0.273191 0.635312 0.105450
O O5 0.825570 0.097608 0.392960
O O6 0.782620 0.136649 0.607074
O O7 0.000000 0.202271 0.501733
O O8 0.500000 0.594043 0.225470
O O9 0.717798 0.669054 0.320445
O O10 0.736646 0.505790 0.238749
O O11 0.500000 0.766534 0.662647
O O12 0.742357 0.840896 0.692461
O O13 0.701910 0.754110 0.507709
O O14 0.729402 0.668969 0.695370
O O15 0.000000 0.895763 0.719178
O O16 0.783900 0.005990 0.733306
O O17 0.751173 0.160362 0.823730
O O18 0.000000 0.115462 0.749116
O O19 0.500000 0.225191 0.855437
O O20 0.500000 0.417602 0.220452
#
# Coordination Sequence:
#
# PCOD8167133 Si02
#       8
#     4   4   4   4   4   4   4   4
#     4  10  18  32  56  79 102 140 182 217 264 321
#     4  10  20  36  56  79 106 136 176 227 272 309
#     4   9  18  31  51  80 109 138 176 220 263 311
#     4  10  21  36  54  80 113 143 175 221 271 316
#     4  10  22  38  58  80 105 141 182 222 266 319
#     4  10  22  38  58  80 105 141 182 222 266 319
#     4  10  21  36  54  80 113 143 175 221 271 316
#     4   9  18  31  51  80 109 138 176 220 263 311
#
# _framework density 18.44482
#
# number of rings (size 3 to 8) (size 9 to 14) (size 15 to 20)
#    0.000    2.250    2.500    0.000    3.500    1.000 
#    0.000    0.000    0.000    3.000    0.000    0.000 
#    0.000    0.000    0.000    0.000    0.000    0.000 
#
# Total GULP energy -396732.182114 kJ/mol
# GULP energy per Si atom -12397.880691 kJ/mol
# Density = 1.840284 g / cm^3
# Si number density = 18.444820 Si / 1000 Ang^3
#
#
#
# Elastic Constant Matrix: (Units=GPa)
#
#
# Indices 1 2 3 4 5 6 
#
# 1 35.0330 37.7752 28.7337 0.0000 0.0000 0.0000
# 2 37.7752 150.9620 53.2475 0.0000 0.0000 0.0000
# 3 28.7337 53.2475 118.0491 0.0000 0.0000 0.0000
# 4 0.0000 0.0000 0.0000 26.1276 0.0000 0.0000
# 5 0.0000 0.0000 0.0000 0.0000 22.6124 0.0000
# 6 0.0000 0.0000 0.0000 0.0000 0.0000 28.4324
#
#
#
# Elastic Compliance Matrix: (Units=1/GPa)
#
#
# Indices 1 2 3 4 5 6 
#
# 1 0.043125 -0.008430 -0.006694 0.000000 0.000000 0.000000
# 2 -0.008430 0.009525 -0.002245 0.000000 0.000000 0.000000
# 3 -0.006694 -0.002245 0.011113 0.000000 0.000000 0.000000
# 4 0.000000 0.000000 0.000000 0.038274 0.000000 0.000000
# 5 0.000000 0.000000 0.000000 0.000000 0.044223 0.000000
# 6 0.000000 0.000000 0.000000 0.000000 0.000000 0.035171
#
#
# Mechanical properties :
#
#
# Convention : Reuss Voigt Hill
#
# Bulk Modulus (GPa) = 34.45261 60.39522 47.42392
# Shear Modulus (GPa) = 22.13912 27.72034 24.92973
#
# Velocity S-wave (km/s) = 3.46828 3.88090 3.68038
# Velocity P-wave (km/s) = 5.89558 7.27301 6.62022
#
# Compressibility (1/GPa) = 0.02902537
#
# Stress axis : x y z
#
# Youngs Moduli (GPa) = 23.18841 104.98315 89.98494
#
# Poissons Ratio (x) = 0.88500 0.60240
# Poissons Ratio (y) = 0.19548 0.20198
# Poissons Ratio (z) = 0.15523 0.23565
#
# Static dielectric constant tensor:
#      x y z
#    x 3.082400 0.000000 0.000000 
#    y 0.000000 3.514480 0.000000 
#    z 0.000000 0.000000 3.507700 
# 
# 
# High freq. dielectric constant tensor:
#      x y z
#    x 1.676480 0.000000 0.000000 
#    y 0.000000 1.722250 0.000000 
#    z 0.000000 0.000000 1.730960 
# 
# From -- ./inp_files/3103.got.cif
#   From: 2010.03.12/outbox.cif.g09.slc.cpg/sg26_2_cif.got.tgz:3103.got - 2010.04.14 03:33:09.
