data_PCOD8167103
_publ_section_title
;
Structure prediction by ZEFSAII (Michael W. Deem and Ramdas Pophale) SiO2 
 PCOD8167103
Probable space group: P M C 21
;
_chemical_formula_sum "Si O2"
_cell_formula_units_Z 26
_cell_length_a 17.798087
_cell_length_b 16.397820
_cell_length_c 4.960114
_cell_angle_alpha 90.000000
_cell_angle_beta 90.000000
_cell_angle_gamma 90.000000
_cell_volume 1447.608413
_symmetry_space_group_name_H-M "P M C 21"
_symmetry_group_IT_number 26
_symmetry_cell_setting 'orthorhombic'
loop_
_space_group_symop_operation_xyz
x,y,z
-x,-y,1/2+z
-x,y,z
x,-y,1/2+z
loop_
_atom_site_type_symbol
_atom_site_label
_atom_site_fract_x
_atom_site_fract_y
_atom_site_fract_z
Si Si1 0.660956 0.044653 0.598400
Si Si2 0.837849 0.557433 0.331053
Si Si3 0.500000 0.186610 0.281471
Si Si4 0.706200 0.681310 0.404403
Si Si5 0.338325 0.774732 0.878764
Si Si6 0.500000 0.079855 0.766536
Si Si7 0.000000 0.448701 0.932552
Si Si8 0.415877 0.553799 0.471465
O O1 0.678182 0.134624 0.490441
O O2 0.572022 0.029318 0.659588
O O3 0.695591 0.977943 0.389851
O O4 0.824422 0.484986 0.544320
O O5 0.783699 0.633998 0.364916
O O6 0.922014 0.596674 0.357581
O O7 0.577726 0.236368 0.251642
O O8 0.500000 0.163022 0.596180
O O9 0.500000 0.108940 0.078008
O O10 0.716686 0.753536 0.626655
O O11 0.644189 0.622718 0.536780
O O12 0.676313 0.713025 0.120326
O O13 0.000000 0.531487 0.750512
O O14 0.500000 0.589425 0.508176
O O15 0.402749 0.477768 0.669372
#
# Coordination Sequence:
#
# PCOD8167103 Si02
#       8
#     4   4   2   4   4   2   2   4
#     4  11  20  34  51  67  91 122 160 208 254 308
#     4  10  19  34  55  78 104 136 170 204 251 303
#     4  10  20  35  46  62  92 121 159 208 253 305
#     4  12  22  34  51  71 101 131 165 213 257 299
#     4  11  24  34  49  72  96 129 170 208 262 305
#     4  10  18  31  50  68  82 109 155 208 259 303
#     4   8  16  30  52  80 104 128 164 202 240 306
#     4  10  21  35  49  64  85 120 171 213 244 278
#
# _framework density 17.960659
#
# number of rings (size 3 to 8) (size 9 to 14) (size 15 to 20)
#    0.000    1.538    0.000    7.846    2.154    0.000 
#    0.000    0.000    0.000    0.000    0.000    0.000 
#    0.000    0.000    0.000   13.846    0.000    0.000 
#
# Total GULP energy -322157.598517 kJ/mol
# GULP energy per Si atom -12390.676866 kJ/mol
# Density = 1.791978 g / cm^3
# Si number density = 17.960659 Si / 1000 Ang^3
#
#
#
# Elastic Constant Matrix: (Units=GPa)
#
#
# Indices 1 2 3 4 5 6 
#
# 1 79.8549 47.9994 24.2734 0.0000 0.0000 0.0000
# 2 47.9994 65.0702 24.3886 0.0000 0.0000 0.0000
# 3 24.2734 24.3886 95.6604 0.0000 0.0000 0.0000
# 4 0.0000 0.0000 0.0000 35.0937 0.0000 0.0000
# 5 0.0000 0.0000 0.0000 0.0000 16.7829 0.0000
# 6 0.0000 0.0000 0.0000 0.0000 0.0000 16.7688
#
#
#
# Elastic Compliance Matrix: (Units=1/GPa)
#
#
# Indices 1 2 3 4 5 6 
#
# 1 0.022732 -0.016149 -0.001651 0.000000 0.000000 0.000000
# 2 -0.016149 0.028465 -0.003159 0.000000 0.000000 0.000000
# 3 -0.001651 -0.003159 0.011678 0.000000 0.000000 0.000000
# 4 0.000000 0.000000 0.000000 0.028495 0.000000 0.000000
# 5 0.000000 0.000000 0.000000 0.000000 0.059585 0.000000
# 6 0.000000 0.000000 0.000000 0.000000 0.000000 0.059634
#
#
# Mechanical properties :
#
#
# Convention : Reuss Voigt Hill
#
# Bulk Modulus (GPa) = 47.71999 48.21201 47.96600
# Shear Modulus (GPa) = 19.26839 23.32402 21.29620
#
# Velocity S-wave (km/s) = 3.27893 3.60754 3.44716
# Velocity P-wave (km/s) = 6.40016 6.65236 6.52748
#
# Compressibility (1/GPa) = 0.02095558
#
# Stress axis : x y z
#
# Youngs Moduli (GPa) = 43.99163 35.13113 85.63126
#
# Poissons Ratio (x) = 0.56735 0.14136
# Poissons Ratio (y) = 0.71044 0.27053
# Poissons Ratio (z) = 0.07262 0.11099
#
# Static dielectric constant tensor:
#      x y z
#    x 3.210040 0.000000 0.000000 
#    y 0.000000 3.071490 0.000000 
#    z 0.000000 0.000000 3.655210 
# 
# 
# High freq. dielectric constant tensor:
#      x y z
#    x 1.640040 0.000000 0.000000 
#    y 0.000000 1.672730 0.000000 
#    z 0.000000 0.000000 1.731070 
# 
# From -- ./inp_files/779.got.cif
#   From: 2010.03.12/outbox.cif.g09.slc.cpg/sg26_1_cif.got.tgz:779.got - 2010.04.14 03:33:09.
