data_PCOD8167682
_publ_section_title
;
Structure prediction by ZEFSAII (Michael W. Deem and Ramdas Pophale) SiO2 
 PCOD8167682
Probable space group: P M C 21
;
_chemical_formula_sum "Si O2"
_cell_formula_units_Z 24
_cell_length_a 8.975258
_cell_length_b 11.770958
_cell_length_c 11.816405
_cell_angle_alpha 90.000000
_cell_angle_beta 90.000000
_cell_angle_gamma 90.000000
_cell_volume 1248.372288
_symmetry_space_group_name_H-M "P M C 21"
_symmetry_group_IT_number 26
_symmetry_cell_setting 'orthorhombic'
loop_
_space_group_symop_operation_xyz
x,y,z
-x,-y,1/2+z
-x,y,z
x,-y,1/2+z
loop_
_atom_site_type_symbol
_atom_site_label
_atom_site_fract_x
_atom_site_fract_y
_atom_site_fract_z
Si Si1 0.327181 0.842340 0.717060
Si Si2 0.826533 0.289801 0.789938
Si Si3 0.172386 0.776203 0.946251
Si Si4 0.671984 0.335669 0.022088
Si Si5 0.325404 0.590023 0.089092
Si Si6 0.830208 0.067387 0.655187
O O1 0.500000 0.842139 0.750651
O O2 0.229848 0.814111 0.825441
O O3 0.290936 0.749525 0.622910
O O4 0.283746 0.965012 0.669440
O O5 0.742460 0.379615 0.710707
O O6 0.793714 0.161831 0.749516
O O7 0.000000 0.317750 0.780238
O O8 0.773638 0.301092 0.917529
O O9 0.000000 0.742842 0.939162
O O10 0.259402 0.665416 0.988163
O O11 0.196938 0.880689 0.031406
O O12 0.500000 0.328400 0.985091
O O13 0.714869 0.460484 0.063718
O O14 0.500000 0.611529 0.094713
O O15 0.000000 0.024028 0.668077
#
# Coordination Sequence:
#
# PCOD8167682 Si02
#       6
#     4   4   4   4   4   4
#     4  11  24  39  60  91 122 156 201 245 294 354
#     4  10  22  40  63  90 119 156 201 247 299 354
#     4  10  22  41  63  89 121 157 199 246 299 354
#     4  10  24  41  59  88 123 158 197 245 297 351
#     4  10  21  40  64  87 120 160 198 244 300 354
#     4   9  21  41  61  85 119 157 196 245 301 351
#
# _framework density 19.225034000000001
#
# number of rings (size 3 to 8) (size 9 to 14) (size 15 to 20)
#    0.000    2.000    0.000    3.000    4.667    6.667 
#    0.000    0.000    0.000    0.000    0.000    0.000 
#    0.000    0.000    0.000    0.000    0.000    0.000 
#
# Total GULP energy -297733.122148 kJ/mol
# GULP energy per Si atom -12405.546756 kJ/mol
# Density = 1.918128 g / cm^3
# Si number density = 19.225034 Si / 1000 Ang^3
#
#
#
# Elastic Constant Matrix: (Units=GPa)
#
#
# Indices 1 2 3 4 5 6 
#
# 1 83.3193 57.1457 53.6786 0.0000 0.0000 0.0000
# 2 57.1457 127.8209 61.5928 0.0000 0.0000 0.0000
# 3 53.6786 61.5928 113.2436 0.0000 0.0000 0.0000
# 4 0.0000 0.0000 0.0000 18.1662 0.0000 0.0000
# 5 0.0000 0.0000 0.0000 0.0000 38.4779 0.0000
# 6 0.0000 0.0000 0.0000 0.0000 0.0000 21.9820
#
#
#
# Elastic Compliance Matrix: (Units=1/GPa)
#
#
# Indices 1 2 3 4 5 6 
#
# 1 0.020164 -0.005975 -0.006308 0.000000 0.000000 0.000000
# 2 -0.005975 0.012373 -0.003897 0.000000 0.000000 0.000000
# 3 -0.006308 -0.003897 0.013940 0.000000 0.000000 0.000000
# 4 0.000000 0.000000 0.000000 0.055047 0.000000 0.000000
# 5 0.000000 0.000000 0.000000 0.000000 0.025989 0.000000
# 6 0.000000 0.000000 0.000000 0.000000 0.000000 0.045492
#
#
# Mechanical properties :
#
#
# Convention : Reuss Voigt Hill
#
# Bulk Modulus (GPa) = 70.84070 74.35756 72.59913
# Shear Modulus (GPa) = 23.80138 25.85634 24.82886
#
# Velocity S-wave (km/s) = 3.52240 3.67131 3.59762
# Velocity P-wave (km/s) = 7.31240 7.53212 7.42307
#
# Compressibility (1/GPa) = 0.01411618
#
# Stress axis : x y z
#
# Youngs Moduli (GPa) = 49.59266 80.82261 71.73449
#
# Poissons Ratio (x) = 0.48294 0.45251
# Poissons Ratio (y) = 0.29633 0.27956
# Poissons Ratio (z) = 0.31284 0.31498
#
# Static dielectric constant tensor:
#      x y z
#    x 3.573200 0.000000 0.000000 
#    y 0.000000 3.538930 0.000000 
#    z 0.000000 0.000000 3.552780 
# 
# 
# High freq. dielectric constant tensor:
#      x y z
#    x 1.758510 0.000000 0.000000 
#    y 0.000000 1.753810 0.000000 
#    z 0.000000 0.000000 1.756260 
# 
# From -- ./inp_files/2787.got.cif
#   From: 2010.03.12/outbox.cif.g09.slc.cpg/sg26_2_cif.got.tgz:2787.got - 2010.04.14 03:33:09.
