data_PCOD8167265
_publ_section_title
;
Structure prediction by ZEFSAII (Michael W. Deem and Ramdas Pophale) SiO2 
 PCOD8167265
Probable space group: P M C 21
;
_chemical_formula_sum "Si O2"
_cell_formula_units_Z 24
_cell_length_a 16.133793
_cell_length_b 9.151941
_cell_length_c 8.894483
_cell_angle_alpha 90.000000
_cell_angle_beta 90.000000
_cell_angle_gamma 90.000000
_cell_volume 1313.319527
_symmetry_space_group_name_H-M "P M C 21"
_symmetry_group_IT_number 26
_symmetry_cell_setting 'orthorhombic'
loop_
_space_group_symop_operation_xyz
x,y,z
-x,-y,1/2+z
-x,y,z
x,-y,1/2+z
loop_
_atom_site_type_symbol
_atom_site_label
_atom_site_fract_x
_atom_site_fract_y
_atom_site_fract_z
Si Si1 0.748378 0.839511 0.552150
Si Si2 0.774005 0.147751 0.404356
Si Si3 0.825838 0.409165 0.864708
Si Si4 0.406668 0.346606 0.094418
Si Si5 0.334195 0.411307 0.398382
Si Si6 0.096391 0.338001 0.546884
O O1 0.775747 0.856145 0.724119
O O2 0.811666 0.728759 0.473088
O O3 0.654577 0.779852 0.537138
O O4 0.749595 0.991774 0.467379
O O5 0.706453 0.264251 0.466417
O O6 0.863717 0.197055 0.465143
O O7 0.739944 0.491785 0.826549
O O8 0.864882 0.354846 0.711003
O O9 0.888875 0.516762 0.949345
O O10 0.500000 0.301724 0.050595
O O11 0.399993 0.366770 0.272380
O O12 0.383349 0.503505 0.025857
O O13 0.000000 0.306052 0.561865
#
# Coordination Sequence:
#
# PCOD8167265 Si02
#       6
#     4   4   4   4   4   4
#     4  10  21  37  57  76 105 146 181 214 262 324
#     4  10  20  37  56  76 105 144 182 215 261 324
#     4  10  19  35  57  80 108 142 177 211 261 322
#     4  10  19  33  53  81 107 133 174 224 263 303
#     4   9  18  33  55  77 104 140 173 209 260 320
#     4  11  21  35  56  84 109 135 175 225 265 305
#
# _framework density 18.274304000000001
#
# number of rings (size 3 to 8) (size 9 to 14) (size 15 to 20)
#    0.000    2.000    0.000    7.000    0.000    1.333 
#    0.000    9.167    0.000    0.000    0.000    0.000 
#    0.000    0.000    0.000    0.000    0.000    0.000 
#
# Total GULP energy -297640.574802 kJ/mol
# GULP energy per Si atom -12401.690617 kJ/mol
# Density = 1.823271 g / cm^3
# Si number density = 18.274304 Si / 1000 Ang^3
#
#
#
# Elastic Constant Matrix: (Units=GPa)
#
#
# Indices 1 2 3 4 5 6 
#
# 1 88.2741 22.7661 19.4786 0.0000 0.0000 0.0000
# 2 22.7661 119.1388 30.1781 0.0000 0.0000 0.0000
# 3 19.4786 30.1781 78.1444 0.0000 0.0000 0.0000
# 4 0.0000 0.0000 0.0000 32.1736 0.0000 0.0000
# 5 0.0000 0.0000 0.0000 0.0000 17.4751 0.0000
# 6 0.0000 0.0000 0.0000 0.0000 0.0000 15.1074
#
#
#
# Elastic Compliance Matrix: (Units=1/GPa)
#
#
# Indices 1 2 3 4 5 6 
#
# 1 0.012307 -0.001745 -0.002394 0.000000 0.000000 0.000000
# 2 -0.001745 0.009551 -0.003253 0.000000 0.000000 0.000000
# 3 -0.002394 -0.003253 0.014650 0.000000 0.000000 0.000000
# 4 0.000000 0.000000 0.000000 0.031081 0.000000 0.000000
# 5 0.000000 0.000000 0.000000 0.000000 0.057224 0.000000
# 6 0.000000 0.000000 0.000000 0.000000 0.000000 0.066193
#
#
# Mechanical properties :
#
#
# Convention : Reuss Voigt Hill
#
# Bulk Modulus (GPa) = 46.03428 47.82253 46.92840
# Shear Modulus (GPa) = 23.47066 27.16018 25.31542
#
# Velocity S-wave (km/s) = 3.58768 3.85937 3.72600
# Velocity P-wave (km/s) = 6.51209 6.78865 6.65181
#
# Compressibility (1/GPa) = 0.02172294
#
# Stress axis : x y z
#
# Youngs Moduli (GPa) = 81.25686 104.69890 68.25987
#
# Poissons Ratio (x) = 0.18274 0.16339
# Poissons Ratio (y) = 0.14182 0.22208
# Poissons Ratio (z) = 0.19449 0.34063
#
# Static dielectric constant tensor:
#      x y z
#    x 3.318970 0.000000 0.000000 
#    y 0.000000 3.428990 0.000000 
#    z 0.000000 0.000000 3.427100 
# 
# 
# High freq. dielectric constant tensor:
#      x y z
#    x 1.696360 0.000000 0.000000 
#    y 0.000000 1.705320 0.000000 
#    z 0.000000 0.000000 1.718550 
# 
# From -- ./inp_files/2123.got.cif
#   From: 2010.03.12/outbox.cif.g09.slc.cpg/sg26_2_cif.got.tgz:2123.got - 2010.04.14 03:33:09.
