data_PCOD8167642
_publ_section_title
;
Structure prediction by ZEFSAII (Michael W. Deem and Ramdas Pophale) SiO2 
 PCOD8167642
Probable space group: P M C 21
;
_chemical_formula_sum "Si O2"
_cell_formula_units_Z 18
_cell_length_a 10.442121
_cell_length_b 14.777549
_cell_length_c 5.062590
_cell_angle_alpha 90.000000
_cell_angle_beta 90.000000
_cell_angle_gamma 90.000000
_cell_volume 781.202971
_symmetry_space_group_name_H-M "P M C 21"
_symmetry_group_IT_number 26
_symmetry_cell_setting 'orthorhombic'
loop_
_space_group_symop_operation_xyz
x,y,z
-x,-y,1/2+z
-x,y,z
x,-y,1/2+z
loop_
_atom_site_type_symbol
_atom_site_label
_atom_site_fract_x
_atom_site_fract_y
_atom_site_fract_z
Si Si1 0.772556 0.793633 0.646040
Si Si2 0.000000 0.936292 0.602079
Si Si3 0.757348 0.676013 0.141424
Si Si4 0.500000 0.561499 0.149845
Si Si5 0.354499 0.955440 0.828585
Si Si6 0.000000 0.442263 0.678795
O O1 0.881492 0.868662 0.631116
O O2 0.739061 0.753718 0.360158
O O3 0.650553 0.849089 0.758662
O O4 0.801623 0.715378 0.858661
O O5 0.000000 0.986551 0.323385
O O6 0.626138 0.621313 0.106760
O O7 0.872424 0.613669 0.243544
O O8 0.500000 0.520889 0.443355
O O9 0.500000 0.986442 0.865488
O O10 0.285546 0.017485 0.602932
O O11 0.000000 0.472604 0.375026
#
# Coordination Sequence:
#
# PCOD8167642 Si02
#       6
#     4   2   4   2   4   2
#     4  12  24  41  64  96 135 165 223 270 333 379
#     4  12  24  42  68  96 136 186 228 276 330 392
#     4  12  26  42  70  99 134 170 216 280 334 392
#     4  12  26  48  70 100 134 176 224 268 340 426
#     4  10  21  37  58  84 121 169 213 252 301 363
#     4  12  24  46  70  94 126 168 212 264 334 404
#
# _framework density 23.041387
#
# number of rings (size 3 to 8) (size 9 to 14) (size 15 to 20)
#    0.000    0.444    0.000    9.333    3.111    0.000 
#    0.000    0.000    0.000    0.000    0.000    0.000 
#    0.000    0.000    0.000    0.000    0.000    0.000 
#
# Total GULP energy -223214.912268 kJ/mol
# GULP energy per Si atom -12400.828459 kJ/mol
# Density = 2.298894 g / cm^3
# Si number density = 23.041387 Si / 1000 Ang^3
#
#
#
# Elastic Constant Matrix: (Units=GPa)
#
#
# Indices 1 2 3 4 5 6 
#
# 1 106.3285 43.9304 15.2637 0.0000 0.0000 0.0000
# 2 43.9304 101.8479 21.0391 0.0000 0.0000 0.0000
# 3 15.2637 21.0391 109.5409 0.0000 0.0000 0.0000
# 4 0.0000 0.0000 0.0000 53.0116 0.0000 0.0000
# 5 0.0000 0.0000 0.0000 0.0000 20.1615 0.0000
# 6 0.0000 0.0000 0.0000 0.0000 0.0000 55.4512
#
#
#
# Elastic Compliance Matrix: (Units=1/GPa)
#
#
# Indices 1 2 3 4 5 6 
#
# 1 0.011492 -0.004817 -0.000676 0.000000 0.000000 0.000000
# 2 -0.004817 0.012244 -0.001680 0.000000 0.000000 0.000000
# 3 -0.000676 -0.001680 0.009546 0.000000 0.000000 0.000000
# 4 0.000000 0.000000 0.000000 0.018864 0.000000 0.000000
# 5 0.000000 0.000000 0.000000 0.000000 0.049599 0.000000
# 6 0.000000 0.000000 0.000000 0.000000 0.000000 0.018034
#
#
# Mechanical properties :
#
#
# Convention : Reuss Voigt Hill
#
# Bulk Modulus (GPa) = 52.81443 53.13154 52.97298
# Shear Modulus (GPa) = 35.60299 41.55715 38.58007
#
# Velocity S-wave (km/s) = 3.93514 4.25147 4.09636
# Velocity P-wave (km/s) = 6.60442 6.87090 6.73898
#
# Compressibility (1/GPa) = 0.01893422
#
# Stress axis : x y z
#
# Youngs Moduli (GPa) = 87.01574 81.67579 104.75646
#
# Poissons Ratio (x) = 0.39346 0.07083
# Poissons Ratio (y) = 0.41918 0.17602
# Poissons Ratio (z) = 0.05883 0.13724
#
# Static dielectric constant tensor:
#      x y z
#    x 5.025910 0.000000 0.000000 
#    y 0.000000 4.209960 0.000000 
#    z 0.000000 0.000000 4.385230 
# 
# 
# High freq. dielectric constant tensor:
#      x y z
#    x 1.915570 0.000000 0.000000 
#    y 0.000000 1.918250 0.000000 
#    z 0.000000 0.000000 1.933020 
# 
# From -- ./inp_files/311.got.cif
#   From: 2010.03.12/outbox.cif.g09.slc.cpg/sg26_1_cif.got.tgz:311.got - 2010.04.14 03:33:09.
