data_PCOD8167494
_publ_section_title
;
Structure prediction by ZEFSAII (Michael W. Deem and Ramdas Pophale) SiO2 
 PCOD8167494
Probable space group: P M C 21
;
_chemical_formula_sum "Si O2"
_cell_formula_units_Z 32
_cell_length_a 8.936109
_cell_length_b 6.933515
_cell_length_c 28.080478
_cell_angle_alpha 90.000000
_cell_angle_beta 90.000000
_cell_angle_gamma 90.000000
_cell_volume 1739.828390
_symmetry_space_group_name_H-M "P M C 21"
_symmetry_group_IT_number 26
_symmetry_cell_setting 'orthorhombic'
loop_
_space_group_symop_operation_xyz
x,y,z
-x,-y,1/2+z
-x,y,z
x,-y,1/2+z
loop_
_atom_site_type_symbol
_atom_site_label
_atom_site_fract_x
_atom_site_fract_y
_atom_site_fract_z
Si Si1 0.672661 0.310629 0.613040
Si Si2 0.829455 0.652815 0.369215
Si Si3 0.173569 0.014177 0.939417
Si Si4 0.826565 0.021618 0.793502
Si Si5 0.673142 0.999389 0.194064
Si Si6 0.173395 0.020966 0.548279
Si Si7 0.324177 0.747580 0.866179
Si Si8 0.825688 0.286243 0.127130
O O1 0.500000 0.366172 0.606575
O O2 0.699994 0.178198 0.658818
O O3 0.728205 0.200413 0.565920
O O4 0.770078 0.499316 0.619531
O O5 0.715790 0.476841 0.367858
O O6 0.000000 0.576846 0.370821
O O7 0.792705 0.778568 0.416090
O O8 0.801993 0.782724 0.322797
O O9 0.269313 0.847244 0.914687
O O10 0.000000 0.960386 0.931958
O O11 0.218980 0.026794 0.994423
O O12 0.751398 0.841688 0.819997
O O13 0.000000 0.971944 0.787651
O O14 0.753993 0.055100 0.742568
O O15 0.500000 0.037547 0.204009
O O16 0.741472 0.193831 0.172067
O O17 0.000000 0.079173 0.552717
O O18 0.209762 0.832099 0.579195
O O19 0.500000 0.772632 0.861514
O O20 0.000000 0.287686 0.139120
#
# Coordination Sequence:
#
# PCOD8167494 Si02
#       8
#     4   4   4   4   4   4   4   4
#     4  10  21  36  54  79 112 145 176 217 270 321
#     4   9  19  36  56  78 106 141 180 220 264 315
#     4   9  19  37  58  78 105 141 181 224 265 311
#     4  10  21  38  59  80 104 138 180 223 264 312
#     4  10  21  37  56  79 109 142 176 219 269 318
#     4   9  19  36  57  80 105 139 183 225 265 311
#     4  11  22  35  54  81 112 142 174 217 269 323
#     4  10  20  35  56  81 109 142 182 223 262 313
#
# _framework density 18.392620999999998
#
# number of rings (size 3 to 8) (size 9 to 14) (size 15 to 20)
#    0.000    2.250    0.000    3.375    0.000    7.000 
#    0.000    5.000    0.000    0.000    0.000    0.000 
#    0.000    0.000    0.000    0.000    0.000    0.000 
#
# Total GULP energy -396943.475934 kJ/mol
# GULP energy per Si atom -12404.483623 kJ/mol
# Density = 1.835076 g / cm^3
# Si number density = 18.392621 Si / 1000 Ang^3
#
#
#
# Elastic Constant Matrix: (Units=GPa)
#
#
# Indices 1 2 3 4 5 6 
#
# 1 114.6648 54.3194 53.3276 0.0000 0.0000 0.0000
# 2 54.3194 101.5432 32.0548 0.0000 0.0000 0.0000
# 3 53.3276 32.0548 119.9917 0.0000 0.0000 0.0000
# 4 0.0000 0.0000 0.0000 12.4553 0.0000 0.0000
# 5 0.0000 0.0000 0.0000 0.0000 25.8177 0.0000
# 6 0.0000 0.0000 0.0000 0.0000 0.0000 30.7948
#
#
#
# Elastic Compliance Matrix: (Units=1/GPa)
#
#
# Indices 1 2 3 4 5 6 
#
# 1 0.013570 -0.005848 -0.004468 0.000000 0.000000 0.000000
# 2 -0.005848 0.013276 -0.000947 0.000000 0.000000 0.000000
# 3 -0.004468 -0.000947 0.010573 0.000000 0.000000 0.000000
# 4 0.000000 0.000000 0.000000 0.080287 0.000000 0.000000
# 5 0.000000 0.000000 0.000000 0.000000 0.038733 0.000000
# 6 0.000000 0.000000 0.000000 0.000000 0.000000 0.032473
#
#
# Mechanical properties :
#
#
# Convention : Reuss Voigt Hill
#
# Bulk Modulus (GPa) = 67.15916 68.40038 67.77977
# Shear Modulus (GPa) = 23.10505 26.91342 25.00923
#
# Velocity S-wave (km/s) = 3.54815 3.82942 3.69147
# Velocity P-wave (km/s) = 7.30612 7.53807 7.42300
#
# Compressibility (1/GPa) = 0.01489000
#
# Stress axis : x y z
#
# Youngs Moduli (GPa) = 73.69333 75.32613 94.58188
#
# Poissons Ratio (x) = 0.44054 0.42263
# Poissons Ratio (y) = 0.43099 0.08959
# Poissons Ratio (z) = 0.32929 0.07135
#
# Static dielectric constant tensor:
#      x y z
#    x 3.452690 0.000000 0.000000 
#    y 0.000000 3.279700 0.000000 
#    z 0.000000 0.000000 3.491990 
# 
# 
# High freq. dielectric constant tensor:
#      x y z
#    x 1.720560 0.000000 0.000000 
#    y 0.000000 1.711920 0.000000 
#    z 0.000000 0.000000 1.716860 
# 
# From -- ./inp_files/5681.got.cif
#   From: 2010.03.12/outbox.cif.g09.slc.cpg/sg26_3_cif.got.tgz:5681.got - 2010.04.14 03:33:09.
