data_PCOD8167448
_publ_section_title
;
Structure prediction by ZEFSAII (Michael W. Deem and Ramdas Pophale) SiO2 
 PCOD8167448
Probable space group: P M C 21
;
_chemical_formula_sum "Si O2"
_cell_formula_units_Z 32
_cell_length_a 9.670509
_cell_length_b 14.668571
_cell_length_c 12.362981
_cell_angle_alpha 90.000000
_cell_angle_beta 90.000000
_cell_angle_gamma 90.000000
_cell_volume 1753.720354
_symmetry_space_group_name_H-M "P M C 21"
_symmetry_group_IT_number 26
_symmetry_cell_setting 'orthorhombic'
loop_
_space_group_symop_operation_xyz
x,y,z
-x,-y,1/2+z
-x,y,z
x,-y,1/2+z
loop_
_atom_site_type_symbol
_atom_site_label
_atom_site_fract_x
_atom_site_fract_y
_atom_site_fract_z
Si Si1 0.151583 0.661633 0.166640
Si Si2 0.664990 0.815907 0.445225
Si Si3 0.658977 0.948972 0.256230
Si Si4 0.843959 0.361803 0.907125
Si Si5 0.663721 0.859692 0.687680
Si Si6 0.838301 0.438563 0.454488
Si Si7 0.662718 0.719584 0.865077
Si Si8 0.655757 0.195612 0.588827
O O1 0.153370 0.612780 0.280976
O O2 0.255482 0.745234 0.171263
O O3 0.000000 0.701161 0.138988
O O4 0.196204 0.589872 0.076374
O O5 0.500000 0.800845 0.435943
O O6 0.721945 0.886624 0.353421
O O7 0.738892 0.718740 0.433309
O O8 0.709911 0.853128 0.563006
O O9 0.500000 0.959990 0.288335
O O10 0.674470 0.906355 0.134927
O O11 0.727932 0.049205 0.244569
O O12 0.790167 0.456556 0.956817
O O13 0.000000 0.336445 0.946684
O O14 0.500000 0.868672 0.693402
O O15 0.710611 0.770765 0.755581
O O16 0.748908 0.374166 0.374300
O O17 0.000000 0.429392 0.423000
O O18 0.500000 0.696085 0.863315
O O19 0.699569 0.789429 0.964023
O O20 0.500000 0.229158 0.603876
#
# Coordination Sequence:
#
# PCOD8167448 Si02
#       8
#     4   4   4   4   4   4   4   4
#     4   9  17  31  49  70  97 128 164 208 254 297
#     4  10  20  34  53  77 105 135 171 211 254 304
#     4   9  17  29  49  76 101 130 168 207 247 298
#     4  10  20  34  53  75 102 135 170 213 260 304
#     4   9  19  32  49  77 110 139 167 207 259 305
#     4   9  19  34  52  74 100 136 177 209 252 311
#     4   9  18  32  50  74 104 133 167 213 258 296
#     4   9  16  28  49  73  95 124 166 210 246 289
#
# _framework density 18.246922999999999
#
# number of rings (size 3 to 8) (size 9 to 14) (size 15 to 20)
#    0.000    2.750    1.250    0.000    1.750    1.500 
#    0.000    1.875    0.000    3.000    0.000    0.000 
#    0.000    0.000    0.000    0.000    0.000    0.000 
#
# Total GULP energy -396502.264739 kJ/mol
# GULP energy per Si atom -12390.695773 kJ/mol
# Density = 1.820539 g / cm^3
# Si number density = 18.246923 Si / 1000 Ang^3
#
#
#
# Elastic Constant Matrix: (Units=GPa)
#
#
# Indices 1 2 3 4 5 6 
#
# 1 38.6978 40.7118 20.8528 0.0000 0.0000 0.0000
# 2 40.7118 135.6890 50.7832 0.0000 0.0000 0.0000
# 3 20.8528 50.7832 88.2458 0.0000 0.0000 0.0000
# 4 0.0000 0.0000 0.0000 23.9726 0.0000 0.0000
# 5 0.0000 0.0000 0.0000 0.0000 16.9425 0.0000
# 6 0.0000 0.0000 0.0000 0.0000 0.0000 36.4058
#
#
#
# Elastic Compliance Matrix: (Units=1/GPa)
#
#
# Indices 1 2 3 4 5 6 
#
# 1 0.038421 -0.010362 -0.003116 0.000000 0.000000 0.000000
# 2 -0.010362 0.012187 -0.004565 0.000000 0.000000 0.000000
# 3 -0.003116 -0.004565 0.014695 0.000000 0.000000 0.000000
# 4 0.000000 0.000000 0.000000 0.041714 0.000000 0.000000
# 5 0.000000 0.000000 0.000000 0.000000 0.059023 0.000000
# 6 0.000000 0.000000 0.000000 0.000000 0.000000 0.027468
#
#
# Mechanical properties :
#
#
# Convention : Reuss Voigt Hill
#
# Bulk Modulus (GPa) = 34.22511 54.14758 44.18634
# Shear Modulus (GPa) = 20.89129 25.48317 23.18723
#
# Velocity S-wave (km/s) = 3.38734 3.74113 3.56862
# Velocity P-wave (km/s) = 5.83919 6.95706 6.42249
#
# Compressibility (1/GPa) = 0.02921831
#
# Stress axis : x y z
#
# Youngs Moduli (GPa) = 26.02722 82.05401 68.04871
#
# Poissons Ratio (x) = 0.85020 0.21206
# Poissons Ratio (y) = 0.26968 0.31064
# Poissons Ratio (z) = 0.08111 0.37457
#
# Static dielectric constant tensor:
#      x y z
#    x 3.169400 0.000000 0.000000 
#    y 0.000000 3.386120 0.000000 
#    z 0.000000 0.000000 3.528750 
# 
# 
# High freq. dielectric constant tensor:
#      x y z
#    x 1.672200 0.000000 0.000000 
#    y 0.000000 1.702750 0.000000 
#    z 0.000000 0.000000 1.712990 
# 
# From -- ./inp_files/3355.got.cif
#   From: 2010.03.12/outbox.cif.g09.slc.cpg/sg26_2_cif.got.tgz:3355.got - 2010.04.14 03:33:09.
