data_PCOD8167771
_publ_section_title
;
Structure prediction by ZEFSAII (Michael W. Deem and Ramdas Pophale) SiO2 
 PCOD8167771
Probable space group: P M C 21
;
_chemical_formula_sum "Si O2"
_cell_formula_units_Z 20
_cell_length_a 11.300333
_cell_length_b 17.159327
_cell_length_c 5.242849
_cell_angle_alpha 90.000000
_cell_angle_beta 90.000000
_cell_angle_gamma 90.000000
_cell_volume 1016.620450
_symmetry_space_group_name_H-M "P M C 21"
_symmetry_group_IT_number 26
_symmetry_cell_setting 'orthorhombic'
loop_
_space_group_symop_operation_xyz
x,y,z
-x,-y,1/2+z
-x,y,z
x,-y,1/2+z
loop_
_atom_site_type_symbol
_atom_site_label
_atom_site_fract_x
_atom_site_fract_y
_atom_site_fract_z
Si Si1 0.640801 0.456814 0.084440
Si Si2 0.751617 0.788220 0.049363
Si Si3 0.241854 0.971444 0.073563
Si Si4 0.639749 0.279600 0.050963
Si Si5 0.000000 0.929419 0.571465
Si Si6 0.000000 0.822388 0.072634
O O1 0.500000 0.460203 0.080734
O O2 0.691351 0.498941 0.336161
O O3 0.684533 0.367925 0.083445
O O4 0.674436 0.749167 0.269941
O O5 0.888682 0.762342 0.061342
O O6 0.764893 0.879783 0.096975
O O7 0.697130 0.772082 0.772584
O O8 0.113982 0.014570 0.058144
O O9 0.312658 0.004569 0.318074
O O10 0.500000 0.273352 0.078070
O O11 0.000000 0.871028 0.334212
O O12 0.000000 0.879645 0.829167
#
# Coordination Sequence:
#
# PCOD8167771 Si02
#       6
#     4   4   4   4   2   2
#     4   9  17  33  60  90 112 136 183 241 286 330
#     4  12  23  37  58  88 120 154 192 243 301 346
#     4  12  20  33  53  82 110 144 198 243 305 343
#     4  11  24  41  60  86 123 160 186 224 292 357
#     4  12  19  36  54  88 108 141 194 267 326 316
#     4  12  23  36  60  92 114 145 192 257 314 340
#
# _framework density 19.673026
#
# number of rings (size 3 to 8) (size 9 to 14) (size 15 to 20)
#    0.000    0.800    4.000    5.400    0.000    3.200 
#    0.000    0.000    0.000   12.000    0.000   14.000 
#    0.000    0.000    0.000    0.000    0.000    0.000 
#
# Total GULP energy -247868.464550 kJ/mol
# GULP energy per Si atom -12393.423227 kJ/mol
# Density = 1.962825 g / cm^3
# Si number density = 19.673026 Si / 1000 Ang^3
#
#
#
# Elastic Constant Matrix: (Units=GPa)
#
#
# Indices 1 2 3 4 5 6 
#
# 1 52.3295 31.1458 17.8580 0.0000 0.0000 0.0000
# 2 31.1458 71.6924 20.9906 0.0000 0.0000 0.0000
# 3 17.8580 20.9906 148.1229 0.0000 0.0000 0.0000
# 4 0.0000 0.0000 0.0000 30.8972 0.0000 0.0000
# 5 0.0000 0.0000 0.0000 0.0000 71.8304 0.0000
# 6 0.0000 0.0000 0.0000 0.0000 0.0000 -3.6012
#
#
#
# Elastic Compliance Matrix: (Units=1/GPa)
#
#
# Indices 1 2 3 4 5 6 
#
# 1 0.026136 -0.010884 -0.001609 0.000000 0.000000 0.000000
# 2 -0.010884 0.019084 -0.001392 0.000000 0.000000 0.000000
# 3 -0.001609 -0.001392 0.007142 0.000000 0.000000 0.000000
# 4 0.000000 0.000000 0.000000 0.032365 0.000000 0.000000
# 5 0.000000 0.000000 0.000000 0.000000 0.013922 0.000000
# 6 0.000000 0.000000 0.000000 0.000000 0.000000 -0.277687
#
#
# Mechanical properties :
#
#
# Convention : Reuss Voigt Hill
#
# Bulk Modulus (GPa) = 40.66048 45.79263 43.22656
# Shear Modulus (GPa) = -34.94818 33.30198 -0.82310
#
# Velocity S-wave (km/s) = -4.21937 4.11880 -0.64753
# Velocity P-wave (km/s) = 1.73909 6.77840 4.63262
#
# Compressibility (1/GPa) = 0.02459390
#
# Stress axis : x y z
#
# Youngs Moduli (GPa) = 38.26077 52.39891 140.00883
#
# Poissons Ratio (x) = 0.57029 0.22524
# Poissons Ratio (y) = 0.41642 0.19494
# Poissons Ratio (z) = 0.06155 0.07296
#
# Static dielectric constant tensor:
#      x y z
#    x 3.443700 0.000000 0.000000 
#    y 0.000000 3.605970 0.000000 
#    z 0.000000 0.000000 5.244070 
# 
# 
# High freq. dielectric constant tensor:
#      x y z
#    x 1.719600 0.000000 0.000000 
#    y 0.000000 1.756780 0.000000 
#    z 0.000000 0.000000 1.808850 
# 
# From -- ./inp_files/354.got.cif
#   From: 2010.03.12/outbox.cif.g09.slc.cpg/sg26_1_cif.got.tgz:354.got - 2010.04.14 03:33:09.
