data_PCOD8167151
_publ_section_title
;
Structure prediction by ZEFSAII (Michael W. Deem and Ramdas Pophale) SiO2 
 PCOD8167151
Probable space group: P M C 21
;
_chemical_formula_sum "Si O2"
_cell_formula_units_Z 32
_cell_length_a 8.696817
_cell_length_b 11.860722
_cell_length_c 14.363738
_cell_angle_alpha 90.000000
_cell_angle_beta 90.000000
_cell_angle_gamma 90.000000
_cell_volume 1481.627169
_symmetry_space_group_name_H-M "P M C 21"
_symmetry_group_IT_number 26
_symmetry_cell_setting 'orthorhombic'
loop_
_space_group_symop_operation_xyz
x,y,z
-x,-y,1/2+z
-x,y,z
x,-y,1/2+z
loop_
_atom_site_type_symbol
_atom_site_label
_atom_site_fract_x
_atom_site_fract_y
_atom_site_fract_z
Si Si1 0.320573 0.512660 0.578330
Si Si2 0.827199 0.304164 0.667703
Si Si3 0.818347 0.878641 0.311800
Si Si4 0.681253 0.912942 0.699047
Si Si5 0.179365 0.325678 0.214104
Si Si6 0.826924 0.808732 0.977467
Si Si7 0.678588 0.600314 0.891177
Si Si8 0.319913 0.043208 0.987954
O O1 0.500000 0.538077 0.581746
O O2 0.286481 0.406403 0.645186
O O3 0.232413 0.622927 0.615142
O O4 0.266814 0.486875 0.472036
O O5 0.774675 0.237908 0.759859
O O6 0.822377 0.209695 0.587758
O O7 0.000000 0.353782 0.677036
O O8 0.733141 0.865421 0.411348
O O9 0.000000 0.889254 0.324784
O O10 0.760818 0.987066 0.254939
O O11 0.500000 0.923332 0.713501
O O12 0.737923 0.792335 0.736477
O O13 0.728323 0.917953 0.590516
O O14 0.226084 0.415258 0.295536
O O15 0.000000 0.304964 0.211953
O O16 0.708759 0.725671 0.927868
O O17 0.000000 0.789970 0.938244
O O18 0.772762 0.933584 0.955886
O O19 0.500000 0.584349 0.869083
O O20 0.500000 0.019240 0.982301
#
# Coordination Sequence:
#
# PCOD8167151 Si02
#       8
#     4   4   4   4   4   4   4   4
#     4  10  22  41  66  92 120 157 201 253 305 358
#     4   9  19  36  59  86 116 151 194 245 298 353
#     4  11  22  38  61  90 124 161 202 249 304 365
#     4  11  24  42  63  88 125 166 208 255 304 363
#     4  12  25  42  65  91 124 163 205 254 309 365
#     4  10  18  33  58  86 119 155 197 249 296 352
#     4  10  21  39  64  93 122 158 206 253 302 362
#     4  11  23  37  56  86 122 163 203 246 302 364
#
# _framework density 21.597874000000001
#
# number of rings (size 3 to 8) (size 9 to 14) (size 15 to 20)
#    0.000    1.500    1.250    4.125    0.000    4.500 
#    2.250    0.000    0.000    0.000    0.000    0.000 
#    0.000    0.000    0.000    0.000    0.000    0.000 
#
# Total GULP energy -396852.914088 kJ/mol
# GULP energy per Si atom -12401.653565 kJ/mol
# Density = 2.154872 g / cm^3
# Si number density = 21.597874 Si / 1000 Ang^3
#
#
#
# Elastic Constant Matrix: (Units=GPa)
#
#
# Indices 1 2 3 4 5 6 
#
# 1 67.6157 9.3816 22.7874 0.0000 0.0000 0.0000
# 2 9.3816 33.5785 -3.1770 0.0000 0.0000 0.0000
# 3 22.7874 -3.1770 91.2570 0.0000 0.0000 0.0000
# 4 0.0000 0.0000 0.0000 28.2463 0.0000 0.0000
# 5 0.0000 0.0000 0.0000 0.0000 34.8829 0.0000
# 6 0.0000 0.0000 0.0000 0.0000 0.0000 31.8007
#
#
#
# Elastic Compliance Matrix: (Units=1/GPa)
#
#
# Indices 1 2 3 4 5 6 
#
# 1 0.016997 -0.005168 -0.004424 0.000000 0.000000 0.000000
# 2 -0.005168 0.031450 0.002385 0.000000 0.000000 0.000000
# 3 -0.004424 0.002385 0.012146 0.000000 0.000000 0.000000
# 4 0.000000 0.000000 0.000000 0.035403 0.000000 0.000000
# 5 0.000000 0.000000 0.000000 0.000000 0.028667 0.000000
# 6 0.000000 0.000000 0.000000 0.000000 0.000000 0.031446
#
#
# Mechanical properties :
#
#
# Convention : Reuss Voigt Hill
#
# Bulk Modulus (GPa) = 21.65409 27.82613 24.74011
# Shear Modulus (GPa) = 26.89379 29.88326 28.38853
#
# Velocity S-wave (km/s) = 3.53257 3.72374 3.62942
# Velocity P-wave (km/s) = 5.16590 5.60357 5.38918
#
# Compressibility (1/GPa) = 0.04618066
#
# Stress axis : x y z
#
# Youngs Moduli (GPa) = 58.83223 31.79607 82.33251
#
# Poissons Ratio (x) = 0.16431 0.36426
# Poissons Ratio (y) = 0.30402 -0.19639
# Poissons Ratio (z) = 0.26029 -0.07584
#
# Static dielectric constant tensor:
#      x y z
#    x 3.818080 0.000000 0.000000 
#    y 0.000000 3.600210 0.000000 
#    z 0.000000 0.000000 4.222200 
# 
# 
# High freq. dielectric constant tensor:
#      x y z
#    x 1.850680 0.000000 0.000000 
#    y 0.000000 1.828590 0.000000 
#    z 0.000000 0.000000 1.861110 
# 
# From -- ./inp_files/4334.got.cif
#   From: 2010.03.12/outbox.cif.g09.slc.cpg/sg26_3_cif.got.tgz:4334.got - 2010.04.14 03:33:09.
