data_PCOD8167191
_publ_section_title
;
Structure prediction by ZEFSAII (Michael W. Deem and Ramdas Pophale) SiO2 
 PCOD8167191
Probable space group: P M C 21
;
_chemical_formula_sum "Si O2"
_cell_formula_units_Z 32
_cell_length_a 13.680945
_cell_length_b 14.951439
_cell_length_c 9.544055
_cell_angle_alpha 90.000000
_cell_angle_beta 90.000000
_cell_angle_gamma 90.000000
_cell_volume 1952.234681
_symmetry_space_group_name_H-M "P M C 21"
_symmetry_group_IT_number 26
_symmetry_cell_setting 'orthorhombic'
loop_
_space_group_symop_operation_xyz
x,y,z
-x,-y,1/2+z
-x,y,z
x,-y,1/2+z
loop_
_atom_site_type_symbol
_atom_site_label
_atom_site_fract_x
_atom_site_fract_y
_atom_site_fract_z
Si Si1 0.885767 0.758054 0.275400
Si Si2 0.609044 0.889815 0.636339
Si Si3 0.605894 0.903885 0.139005
Si Si4 0.263913 0.102931 0.890994
Si Si5 0.261904 0.103183 0.400025
Si Si6 0.883750 0.580611 0.771569
Si Si7 0.884043 0.585931 0.451334
Si Si8 0.886112 0.248996 0.448516
O O1 0.827659 0.844666 0.327965
O O2 0.851414 0.676164 0.372871
O O3 0.000000 0.778802 0.295880
O O4 0.863066 0.735959 0.113041
O O5 0.500000 0.844784 0.627700
O O6 0.693604 0.852030 0.532725
O O7 0.653246 0.877496 0.789061
O O8 0.596615 0.992972 0.595253
O O9 0.500000 0.857333 0.121419
O O10 0.639460 0.892795 0.297000
O O11 0.688743 0.860712 0.042368
O O12 0.228152 0.000186 0.906414
O O13 0.165249 0.162146 0.381523
O O14 0.842671 0.582614 0.611327
O O15 0.842358 0.495403 0.857183
O O16 0.848403 0.666680 0.858974
O O17 0.000000 0.576482 0.766142
O O18 0.000000 0.579223 0.457354
O O19 0.000000 0.233284 0.424921
#
# Coordination Sequence:
#
# PCOD8167191 Si02
#       8
#     4   4   4   4   4   4   4   4
#     4  10  20  33  47  66  97 134 167 198 231 274
#     4   9  18  30  47  69  92 119 155 207 257 286
#     4   9  16  30  49  67  88 119 161 205 251 290
#     4  10  19  31  47  68  96 130 165 200 237 284
#     4  10  19  31  47  68  96 130 165 200 237 284
#     4   9  17  30  49  71  93 120 155 197 243 283
#     4   9  17  30  49  71  93 120 155 197 243 283
#     4  10  20  33  47  66  97 134 167 198 231 274
#
# _framework density 16.391472
#
# number of rings (size 3 to 8) (size 9 to 14) (size 15 to 20)
#    0.000    2.500    1.250    1.500    1.750    6.500 
#    0.000    0.000    0.000    0.000    0.000    0.000 
#    0.000    6.000    0.000    0.000    0.000    0.000 
#
# Total GULP energy -396548.584235 kJ/mol
# GULP energy per Si atom -12392.143257 kJ/mol
# Density = 1.635416 g / cm^3
# Si number density = 16.391472 Si / 1000 Ang^3
#
#
#
# Elastic Constant Matrix: (Units=GPa)
#
#
# Indices 1 2 3 4 5 6 
#
# 1 56.2344 40.1356 25.8265 0.0000 0.0000 0.0000
# 2 40.1356 89.6729 45.5109 0.0000 0.0000 0.0000
# 3 25.8265 45.5109 99.9671 0.0000 0.0000 0.0000
# 4 0.0000 0.0000 0.0000 24.7467 0.0000 0.0000
# 5 0.0000 0.0000 0.0000 0.0000 13.4774 0.0000
# 6 0.0000 0.0000 0.0000 0.0000 0.0000 2.7423
#
#
#
# Elastic Compliance Matrix: (Units=1/GPa)
#
#
# Indices 1 2 3 4 5 6 
#
# 1 0.026397 -0.010864 -0.001874 0.000000 0.000000 0.000000
# 2 -0.010864 0.018973 -0.005831 0.000000 0.000000 0.000000
# 3 -0.001874 -0.005831 0.013142 0.000000 0.000000 0.000000
# 4 0.000000 0.000000 0.000000 0.040409 0.000000 0.000000
# 5 0.000000 0.000000 0.000000 0.000000 0.074198 0.000000
# 6 0.000000 0.000000 0.000000 0.000000 0.000000 0.364653
#
#
# Mechanical properties :
#
#
# Convention : Reuss Voigt Hill
#
# Bulk Modulus (GPa) = 46.78357 52.09113 49.43735
# Shear Modulus (GPa) = 8.59055 17.15340 12.87197
#
# Velocity S-wave (km/s) = 2.29178 3.23845 2.80533
# Velocity P-wave (km/s) = 5.96711 6.76992 6.38115
#
# Compressibility (1/GPa) = 0.02137503
#
# Stress axis : x y z
#
# Youngs Moduli (GPa) = 37.88324 52.70530 76.09124
#
# Poissons Ratio (x) = 0.57257 0.14259
# Poissons Ratio (y) = 0.41155 0.44370
# Poissons Ratio (z) = 0.07099 0.30734
#
# Static dielectric constant tensor:
#      x y z
#    x 2.871610 0.000000 0.000000 
#    y 0.000000 2.893460 0.000000 
#    z 0.000000 0.000000 3.339260 
# 
# 
# High freq. dielectric constant tensor:
#      x y z
#    x 1.600000 0.000000 0.000000 
#    y 0.000000 1.597410 0.000000 
#    z 0.000000 0.000000 1.654030 
# 
# From -- ./inp_files/2279.got.cif
#   From: 2010.03.12/outbox.cif.g09.slc.cpg/sg26_2_cif.got.tgz:2279.got - 2010.04.14 03:33:09.
