data_PCOD8167820
_publ_section_title
;
Structure prediction by ZEFSAII (Michael W. Deem and Ramdas Pophale) SiO2 
 PCOD8167820
Probable space group: P C C 2
;
_chemical_formula_sum "Si O2"
_cell_formula_units_Z 24
_cell_length_a 5.280217
_cell_length_b 7.970055
_cell_length_c 25.242344
_cell_angle_alpha 90.000000
_cell_angle_beta 90.000000
_cell_angle_gamma 90.000000
_cell_volume 1062.289210
_symmetry_space_group_name_H-M "P C C 2"
_symmetry_group_IT_number 27
_symmetry_cell_setting 'orthorhombic'
loop_
_space_group_symop_operation_xyz
x,y,z
-x,-y,z
-x,y,1/2+z
x,-y,1/2+z
loop_
_atom_site_type_symbol
_atom_site_label
_atom_site_fract_x
_atom_site_fract_y
_atom_site_fract_z
Si Si1 0.661798 0.279839 0.738440
Si Si2 0.025487 0.306745 0.070660
Si Si3 0.521129 0.800642 0.629848
Si Si4 0.500000 0.000000 0.924932
Si Si5 0.000000 0.000000 0.264879
Si Si6 0.326547 0.213148 0.832144
Si Si7 0.000000 0.500000 0.291246
Si Si8 0.000000 0.000000 0.991964
O O1 0.460224 0.254620 0.691674
O O2 0.563230 0.268074 0.798252
O O3 0.785586 0.461135 0.746477
O O4 0.890923 0.146801 0.727607
O O5 0.275792 0.293159 0.106604
O O6 0.000000 0.500000 0.049742
O O7 0.775436 0.263329 0.103370
O O8 0.056966 0.169733 0.024449
O O9 0.500000 0.000000 0.622765
O O10 0.579571 0.835240 0.890924
O O11 0.252312 0.955372 0.959064
O O12 0.228285 0.952979 0.303540
O O13 0.101208 0.352878 0.830212
#
# Coordination Sequence:
#
# PCOD8167820 Si02
#       8
#     4   4   4   2   2   4   2   2
#     4  11  24  39  66 105 151 201 236 288 357 442
#     4  12  28  52  79 111 150 192 249 320 385 450
#     4  12  25  45  79 112 151 203 249 297 371 456
#     4  12  26  46  86 100 138 196 256 308 390 450
#     4  10  19  37  64  92 146 188 245 275 340 422
#     4  11  22  43  65 104 140 195 236 298 354 437
#     4  10  26  40  64  96 170 184 244 300 352 430
#     4  12  27  55  78 110 144 188 259 331 390 448
#
# _framework density 22.592717
#
# number of rings (size 3 to 8) (size 9 to 14) (size 15 to 20)
#    0.000    0.667    3.333    3.500   10.500    1.333 
#    1.500    0.000    0.000    0.000    0.000    0.000 
#    0.000    0.000    0.000    0.000    0.000    0.000 
#
# Total GULP energy -297331.271391 kJ/mol
# GULP energy per Si atom -12388.802975 kJ/mol
# Density = 2.254129 g / cm^3
# Si number density = 22.592717 Si / 1000 Ang^3
#
#
#
# Elastic Constant Matrix: (Units=GPa)
#
#
# Indices 1 2 3 4 5 6 
#
# 1 125.8150 16.5206 37.3850 0.0000 0.0000 0.0000
# 2 16.5206 127.3399 35.7239 0.0000 0.0000 0.0000
# 3 37.3850 35.7239 98.7655 0.0000 0.0000 0.0000
# 4 0.0000 0.0000 0.0000 19.2439 0.0000 0.0000
# 5 0.0000 0.0000 0.0000 0.0000 42.3431 0.0000
# 6 0.0000 0.0000 0.0000 0.0000 0.0000 40.2232
#
#
#
# Elastic Compliance Matrix: (Units=1/GPa)
#
#
# Indices 1 2 3 4 5 6 
#
# 1 0.008962 -0.000235 -0.003307 0.000000 0.000000 0.000000
# 2 -0.000235 0.008746 -0.003075 0.000000 0.000000 0.000000
# 3 -0.003307 -0.003075 0.012489 0.000000 0.000000 0.000000
# 4 0.000000 0.000000 0.000000 0.051964 0.000000 0.000000
# 5 0.000000 0.000000 0.000000 0.000000 0.023617 0.000000
# 6 0.000000 0.000000 0.000000 0.000000 0.000000 0.024861
#
#
# Mechanical properties :
#
#
# Convention : Reuss Voigt Hill
#
# Bulk Modulus (GPa) = 58.95070 59.01991 58.98531
# Shear Modulus (GPa) = 33.43882 37.84810 35.64346
#
# Velocity S-wave (km/s) = 3.85134 4.09740 3.97628
# Velocity P-wave (km/s) = 6.77691 6.96887 6.87356
#
# Compressibility (1/GPa) = 0.01696333
#
# Stress axis : x y z
#
# Youngs Moduli (GPa) = 111.58534 114.33792 80.07071
#
# Poissons Ratio (x) = 0.02685 0.26482
# Poissons Ratio (y) = 0.02620 0.24618
# Poissons Ratio (z) = 0.36904 0.35154
#
# Static dielectric constant tensor:
#      x y z
#    x 4.194930 0.000000 0.000000 
#    y 0.000000 4.359780 0.000000 
#    z 0.000000 0.000000 3.891120 
# 
# 
# High freq. dielectric constant tensor:
#      x y z
#    x 1.922990 0.000000 0.000000 
#    y 0.000000 1.903160 0.000000 
#    z 0.000000 0.000000 1.858990 
# 
# From -- ./inp_files/5008.got.cif
#   From: 2010.03.12/outbox.cif.g09.slc.cpg/sg27_3_cif.got.tgz:5008.got - 2010.04.14 03:36:05.
