data_PCOD8167039
_publ_section_title
;
Structure prediction by ZEFSAII (Michael W. Deem and Ramdas Pophale) SiO2 
 PCOD8167039
Probable space group: P M M 2
;
_chemical_formula_sum "Si O2"
_cell_formula_units_Z 24
_cell_length_a 19.185973
_cell_length_b 7.593749
_cell_length_c 7.822103
_cell_angle_alpha 90.000000
_cell_angle_beta 90.000000
_cell_angle_gamma 90.000000
_cell_volume 1139.629276
_symmetry_space_group_name_H-M "P M M 2"
_symmetry_group_IT_number 25
_symmetry_cell_setting 'orthorhombic'
loop_
_space_group_symop_operation_xyz
x,y,z
-x,-y,z
-x,y,z
x,-y,z
loop_
_atom_site_type_symbol
_atom_site_label
_atom_site_fract_x
_atom_site_fract_y
_atom_site_fract_z
Si Si1 0.421391 0.710435 0.712930
Si Si2 0.179390 0.301409 0.510297
Si Si3 0.922168 0.000000 0.509617
Si Si4 0.077832 0.000000 0.916242
Si Si5 0.669764 0.291179 0.024064
Si Si6 0.330237 0.708821 0.401795
Si Si7 0.179390 0.301409 0.915562
O O1 0.500000 0.782946 0.712931
O O2 0.420535 0.500000 0.712930
O O3 0.382693 0.785908 0.544228
O O4 0.382692 0.785909 0.881631
O O5 0.163455 0.500000 0.446124
O O6 0.251537 0.226837 0.434473
O O7 0.186559 0.297679 0.712930
O O8 0.117572 0.175020 0.445057
O O9 0.925240 0.000000 0.712930
O O10 0.000000 0.000000 0.431918
O O11 0.117572 0.175020 0.980802
O O12 0.000000 0.000000 0.993941
O O13 0.668982 0.500000 0.010506
O O14 0.645766 0.227913 0.212930
O O15 0.748463 0.226837 0.991387
O O16 0.331018 0.500000 0.415353
O O17 0.163455 0.500000 0.979735
#
# Coordination Sequence:
#
# PCOD8167039 Si02
#       7
#     4   4   2   2   4   4   4
#     4   9  16  26  42  69 105 138 171 215 264 312
#     4   9  16  29  49  70  99 138 175 215 261 307
#     4   9  18  30  47  77 107 131 171 218 261 318
#     4   9  18  30  47  77 107 131 171 218 261 318
#     4   9  16  27  45  69  98 135 178 217 256 308
#     4   9  16  27  45  69  98 135 178 217 256 308
#     4   9  16  29  49  70  99 138 175 215 261 307
#
# _framework density 21.059477999999999
#
# number of rings (size 3 to 8) (size 9 to 14) (size 15 to 20)
#    0.000    3.000    1.667    0.000    0.000    1.333 
#    0.000    7.500    0.000    2.000    0.000    7.000 
#    0.000    2.667    0.000    0.333    0.000    0.000 
#
# Total GULP energy -297494.405182 kJ/mol
# GULP energy per Si atom -12395.600216 kJ/mol
# Density = 2.101155 g / cm^3
# Si number density = 21.059478 Si / 1000 Ang^3
#
#
#
# Elastic Constant Matrix: (Units=GPa)
#
#
# Indices 1 2 3 4 5 6 
#
# 1 203.8255 53.8509 79.1285 0.0000 0.0000 0.0000
# 2 53.8509 72.8551 18.5732 0.0000 0.0000 0.0000
# 3 79.1285 18.5732 111.0018 0.0000 0.0000 0.0000
# 4 0.0000 0.0000 0.0000 0.3901 0.0000 0.0000
# 5 0.0000 0.0000 0.0000 0.0000 8.6148 0.0000
# 6 0.0000 0.0000 0.0000 0.0000 0.0000 -5.4806
#
#
#
# Elastic Compliance Matrix: (Units=1/GPa)
#
#
# Indices 1 2 3 4 5 6 
#
# 1 0.008079 -0.004704 -0.004972 0.000000 0.000000 0.000000
# 2 -0.004704 0.017077 0.000496 0.000000 0.000000 0.000000
# 3 -0.004972 0.000496 0.012470 0.000000 0.000000 0.000000
# 4 0.000000 0.000000 0.000000 2.563717 0.000000 0.000000
# 5 0.000000 0.000000 0.000000 0.000000 0.116079 0.000000
# 6 0.000000 0.000000 0.000000 0.000000 0.000000 -0.182462
#
#
# Mechanical properties :
#
#
# Convention : Reuss Voigt Hill
#
# Bulk Modulus (GPa) = 51.90625 76.75416 64.33021
# Shear Modulus (GPa) = 1.95332 16.44683 9.20008
#
# Velocity S-wave (km/s) = 0.96413 2.79762 2.09239
# Velocity P-wave (km/s) = 5.09317 6.85281 6.03744
#
# Compressibility (1/GPa) = 0.01926550
#
# Stress axis : x y z
#
# Youngs Moduli (GPa) = 123.77213 58.55984 80.18991
#
# Poissons Ratio (x) = 0.27548 0.39873
# Poissons Ratio (y) = 0.58226 -0.03979
# Poissons Ratio (z) = 0.61543 -0.02906
#
# Static dielectric constant tensor:
#      x y z
#    x 3.944300 0.000000 0.000000 
#    y 0.000000 3.573710 0.000000 
#    z 0.000000 0.000000 3.772480 
# 
# 
# High freq. dielectric constant tensor:
#      x y z
#    x 1.815900 0.000000 0.000000 
#    y 0.000000 1.796960 0.000000 
#    z 0.000000 0.000000 1.813240 
# 
# From -- ./inp_files/3380.got.cif
#   From: 2010.03.12/outbox.cif.g09.slc.cpg/sg25_2_cif.got.tgz:3380.got - 2010.04.14 03:30:10.
