data_PCOD8167325
_publ_section_title
;
Structure prediction by ZEFSAII (Michael W. Deem and Ramdas Pophale) SiO2 
 PCOD8167325
Probable space group: P M C 21
;
_chemical_formula_sum "Si O2"
_cell_formula_units_Z 32
_cell_length_a 9.501215
_cell_length_b 11.113161
_cell_length_c 16.195516
_cell_angle_alpha 90.000000
_cell_angle_beta 90.000000
_cell_angle_gamma 90.000000
_cell_volume 1710.060759
_symmetry_space_group_name_H-M "P M C 21"
_symmetry_group_IT_number 26
_symmetry_cell_setting 'orthorhombic'
loop_
_space_group_symop_operation_xyz
x,y,z
-x,-y,1/2+z
-x,y,z
x,-y,1/2+z
loop_
_atom_site_type_symbol
_atom_site_label
_atom_site_fract_x
_atom_site_fract_y
_atom_site_fract_z
Si Si1 0.663180 0.923022 0.985550
Si Si2 0.832403 0.211181 0.350687
Si Si3 0.337405 0.195072 0.020927
Si Si4 0.658536 0.431301 0.752481
Si Si5 0.664632 0.299178 0.198609
Si Si6 0.848508 0.587583 0.974812
Si Si7 0.844098 0.660393 0.398911
Si Si8 0.656405 0.296793 0.592795
O O1 0.500000 0.908715 0.958541
O O2 0.761712 0.894589 0.906185
O O3 0.704267 0.834926 0.061959
O O4 0.691744 0.053137 0.024016
O O5 0.757678 0.219236 0.261609
O O6 0.796519 0.338842 0.394272
O O7 0.000000 0.187800 0.340258
O O8 0.500000 0.224607 0.002985
O O9 0.290475 0.257144 0.106634
O O10 0.248437 0.238364 0.942230
O O11 0.500000 0.438599 0.789184
O O12 0.696166 0.558487 0.709061
O O13 0.770821 0.397958 0.820364
O O14 0.668564 0.317794 0.690171
O O15 0.500000 0.270884 0.213874
O O16 0.861064 0.447019 0.962602
O O17 0.000000 0.642333 0.999384
O O18 0.746119 0.599498 0.051036
O O19 0.000000 0.710666 0.375670
O O20 0.500000 0.320830 0.561442
#
# Coordination Sequence:
#
# PCOD8167325 Si02
#       8
#     4   4   4   4   4   4   4   4
#     4   9  19  38  60  81 109 146 191 235 278 330
#     4  10  19  34  57  83 114 148 186 230 275 333
#     4  10  22  40  59  82 113 151 193 238 284 332
#     4  10  20  34  54  83 116 146 183 231 282 338
#     4  10  20  35  57  85 115 148 190 236 284 338
#     4   9  18  32  51  78 109 143 178 219 275 331
#     4  11  22  36  54  79 115 151 185 226 279 342
#     4   9  18  33  56  83 107 139 182 229 275 324
#
# _framework density 18.712785
#
# number of rings (size 3 to 8) (size 9 to 14) (size 15 to 20)
#    0.000    2.250    1.250    1.500    0.000    4.000 
#    2.250    0.000    0.000    0.000    0.000    0.000 
#    0.000    0.000    0.000    0.000    0.000    0.000 
#
# Total GULP energy -396618.310815 kJ/mol
# GULP energy per Si atom -12394.322213 kJ/mol
# Density = 1.867019 g / cm^3
# Si number density = 18.712785 Si / 1000 Ang^3
#
#
#
# Elastic Constant Matrix: (Units=GPa)
#
#
# Indices 1 2 3 4 5 6 
#
# 1 95.3108 43.2108 52.7104 0.0000 0.0000 0.0000
# 2 43.2108 84.7114 46.3431 0.0000 0.0000 0.0000
# 3 52.7104 46.3431 79.3762 0.0000 0.0000 0.0000
# 4 0.0000 0.0000 0.0000 28.8453 0.0000 0.0000
# 5 0.0000 0.0000 0.0000 0.0000 -285.0747 0.0000
# 6 0.0000 0.0000 0.0000 0.0000 0.0000 18.5171
#
#
#
# Elastic Compliance Matrix: (Units=1/GPa)
#
#
# Indices 1 2 3 4 5 6 
#
# 1 0.017353 -0.003743 -0.009338 0.000000 0.000000 0.000000
# 2 -0.003743 0.018152 -0.008112 0.000000 0.000000 0.000000
# 3 -0.009338 -0.008112 0.023536 0.000000 0.000000 0.000000
# 4 0.000000 0.000000 0.000000 0.034668 0.000000 0.000000
# 5 0.000000 0.000000 0.000000 0.000000 -0.003508 0.000000
# 6 0.000000 0.000000 0.000000 0.000000 0.000000 0.054004
#
#
# Mechanical properties :
#
#
# Convention : Reuss Voigt Hill
#
# Bulk Modulus (GPa) = 60.04638 60.43633 60.24136
# Shear Modulus (GPa) = 26.02215 -39.73352 -6.85568
#
# Velocity S-wave (km/s) = 3.73313 -4.61297 -1.91614
# Velocity P-wave (km/s) = 7.12319 1.99858 5.23135
#
# Compressibility (1/GPa) = 0.01665379
#
# Stress axis : x y z
#
# Youngs Moduli (GPa) = 57.62546 55.08986 42.48871
#
# Poissons Ratio (x) = 0.20621 0.39677
# Poissons Ratio (y) = 0.21570 0.34468
# Poissons Ratio (z) = 0.53812 0.44690
#
# Static dielectric constant tensor:
#      x y z
#    x 3.688190 0.000000 0.000000 
#    y 0.000000 3.379570 0.000000 
#    z 0.000000 0.000000 3.300640 
# 
# 
# High freq. dielectric constant tensor:
#      x y z
#    x 1.731560 0.000000 0.000000 
#    y 0.000000 1.714270 0.000000 
#    z 0.000000 0.000000 1.715180 
# 
# From -- ./inp_files/4151.got.cif
#   From: 2010.03.12/outbox.cif.g09.slc.cpg/sg26_3_cif.got.tgz:4151.got - 2010.04.14 03:33:09.
