data_PCOD8167119
_publ_section_title
;
Structure prediction by ZEFSAII (Michael W. Deem and Ramdas Pophale) SiO2 
 PCOD8167119
Probable space group: P M C 21
;
_chemical_formula_sum "Si O2"
_cell_formula_units_Z 32
_cell_length_a 9.081581
_cell_length_b 11.111733
_cell_length_c 16.612273
_cell_angle_alpha 90.000000
_cell_angle_beta 90.000000
_cell_angle_gamma 90.000000
_cell_volume 1676.379409
_symmetry_space_group_name_H-M "P M C 21"
_symmetry_group_IT_number 26
_symmetry_cell_setting 'orthorhombic'
loop_
_space_group_symop_operation_xyz
x,y,z
-x,-y,1/2+z
-x,y,z
x,-y,1/2+z
loop_
_atom_site_type_symbol
_atom_site_label
_atom_site_fract_x
_atom_site_fract_y
_atom_site_fract_z
Si Si1 0.336664 0.700771 0.250000
Si Si2 0.175746 0.696435 0.637806
Si Si3 0.825770 0.815516 0.804822
Si Si4 0.332227 0.940997 0.335605
Si Si5 0.839158 0.604355 0.386315
Si Si6 0.331779 0.553757 0.095466
Si Si7 0.836862 0.651851 0.946361
Si Si8 0.326678 0.783161 0.487811
O O1 0.500000 0.666939 0.282966
O O2 0.312831 0.842622 0.264916
O O3 0.212559 0.627739 0.296293
O O4 0.320616 0.663446 0.158094
O O5 0.228287 0.743787 0.725264
O O6 0.237876 0.562439 0.621825
O O7 0.240799 0.792690 0.572718
O O8 0.000000 0.691532 0.629156
O O9 0.769962 0.753627 0.887513
O O10 0.000000 0.818708 0.803472
O O11 0.767781 0.950490 0.806747
O O12 0.500000 0.985052 0.342249
O O13 0.282514 0.886401 0.422863
O O14 0.853456 0.462825 0.389892
O O15 0.721916 0.654710 0.450648
O O16 0.000000 0.664179 0.401608
O O17 0.500000 0.511127 0.083439
O O18 0.274047 0.620867 0.016928
O O19 0.000000 0.687727 0.979620
O O20 0.500000 0.783071 0.503978
#
# Coordination Sequence:
#
# PCOD8167119 Si02
#       8
#     4   4   4   4   4   4   4   4
#     4   9  20  37  56  82 114 147 187 237 285 338
#     4  11  22  38  60  88 120 152 192 242 295 352
#     4  10  23  41  59  83 117 156 199 243 289 346
#     4   9  20  40  61  81 112 151 195 241 286 340
#     4  10  18  31  56  85 112 147 184 226 287 343
#     4  11  22  36  58  88 119 151 190 237 290 351
#     4  10  21  37  55  80 118 153 184 236 292 342
#     4  10  20  36  59  87 116 149 191 240 288 342
#
# _framework density 19.088757999999999
#
# number of rings (size 3 to 8) (size 9 to 14) (size 15 to 20)
#    0.000    2.000    1.250    3.000    0.000    6.500 
#    2.250    0.000    0.000    0.000    0.000    0.000 
#    0.000    0.000    0.000    0.000    0.000    0.000 
#
# Total GULP energy -396629.045514 kJ/mol
# GULP energy per Si atom -12394.657672 kJ/mol
# Density = 1.904531 g / cm^3
# Si number density = 19.088758 Si / 1000 Ang^3
#
#
#
# Elastic Constant Matrix: (Units=GPa)
#
#
# Indices 1 2 3 4 5 6 
#
# 1 81.6778 39.5198 51.7832 0.0000 0.0000 0.0000
# 2 39.5198 87.0317 63.6741 0.0000 0.0000 0.0000
# 3 51.7832 63.6741 120.9064 0.0000 0.0000 0.0000
# 4 0.0000 0.0000 0.0000 26.0000 0.0000 0.0000
# 5 0.0000 0.0000 0.0000 0.0000 29.0194 0.0000
# 6 0.0000 0.0000 0.0000 0.0000 0.0000 29.4041
#
#
#
# Elastic Compliance Matrix: (Units=1/GPa)
#
#
# Indices 1 2 3 4 5 6 
#
# 1 0.017638 -0.004038 -0.005428 0.000000 0.000000 0.000000
# 2 -0.004038 0.019617 -0.008601 0.000000 0.000000 0.000000
# 3 -0.005428 -0.008601 0.015125 0.000000 0.000000 0.000000
# 4 0.000000 0.000000 0.000000 0.038461 0.000000 0.000000
# 5 0.000000 0.000000 0.000000 0.000000 0.034460 0.000000
# 6 0.000000 0.000000 0.000000 0.000000 0.000000 0.034009
#
#
# Mechanical properties :
#
#
# Convention : Reuss Voigt Hill
#
# Bulk Modulus (GPa) = 61.55479 66.61890 64.08684
# Shear Modulus (GPa) = 24.89295 25.86062 25.37679
#
# Velocity S-wave (km/s) = 3.61510 3.68469 3.65006
# Velocity P-wave (km/s) = 7.05279 7.28546 7.17007
#
# Compressibility (1/GPa) = 0.01624569
#
# Stress axis : x y z
#
# Youngs Moduli (GPa) = 56.69502 50.97686 66.11460
#
# Poissons Ratio (x) = 0.20586 0.35884
# Poissons Ratio (y) = 0.22896 0.56868
# Poissons Ratio (z) = 0.30771 0.43847
#
# Static dielectric constant tensor:
#      x y z
#    x 3.616900 0.000000 0.000000 
#    y 0.000000 3.338980 0.000000 
#    z 0.000000 0.000000 3.668690 
# 
# 
# High freq. dielectric constant tensor:
#      x y z
#    x 1.748710 0.000000 0.000000 
#    y 0.000000 1.724110 0.000000 
#    z 0.000000 0.000000 1.745910 
# 
# From -- ./inp_files/4132.got.cif
#   From: 2010.03.12/outbox.cif.g09.slc.cpg/sg26_3_cif.got.tgz:4132.got - 2010.04.14 03:33:09.
