data_PCOD8167911
_publ_section_title
;
Structure prediction by ZEFSAII (Michael W. Deem and Ramdas Pophale) SiO2 
 PCOD8167911
Probable space group: P C C 2
;
_chemical_formula_sum "Si O2"
_cell_formula_units_Z 26
_cell_length_a 12.111137
_cell_length_b 12.111137
_cell_length_c 8.011213
_cell_angle_alpha 90.000000
_cell_angle_beta 90.000000
_cell_angle_gamma 90.000000
_cell_volume 1175.081834
_symmetry_space_group_name_H-M "P C C 2"
_symmetry_group_IT_number 27
_symmetry_cell_setting 'orthorhombic'
loop_
_space_group_symop_operation_xyz
x,y,z
-x,-y,z
-x,y,1/2+z
x,-y,1/2+z
loop_
_atom_site_type_symbol
_atom_site_label
_atom_site_fract_x
_atom_site_fract_y
_atom_site_fract_z
Si Si1 0.365990 0.627288 0.209250
Si Si2 0.358899 0.091320 0.248895
Si Si3 0.591320 0.858899 0.867658
Si Si4 0.000000 0.000000 0.655057
Si Si5 0.500000 0.500000 0.961497
Si Si6 0.872712 0.134010 0.907304
Si Si7 0.000000 0.500000 0.808277
Si Si8 0.871881 0.371881 0.058277
O O1 0.363525 0.750040 0.280586
O O2 0.394315 0.540580 0.355869
O O3 0.248775 0.604076 0.128118
O O4 0.460355 0.606166 0.069245
O O5 0.458495 0.139568 0.361175
O O6 0.250040 0.136475 0.335968
O O7 0.360432 0.958495 0.255378
O O8 0.367988 0.132012 0.058277
O O9 0.040580 0.894315 0.760685
O O10 0.893834 0.960355 0.547309
O O11 0.895924 0.251225 0.988436
O O12 0.961546 0.605982 0.702332
O O13 0.894018 0.461546 0.914221
#
# Coordination Sequence:
#
# PCOD8167911 Si02
#       8
#     4   4   4   2   2   4   2   4
#     4  11  24  43  69  99 132 178 216 277 336 387
#     4  11  24  41  66  99 139 176 220 266 325 403
#     4  11  24  41  66  99 139 176 220 266 325 403
#     4  10  24  44  66  96 138 168 230 270 324 404
#     4  10  24  44  66  96 138 168 230 270 324 404
#     4  11  24  43  69  99 132 178 216 277 336 387
#     4  10  24  50  68  98 128 166 236 278 324 394
#     4  11  24  44  74  95 130 174 220 281 336 384
#
# _framework density 22.12612
#
# number of rings (size 3 to 8) (size 9 to 14) (size 15 to 20)
#    0.000    1.231    0.000    5.538    8.615    0.000 
#   11.077    0.000    0.000    0.000    0.000    0.000 
#    0.000    0.000    0.000    0.000    0.000    0.000 
#
# Total GULP energy -322386.630096 kJ/mol
# GULP energy per Si atom -12399.485773 kJ/mol
# Density = 2.207576 g / cm^3
# Si number density = 22.126120 Si / 1000 Ang^3
#
#
#
# Elastic Constant Matrix: (Units=GPa)
#
#
# Indices 1 2 3 4 5 6 
#
# 1 135.4218 57.6764 79.1331 0.0000 0.0000 0.0000
# 2 57.6764 135.4218 79.1331 0.0000 0.0000 0.0000
# 3 79.1331 79.1331 159.6582 0.0000 0.0000 0.0000
# 4 0.0000 0.0000 0.0000 6.8053 0.0000 0.0000
# 5 0.0000 0.0000 0.0000 0.0000 6.8052 0.0000
# 6 0.0000 0.0000 0.0000 0.0000 0.0000 26.7715
#
#
#
# Elastic Compliance Matrix: (Units=1/GPa)
#
#
# Indices 1 2 3 4 5 6 
#
# 1 0.010792 -0.002070 -0.004323 0.000000 0.000000 0.000000
# 2 -0.002070 0.010792 -0.004323 0.000000 0.000000 0.000000
# 3 -0.004323 -0.004323 0.010549 0.000000 0.000000 0.000000
# 4 0.000000 0.000000 0.000000 0.146944 0.000000 0.000000
# 5 0.000000 0.000000 0.000000 0.000000 0.146946 0.000000
# 6 0.000000 0.000000 0.000000 0.000000 0.000000 0.037353
#
#
# Mechanical properties :
#
#
# Convention : Reuss Voigt Hill
#
# Bulk Modulus (GPa) = 93.45216 95.82078 94.63647
# Shear Modulus (GPa) = 12.87415 22.38035 17.62725
#
# Velocity S-wave (km/s) = 2.41478 3.18384 2.82560
# Velocity P-wave (km/s) = 7.07833 7.54430 7.31502
#
# Compressibility (1/GPa) = 0.01070066
#
# Stress axis : x y z
#
# Youngs Moduli (GPa) = 92.65987 92.65988 94.79957
#
# Poissons Ratio (x) = 0.19184 0.40981
# Poissons Ratio (y) = 0.19184 0.40981
# Poissons Ratio (z) = 0.40056 0.40056
#
# Static dielectric constant tensor:
#      x y z
#    x 3.867420 0.000000 0.000000 
#    y 0.000000 3.867420 0.000000 
#    z 0.000000 0.000000 4.326350 
# 
# 
# High freq. dielectric constant tensor:
#      x y z
#    x 1.866350 0.000000 0.000000 
#    y 0.000000 1.866350 0.000000 
#    z 0.000000 0.000000 1.891940 
# 
# From -- ./inp_files/1423.got.cif
#   From: 2010.03.12/outbox.cif.g09.slc.cpg/sg27_1_cif.got.tgz:1423.got - 2010.04.14 03:36:05.
