data_PCOD8167965
_publ_section_title
;
Structure prediction by ZEFSAII (Michael W. Deem and Ramdas Pophale) SiO2 
 PCOD8167965
Probable space group: P M A 2
;
_chemical_formula_sum "Si O2"
_cell_formula_units_Z 32
_cell_length_a 8.953543
_cell_length_b 20.996027
_cell_length_c 9.651496
_cell_angle_alpha 90.000000
_cell_angle_beta 90.000000
_cell_angle_gamma 90.000000
_cell_volume 1814.373446
_symmetry_space_group_name_H-M "P M A 2"
_symmetry_group_IT_number 28
_symmetry_cell_setting 'orthorhombic'
loop_
_space_group_symop_operation_xyz
x,y,z
-x,-y,z
1/2-x,y,z
1/2+x,-y,z
loop_
_atom_site_type_symbol
_atom_site_label
_atom_site_fract_x
_atom_site_fract_y
_atom_site_fract_z
Si Si1 0.073041 0.939976 0.285230
Si Si2 0.573081 0.682975 0.590469
Si Si3 0.574603 0.564682 0.772284
Si Si4 0.928091 0.937061 0.584933
Si Si5 0.419384 0.810812 0.597219
Si Si6 0.425279 0.320913 0.274871
Si Si7 0.426284 0.435167 0.089163
Si Si8 0.415228 0.802829 0.267520
O O1 0.250000 0.949249 0.314347
O O2 0.045869 0.872902 0.204183
O O3 0.979359 0.937505 0.426284
O O4 0.000000 0.000000 0.200809
O O5 0.750000 0.692101 0.598816
O O6 0.516755 0.623436 0.680614
O O7 0.497438 0.746426 0.652252
O O8 0.519982 0.670503 0.432720
O O9 0.500000 0.500000 0.716842
O O10 0.750000 0.556182 0.756206
O O11 0.527745 0.578087 0.930587
O O12 0.750000 0.938543 0.597527
O O13 0.991687 0.872426 0.655507
O O14 0.000000 0.000000 0.657983
O O15 0.250000 0.813416 0.652231
O O16 0.424797 0.810943 0.431928
O O17 0.250000 0.322836 0.264513
O O18 0.492025 0.377658 0.181666
O O19 0.475514 0.252408 0.214156
O O20 0.500000 0.500000 0.143781
O O21 0.250000 0.441813 0.106000
O O22 0.250000 0.782016 0.222123
#
# Coordination Sequence:
#
# PCOD8167965 Si02
#       8
#     4   4   4   4   4   4   4   4
#     4   9  15  22  32  49  74 106 143 178 211 252
#     4   9  17  29  44  63  85 112 142 175 212 255
#     4   9  18  32  48  64  86 112 140 172 211 254
#     4  10  16  22  33  50  75 109 146 180 213 253
#     4   9  16  26  38  55  80 109 140 176 215 257
#     4   9  17  28  43  62  84 109 141 174 208 249
#     4   9  18  32  47  64  85 111 139 172 210 252
#     4   8  15  25  36  53  79 108 138 171 210 250
#
# _framework density 17.636942999999999
#
# number of rings (size 3 to 8) (size 9 to 14) (size 15 to 20)
#    0.000    3.000    0.000    3.375    0.000    5.000 
#    0.000    0.000    0.000    0.000    0.000    0.000 
#    0.000    1.000    0.000    4.250    0.000    4.875 
#
# Total GULP energy -396554.745440 kJ/mol
# GULP energy per Si atom -12392.335795 kJ/mol
# Density = 1.759680 g / cm^3
# Si number density = 17.636943 Si / 1000 Ang^3
#
#
#
# Elastic Constant Matrix: (Units=GPa)
#
#
# Indices 1 2 3 4 5 6 
#
# 1 68.1050 60.5360 19.1306 0.0000 0.0000 0.0000
# 2 60.5360 205.3288 48.4660 0.0000 0.0000 0.0000
# 3 19.1306 48.4660 30.4169 0.0000 0.0000 0.0000
# 4 0.0000 0.0000 0.0000 2.7850 0.0000 0.0000
# 5 0.0000 0.0000 0.0000 0.0000 9.1755 0.0000
# 6 0.0000 0.0000 0.0000 0.0000 0.0000 38.3447
#
#
#
# Elastic Compliance Matrix: (Units=1/GPa)
#
#
# Indices 1 2 3 4 5 6 
#
# 1 0.020399 -0.004786 -0.005204 0.000000 0.000000 0.000000
# 2 -0.004786 0.008929 -0.011217 0.000000 0.000000 0.000000
# 3 -0.005204 -0.011217 0.054023 0.000000 0.000000 0.000000
# 4 0.000000 0.000000 0.000000 0.359062 0.000000 0.000000
# 5 0.000000 0.000000 0.000000 0.000000 0.108986 0.000000
# 6 0.000000 0.000000 0.000000 0.000000 0.000000 0.026079
#
#
# Mechanical properties :
#
#
# Convention : Reuss Voigt Hill
#
# Bulk Modulus (GPa) = 24.42816 62.23510 43.33163
# Shear Modulus (GPa) = 7.89219 21.77559 14.83389
#
# Velocity S-wave (km/s) = 2.11767 3.51758 2.90327
# Velocity P-wave (km/s) = 4.45646 7.20147 5.98837
#
# Compressibility (1/GPa) = 0.04093636
#
# Stress axis : x y z
#
# Youngs Moduli (GPa) = 49.02218 111.99567 18.51056
#
# Poissons Ratio (x) = 0.53597 0.09634
# Poissons Ratio (y) = 0.23460 0.20764
# Poissons Ratio (z) = 0.25513 1.25629
#
# Static dielectric constant tensor:
#      x y z
#    x 3.237040 0.000000 0.000000 
#    y 0.000000 4.021280 0.000000 
#    z 0.000000 0.000000 2.771950 
# 
# 
# High freq. dielectric constant tensor:
#      x y z
#    x 1.681870 0.000000 0.000000 
#    y 0.000000 1.709950 0.000000 
#    z 0.000000 0.000000 1.604310 
# 
# From -- ./inp_files/5184.got.cif
#   From: 2010.03.12/outbox.cif.g09.slc.cpg/sg28_3_cif.got.tgz:5184.got - 2010.04.14 03:39:34.
