data_PCOD8167309
_publ_section_title
;
Structure prediction by ZEFSAII (Michael W. Deem and Ramdas Pophale) SiO2 
 PCOD8167309
Probable space group: P M C 21
;
_chemical_formula_sum "Si O2"
_cell_formula_units_Z 32
_cell_length_a 9.092521
_cell_length_b 13.644028
_cell_length_c 13.100651
_cell_angle_alpha 90.000000
_cell_angle_beta 90.000000
_cell_angle_gamma 90.000000
_cell_volume 1625.248568
_symmetry_space_group_name_H-M "P M C 21"
_symmetry_group_IT_number 26
_symmetry_cell_setting 'orthorhombic'
loop_
_space_group_symop_operation_xyz
x,y,z
-x,-y,1/2+z
-x,y,z
x,-y,1/2+z
loop_
_atom_site_type_symbol
_atom_site_label
_atom_site_fract_x
_atom_site_fract_y
_atom_site_fract_z
Si Si1 0.334979 0.593618 0.450720
Si Si2 0.671402 0.747797 0.038939
Si Si3 0.336751 0.457501 0.627108
Si Si4 0.674870 0.815369 0.432848
Si Si5 0.675667 0.110907 0.713980
Si Si6 0.675166 0.742584 0.812569
Si Si7 0.325071 0.898666 0.646162
Si Si8 0.828403 0.538603 0.803305
O O1 0.500000 0.586295 0.402892
O O2 0.341335 0.561242 0.568439
O O3 0.271521 0.702941 0.440153
O O4 0.222973 0.515221 0.404888
O O5 0.500000 0.769656 0.041034
O O6 0.707413 0.633431 0.054884
O O7 0.741160 0.813190 0.130001
O O8 0.729877 0.776398 0.925785
O O9 0.500000 0.436997 0.673482
O O10 0.214850 0.462852 0.714214
O O11 0.500000 0.818294 0.434882
O O12 0.735609 0.862482 0.327525
O O13 0.735560 0.873395 0.532463
O O14 0.500000 0.114044 0.716777
O O15 0.734476 0.004272 0.681369
O O16 0.500000 0.730612 0.811045
O O17 0.731552 0.820442 0.729343
O O18 0.743959 0.639060 0.784032
O O19 0.500000 0.898394 0.644402
O O20 0.000000 0.559283 0.806409
#
# Coordination Sequence:
#
# PCOD8167309 Si02
#       8
#     4   4   4   4   4   4   4   4
#     4  10  19  35  57  78 106 147 190 227 266 325
#     4   9  17  30  51  78 107 141 182 225 273 322
#     4  10  19  34  56  79 107 148 190 226 265 325
#     4   9  17  29  46  73 107 142 179 220 269 324
#     4   9  17  27  44  75 113 142 169 220 284 331
#     4  10  19  35  55  78 107 144 188 226 268 333
#     4   9  18  29  48  76 108 143 175 221 278 329
#     4  12  24  35  52  81 115 147 179 227 279 329
#
# _framework density 19.689295999999999
#
# number of rings (size 3 to 8) (size 9 to 14) (size 15 to 20)
#    0.000    2.250    1.250    2.625    1.750    4.500 
#    0.000    0.000    0.000    0.000    0.000    4.375 
#    0.000    0.000    0.000    0.000    0.000    0.000 
#
# Total GULP energy -396646.217527 kJ/mol
# GULP energy per Si atom -12395.194298 kJ/mol
# Density = 1.964448 g / cm^3
# Si number density = 19.689296 Si / 1000 Ang^3
#
#
#
# Elastic Constant Matrix: (Units=GPa)
#
#
# Indices 1 2 3 4 5 6 
#
# 1 30.2229 16.1725 18.6833 0.0000 0.0000 0.0000
# 2 16.1725 134.1998 62.7315 0.0000 0.0000 0.0000
# 3 18.6833 62.7315 150.8777 0.0000 0.0000 0.0000
# 4 0.0000 0.0000 0.0000 37.8769 0.0000 0.0000
# 5 0.0000 0.0000 0.0000 0.0000 3.8894 0.0000
# 6 0.0000 0.0000 0.0000 0.0000 0.0000 2.6500
#
#
#
# Elastic Compliance Matrix: (Units=1/GPa)
#
#
# Indices 1 2 3 4 5 6 
#
# 1 0.036689 -0.002852 -0.003357 0.000000 0.000000 0.000000
# 2 -0.002852 0.009471 -0.003585 0.000000 0.000000 0.000000
# 3 -0.003357 -0.003585 0.008534 0.000000 0.000000 0.000000
# 4 0.000000 0.000000 0.000000 0.026401 0.000000 0.000000
# 5 0.000000 0.000000 0.000000 0.000000 0.257107 0.000000
# 6 0.000000 0.000000 0.000000 0.000000 0.000000 0.377356
#
#
# Mechanical properties :
#
#
# Convention : Reuss Voigt Hill
#
# Bulk Modulus (GPa) = 28.48518 56.71944 42.60231
# Shear Modulus (GPa) = 6.69480 23.39747 15.04613
#
# Velocity S-wave (km/s) = 1.84597 3.45096 2.76738
# Velocity P-wave (km/s) = 4.36374 6.68944 5.64760
#
# Compressibility (1/GPa) = 0.03510597
#
# Stress axis : x y z
#
# Youngs Moduli (GPa) = 27.25601 105.58665 117.17773
#
# Poissons Ratio (x) = 0.30113 0.39342
# Poissons Ratio (y) = 0.07773 0.42004
# Poissons Ratio (z) = 0.09151 0.37849
#
# Static dielectric constant tensor:
#      x y z
#    x 2.841570 0.000000 0.000000 
#    y 0.000000 3.673560 0.000000 
#    z 0.000000 0.000000 3.882970 
# 
# 
# High freq. dielectric constant tensor:
#      x y z
#    x 1.683420 0.000000 0.000000 
#    y 0.000000 1.772880 0.000000 
#    z 0.000000 0.000000 1.786300 
# 
# From -- ./inp_files/3097.got.cif
#   From: 2010.03.12/outbox.cif.g09.slc.cpg/sg26_2_cif.got.tgz:3097.got - 2010.04.14 03:33:09.
