data_PCOD8167022
_publ_section_title
;
Structure prediction by ZEFSAII (Michael W. Deem and Ramdas Pophale) SiO2 
 PCOD8167022
Probable space group: P M M 2
;
_chemical_formula_sum "Si O2"
_cell_formula_units_Z 32
_cell_length_a 9.754717
_cell_length_b 9.318205
_cell_length_c 20.808106
_cell_angle_alpha 90.000000
_cell_angle_beta 90.000000
_cell_angle_gamma 90.000000
_cell_volume 1891.383023
_symmetry_space_group_name_H-M "P M M 2"
_symmetry_group_IT_number 25
_symmetry_cell_setting 'orthorhombic'
loop_
_space_group_symop_operation_xyz
x,y,z
-x,-y,z
-x,y,z
x,-y,z
loop_
_atom_site_type_symbol
_atom_site_label
_atom_site_fract_x
_atom_site_fract_y
_atom_site_fract_z
Si Si1 0.342125 0.668678 0.512400
Si Si2 0.163040 0.660049 0.767738
Si Si3 0.159122 0.832316 0.134581
Si Si4 0.847114 0.670909 0.626374
Si Si5 0.163652 0.838035 0.887680
Si Si6 0.662970 0.159417 0.390530
Si Si7 0.836991 0.662272 0.009617
Si Si8 0.347070 0.829173 0.250061
O O1 0.500000 0.710566 0.524112
O O2 0.322805 0.500000 0.505048
O O3 0.256216 0.730495 0.572488
O O4 0.282794 0.738575 0.447250
O O5 0.222837 0.500000 0.779607
O O6 0.205471 0.719394 0.697145
O O7 0.220698 0.766337 0.822273
O O8 0.000000 0.652034 0.771148
O O9 0.243269 0.773780 0.195716
O O10 0.000000 0.802536 0.148431
O O11 0.185969 0.000000 0.121357
O O12 0.212950 0.744598 0.073221
O O13 0.850908 0.500000 0.625496
O O14 0.000000 0.731169 0.612630
O O15 0.220650 0.746906 0.947798
O O16 0.000000 0.838412 0.888049
O O17 0.220292 0.000000 0.892241
O O18 0.500000 0.152568 0.391421
O O19 0.706928 0.221595 0.320473
O O20 0.723837 0.000000 0.401492
O O21 0.779107 0.500000 0.009528
O O22 0.000000 0.660584 0.007197
O O23 0.500000 0.768812 0.235910
O O24 0.351979 0.000000 0.250961
#
# Coordination Sequence:
#
# PCOD8167022 Si02
#       8
#     4   4   4   4   4   4   4   4
#     4   9  16  26  42  63  82 101 132 172 204 231
#     4   8  13  22  36  52  71  99 133 163 193 235
#     4   9  16  26  41  61  83 105 131 166 204 237
#     4   8  14  25  40  57  80 110 137 160 195 245
#     4   9  15  22  34  54  79 104 131 166 204 236
#     4   8  14  26  43  60  79 105 135 165 199 240
#     4   9  16  25  37  54  79 110 138 163 196 240
#     4   8  14  26  44  62  79 104 137 166 195 239
#
# _framework density 16.918837
#
# number of rings (size 3 to 8) (size 9 to 14) (size 15 to 20)
#    0.000    3.500    0.000    2.250    0.000    3.000 
#    0.000    1.875    0.000    3.000    0.000    0.875 
#    0.000    3.000    0.000    0.000    0.000    0.000 
#
# Total GULP energy -396581.715614 kJ/mol
# GULP energy per Si atom -12393.178613 kJ/mol
# Density = 1.688033 g / cm^3
# Si number density = 16.918837 Si / 1000 Ang^3
#
#
#
# Elastic Constant Matrix: (Units=GPa)
#
#
# Indices 1 2 3 4 5 6 
#
# 1 34.7044 20.8480 49.1344 0.0000 0.0000 0.0000
# 2 20.8480 72.9369 67.2537 0.0000 0.0000 0.0000
# 3 49.1344 67.2537 195.1615 0.0000 0.0000 0.0000
# 4 0.0000 0.0000 0.0000 30.9557 0.0000 0.0000
# 5 0.0000 0.0000 0.0000 0.0000 9.1993 0.0000
# 6 0.0000 0.0000 0.0000 0.0000 0.0000 7.7710
#
#
#
# Elastic Compliance Matrix: (Units=1/GPa)
#
#
# Indices 1 2 3 4 5 6 
#
# 1 0.045401 -0.003573 -0.010199 0.000000 0.000000 0.000000
# 2 -0.003573 0.020377 -0.006123 0.000000 0.000000 0.000000
# 3 -0.010199 -0.006123 0.009802 0.000000 0.000000 0.000000
# 4 0.000000 0.000000 0.000000 0.032304 0.000000 0.000000
# 5 0.000000 0.000000 0.000000 0.000000 0.108703 0.000000
# 6 0.000000 0.000000 0.000000 0.000000 0.000000 0.128684
#
#
# Mechanical properties :
#
#
# Convention : Reuss Voigt Hill
#
# Bulk Modulus (GPa) = 27.94020 64.14166 46.04093
# Shear Modulus (GPa) = 12.59477 20.62299 16.60888
#
# Velocity S-wave (km/s) = 2.73137 3.49511 3.13658
# Velocity P-wave (km/s) = 5.14755 7.36760 6.35526
#
# Compressibility (1/GPa) = 0.03579073
#
# Stress axis : x y z
#
# Youngs Moduli (GPa) = 22.02600 49.07428 102.02455
#
# Poissons Ratio (x) = 0.17534 1.04055
# Poissons Ratio (y) = 0.07870 0.62465
# Poissons Ratio (z) = 0.22464 0.30046
#
# Static dielectric constant tensor:
#      x y z
#    x 2.762260 0.000000 0.000000 
#    y 0.000000 3.067860 0.000000 
#    z 0.000000 0.000000 3.637830 
# 
# 
# High freq. dielectric constant tensor:
#      x y z
#    x 1.589890 0.000000 0.000000 
#    y 0.000000 1.627990 0.000000 
#    z 0.000000 0.000000 1.671780 
# 
# From -- ./inp_files/6259.got.cif
#   From: 2010.03.12/outbox.cif.g09.slc.cpg/sg25_4_cif.got.tgz:6259.got - 2010.04.14 03:30:10.
