data_PCOD8167072
_publ_section_title
;
Structure prediction by ZEFSAII (Michael W. Deem and Ramdas Pophale) SiO2 
 PCOD8167072
Probable space group: P M C 21
;
_chemical_formula_sum "Si O2"
_cell_formula_units_Z 28
_cell_length_a 17.707299
_cell_length_b 9.201545
_cell_length_c 8.831904
_cell_angle_alpha 90.000000
_cell_angle_beta 90.000000
_cell_angle_gamma 90.000000
_cell_volume 1439.021938
_symmetry_space_group_name_H-M "P M C 21"
_symmetry_group_IT_number 26
_symmetry_cell_setting 'orthorhombic'
loop_
_space_group_symop_operation_xyz
x,y,z
-x,-y,1/2+z
-x,y,z
x,-y,1/2+z
loop_
_atom_site_type_symbol
_atom_site_label
_atom_site_fract_x
_atom_site_fract_y
_atom_site_fract_z
Si Si1 0.081741 0.206079 0.104580
Si Si2 0.716480 0.616768 0.935612
Si Si3 0.413732 0.166239 0.387352
Si Si4 0.242492 0.330939 0.091470
Si Si5 0.129805 0.004515 0.857938
Si Si6 0.656143 0.062965 0.094684
Si Si7 0.218940 0.857817 0.109756
O O1 0.151800 0.313315 0.066743
O O2 0.091666 0.127904 0.267081
O O3 0.000000 0.288196 0.107779
O O4 0.073886 0.083006 0.974448
O O5 0.717967 0.449010 0.982616
O O6 0.769891 0.690812 0.063026
O O7 0.634786 0.695611 0.946200
O O8 0.746943 0.632343 0.766793
O O9 0.500000 0.206231 0.420835
O O10 0.401084 0.141181 0.209412
O O11 0.392404 0.011833 0.462803
O O12 0.283232 0.183183 0.039295
O O13 0.155993 0.128006 0.738164
O O14 0.199786 0.939649 0.951945
O O15 0.704955 0.934256 0.172885
#
# Coordination Sequence:
#
# PCOD8167072 Si02
#       7
#     4   4   4   4   4   4   4
#     4  11  22  36  57  88 122 151 191 251 303 338
#     4  10  23  37  58  83 111 158 194 234 284 349
#     4  10  21  38  58  89 120 146 187 242 299 347
#     4  11  22  38  58  84 114 153 205 234 282 353
#     4  10  18  33  60  83 115 145 192 245 292 346
#     4  10  19  34  62  87 112 149 190 239 289 342
#     4  10  17  34  58  86 107 146 197 243 275 341
#
# _framework density 19.457659
#
# number of rings (size 3 to 8) (size 9 to 14) (size 15 to 20)
#    0.000    1.714    4.286    2.571    2.000    1.143 
#    0.000    4.286    0.000    0.000    0.000    0.000 
#    0.000    0.000    0.000    0.000    0.000    0.000 
#
# Total GULP energy -346944.848113 kJ/mol
# GULP energy per Si atom -12390.887433 kJ/mol
# Density = 1.941337 g / cm^3
# Si number density = 19.457659 Si / 1000 Ang^3
#
#
#
# Elastic Constant Matrix: (Units=GPa)
#
#
# Indices 1 2 3 4 5 6 
#
# 1 130.8998 38.4263 30.7469 0.0000 0.0000 0.0000
# 2 38.4263 85.4617 24.4490 0.0000 0.0000 0.0000
# 3 30.7469 24.4490 64.5224 0.0000 0.0000 0.0000
# 4 0.0000 0.0000 0.0000 27.9266 0.0000 0.0000
# 5 0.0000 0.0000 0.0000 0.0000 10.9873 0.0000
# 6 0.0000 0.0000 0.0000 0.0000 0.0000 19.0014
#
#
#
# Elastic Compliance Matrix: (Units=1/GPa)
#
#
# Indices 1 2 3 4 5 6 
#
# 1 0.009360 -0.003289 -0.003214 0.000000 0.000000 0.000000
# 2 -0.003289 0.014280 -0.003844 0.000000 0.000000 0.000000
# 3 -0.003214 -0.003844 0.018486 0.000000 0.000000 0.000000
# 4 0.000000 0.000000 0.000000 0.035808 0.000000 0.000000
# 5 0.000000 0.000000 0.000000 0.000000 0.091014 0.000000
# 6 0.000000 0.000000 0.000000 0.000000 0.000000 0.052628
#
#
# Mechanical properties :
#
#
# Convention : Reuss Voigt Hill
#
# Bulk Modulus (GPa) = 46.65744 52.01427 49.33586
# Shear Modulus (GPa) = 20.04703 24.06716 22.05710
#
# Velocity S-wave (km/s) = 3.21330 3.52077 3.37054
# Velocity P-wave (km/s) = 6.14801 6.58163 6.36851
#
# Compressibility (1/GPa) = 0.02143281
#
# Stress axis : x y z
#
# Youngs Moduli (GPa) = 106.83902 70.03017 54.09365
#
# Poissons Ratio (x) = 0.23033 0.17386
# Poissons Ratio (y) = 0.35140 0.20791
# Poissons Ratio (z) = 0.34338 0.26916
#
# Static dielectric constant tensor:
#      x y z
#    x 3.421110 0.000000 0.000000 
#    y 0.000000 3.392240 0.000000 
#    z 0.000000 0.000000 3.582450 
# 
# 
# High freq. dielectric constant tensor:
#      x y z
#    x 1.742280 0.000000 0.000000 
#    y 0.000000 1.731370 0.000000 
#    z 0.000000 0.000000 1.766480 
# 
# From -- ./inp_files/2400.got.cif
#   From: 2010.03.12/outbox.cif.g09.slc.cpg/sg26_2_cif.got.tgz:2400.got - 2010.04.14 03:33:09.
