data_PCOD8167985
_publ_section_title
;
Structure prediction by ZEFSAII (Michael W. Deem and Ramdas Pophale) SiO2 
 PCOD8167985
Probable space group: P M A 2
;
_chemical_formula_sum "Si O2"
_cell_formula_units_Z 32
_cell_length_a 8.981483
_cell_length_b 17.709797
_cell_length_c 11.429225
_cell_angle_alpha 90.000000
_cell_angle_beta 90.000000
_cell_angle_gamma 90.000000
_cell_volume 1817.935279
_symmetry_space_group_name_H-M "P M A 2"
_symmetry_group_IT_number 28
_symmetry_cell_setting 'orthorhombic'
loop_
_space_group_symop_operation_xyz
x,y,z
-x,-y,z
1/2-x,y,z
1/2+x,-y,z
loop_
_atom_site_type_symbol
_atom_site_label
_atom_site_fract_x
_atom_site_fract_y
_atom_site_fract_z
Si Si1 0.425068 0.233036 0.129770
Si Si2 0.082270 0.699504 0.339394
Si Si3 0.586288 0.133020 0.440603
Si Si4 0.081210 0.728588 0.896002
Si Si5 0.420524 0.783444 0.653377
Si Si6 0.575633 0.426366 0.764607
Si Si7 0.576609 0.925460 0.232733
Si Si8 0.425057 0.356529 0.553009
O O1 0.250000 0.239989 0.147988
O O2 0.502751 0.294330 0.213541
O O3 0.478614 0.147935 0.161389
O O4 0.467032 0.250644 0.997171
O O5 0.250000 0.670164 0.320182
O O6 0.080038 0.780590 0.400255
O O7 0.994330 0.640338 0.421996
O O8 0.750000 0.098430 0.415605
O O9 0.554931 0.137573 0.581640
O O10 0.467140 0.083390 0.370206
O O11 0.250000 0.730430 0.944518
O O12 0.060682 0.791627 0.793356
O O13 0.042178 0.646001 0.845497
O O14 0.250000 0.753360 0.629118
O O15 0.543117 0.724910 0.608941
O O16 0.500000 0.500000 0.823974
O O17 0.750000 0.439257 0.749745
O O18 0.502744 0.418122 0.636018
O O19 0.750000 0.937006 0.222617
O O20 0.500000 0.000000 0.179266
O O21 0.250000 0.371594 0.545916
#
# Coordination Sequence:
#
# PCOD8167985 Si02
#       8
#     4   4   4   4   4   4   4   4
#     4  10  20  32  48  73 100 127 168 214 251 293
#     4   9  16  28  46  67  93 124 155 190 236 286
#     4   8  14  26  45  67  91 118 148 186 233 283
#     4   9  18  32  50  72  99 132 169 205 244 294
#     4   8  15  28  45  67  94 123 155 190 231 282
#     4  10  20  34  51  73 100 130 166 205 249 301
#     4  10  20  32  47  69  96 125 159 202 250 302
#     4  10  17  26  44  70  97 123 152 190 238 285
#
# _framework density 17.602388000000001
#
# number of rings (size 3 to 8) (size 9 to 14) (size 15 to 20)
#    0.000    2.750    0.000    4.125    0.000    7.000 
#    0.000    0.000    0.000    1.500    0.000    5.250 
#    0.000    0.000    0.000    0.000    0.000    0.000 
#
# Total GULP energy -396572.948843 kJ/mol
# GULP energy per Si atom -12392.904651 kJ/mol
# Density = 1.756232 g / cm^3
# Si number density = 17.602388 Si / 1000 Ang^3
#
#
#
# Elastic Constant Matrix: (Units=GPa)
#
#
# Indices 1 2 3 4 5 6 
#
# 1 97.5253 31.6951 42.2675 0.0000 0.0000 0.0000
# 2 31.6951 53.5451 30.3153 0.0000 0.0000 0.0000
# 3 42.2675 30.3153 106.7975 0.0000 0.0000 0.0000
# 4 0.0000 0.0000 0.0000 15.4093 0.0000 0.0000
# 5 0.0000 0.0000 0.0000 0.0000 30.6716 0.0000
# 6 0.0000 0.0000 0.0000 0.0000 0.0000 24.2524
#
#
#
# Elastic Compliance Matrix: (Units=1/GPa)
#
#
# Indices 1 2 3 4 5 6 
#
# 1 0.013857 -0.006074 -0.003760 0.000000 0.000000 0.000000
# 2 -0.006074 0.024914 -0.004668 0.000000 0.000000 0.000000
# 3 -0.003760 -0.004668 0.012177 0.000000 0.000000 0.000000
# 4 0.000000 0.000000 0.000000 0.064896 0.000000 0.000000
# 5 0.000000 0.000000 0.000000 0.000000 0.032604 0.000000
# 6 0.000000 0.000000 0.000000 0.000000 0.000000 0.041233
#
#
# Mechanical properties :
#
#
# Convention : Reuss Voigt Hill
#
# Bulk Modulus (GPa) = 45.57094 51.82486 48.69790
# Shear Modulus (GPa) = 22.12392 24.30599 23.21495
#
# Velocity S-wave (km/s) = 3.54908 3.71999 3.63554
# Velocity P-wave (km/s) = 6.53758 6.92510 6.73413
#
# Compressibility (1/GPa) = 0.02194381
#
# Stress axis : x y z
#
# Youngs Moduli (GPa) = 72.16373 40.13798 82.12304
#
# Poissons Ratio (x) = 0.24379 0.30881
# Poissons Ratio (y) = 0.43830 0.38337
# Poissons Ratio (z) = 0.27136 0.18737
#
# Static dielectric constant tensor:
#      x y z
#    x 3.262890 0.000000 0.000000 
#    y 0.000000 3.059330 0.000000 
#    z 0.000000 0.000000 3.342780 
# 
# 
# High freq. dielectric constant tensor:
#      x y z
#    x 1.688320 0.000000 0.000000 
#    y 0.000000 1.637570 0.000000 
#    z 0.000000 0.000000 1.670030 
# 
# From -- ./inp_files/5171.got.cif
#   From: 2010.03.12/outbox.cif.g09.slc.cpg/sg28_3_cif.got.tgz:5171.got - 2010.04.14 03:39:34.
