data_PCOD8167568
_publ_section_title
;
Structure prediction by ZEFSAII (Michael W. Deem and Ramdas Pophale) SiO2 
 PCOD8167568
Probable space group: P M C 21
;
_chemical_formula_sum "Si O2"
_cell_formula_units_Z 32
_cell_length_a 8.688149
_cell_length_b 16.009133
_cell_length_c 11.082788
_cell_angle_alpha 90.000000
_cell_angle_beta 90.000000
_cell_angle_gamma 90.000000
_cell_volume 1541.502022
_symmetry_space_group_name_H-M "P M C 21"
_symmetry_group_IT_number 26
_symmetry_cell_setting 'orthorhombic'
loop_
_space_group_symop_operation_xyz
x,y,z
-x,-y,1/2+z
-x,y,z
x,-y,1/2+z
loop_
_atom_site_type_symbol
_atom_site_label
_atom_site_fract_x
_atom_site_fract_y
_atom_site_fract_z
Si Si1 0.828430 0.168767 0.082490
Si Si2 0.677412 0.843317 0.913544
Si Si3 0.180627 0.847444 0.166816
Si Si4 0.318804 0.444833 0.916984
Si Si5 0.819272 0.466791 0.178983
Si Si6 0.676508 0.295863 0.240421
Si Si7 0.827757 0.274950 0.865779
Si Si8 0.823392 0.976146 0.744982
O O1 0.696945 0.227980 0.136056
O O2 0.793770 0.072475 0.117027
O O3 0.000000 0.191420 0.133180
O O4 0.822676 0.187794 0.940784
O O5 0.500000 0.854565 0.888108
O O6 0.728471 0.752774 0.861315
O O7 0.753815 0.923617 0.853588
O O8 0.715594 0.839905 0.051453
O O9 0.213520 0.759812 0.234252
O O10 0.000000 0.857148 0.135553
O O11 0.243079 0.930156 0.235872
O O12 0.500000 0.462367 0.918839
O O13 0.250358 0.479347 0.790251
O O14 0.287773 0.345305 0.914826
O O15 0.251202 0.483827 0.043351
O O16 0.790819 0.371743 0.216355
O O17 0.000000 0.485585 0.170459
O O18 0.500000 0.328160 0.243418
O O19 0.000000 0.313808 0.870178
O O20 0.000000 0.984010 0.777082
#
# Coordination Sequence:
#
# PCOD8167568 Si02
#       8
#     4   4   4   4   4   4   4   4
#     4   9  17  32  58  86 115 151 197 250 302 359
#     4  10  22  38  56  83 122 160 199 252 311 373
#     4  10  22  37  59  87 120 161 208 258 309 369
#     4  12  26  45  69  99 134 173 218 270 329 396
#     4  12  25  44  70 100 132 170 215 270 327 392
#     4  10  20  37  61  88 117 154 201 250 306 370
#     4  10  21  38  60  90 124 162 206 258 314 374
#     4   9  19  35  59  87 114 155 206 256 304 359
#
# _framework density 20.758973999999998
#
# number of rings (size 3 to 8) (size 9 to 14) (size 15 to 20)
#    0.000    1.750    1.250    3.000    1.750    3.500 
#    0.000    2.500    0.000    0.000    0.000    0.000 
#    0.000    0.000    0.000    0.000    0.000    0.000 
#
# Total GULP energy -396462.318696 kJ/mol
# GULP energy per Si atom -12389.447459 kJ/mol
# Density = 2.071173 g / cm^3
# Si number density = 20.758974 Si / 1000 Ang^3
#
#
#
# Elastic Constant Matrix: (Units=GPa)
#
#
# Indices 1 2 3 4 5 6 
#
# 1 75.8487 27.6081 38.5381 0.0000 0.0000 0.0000
# 2 27.6081 66.4360 33.7604 0.0000 0.0000 0.0000
# 3 38.5381 33.7604 121.9199 0.0000 0.0000 0.0000
# 4 0.0000 0.0000 0.0000 26.0303 0.0000 0.0000
# 5 0.0000 0.0000 0.0000 0.0000 28.5998 0.0000
# 6 0.0000 0.0000 0.0000 0.0000 0.0000 17.8850
#
#
#
# Elastic Compliance Matrix: (Units=1/GPa)
#
#
# Indices 1 2 3 4 5 6 
#
# 1 0.017053 -0.005059 -0.003989 0.000000 0.000000 0.000000
# 2 -0.005059 0.019018 -0.003667 0.000000 0.000000 0.000000
# 3 -0.003989 -0.003667 0.010479 0.000000 0.000000 0.000000
# 4 0.000000 0.000000 0.000000 0.038417 0.000000 0.000000
# 5 0.000000 0.000000 0.000000 0.000000 0.034965 0.000000
# 6 0.000000 0.000000 0.000000 0.000000 0.000000 0.055913
#
#
# Mechanical properties :
#
#
# Convention : Reuss Voigt Hill
#
# Bulk Modulus (GPa) = 47.35279 51.55753 49.45516
# Shear Modulus (GPa) = 24.00224 25.45624 24.72924
#
# Velocity S-wave (km/s) = 3.40403 3.50562 3.45520
# Velocity P-wave (km/s) = 6.18952 6.42464 6.30818
#
# Compressibility (1/GPa) = 0.02111808
#
# Stress axis : x y z
#
# Youngs Moduli (GPa) = 58.64237 52.58202 95.43331
#
# Poissons Ratio (x) = 0.26602 0.38071
# Poissons Ratio (y) = 0.29668 0.34996
# Poissons Ratio (z) = 0.23394 0.19282
#
# Static dielectric constant tensor:
#      x y z
#    x 3.661690 0.000000 0.000000 
#    y 0.000000 3.940860 0.000000 
#    z 0.000000 0.000000 3.903280 
# 
# 
# High freq. dielectric constant tensor:
#      x y z
#    x 1.803380 0.000000 0.000000 
#    y 0.000000 1.808170 0.000000 
#    z 0.000000 0.000000 1.816190 
# 
# From -- ./inp_files/3020.got.cif
#   From: 2010.03.12/outbox.cif.g09.slc.cpg/sg26_2_cif.got.tgz:3020.got - 2010.04.14 03:33:09.
