data_PCOD8167320
_publ_section_title
;
Structure prediction by ZEFSAII (Michael W. Deem and Ramdas Pophale) SiO2 
 PCOD8167320
Probable space group: P M C 21
;
_chemical_formula_sum "Si O2"
_cell_formula_units_Z 30
_cell_length_a 18.636402
_cell_length_b 15.110372
_cell_length_c 4.981433
_cell_angle_alpha 90.000000
_cell_angle_beta 90.000000
_cell_angle_gamma 90.000000
_cell_volume 1402.786313
_symmetry_space_group_name_H-M "P M C 21"
_symmetry_group_IT_number 26
_symmetry_cell_setting 'orthorhombic'
loop_
_space_group_symop_operation_xyz
x,y,z
-x,-y,1/2+z
-x,y,z
x,-y,1/2+z
loop_
_atom_site_type_symbol
_atom_site_label
_atom_site_fract_x
_atom_site_fract_y
_atom_site_fract_z
Si Si1 0.917688 0.546152 0.100810
Si Si2 0.150791 0.293340 0.369970
Si Si3 0.423751 0.442256 0.229655
Si Si4 0.139943 0.179180 0.872159
Si Si5 0.271146 0.060344 0.032451
Si Si6 0.729442 0.437629 0.333004
Si Si7 0.576870 0.941301 0.421871
Si Si8 0.000000 0.060568 0.877105
O O1 0.880137 0.519693 0.381701
O O2 0.910557 0.647245 0.011277
O O3 0.000000 0.521365 0.141827
O O4 0.120784 0.255059 0.089803
O O5 0.219221 0.353576 0.308948
O O6 0.166038 0.216344 0.585453
O O7 0.500000 0.390268 0.283273
O O8 0.422550 0.470456 0.918673
O O9 0.349819 0.391729 0.300063
O O10 0.206714 0.127574 0.995774
O O11 0.070800 0.118261 0.826279
O O12 0.348639 0.110867 0.987143
O O13 0.265033 0.022896 0.332410
O O14 0.741135 0.515723 0.118326
O O15 0.500000 0.889839 0.471084
O O16 0.578543 0.972270 0.113663
O O17 0.000000 0.022974 0.177765
#
# Coordination Sequence:
#
# PCOD8167320 Si02
#       8
#     4   4   4   4   4   4   4   2
#     4  10  21  37  58  80 106 144 182 219 261 317
#     4  12  24  38  57  84 119 145 182 229 276 337
#     4   8  14  25  45  75 105 138 190 246 280 308
#     4  12  26  39  61  86 113 147 178 234 286 333
#     4  10  19  36  58  80 109 141 181 223 269 330
#     4  10  19  34  57  81 112 155 196 234 278 330
#     4   8  14  25  47  78 105 132 170 217 260 308
#     4  12  26  48  70  88 110 142 190 232 280 346
#
# _framework density 21.386009999999999
#
# number of rings (size 3 to 8) (size 9 to 14) (size 15 to 20)
#    0.000    1.867    0.000    4.800    1.867    0.000 
#    0.000    0.000    0.000    1.600    0.000    0.000 
#    0.000    0.000    0.000    0.000    0.000    0.000 
#
# Total GULP energy -371643.365650 kJ/mol
# GULP energy per Si atom -12388.112188 kJ/mol
# Density = 2.133733 g / cm^3
# Si number density = 21.386010 Si / 1000 Ang^3
#
#
#
# Elastic Constant Matrix: (Units=GPa)
#
#
# Indices 1 2 3 4 5 6 
#
# 1 113.3021 30.4450 6.1173 0.0000 0.0000 0.0000
# 2 30.4450 52.6381 4.4970 0.0000 0.0000 0.0000
# 3 6.1173 4.4970 79.2994 0.0000 0.0000 0.0000
# 4 0.0000 0.0000 0.0000 22.2733 0.0000 0.0000
# 5 0.0000 0.0000 0.0000 0.0000 25.0968 0.0000
# 6 0.0000 0.0000 0.0000 0.0000 0.0000 7.0729
#
#
#
# Elastic Compliance Matrix: (Units=1/GPa)
#
#
# Indices 1 2 3 4 5 6 
#
# 1 0.010467 -0.006014 -0.000466 0.000000 0.000000 0.000000
# 2 -0.006014 0.022546 -0.000815 0.000000 0.000000 0.000000
# 3 -0.000466 -0.000815 0.012693 0.000000 0.000000 0.000000
# 4 0.000000 0.000000 0.000000 0.044897 0.000000 0.000000
# 5 0.000000 0.000000 0.000000 0.000000 0.039846 0.000000
# 6 0.000000 0.000000 0.000000 0.000000 0.000000 0.141386
#
#
# Mechanical properties :
#
#
# Convention : Reuss Voigt Hill
#
# Bulk Modulus (GPa) = 32.13868 36.37313 34.25590
# Shear Modulus (GPa) = 16.84660 24.50062 20.67361
#
# Velocity S-wave (km/s) = 2.80971 3.38840 3.11253
# Velocity P-wave (km/s) = 5.05831 5.68798 5.38236
#
# Compressibility (1/GPa) = 0.03111516
#
# Stress axis : x y z
#
# Youngs Moduli (GPa) = 95.53657 44.35425 78.78596
#
# Poissons Ratio (x) = 0.26676 0.03675
# Poissons Ratio (y) = 0.57458 0.06418
# Poissons Ratio (z) = 0.04456 0.03613
#
# Static dielectric constant tensor:
#      x y z
#    x 4.483620 0.000000 0.000000 
#    y 0.000000 3.276240 0.000000 
#    z 0.000000 0.000000 4.133040 
# 
# 
# High freq. dielectric constant tensor:
#      x y z
#    x 1.870080 0.000000 0.000000 
#    y 0.000000 1.766050 0.000000 
#    z 0.000000 0.000000 1.868160 
# 
# From -- ./inp_files/887.got.cif
#   From: 2010.03.12/outbox.cif.g09.slc.cpg/sg26_1_cif.got.tgz:887.got - 2010.04.14 03:33:09.
