data_PCOD8167683
_publ_section_title
;
Structure prediction by ZEFSAII (Michael W. Deem and Ramdas Pophale) SiO2 
 PCOD8167683
Probable space group: P M C 21
;
_chemical_formula_sum "Si O2"
_cell_formula_units_Z 32
_cell_length_a 13.689716
_cell_length_b 7.643402
_cell_length_c 13.908249
_cell_angle_alpha 90.000000
_cell_angle_beta 90.000000
_cell_angle_gamma 90.000000
_cell_volume 1455.303579
_symmetry_space_group_name_H-M "P M C 21"
_symmetry_group_IT_number 26
_symmetry_cell_setting 'orthorhombic'
loop_
_space_group_symop_operation_xyz
x,y,z
-x,-y,1/2+z
-x,y,z
x,-y,1/2+z
loop_
_atom_site_type_symbol
_atom_site_label
_atom_site_fract_x
_atom_site_fract_y
_atom_site_fract_z
Si Si1 0.110431 0.647780 0.471160
Si Si2 0.388995 0.521508 0.783300
Si Si3 0.780950 0.457001 0.153644
Si Si4 0.111238 0.035886 0.474316
Si Si5 0.614722 0.810358 0.931864
Si Si6 0.112927 0.665878 0.835097
Si Si7 0.612322 0.118248 0.790725
Si Si8 0.743764 0.837486 0.116112
O O1 0.192884 0.625785 0.551786
O O2 0.134545 0.518613 0.384954
O O3 0.000000 0.611987 0.511391
O O4 0.117122 0.843239 0.428392
O O5 0.500000 0.566720 0.759652
O O6 0.332950 0.559662 0.683138
O O7 0.347490 0.650021 0.865361
O O8 0.374376 0.321991 0.819215
O O9 0.842892 0.347461 0.230184
O O10 0.802454 0.664732 0.150758
O O11 0.158007 0.175396 0.399179
O O12 0.173286 0.035121 0.573236
O O13 0.000000 0.088292 0.499626
O O14 0.500000 0.791754 0.949991
O O15 0.639736 0.996739 0.881503
O O16 0.665675 0.790593 0.033987
O O17 0.000000 0.707851 0.822467
O O18 0.500000 0.082066 0.759089
O O19 0.685079 0.070149 0.702895
#
# Coordination Sequence:
#
# PCOD8167683 Si02
#       8
#     4   4   4   4   4   4   4   4
#     4  10  22  41  62  89 123 161 205 253 307 374
#     4   9  20  37  58  87 124 160 202 253 303 365
#     4  11  22  38  66  92 122 162 207 254 316 368
#     4  10  22  40  59  85 123 161 202 255 308 369
#     4  10  21  40  64  88 124 165 202 253 315 367
#     4  10  21  41  64  88 124 161 203 256 312 372
#     4   9  20  39  60  89 125 161 205 254 305 371
#     4  11  22  38  63  94 123 163 208 262 308 372
#
# _framework density 21.988538999999999
#
# number of rings (size 3 to 8) (size 9 to 14) (size 15 to 20)
#    0.000    2.000    1.250    1.500    1.750    3.000 
#    2.250    0.000    0.000    6.000    0.000    0.000 
#    0.000    0.000    0.000    0.000    0.000    0.000 
#
# Total GULP energy -396774.793910 kJ/mol
# GULP energy per Si atom -12399.212310 kJ/mol
# Density = 2.193849 g / cm^3
# Si number density = 21.988539 Si / 1000 Ang^3
#
#
#
# Elastic Constant Matrix: (Units=GPa)
#
#
# Indices 1 2 3 4 5 6 
#
# 1 29.8933 19.1557 11.0987 0.0000 0.0000 0.0000
# 2 19.1557 94.4113 4.5855 0.0000 0.0000 0.0000
# 3 11.0987 4.5855 48.0024 0.0000 0.0000 0.0000
# 4 0.0000 0.0000 0.0000 24.9278 0.0000 0.0000
# 5 0.0000 0.0000 0.0000 0.0000 27.8917 0.0000
# 6 0.0000 0.0000 0.0000 0.0000 0.0000 27.5415
#
#
#
# Elastic Compliance Matrix: (Units=1/GPa)
#
#
# Indices 1 2 3 4 5 6 
#
# 1 0.041942 -0.008076 -0.008926 0.000000 0.000000 0.000000
# 2 -0.008076 0.012197 0.000702 0.000000 0.000000 0.000000
# 3 -0.008926 0.000702 0.022829 0.000000 0.000000 0.000000
# 4 0.000000 0.000000 0.000000 0.040116 0.000000 0.000000
# 5 0.000000 0.000000 0.000000 0.000000 0.035853 0.000000
# 6 0.000000 0.000000 0.000000 0.000000 0.000000 0.036309
#
#
# Mechanical properties :
#
#
# Convention : Reuss Voigt Hill
#
# Bulk Modulus (GPa) = 22.53915 26.88742 24.71328
# Shear Modulus (GPa) = 21.12970 25.23668 23.18319
#
# Velocity S-wave (km/s) = 3.10327 3.39148 3.25057
# Velocity P-wave (km/s) = 4.80760 5.25268 5.03506
#
# Compressibility (1/GPa) = 0.04436724
#
# Stress axis : x y z
#
# Youngs Moduli (GPa) = 23.84263 81.99073 43.80396
#
# Poissons Ratio (x) = 0.66218 0.39099
# Poissons Ratio (y) = 0.19256 -0.03076
# Poissons Ratio (z) = 0.21282 -0.05758
#
# Static dielectric constant tensor:
#      x y z
#    x 4.131270 0.000000 0.000000 
#    y 0.000000 4.055420 0.000000 
#    z 0.000000 0.000000 3.673720 
# 
# 
# High freq. dielectric constant tensor:
#      x y z
#    x 1.878450 0.000000 0.000000 
#    y 0.000000 1.870050 0.000000 
#    z 0.000000 0.000000 1.841720 
# 
# From -- ./inp_files/3601.got.cif
#   From: 2010.03.12/outbox.cif.g09.slc.cpg/sg26_2_cif.got.tgz:3601.got - 2010.04.14 03:33:09.
