data_PCOD8167762
_publ_section_title
;
Structure prediction by ZEFSAII (Michael W. Deem and Ramdas Pophale) SiO2 
 PCOD8167762
Probable space group: P M C 21
;
_chemical_formula_sum "Si O2"
_cell_formula_units_Z 32
_cell_length_a 14.990969
_cell_length_b 7.378473
_cell_length_c 12.151329
_cell_angle_alpha 90.000000
_cell_angle_beta 90.000000
_cell_angle_gamma 90.000000
_cell_volume 1344.064090
_symmetry_space_group_name_H-M "P M C 21"
_symmetry_group_IT_number 26
_symmetry_cell_setting 'orthorhombic'
loop_
_space_group_symop_operation_xyz
x,y,z
-x,-y,1/2+z
-x,y,z
x,-y,1/2+z
loop_
_atom_site_type_symbol
_atom_site_label
_atom_site_fract_x
_atom_site_fract_y
_atom_site_fract_z
Si Si1 0.152021 0.698982 0.468850
Si Si2 0.274506 0.431623 0.161813
Si Si3 0.902272 0.320733 0.383850
Si Si4 0.768334 0.186931 0.750293
Si Si5 0.401373 0.556831 0.489492
Si Si6 0.288310 0.257704 0.383810
Si Si7 0.904174 0.899637 0.669564
Si Si8 0.601395 0.920540 0.361924
O O1 0.229381 0.632698 0.549495
O O2 0.099983 0.535891 0.407268
O O3 0.193596 0.825518 0.374201
O O4 0.088903 0.821456 0.545528
O O5 0.224727 0.611730 0.202793
O O6 0.274756 0.272017 0.251770
O O7 0.375724 0.466559 0.118877
O O8 0.811520 0.234958 0.438567
O O9 0.894072 0.272420 0.253447
O O10 0.000000 0.249524 0.427939
O O11 0.663625 0.129982 0.756725
O O12 0.825756 0.047466 0.678115
O O13 0.500000 0.476107 0.473482
O O14 0.331512 0.448879 0.414238
O O15 0.398608 0.765538 0.453407
O O16 0.354132 0.097451 0.418971
O O17 0.000000 0.995035 0.693216
O O18 0.500000 0.961090 0.321971
#
# Coordination Sequence:
#
# PCOD8167762 Si02
#       8
#     4   4   4   4   4   4   4   4
#     4  12  22  45  70 103 143 195 243 300 373 438
#     4  12  22  43  71 101 141 196 237 305 374 437
#     4  11  22  40  69  99 136 188 245 298 363 444
#     4  12  24  45  73 105 147 196 243 310 370 451
#     4  11  25  45  71 104 143 191 248 298 370 451
#     4  12  22  46  70 100 145 189 242 308 373 430
#     4  11  26  45  69 108 149 190 248 311 371 448
#     4  11  23  43  69 100 138 187 242 302 366 435
#
# _framework density 23.808387
#
# number of rings (size 3 to 8) (size 9 to 14) (size 15 to 20)
#    0.000    0.500    7.500    0.750    0.000    4.500 
#    2.250    2.500    0.000    0.000    0.000    0.000 
#    0.000    0.000    0.000    0.000    0.000    0.000 
#
# Total GULP energy -396452.083181 kJ/mol
# GULP energy per Si atom -12389.127599 kJ/mol
# Density = 2.375420 g / cm^3
# Si number density = 23.808387 Si / 1000 Ang^3
#
#
#
# Elastic Constant Matrix: (Units=GPa)
#
#
# Indices 1 2 3 4 5 6 
#
# 1 201.3532 41.9171 28.5800 0.0000 0.0000 0.0000
# 2 41.9171 92.3630 20.4590 0.0000 0.0000 0.0000
# 3 28.5800 20.4590 72.7218 0.0000 0.0000 0.0000
# 4 0.0000 0.0000 0.0000 27.9267 0.0000 0.0000
# 5 0.0000 0.0000 0.0000 0.0000 26.5726 0.0000
# 6 0.0000 0.0000 0.0000 0.0000 0.0000 30.8926
#
#
#
# Elastic Compliance Matrix: (Units=1/GPa)
#
#
# Indices 1 2 3 4 5 6 
#
# 1 0.005654 -0.002212 -0.001600 0.000000 0.000000 0.000000
# 2 -0.002212 0.012411 -0.002623 0.000000 0.000000 0.000000
# 3 -0.001600 -0.002623 0.015118 0.000000 0.000000 0.000000
# 4 0.000000 0.000000 0.000000 0.035808 0.000000 0.000000
# 5 0.000000 0.000000 0.000000 0.000000 0.037633 0.000000
# 6 0.000000 0.000000 0.000000 0.000000 0.000000 0.032370
#
#
# Mechanical properties :
#
#
# Convention : Reuss Voigt Hill
#
# Bulk Modulus (GPa) = 49.22470 60.92779 55.07624
# Shear Modulus (GPa) = 31.51920 35.44384 33.48152
#
# Velocity S-wave (km/s) = 3.64245 3.86257 3.75412
# Velocity P-wave (km/s) = 6.19759 6.74826 6.47878
#
# Compressibility (1/GPa) = 0.02031500
#
# Stress axis : x y z
#
# Youngs Moduli (GPa) = 176.87028 80.57089 66.14808
#
# Poissons Ratio (x) = 0.17818 0.10582
# Poissons Ratio (y) = 0.39115 0.17348
# Poissons Ratio (z) = 0.28296 0.21131
#
# Static dielectric constant tensor:
#      x y z
#    x 4.892110 0.000000 0.000000 
#    y 0.000000 4.122920 0.000000 
#    z 0.000000 0.000000 4.201320 
# 
# 
# High freq. dielectric constant tensor:
#      x y z
#    x 1.965030 0.000000 0.000000 
#    y 0.000000 1.938500 0.000000 
#    z 0.000000 0.000000 1.918620 
# 
# From -- ./inp_files/3596.got.cif
#   From: 2010.03.12/outbox.cif.g09.slc.cpg/sg26_2_cif.got.tgz:3596.got - 2010.04.14 03:33:09.
