data_PCOD8167403
_publ_section_title
;
Structure prediction by ZEFSAII (Michael W. Deem and Ramdas Pophale) SiO2 
 PCOD8167403
Probable space group: P M C 21
;
_chemical_formula_sum "Si O2"
_cell_formula_units_Z 32
_cell_length_a 8.940576
_cell_length_b 16.121904
_cell_length_c 10.890782
_cell_angle_alpha 90.000000
_cell_angle_beta 90.000000
_cell_angle_gamma 90.000000
_cell_volume 1569.787603
_symmetry_space_group_name_H-M "P M C 21"
_symmetry_group_IT_number 26
_symmetry_cell_setting 'orthorhombic'
loop_
_space_group_symop_operation_xyz
x,y,z
-x,-y,1/2+z
-x,y,z
x,-y,1/2+z
loop_
_atom_site_type_symbol
_atom_site_label
_atom_site_fract_x
_atom_site_fract_y
_atom_site_fract_z
Si Si1 0.835900 0.154881 0.054300
Si Si2 0.325614 0.846562 0.924779
Si Si3 0.171231 0.852033 0.173407
Si Si4 0.677166 0.437497 0.924321
Si Si5 0.322297 0.450089 0.199918
Si Si6 0.832925 0.283554 0.273833
Si Si7 0.325756 0.253114 0.861208
Si Si8 0.831030 0.968228 0.751370
O O1 0.837813 0.217506 0.166698
O O2 0.803404 0.063667 0.110712
O O3 0.000000 0.156364 0.988422
O O4 0.706267 0.182493 0.962213
O O5 0.500000 0.828994 0.915447
O O6 0.240685 0.761504 0.890378
O O7 0.286436 0.925215 0.840652
O O8 0.278362 0.870159 0.060579
O O9 0.230220 0.769801 0.241364
O O10 0.000000 0.838933 0.131999
O O11 0.187565 0.932847 0.260449
O O12 0.500000 0.442939 0.921224
O O13 0.741637 0.488216 0.806297
O O14 0.729528 0.342328 0.909797
O O15 0.732920 0.471347 0.059072
O O16 0.500000 0.451677 0.201225
O O17 0.269439 0.359152 0.233666
O O18 0.000000 0.314605 0.307176
O O19 0.500000 0.253603 0.828160
O O20 0.000000 0.942477 0.790494
#
# Coordination Sequence:
#
# PCOD8167403 Si02
#       8
#     4   4   4   4   4   4   4   4
#     4   9  18  35  59  84 110 149 196 241 292 358
#     4  11  23  39  60  88 120 153 197 254 305 358
#     4  11  24  41  60  84 120 163 202 246 304 370
#     4   9  20  36  59  88 123 159 207 257 316 376
#     4  10  19  37  61  88 118 161 206 256 311 372
#     4  10  20  37  61  88 116 152 197 243 298 365
#     4  11  22  37  57  88 122 157 201 253 303 359
#     4   9  21  40  61  84 115 158 202 244 299 362
#
# _framework density 20.384923000000001
#
# number of rings (size 3 to 8) (size 9 to 14) (size 15 to 20)
#    0.000    2.000    1.250    3.000    1.750    4.000 
#    0.000    4.375    0.000    0.000    0.000    0.000 
#    0.000    0.000    0.000    0.000    0.000    0.000 
#
# Total GULP energy -396685.897563 kJ/mol
# GULP energy per Si atom -12396.434299 kJ/mol
# Density = 2.033853 g / cm^3
# Si number density = 20.384923 Si / 1000 Ang^3
#
#
#
# Elastic Constant Matrix: (Units=GPa)
#
#
# Indices 1 2 3 4 5 6 
#
# 1 54.2119 15.6590 32.8688 0.0000 0.0000 0.0000
# 2 15.6590 76.5871 39.5063 0.0000 0.0000 0.0000
# 3 32.8688 39.5063 105.8168 0.0000 0.0000 0.0000
# 4 0.0000 0.0000 0.0000 27.3421 0.0000 0.0000
# 5 0.0000 0.0000 0.0000 0.0000 30.1920 0.0000
# 6 0.0000 0.0000 0.0000 0.0000 0.0000 24.8573
#
#
#
# Elastic Compliance Matrix: (Units=1/GPa)
#
#
# Indices 1 2 3 4 5 6 
#
# 1 0.022822 -0.001250 -0.006622 0.000000 0.000000 0.000000
# 2 -0.001250 0.016240 -0.005675 0.000000 0.000000 0.000000
# 3 -0.006622 -0.005675 0.013626 0.000000 0.000000 0.000000
# 4 0.000000 0.000000 0.000000 0.036574 0.000000 0.000000
# 5 0.000000 0.000000 0.000000 0.000000 0.033121 0.000000
# 6 0.000000 0.000000 0.000000 0.000000 0.000000 0.040230
#
#
# Mechanical properties :
#
#
# Convention : Reuss Voigt Hill
#
# Bulk Modulus (GPa) = 39.07221 45.85374 42.46298
# Shear Modulus (GPa) = 25.22214 26.38374 25.80294
#
# Velocity S-wave (km/s) = 3.52133 3.60151 3.56165
# Velocity P-wave (km/s) = 5.97845 6.31168 6.14732
#
# Compressibility (1/GPa) = 0.02559364
#
# Stress axis : x y z
#
# Youngs Moduli (GPa) = 43.81666 61.57679 73.38932
#
# Poissons Ratio (x) = 0.07699 0.48601
# Poissons Ratio (y) = 0.05478 0.41647
# Poissons Ratio (z) = 0.29017 0.34943
#
# Static dielectric constant tensor:
#      x y z
#    x 3.562920 0.000000 0.000000 
#    y 0.000000 3.745210 0.000000 
#    z 0.000000 0.000000 3.890800 
# 
# 
# High freq. dielectric constant tensor:
#      x y z
#    x 1.780060 0.000000 0.000000 
#    y 0.000000 1.789910 0.000000 
#    z 0.000000 0.000000 1.799310 
# 
# From -- ./inp_files/3024.got.cif
#   From: 2010.03.12/outbox.cif.g09.slc.cpg/sg26_2_cif.got.tgz:3024.got - 2010.04.14 03:33:09.
