data_PCOD8167702
_publ_section_title
;
Structure prediction by ZEFSAII (Michael W. Deem and Ramdas Pophale) SiO2 
 PCOD8167702
Probable space group: P M C 21
;
_chemical_formula_sum "Si O2"
_cell_formula_units_Z 24
_cell_length_a 8.823600
_cell_length_b 10.029851
_cell_length_c 13.887343
_cell_angle_alpha 90.000000
_cell_angle_beta 90.000000
_cell_angle_gamma 90.000000
_cell_volume 1229.021430
_symmetry_space_group_name_H-M "P M C 21"
_symmetry_group_IT_number 26
_symmetry_cell_setting 'orthorhombic'
loop_
_space_group_symop_operation_xyz
x,y,z
-x,-y,1/2+z
-x,y,z
x,-y,1/2+z
loop_
_atom_site_type_symbol
_atom_site_label
_atom_site_fract_x
_atom_site_fract_y
_atom_site_fract_z
Si Si1 0.324878 0.118114 0.009190
Si Si2 0.821342 0.219461 0.817063
Si Si3 0.172430 0.618897 0.013405
Si Si4 0.321891 0.142777 0.619888
Si Si5 0.826117 0.525244 0.803820
Si Si6 0.325957 0.385452 0.117462
O O1 0.500000 0.104259 0.980733
O O2 0.298558 0.234161 0.086598
O O3 0.263416 0.984533 0.059989
O O4 0.234563 0.143340 0.911492
O O5 0.756705 0.145807 0.723537
O O6 0.767911 0.373792 0.819253
O O7 0.000000 0.210018 0.814292
O O8 0.283107 0.727428 0.057952
O O9 0.216273 0.474960 0.053309
O O10 0.000000 0.651363 0.043755
O O11 0.190312 0.613504 0.899120
O O12 0.500000 0.135719 0.637373
O O13 0.718690 0.598951 0.728468
O O14 0.000000 0.522800 0.767944
O O15 0.500000 0.428562 0.102523
#
# Coordination Sequence:
#
# PCOD8167702 Si02
#       6
#     4   4   4   4   4   4
#     4  10  24  43  62  89 126 163 204 250 303 362
#     4  11  22  39  64  91 121 162 204 248 308 366
#     4  11  22  39  61  89 122 157 202 253 301 357
#     4  11  24  42  63  90 126 165 202 252 306 360
#     4  10  22  38  60  90 125 160 199 254 305 354
#     4  11  22  37  62  91 118 157 203 249 299 359
#
# _framework density 19.527730999999999
#
# number of rings (size 3 to 8) (size 9 to 14) (size 15 to 20)
#    0.000    1.333    3.333    2.000    0.000    5.333 
#    0.000    5.000    0.000    0.000    0.000    0.000 
#    0.000    0.000    0.000    0.000    0.000    0.000 
#
# Total GULP energy -297722.573287 kJ/mol
# GULP energy per Si atom -12405.107220 kJ/mol
# Density = 1.948329 g / cm^3
# Si number density = 19.527731 Si / 1000 Ang^3
#
#
#
# Elastic Constant Matrix: (Units=GPa)
#
#
# Indices 1 2 3 4 5 6 
#
# 1 59.9885 27.8069 49.5953 0.0000 0.0000 0.0000
# 2 27.8069 76.4273 38.2271 0.0000 0.0000 0.0000
# 3 49.5953 38.2271 130.1936 0.0000 0.0000 0.0000
# 4 0.0000 0.0000 0.0000 32.8262 0.0000 0.0000
# 5 0.0000 0.0000 0.0000 0.0000 37.4486 0.0000
# 6 0.0000 0.0000 0.0000 0.0000 0.0000 20.8211
#
#
#
# Elastic Compliance Matrix: (Units=1/GPa)
#
#
# Indices 1 2 3 4 5 6 
#
# 1 0.026038 -0.005289 -0.008366 0.000000 0.000000 0.000000
# 2 -0.005289 0.016411 -0.002804 0.000000 0.000000 0.000000
# 3 -0.008366 -0.002804 0.011691 0.000000 0.000000 0.000000
# 4 0.000000 0.000000 0.000000 0.030464 0.000000 0.000000
# 5 0.000000 0.000000 0.000000 0.000000 0.026703 0.000000
# 6 0.000000 0.000000 0.000000 0.000000 0.000000 0.048028
#
#
# Mechanical properties :
#
#
# Convention : Reuss Voigt Hill
#
# Bulk Modulus (GPa) = 47.11963 55.31867 51.21915
# Shear Modulus (GPa) = 25.08448 28.28452 26.68450
#
# Velocity S-wave (km/s) = 3.58796 3.80995 3.70062
# Velocity P-wave (km/s) = 6.43013 6.90971 6.67423
#
# Compressibility (1/GPa) = 0.02122258
#
# Stress axis : x y z
#
# Youngs Moduli (GPa) = 38.40546 60.93452 85.53641
#
# Poissons Ratio (x) = 0.32229 0.71558
# Poissons Ratio (y) = 0.20313 0.23982
# Poissons Ratio (z) = 0.32129 0.17085
#
# Static dielectric constant tensor:
#      x y z
#    x 3.593300 0.000000 0.000000 
#    y 0.000000 3.590000 0.000000 
#    z 0.000000 0.000000 3.638250 
# 
# 
# High freq. dielectric constant tensor:
#      x y z
#    x 1.765730 0.000000 0.000000 
#    y 0.000000 1.755890 0.000000 
#    z 0.000000 0.000000 1.774460 
# 
# From -- ./inp_files/3932.got.cif
#   From: 2010.03.12/outbox.cif.g09.slc.cpg/sg26_2_cif.got.tgz:3932.got - 2010.04.14 03:33:09.
