data_PCOD8167779
_publ_section_title
;
Structure prediction by ZEFSAII (Michael W. Deem and Ramdas Pophale) SiO2 
 PCOD8167779
Probable space group: P M C 21
;
_chemical_formula_sum "Si O2"
_cell_formula_units_Z 32
_cell_length_a 9.000000
_cell_length_b 12.000000
_cell_length_c 15.000000
_cell_angle_alpha 90.000000
_cell_angle_beta 90.000000
_cell_angle_gamma 90.000000
_cell_volume 1620.000000
_symmetry_space_group_name_H-M "P M C 21"
_symmetry_group_IT_number 26
_symmetry_cell_setting 'orthorhombic'
loop_
_space_group_symop_operation_xyz
x,y,z
-x,-y,1/2+z
-x,y,z
x,-y,1/2+z
loop_
_atom_site_type_symbol
_atom_site_label
_atom_site_fract_x
_atom_site_fract_y
_atom_site_fract_z
Si Si1 0.174515 0.910842 0.724340
Si Si2 0.330633 0.769010 0.429456
Si Si3 0.822751 0.602256 0.561395
Si Si4 0.335400 0.040747 0.053323
Si Si5 0.671191 0.206125 0.577337
Si Si6 0.176336 0.665306 0.765821
Si Si7 0.176526 0.159844 0.757460
Si Si8 0.676571 0.595733 0.948732
O O1 0.221922 0.903288 0.621741
O O2 0.228664 0.796031 0.771719
O O3 0.000000 0.911970 0.726694
O O4 0.232318 0.029795 0.764289
O O5 0.500000 0.723418 0.420355
O O6 0.241931 0.705538 0.506455
O O7 0.329060 0.897836 0.458779
O O8 0.248618 0.764570 0.334691
O O9 0.780660 0.613660 0.667612
O O10 0.749944 0.496172 0.512889
O O11 0.000000 0.597818 0.551189
O O12 0.500000 0.050600 0.096167
O O13 0.296203 0.913210 0.033248
O O14 0.500000 0.222084 0.606212
O O15 0.772074 0.217456 0.665479
O O16 0.716291 0.290699 0.499713
O O17 0.256363 0.599425 0.847610
O O18 0.000000 0.654512 0.779452
O O19 0.000000 0.167632 0.764739
O O20 0.500000 0.574788 0.940834
#
# Coordination Sequence:
#
# PCOD8167779 Si02
#       8
#     4   4   4   4   4   4   4   4
#     4   9  18  35  57  86 122 159 203 250 300 358
#     4  11  22  36  59  90 124 162 204 250 303 365
#     4  11  24  44  67  88 121 162 207 258 305 361
#     4   9  18  33  56  85 118 157 198 245 302 360
#     4   9  20  40  59  84 123 163 203 251 305 362
#     4  10  22  41  64  90 120 159 204 253 307 363
#     4  10  21  35  57  90 127 168 207 250 307 366
#     4  11  25  42  65  93 123 160 206 255 307 365
#
# _framework density 19.753086
#
# number of rings (size 3 to 8) (size 9 to 14) (size 15 to 20)
#    0.000    2.000    1.250    1.500    1.750    4.500 
#    0.000    2.500    0.000    0.000    0.000    0.000 
#    0.000    0.000    0.000    0.000    0.000    0.000 
#
# Total GULP energy -396561.264710 kJ/mol
# GULP energy per Si atom -12392.539522 kJ/mol
# Density = 1.970813 g / cm^3
# Si number density = 19.753086 Si / 1000 Ang^3
#
#
#
# Elastic Constant Matrix: (Units=GPa)
#
#
# Indices 1 2 3 4 5 6 
#
# 1 78.6562 38.7344 55.4002 0.0000 0.0000 0.0000
# 2 38.7344 89.4950 58.6585 0.0000 0.0000 0.0000
# 3 55.4002 58.6585 153.2746 0.0000 0.0000 0.0000
# 4 0.0000 0.0000 0.0000 31.7336 0.0000 0.0000
# 5 0.0000 0.0000 0.0000 0.0000 38.9524 0.0000
# 6 0.0000 0.0000 0.0000 0.0000 0.0000 29.8728
#
#
#
# Elastic Compliance Matrix: (Units=1/GPa)
#
#
# Indices 1 2 3 4 5 6 
#
# 1 0.018502 -0.004838 -0.004836 0.000000 0.000000 0.000000
# 2 -0.004838 0.016180 -0.004443 0.000000 0.000000 0.000000
# 3 -0.004836 -0.004443 0.009973 0.000000 0.000000 0.000000
# 4 0.000000 0.000000 0.000000 0.031512 0.000000 0.000000
# 5 0.000000 0.000000 0.000000 0.000000 0.025672 0.000000
# 6 0.000000 0.000000 0.000000 0.000000 0.000000 0.033475
#
#
# Mechanical properties :
#
#
# Convention : Reuss Voigt Hill
#
# Bulk Modulus (GPa) = 60.90183 69.66800 65.28492
# Shear Modulus (GPa) = 29.58162 31.35394 30.46778
#
# Velocity S-wave (km/s) = 3.87404 3.98841 3.93164
# Velocity P-wave (km/s) = 7.13508 7.52036 7.33025
#
# Compressibility (1/GPa) = 0.01641987
#
# Stress axis : x y z
#
# Youngs Moduli (GPa) = 54.04733 61.80356 100.27418
#
# Poissons Ratio (x) = 0.29903 0.48492
# Poissons Ratio (y) = 0.26150 0.44556
# Poissons Ratio (z) = 0.26137 0.27462
#
# Static dielectric constant tensor:
#      x y z
#    x 3.668260 0.000000 0.000000 
#    y 0.000000 3.851310 0.000000 
#    z 0.000000 0.000000 3.650630 
# 
# 
# High freq. dielectric constant tensor:
#      x y z
#    x 1.776280 0.000000 0.000000 
#    y 0.000000 1.775040 0.000000 
#    z 0.000000 0.000000 1.777990 
# 
# From -- ./inp_files/4173.got.cif
#   From: 2010.03.12/outbox.ucp.g09.slc.cvg/sg26_3_cif.got.tgz:4173.got - 2010.05.04 21:07:24.
