data_PCOD8167391
_publ_section_title
;
Structure prediction by ZEFSAII (Michael W. Deem and Ramdas Pophale) SiO2 
 PCOD8167391
Probable space group: P M C 21
;
_chemical_formula_sum "Si O2"
_cell_formula_units_Z 32
_cell_length_a 8.411896
_cell_length_b 20.564612
_cell_length_c 9.146622
_cell_angle_alpha 90.000000
_cell_angle_beta 90.000000
_cell_angle_gamma 90.000000
_cell_volume 1582.250152
_symmetry_space_group_name_H-M "P M C 21"
_symmetry_group_IT_number 26
_symmetry_cell_setting 'orthorhombic'
loop_
_space_group_symop_operation_xyz
x,y,z
-x,-y,1/2+z
-x,y,z
x,-y,1/2+z
loop_
_atom_site_type_symbol
_atom_site_label
_atom_site_fract_x
_atom_site_fract_y
_atom_site_fract_z
Si Si1 0.813449 0.689292 0.670860
Si Si2 0.687901 0.934943 0.679502
Si Si3 0.689110 0.063208 0.514621
Si Si4 0.318394 0.555706 0.702008
Si Si5 0.186830 0.300601 0.497554
Si Si6 0.314030 0.810030 0.508271
Si Si7 0.813453 0.183170 0.690241
Si Si8 0.817595 0.554062 0.012654
O O1 0.728359 0.622651 0.619778
O O2 0.775472 0.744710 0.554262
O O3 0.000000 0.675990 0.674900
O O4 0.747243 0.708839 0.832212
O O5 0.500000 0.933998 0.669315
O O6 0.755197 0.869604 0.604467
O O7 0.750125 0.997305 0.590782
O O8 0.744473 0.939149 0.846479
O O9 0.500000 0.072862 0.530352
O O10 0.781867 0.121581 0.589409
O O11 0.500000 0.558481 0.753970
O O12 0.297355 0.495423 0.593909
O O13 0.203611 0.546066 0.839675
O O14 0.257299 0.246405 0.606204
O O15 0.230200 0.372274 0.557954
O O16 0.000000 0.290873 0.490234
O O17 0.500000 0.800908 0.535439
O O18 0.282103 0.825142 0.339620
O O19 0.000000 0.190123 0.723529
O O20 0.000000 0.539155 0.052467
#
# Coordination Sequence:
#
# PCOD8167391 Si02
#       8
#     4   4   4   4   4   4   4   4
#     4  10  20  38  60  82 109 147 188 232 286 346
#     4   9  19  35  59  84 111 145 185 229 279 334
#     4  10  19  36  59  83 108 143 185 228 277 334
#     4  11  22  37  57  86 118 149 189 241 290 342
#     4   8  18  36  58  79 105 142 186 227 274 334
#     4  11  22  37  56  83 114 148 188 233 280 335
#     4  11  22  37  55  81 113 147 185 231 280 333
#     4  10  20  38  60  82 110 151 194 235 288 352
#
# _framework density 20.224361999999999
#
# number of rings (size 3 to 8) (size 9 to 14) (size 15 to 20)
#    0.000    2.000    0.000    4.875    0.000    3.000 
#    0.000   14.375    0.000    0.000    0.000    0.000 
#    0.000    0.000    0.000    0.000    0.000    0.000 
#
# Total GULP energy -396890.620408 kJ/mol
# GULP energy per Si atom -12402.831888 kJ/mol
# Density = 2.017833 g / cm^3
# Si number density = 20.224362 Si / 1000 Ang^3
#
#
#
# Elastic Constant Matrix: (Units=GPa)
#
#
# Indices 1 2 3 4 5 6 
#
# 1 51.2399 21.0854 10.4204 0.0000 0.0000 0.0000
# 2 21.0854 142.0980 58.8669 0.0000 0.0000 0.0000
# 3 10.4204 58.8669 107.2187 0.0000 0.0000 0.0000
# 4 0.0000 0.0000 0.0000 42.2810 0.0000 0.0000
# 5 0.0000 0.0000 0.0000 0.0000 26.5500 0.0000
# 6 0.0000 0.0000 0.0000 0.0000 0.0000 29.1911
#
#
#
# Elastic Compliance Matrix: (Units=1/GPa)
#
#
# Indices 1 2 3 4 5 6 
#
# 1 0.020800 -0.002911 -0.000423 0.000000 0.000000 0.000000
# 2 -0.002911 0.009517 -0.004942 0.000000 0.000000 0.000000
# 3 -0.000423 -0.004942 0.012081 0.000000 0.000000 0.000000
# 4 0.000000 0.000000 0.000000 0.023651 0.000000 0.000000
# 5 0.000000 0.000000 0.000000 0.000000 0.037665 0.000000
# 6 0.000000 0.000000 0.000000 0.000000 0.000000 0.034257
#
#
# Mechanical properties :
#
#
# Convention : Reuss Voigt Hill
#
# Bulk Modulus (GPa) = 38.69196 53.47800 46.08498
# Shear Modulus (GPa) = 30.64873 33.61669 32.13271
#
# Velocity S-wave (km/s) = 3.89708 4.08142 3.99031
# Velocity P-wave (km/s) = 6.27874 6.97928 6.63826
#
# Compressibility (1/GPa) = 0.02584516
#
# Stress axis : x y z
#
# Youngs Moduli (GPa) = 48.07685 105.07812 82.77289
#
# Poissons Ratio (x) = 0.30590 0.03503
# Poissons Ratio (y) = 0.13996 0.40907
# Poissons Ratio (z) = 0.02035 0.51931
#
# Static dielectric constant tensor:
#      x y z
#    x 3.341950 0.000000 0.000000 
#    y 0.000000 3.925070 0.000000 
#    z 0.000000 0.000000 3.726820 
# 
# 
# High freq. dielectric constant tensor:
#      x y z
#    x 1.769680 0.000000 0.000000 
#    y 0.000000 1.805120 0.000000 
#    z 0.000000 0.000000 1.787580 
# 
# From -- ./inp_files/1578.got.cif
#   From: 2010.03.12/outbox.cif.g09.slc.cpg/sg26_1_cif.got.tgz:1578.got - 2010.04.14 03:33:09.
