data_PCOD8167696
_publ_section_title
;
Structure prediction by ZEFSAII (Michael W. Deem and Ramdas Pophale) SiO2 
 PCOD8167696
Probable space group: P M C 21
;
_chemical_formula_sum "Si O2"
_cell_formula_units_Z 32
_cell_length_a 8.910733
_cell_length_b 11.958548
_cell_length_c 15.063984
_cell_angle_alpha 90.000000
_cell_angle_beta 90.000000
_cell_angle_gamma 90.000000
_cell_volume 1605.209523
_symmetry_space_group_name_H-M "P M C 21"
_symmetry_group_IT_number 26
_symmetry_cell_setting 'orthorhombic'
loop_
_space_group_symop_operation_xyz
x,y,z
-x,-y,1/2+z
-x,y,z
x,-y,1/2+z
loop_
_atom_site_type_symbol
_atom_site_label
_atom_site_fract_x
_atom_site_fract_y
_atom_site_fract_z
Si Si1 0.177524 0.499448 0.868630
Si Si2 0.832349 0.265359 0.120209
Si Si3 0.323568 0.896596 0.049889
Si Si4 0.676774 0.357698 0.521394
Si Si5 0.324835 0.520388 0.679060
Si Si6 0.167703 0.746759 0.415846
Si Si7 0.176562 0.965748 0.701169
Si Si8 0.675542 0.034345 0.876845
O O1 0.230514 0.516299 0.768643
O O2 0.231348 0.376711 0.898220
O O3 0.000000 0.511439 0.874377
O O4 0.246402 0.590888 0.934470
O O5 0.712000 0.362706 0.132426
O O6 0.773710 0.157692 0.172334
O O7 0.000000 0.302511 0.151548
O O8 0.838178 0.228977 0.019123
O O9 0.500000 0.899454 0.065453
O O10 0.269691 0.770280 0.030331
O O11 0.247921 0.938710 0.139879
O O12 0.275725 0.976705 0.968923
O O13 0.500000 0.367161 0.506468
O O14 0.724513 0.422200 0.611462
O O15 0.500000 0.513091 0.701554
O O16 0.280727 0.835297 0.372861
O O17 0.000000 0.760605 0.374957
O O18 0.000000 0.981588 0.696482
O O19 0.233945 0.972354 0.800823
O O20 0.500000 0.021638 0.859385
#
# Coordination Sequence:
#
# PCOD8167696 Si02
#       8
#     4   4   4   4   4   4   4   4
#     4  11  24  41  64  92 124 162 205 255 307 365
#     4  10  21  41  65  90 122 158 204 257 307 364
#     4  10  23  43  63  89 125 163 205 253 307 367
#     4  10  23  43  63  89 125 163 205 253 307 367
#     4  11  24  40  63  92 125 163 205 254 306 366
#     4  10  21  41  65  90 122 158 204 257 307 364
#     4  11  24  41  64  92 124 162 205 255 307 365
#     4  11  24  40  63  92 125 163 205 254 306 366
#
# _framework density 19.935092999999998
#
# number of rings (size 3 to 8) (size 9 to 14) (size 15 to 20)
#    0.000    1.500    2.500    1.500    3.500    4.000 
#    0.000    0.000    0.000    0.000    0.000    0.000 
#    0.000    0.000    0.000    0.000    0.000    0.000 
#
# Total GULP energy -396922.572230 kJ/mol
# GULP energy per Si atom -12403.830382 kJ/mol
# Density = 1.988972 g / cm^3
# Si number density = 19.935093 Si / 1000 Ang^3
#
#
#
# Elastic Constant Matrix: (Units=GPa)
#
#
# Indices 1 2 3 4 5 6 
#
# 1 42.7678 38.5073 24.3038 0.0000 0.0000 0.0000
# 2 38.5073 105.9059 12.0078 0.0000 0.0000 0.0000
# 3 24.3038 12.0078 68.0213 0.0000 0.0000 0.0000
# 4 0.0000 0.0000 0.0000 31.2793 0.0000 0.0000
# 5 0.0000 0.0000 0.0000 0.0000 30.6898 0.0000
# 6 0.0000 0.0000 0.0000 0.0000 0.0000 32.8749
#
#
#
# Elastic Compliance Matrix: (Units=1/GPa)
#
#
# Indices 1 2 3 4 5 6 
#
# 1 0.043853 -0.014458 -0.013116 0.000000 0.000000 0.000000
# 2 -0.014458 0.014402 0.002623 0.000000 0.000000 0.000000
# 3 -0.013116 0.002623 0.018925 0.000000 0.000000 0.000000
# 4 0.000000 0.000000 0.000000 0.031970 0.000000 0.000000
# 5 0.000000 0.000000 0.000000 0.000000 0.032584 0.000000
# 6 0.000000 0.000000 0.000000 0.000000 0.000000 0.030418
#
#
# Mechanical properties :
#
#
# Convention : Reuss Voigt Hill
#
# Bulk Modulus (GPa) = 36.65960 40.70366 38.68163
# Shear Modulus (GPa) = 21.63126 28.42719 25.02922
#
# Velocity S-wave (km/s) = 3.29764 3.78032 3.54720
# Velocity P-wave (km/s) = 5.73835 6.28624 6.01853
#
# Compressibility (1/GPa) = 0.02727798
#
# Stress axis : x y z
#
# Youngs Moduli (GPa) = 22.80322 69.43583 52.84119
#
# Poissons Ratio (x) = 1.00390 0.69309
# Poissons Ratio (y) = 0.32969 -0.13862
# Poissons Ratio (z) = 0.29910 -0.18216
#
# Static dielectric constant tensor:
#      x y z
#    x 3.584570 0.000000 0.000000 
#    y 0.000000 3.774950 0.000000 
#    z 0.000000 0.000000 3.654480 
# 
# 
# High freq. dielectric constant tensor:
#      x y z
#    x 1.775920 0.000000 0.000000 
#    y 0.000000 1.788890 0.000000 
#    z 0.000000 0.000000 1.784540 
# 
# From -- ./inp_files/2988.got.cif
#   From: 2010.03.12/outbox.cif.g09.slc.cpg/sg26_2_cif.got.tgz:2988.got - 2010.04.14 03:33:09.
