data_PCOD8167788
_publ_section_title
;
Structure prediction by ZEFSAII (Michael W. Deem and Ramdas Pophale) SiO2 
 PCOD8167788
Probable space group: P C C 2
;
_chemical_formula_sum "Si O2"
_cell_formula_units_Z 32
_cell_length_a 37.751358
_cell_length_b 7.566746
_cell_length_c 5.273367
_cell_angle_alpha 90.000000
_cell_angle_beta 90.000000
_cell_angle_gamma 90.000000
_cell_volume 1506.363319
_symmetry_space_group_name_H-M "P C C 2"
_symmetry_group_IT_number 27
_symmetry_cell_setting 'orthorhombic'
loop_
_space_group_symop_operation_xyz
x,y,z
-x,-y,z
-x,y,1/2+z
x,-y,1/2+z
loop_
_atom_site_type_symbol
_atom_site_label
_atom_site_fract_x
_atom_site_fract_y
_atom_site_fract_z
Si Si1 0.484990 0.800701 0.144880
Si Si2 0.128301 0.300185 0.611915
Si Si3 0.098278 0.305420 0.111876
Si Si4 0.336855 0.392205 0.639251
Si Si5 0.277279 0.890695 0.049803
Si Si6 0.985032 0.694949 0.122716
Si Si7 0.197915 0.886120 0.062431
Si Si8 0.415656 0.614807 0.090839
O O1 0.496899 0.703882 0.404317
O O2 0.442502 0.781289 0.117844
O O3 0.500000 0.000000 0.165070
O O4 0.108631 0.206596 0.372878
O O5 0.117068 0.503706 0.636368
O O6 0.170635 0.277294 0.586341
O O7 0.114429 0.203899 0.868676
O O8 0.056535 0.318918 0.079321
O O9 0.332607 0.544316 0.428506
O O10 0.306366 0.255217 0.588970
O O11 0.375902 0.306328 0.606563
O O12 0.282605 0.036597 0.266781
O O13 0.237790 0.808761 0.075365
O O14 0.000000 0.500000 0.171374
O O15 0.995931 0.793805 0.385297
O O16 0.191380 0.980243 0.793963
O O17 0.421893 0.476146 0.318390
#
# Coordination Sequence:
#
# PCOD8167788 Si02
#       8
#     4   4   4   4   4   4   4   4
#     4  10  21  37  53  80 117 145 192 242 284 331
#     4  10  18  32  47  70 102 136 163 206 268 305
#     4  10  19  30  47  74 111 127 163 221 259 326
#     4  10  21  40  61  91 123 152 194 248 296 353
#     4  10  21  40  61  88 116 154 196 241 288 346
#     4  10  16  25  41  65 100 134 161 196 260 327
#     4  10  21  37  56  75 106 141 182 221 258 319
#     4  10  21  37  59  83 115 155 190 231 294 349
#
# _framework density 21.243214999999999
#
# number of rings (size 3 to 8) (size 9 to 14) (size 15 to 20)
#    0.000    2.000    0.000    6.000    0.000    1.500 
#    9.000    0.000    0.000    0.000    0.000    0.000 
#    0.000  122.000    0.000    0.000    0.000    0.000 
#
# Total GULP energy -396505.595309 kJ/mol
# GULP energy per Si atom -12390.799853 kJ/mol
# Density = 2.119486 g / cm^3
# Si number density = 21.243215 Si / 1000 Ang^3
#
#
#
# Elastic Constant Matrix: (Units=GPa)
#
#
# Indices 1 2 3 4 5 6 
#
# 1 154.3654 35.8704 5.7410 0.0000 0.0000 0.0000
# 2 35.8704 25.3381 -9.4519 0.0000 0.0000 0.0000
# 3 5.7410 -9.4519 161.0644 0.0000 0.0000 0.0000
# 4 0.0000 0.0000 0.0000 6.9933 0.0000 0.0000
# 5 0.0000 0.0000 0.0000 0.0000 32.4104 0.0000
# 6 0.0000 0.0000 0.0000 0.0000 0.0000 37.9325
#
#
#
# Elastic Compliance Matrix: (Units=1/GPa)
#
#
# Indices 1 2 3 4 5 6 
#
# 1 0.009875 -0.014427 -0.001199 0.000000 0.000000 0.000000
# 2 -0.014427 0.061427 0.004119 0.000000 0.000000 0.000000
# 3 -0.001199 0.004119 0.006493 0.000000 0.000000 0.000000
# 4 0.000000 0.000000 0.000000 0.142994 0.000000 0.000000
# 5 0.000000 0.000000 0.000000 0.000000 0.030854 0.000000
# 6 0.000000 0.000000 0.000000 0.000000 0.000000 0.026363
#
#
# Mechanical properties :
#
#
# Convention : Reuss Voigt Hill
#
# Bulk Modulus (GPa) = 18.25429 45.00967 31.63198
# Shear Modulus (GPa) = 15.66020 36.04113 25.85067
#
# Velocity S-wave (km/s) = 2.71806 4.12344 3.49218
# Velocity P-wave (km/s) = 4.29676 6.62602 5.58419
#
# Compressibility (1/GPa) = 0.05478165
#
# Stress axis : x y z
#
# Youngs Moduli (GPa) = 101.26374 16.27953 154.00857
#
# Poissons Ratio (x) = 0.23487 0.18460
# Poissons Ratio (y) = 1.46095 -0.63437
# Poissons Ratio (z) = 0.12138 -0.06706
#
# Static dielectric constant tensor:
#      x y z
#    x 4.075820 0.000000 0.000000 
#    y 0.000000 3.329200 0.000000 
#    z 0.000000 0.000000 5.865020 
# 
# 
# High freq. dielectric constant tensor:
#      x y z
#    x 1.846940 0.000000 0.000000 
#    y 0.000000 1.766220 0.000000 
#    z 0.000000 0.000000 1.881260 
# 
# From -- ./inp_files/740.got.cif
#   From: 2010.03.12/outbox.cif.g09.slc.cpg/sg27_1_cif.got.tgz:740.got - 2010.04.14 03:36:05.
