data_PCOD8167888
_publ_section_title
;
Structure prediction by ZEFSAII (Michael W. Deem and Ramdas Pophale) SiO2 
 PCOD8167888
Probable space group: P C C 2
;
_chemical_formula_sum "Si O2"
_cell_formula_units_Z 26
_cell_length_a 5.214920
_cell_length_b 14.803301
_cell_length_c 14.643614
_cell_angle_alpha 90.000000
_cell_angle_beta 90.000000
_cell_angle_gamma 90.000000
_cell_volume 1130.458159
_symmetry_space_group_name_H-M "P C C 2"
_symmetry_group_IT_number 27
_symmetry_cell_setting 'orthorhombic'
loop_
_space_group_symop_operation_xyz
x,y,z
-x,-y,z
-x,y,1/2+z
x,-y,1/2+z
loop_
_atom_site_type_symbol
_atom_site_label
_atom_site_fract_x
_atom_site_fract_y
_atom_site_fract_z
Si Si1 0.082020 0.805423 0.768890
Si Si2 0.551916 0.712770 0.503201
Si Si3 0.362625 0.375585 0.329379
Si Si4 0.761298 0.943081 0.129221
Si Si5 0.000000 0.500000 0.231464
Si Si6 0.944011 0.175404 0.466138
Si Si7 0.745949 0.330697 0.186309
O O1 0.213705 0.715426 0.804060
O O2 0.274920 0.866469 0.707745
O O3 0.969649 0.856162 0.859472
O O4 0.865397 0.769342 0.698710
O O5 0.609670 0.626687 0.438822
O O6 0.276185 0.749448 0.473666
O O7 0.535217 0.676472 0.606608
O O8 0.780026 0.787441 0.499451
O O9 0.229904 0.468103 0.298526
O O10 0.635791 0.365207 0.282021
O O11 0.500000 0.000000 0.119896
O O12 0.846538 0.906746 0.029581
O O13 0.000000 0.000000 0.167652
O O14 0.060400 0.585755 0.165319
#
# Coordination Sequence:
#
# PCOD8167888 Si02
#       7
#     4   4   4   4   2   4   4
#     4  10  23  43  72  97 140 186 240 279 362 430
#     4  11  23  39  75  97 130 182 240 281 345 416
#     4  10  22  42  66  99 133 186 228 290 339 418
#     4  12  27  44  70 107 145 184 231 305 362 423
#     4  10  24  40  60 100 146 176 232 290 352 408
#     4  11  23  45  68 103 133 182 236 289 346 428
#     4  11  21  42  68  98 135 186 232 290 349 425
#
# _framework density 22.999524999999998
#
# number of rings (size 3 to 8) (size 9 to 14) (size 15 to 20)
#    0.000    1.231    3.077    2.308    4.308    1.231 
#    0.000    4.615    0.000    0.000    0.000    0.000 
#    0.000    0.000    0.000    0.000    0.000    0.000 
#
# Total GULP energy -322170.593821 kJ/mol
# GULP energy per Si atom -12391.176685 kJ/mol
# Density = 2.294718 g / cm^3
# Si number density = 22.999525 Si / 1000 Ang^3
#
#
#
# Elastic Constant Matrix: (Units=GPa)
#
#
# Indices 1 2 3 4 5 6 
#
# 1 74.0225 20.1949 2.2056 0.0000 0.0000 0.0000
# 2 20.1949 75.5190 41.6038 0.0000 0.0000 0.0000
# 3 2.2056 41.6038 134.2322 0.0000 0.0000 0.0000
# 4 0.0000 0.0000 0.0000 22.1537 0.0000 0.0000
# 5 0.0000 0.0000 0.0000 0.0000 27.5010 0.0000
# 6 0.0000 0.0000 0.0000 0.0000 0.0000 37.7754
#
#
#
# Elastic Compliance Matrix: (Units=1/GPa)
#
#
# Indices 1 2 3 4 5 6 
#
# 1 0.014726 -0.004588 0.001180 0.000000 0.000000 0.000000
# 2 -0.004588 0.017398 -0.005317 0.000000 0.000000 0.000000
# 3 0.001180 -0.005317 0.009078 0.000000 0.000000 0.000000
# 4 0.000000 0.000000 0.000000 0.045139 0.000000 0.000000
# 5 0.000000 0.000000 0.000000 0.000000 0.036362 0.000000
# 6 0.000000 0.000000 0.000000 0.000000 0.000000 0.026472
#
#
# Mechanical properties :
#
#
# Convention : Reuss Voigt Hill
#
# Bulk Modulus (GPa) = 42.10122 45.75359 43.92741
# Shear Modulus (GPa) = 28.64627 32.13731 30.39179
#
# Velocity S-wave (km/s) = 3.53302 3.74211 3.63906
# Velocity P-wave (km/s) = 5.91506 6.21350 6.06612
#
# Compressibility (1/GPa) = 0.02375228
#
# Stress axis : x y z
#
# Youngs Moduli (GPa) = 67.90733 57.47894 110.15302
#
# Poissons Ratio (x) = 0.26371 -0.12998
# Poissons Ratio (y) = 0.31156 0.58567
# Poissons Ratio (z) = -0.08013 0.30561
#
# Static dielectric constant tensor:
#      x y z
#    x 4.240710 0.000000 0.000000 
#    y 0.000000 4.171110 0.000000 
#    z 0.000000 0.000000 4.382910 
# 
# 
# High freq. dielectric constant tensor:
#      x y z
#    x 1.911790 0.000000 0.000000 
#    y 0.000000 1.895470 0.000000 
#    z 0.000000 0.000000 1.912510 
# 
# From -- ./inp_files/3093.got.cif
#   From: 2010.03.12/outbox.cif.g09.slc.cpg/sg27_2_cif.got.tgz:3093.got - 2010.04.14 03:36:05.
