data_PCOD8167933
_publ_section_title
;
Structure prediction by ZEFSAII (Michael W. Deem and Ramdas Pophale) SiO2 
 PCOD8167933
Probable space group: P C C 2
;
_chemical_formula_sum "Si O2"
_cell_formula_units_Z 32
_cell_length_a 7.958946
_cell_length_b 14.717553
_cell_length_c 12.566208
_cell_angle_alpha 90.000000
_cell_angle_beta 90.000000
_cell_angle_gamma 90.000000
_cell_volume 1471.957974
_symmetry_space_group_name_H-M "P C C 2"
_symmetry_group_IT_number 27
_symmetry_cell_setting 'orthorhombic'
loop_
_space_group_symop_operation_xyz
x,y,z
-x,-y,z
-x,y,1/2+z
x,-y,1/2+z
loop_
_atom_site_type_symbol
_atom_site_label
_atom_site_fract_x
_atom_site_fract_y
_atom_site_fract_z
Si Si1 0.821120 0.176028 0.138990
Si Si2 0.621742 0.229742 0.451057
Si Si3 0.165039 0.359800 0.254014
Si Si4 0.319643 0.528892 0.141517
Si Si5 0.486347 0.102823 0.757236
Si Si6 0.286658 0.682358 0.983636
Si Si7 0.809722 0.829956 0.144585
Si Si8 0.801264 0.660931 0.796938
O O1 0.656693 0.111864 0.162426
O O2 0.822261 0.231131 0.025891
O O3 0.812699 0.246037 0.234109
O O4 0.002728 0.123547 0.144553
O O5 0.550866 0.168370 0.355766
O O6 0.474029 0.283114 0.512562
O O7 0.729326 0.165309 0.527405
O O8 0.741284 0.312480 0.413741
O O9 0.217240 0.440971 0.176428
O O10 0.277498 0.338317 0.357997
O O11 0.163845 0.273936 0.177641
O O12 0.982465 0.386502 0.299644
O O13 0.500000 0.500000 0.099733
O O14 0.236221 0.590186 0.047840
O O15 0.335648 0.593393 0.245227
O O16 0.676729 0.122566 0.720995
O O17 0.500000 0.000000 0.797776
#
# Coordination Sequence:
#
# PCOD8167933 Si02
#       8
#     4   4   4   4   4   4   4   4
#     4   9  21  41  67  96 131 173 221 266 333 405
#     4  11  21  40  68  95 131 174 222 272 335 406
#     4  11  22  39  62  89 126 174 221 271 329 386
#     4  11  23  36  55  87 126 165 221 274 319 377
#     4  11  24  43  69  99 134 169 221 277 339 409
#     4  11  21  39  64  93 129 173 221 272 325 396
#     4  11  22  41  68  95 131 179 218 271 337 401
#     4   9  21  39  60  88 126 170 219 269 327 389
#
# _framework density 21.739750999999998
#
# number of rings (size 3 to 8) (size 9 to 14) (size 15 to 20)
#    0.000    1.500    2.500    2.625    1.750    3.500 
#    0.000    5.000    0.000    0.000    0.000    0.000 
#    0.000    0.000    0.000    0.000    0.000    0.000 
#
# Total GULP energy -396478.270390 kJ/mol
# GULP energy per Si atom -12389.945950 kJ/mol
# Density = 2.169027 g / cm^3
# Si number density = 21.739751 Si / 1000 Ang^3
#
#
#
# Elastic Constant Matrix: (Units=GPa)
#
#
# Indices 1 2 3 4 5 6 
#
# 1 128.5315 28.6909 13.3418 0.0000 0.0000 0.0000
# 2 28.6909 70.3132 17.4003 0.0000 0.0000 0.0000
# 3 13.3418 17.4003 62.9413 0.0000 0.0000 0.0000
# 4 0.0000 0.0000 0.0000 14.5656 0.0000 0.0000
# 5 0.0000 0.0000 0.0000 0.0000 26.7873 0.0000
# 6 0.0000 0.0000 0.0000 0.0000 0.0000 17.9009
#
#
#
# Elastic Compliance Matrix: (Units=1/GPa)
#
#
# Indices 1 2 3 4 5 6 
#
# 1 0.008609 -0.003286 -0.000916 0.000000 0.000000 0.000000
# 2 -0.003286 0.016521 -0.003871 0.000000 0.000000 0.000000
# 3 -0.000916 -0.003871 0.017152 0.000000 0.000000 0.000000
# 4 0.000000 0.000000 0.000000 0.068655 0.000000 0.000000
# 5 0.000000 0.000000 0.000000 0.000000 0.037331 0.000000
# 6 0.000000 0.000000 0.000000 0.000000 0.000000 0.055863
#
#
# Mechanical properties :
#
#
# Convention : Reuss Voigt Hill
#
# Bulk Modulus (GPa) = 38.26201 42.29465 40.27833
# Shear Modulus (GPa) = 21.83509 25.34095 23.58802
#
# Velocity S-wave (km/s) = 3.17264 3.41787 3.29753
# Velocity P-wave (km/s) = 5.57307 5.92224 5.75031
#
# Compressibility (1/GPa) = 0.02613559
#
# Stress axis : x y z
#
# Youngs Moduli (GPa) = 116.15996 60.52983 58.30176
#
# Poissons Ratio (x) = 0.19890 0.05343
# Poissons Ratio (y) = 0.38170 0.22567
# Poissons Ratio (z) = 0.10645 0.23429
#
# Static dielectric constant tensor:
#      x y z
#    x 4.436950 0.000000 0.000000 
#    y 0.000000 3.698630 0.000000 
#    z 0.000000 0.000000 3.763960 
# 
# 
# High freq. dielectric constant tensor:
#      x y z
#    x 1.866060 0.000000 0.000000 
#    y 0.000000 1.830320 0.000000 
#    z 0.000000 0.000000 1.844800 
# 
# From -- ./inp_files/2453.got.cif
#   From: 2010.03.12/outbox.cif.g09.slc.cpg/sg27_2_cif.got.tgz:2453.got - 2010.04.14 03:36:05.
