data_PCOD8167830
_publ_section_title
;
Structure prediction by ZEFSAII (Michael W. Deem and Ramdas Pophale) SiO2 
 PCOD8167830
Probable space group: P C C 2
;
_chemical_formula_sum "Si O2"
_cell_formula_units_Z 30
_cell_length_a 12.515094
_cell_length_b 7.718197
_cell_length_c 14.282762
_cell_angle_alpha 90.000000
_cell_angle_beta 90.000000
_cell_angle_gamma 90.000000
_cell_volume 1379.628555
_symmetry_space_group_name_H-M "P C C 2"
_symmetry_group_IT_number 27
_symmetry_cell_setting 'orthorhombic'
loop_
_space_group_symop_operation_xyz
x,y,z
-x,-y,z
-x,y,1/2+z
x,-y,1/2+z
loop_
_atom_site_type_symbol
_atom_site_label
_atom_site_fract_x
_atom_site_fract_y
_atom_site_fract_z
Si Si1 0.427903 0.659353 0.431250
Si Si2 0.728452 0.486402 0.053253
Si Si3 0.709038 0.907656 0.616187
Si Si4 0.109941 0.596921 0.911873
Si Si5 0.876837 0.024190 0.974944
Si Si6 0.235369 0.804401 0.312629
Si Si7 0.500000 0.000000 0.518293
Si Si8 0.880235 0.492570 0.715970
O O1 0.500000 0.500000 0.390924
O O2 0.378623 0.593518 0.531123
O O3 0.338267 0.707964 0.355047
O O4 0.499112 0.829533 0.451949
O O5 0.701037 0.291016 0.081898
O O6 0.797612 0.569454 0.137445
O O7 0.795242 0.517866 0.956499
O O8 0.805954 0.013255 0.566829
O O9 0.721941 0.924964 0.727935
O O10 0.602206 0.003935 0.584883
O O11 0.128582 0.772331 0.964755
O O12 0.121975 0.641501 0.802027
O O13 0.000000 0.500000 0.934306
O O14 0.830160 0.917984 0.887508
O O15 0.000000 0.000000 0.995828
O O16 0.150111 0.674179 0.265870
O O17 0.000000 0.500000 0.672352
#
# Coordination Sequence:
#
# PCOD8167830 Si02
#       8
#     4   4   4   4   4   4   2   4
#     4  12  25  46  74  97 136 187 238 299 361 415
#     4  10  21  40  64  92 131 175 221 284 346 404
#     4  10  24  45  67 100 142 181 239 291 353 432
#     4  10  20  36  61  92 132 177 228 268 337 422
#     4  11  23  41  67 101 143 189 227 293 361 421
#     4  11  24  46  66 102 140 181 238 296 353 436
#     4  12  24  46  72 100 138 182 240 294 360 424
#     4  10  20  38  64 100 133 173 226 278 342 430
#
# _framework density 21.744983999999999
#
# number of rings (size 3 to 8) (size 9 to 14) (size 15 to 20)
#    0.000    1.333    4.000    2.000    0.000    2.133 
#    4.800    1.333    0.000    0.000    0.000    0.000 
#    0.000    0.000    0.000    0.000    0.000    0.000 
#
# Total GULP energy -371778.531576 kJ/mol
# GULP energy per Si atom -12392.617719 kJ/mol
# Density = 2.169549 g / cm^3
# Si number density = 21.744984 Si / 1000 Ang^3
#
#
#
# Elastic Constant Matrix: (Units=GPa)
#
#
# Indices 1 2 3 4 5 6 
#
# 1 143.4131 41.3725 58.1611 0.0000 0.0000 0.0000
# 2 41.3725 69.8385 20.5715 0.0000 0.0000 0.0000
# 3 58.1611 20.5715 112.3729 0.0000 0.0000 0.0000
# 4 0.0000 0.0000 0.0000 25.2671 0.0000 0.0000
# 5 0.0000 0.0000 0.0000 0.0000 28.1034 0.0000
# 6 0.0000 0.0000 0.0000 0.0000 0.0000 35.4771
#
#
#
# Elastic Compliance Matrix: (Units=1/GPa)
#
#
# Indices 1 2 3 4 5 6 
#
# 1 0.010099 -0.004696 -0.004367 0.000000 0.000000 0.000000
# 2 -0.004696 0.017319 -0.000740 0.000000 0.000000 0.000000
# 3 -0.004367 -0.000740 0.011295 0.000000 0.000000 0.000000
# 4 0.000000 0.000000 0.000000 0.039577 0.000000 0.000000
# 5 0.000000 0.000000 0.000000 0.000000 0.035583 0.000000
# 6 0.000000 0.000000 0.000000 0.000000 0.000000 0.028187
#
#
# Mechanical properties :
#
#
# Convention : Reuss Voigt Hill
#
# Bulk Modulus (GPa) = 52.33994 62.87052 57.60523
# Shear Modulus (GPa) = 29.75586 31.47080 30.61333
#
# Velocity S-wave (km/s) = 3.70320 3.80842 3.75618
# Velocity P-wave (km/s) = 6.51207 6.95084 6.73503
#
# Compressibility (1/GPa) = 0.01910587
#
# Stress axis : x y z
#
# Youngs Moduli (GPa) = 99.02261 57.74117 88.53720
#
# Poissons Ratio (x) = 0.27116 0.38665
# Poissons Ratio (y) = 0.46502 0.06551
# Poissons Ratio (z) = 0.43244 0.04272
#
# Static dielectric constant tensor:
#      x y z
#    x 4.011490 0.000000 0.000000 
#    y 0.000000 3.842330 0.000000 
#    z 0.000000 0.000000 4.106560 
# 
# 
# High freq. dielectric constant tensor:
#      x y z
#    x 1.864960 0.000000 0.000000 
#    y 0.000000 1.847500 0.000000 
#    z 0.000000 0.000000 1.850710 
# 
# From -- ./inp_files/3629.got.cif
#   From: 2010.03.12/outbox.cif.g09.slc.cpg/sg27_2_cif.got.tgz:3629.got - 2010.04.14 03:36:05.
