data_PCOD8167572
_publ_section_title
;
Structure prediction by ZEFSAII (Michael W. Deem and Ramdas Pophale) SiO2 
 PCOD8167572
Probable space group: P M C 21
;
_chemical_formula_sum "Si O2"
_cell_formula_units_Z 32
_cell_length_a 9.044179
_cell_length_b 15.969086
_cell_length_c 10.931315
_cell_angle_alpha 90.000000
_cell_angle_beta 90.000000
_cell_angle_gamma 90.000000
_cell_volume 1578.780008
_symmetry_space_group_name_H-M "P M C 21"
_symmetry_group_IT_number 26
_symmetry_cell_setting 'orthorhombic'
loop_
_space_group_symop_operation_xyz
x,y,z
-x,-y,1/2+z
-x,y,z
x,-y,1/2+z
loop_
_atom_site_type_symbol
_atom_site_label
_atom_site_fract_x
_atom_site_fract_y
_atom_site_fract_z
Si Si1 0.831922 0.982550 0.125000
Si Si2 0.828460 0.164130 0.440956
Si Si3 0.829005 0.574393 0.455032
Si Si4 0.667119 0.748652 0.486381
Si Si5 0.171149 0.450076 0.676549
Si Si6 0.169200 0.162438 0.794278
Si Si7 0.325858 0.281870 0.607687
Si Si8 0.665929 0.863196 0.699894
O O1 0.818483 0.934966 0.256444
O O2 0.000000 0.014495 0.104363
O O3 0.717081 0.058505 0.116551
O O4 0.786115 0.915333 0.023098
O O5 0.740000 0.247338 0.480352
O O6 0.787277 0.141998 0.304203
O O7 0.000000 0.185170 0.452548
O O8 0.732643 0.657750 0.461954
O O9 0.797534 0.528419 0.322055
O O10 0.787891 0.522048 0.577446
O O11 0.000000 0.600129 0.460311
O O12 0.500000 0.749718 0.434047
O O13 0.768097 0.822573 0.429040
O O14 0.666982 0.774904 0.628300
O O15 0.272409 0.374409 0.635326
O O16 0.000000 0.425733 0.661014
O O17 0.271913 0.221544 0.713743
O O18 0.000000 0.192860 0.781930
O O19 0.500000 0.281898 0.597841
O O20 0.500000 0.880494 0.748977
#
# Coordination Sequence:
#
# PCOD8167572 Si02
#       8
#     4   4   4   4   4   4   4   4
#     4   9  21  39  60  87 115 154 205 255 304 361
#     4  10  22  41  62  86 118 159 208 256 302 367
#     4  10  22  40  64  91 124 164 213 265 317 381
#     4  11  24  40  59  89 125 163 204 252 314 378
#     4  10  21  39  62  92 124 162 210 261 314 381
#     4  10  20  37  62  88 116 155 203 252 296 357
#     4  11  21  36  62  92 120 155 195 247 312 367
#     4  11  25  40  57  87 126 162 200 254 317 376
#
# _framework density 20.268813999999999
#
# number of rings (size 3 to 8) (size 9 to 14) (size 15 to 20)
#    0.000    1.750    1.250    3.375    1.750    6.500 
#    0.000    1.250    0.000    0.000    0.000    0.000 
#    0.000    0.000    0.000    0.000    0.000    0.000 
#
# Total GULP energy -396634.964584 kJ/mol
# GULP energy per Si atom -12394.842643 kJ/mol
# Density = 2.022268 g / cm^3
# Si number density = 20.268814 Si / 1000 Ang^3
#
#
#
# Elastic Constant Matrix: (Units=GPa)
#
#
# Indices 1 2 3 4 5 6 
#
# 1 99.5568 40.6789 41.6276 0.0000 0.0000 0.0000
# 2 40.6789 71.0930 42.9653 0.0000 0.0000 0.0000
# 3 41.6276 42.9653 107.9701 0.0000 0.0000 0.0000
# 4 0.0000 0.0000 0.0000 26.2780 0.0000 0.0000
# 5 0.0000 0.0000 0.0000 0.0000 29.0628 0.0000
# 6 0.0000 0.0000 0.0000 0.0000 0.0000 18.8936
#
#
#
# Elastic Compliance Matrix: (Units=1/GPa)
#
#
# Indices 1 2 3 4 5 6 
#
# 1 0.013748 -0.006140 -0.002857 0.000000 0.000000 0.000000
# 2 -0.006140 0.021262 -0.006094 0.000000 0.000000 0.000000
# 3 -0.002857 -0.006094 0.012788 0.000000 0.000000 0.000000
# 4 0.000000 0.000000 0.000000 0.038055 0.000000 0.000000
# 5 0.000000 0.000000 0.000000 0.000000 0.034408 0.000000
# 6 0.000000 0.000000 0.000000 0.000000 0.000000 0.052928
#
#
# Mechanical properties :
#
#
# Convention : Reuss Voigt Hill
#
# Bulk Modulus (GPa) = 56.76400 58.79595 57.77998
# Shear Modulus (GPa) = 23.89568 25.07008 24.48288
#
# Velocity S-wave (km/s) = 3.43729 3.52075 3.47927
# Velocity P-wave (km/s) = 6.61964 6.75267 6.68649
#
# Compressibility (1/GPa) = 0.01761680
#
# Stress axis : x y z
#
# Youngs Moduli (GPa) = 72.73849 47.03240 78.19588
#
# Poissons Ratio (x) = 0.28876 0.22343
# Poissons Ratio (y) = 0.44659 0.47651
# Poissons Ratio (z) = 0.20783 0.28661
#
# Static dielectric constant tensor:
#      x y z
#    x 3.693590 0.000000 0.000000 
#    y 0.000000 3.577960 0.000000 
#    z 0.000000 0.000000 3.951430 
# 
# 
# High freq. dielectric constant tensor:
#      x y z
#    x 1.796910 0.000000 0.000000 
#    y 0.000000 1.777480 0.000000 
#    z 0.000000 0.000000 1.796340 
# 
# From -- ./inp_files/3028.got.cif
#   From: 2010.03.12/outbox.cif.g09.slc.cpg/sg26_2_cif.got.tgz:3028.got - 2010.04.14 03:33:09.
