data_PCOD8167613
_publ_section_title
;
Structure prediction by ZEFSAII (Michael W. Deem and Ramdas Pophale) SiO2 
 PCOD8167613
Probable space group: P M C 21
;
_chemical_formula_sum "Si O2"
_cell_formula_units_Z 32
_cell_length_a 9.217412
_cell_length_b 14.303890
_cell_length_c 12.836671
_cell_angle_alpha 90.000000
_cell_angle_beta 90.000000
_cell_angle_gamma 90.000000
_cell_volume 1692.448928
_symmetry_space_group_name_H-M "P M C 21"
_symmetry_group_IT_number 26
_symmetry_cell_setting 'orthorhombic'
loop_
_space_group_symop_operation_xyz
x,y,z
-x,-y,1/2+z
-x,y,z
x,-y,1/2+z
loop_
_atom_site_type_symbol
_atom_site_label
_atom_site_fract_x
_atom_site_fract_y
_atom_site_fract_z
Si Si1 0.666764 0.153855 0.930610
Si Si2 0.332010 0.315787 0.787931
Si Si3 0.669698 0.162252 0.160665
Si Si4 0.830255 0.662466 0.755463
Si Si5 0.669522 0.038101 0.735773
Si Si6 0.832077 0.184674 0.628569
Si Si7 0.166622 0.653622 0.985461
Si Si8 0.169509 0.537790 0.180165
O O1 0.500000 0.125551 0.937783
O O2 0.685726 0.263579 0.899091
O O3 0.732948 0.082450 0.843732
O O4 0.735304 0.141165 0.045228
O O5 0.500000 0.326873 0.758036
O O6 0.251123 0.249952 0.707924
O O7 0.253263 0.416435 0.779685
O O8 0.500000 0.186380 0.153103
O O9 0.750068 0.249837 0.208124
O O10 0.697702 0.072654 0.234074
O O11 0.764576 0.641303 0.870869
O O12 0.802089 0.572939 0.681944
O O13 0.000000 0.686435 0.763059
O O14 0.500000 0.061998 0.722093
O O15 0.754168 0.083713 0.636505
O O16 0.815128 0.236677 0.517246
O O17 0.000000 0.174598 0.659436
O O18 0.000000 0.624924 0.977965
O O19 0.233070 0.582257 0.072305
O O20 0.000000 0.561673 0.193491
#
# Coordination Sequence:
#
# PCOD8167613 Si02
#       8
#     4   4   4   4   4   4   4   4
#     4   8  16  32  51  73 103 134 161 201 256 296
#     4   9  16  29  51  76 102 130 163 204 247 292
#     4  10  21  36  52  72 102 135 167 206 250 299
#     4  10  21  36  52  72 102 135 167 206 250 299
#     4   9  18  33  53  75 100 133 171 207 246 295
#     4   9  16  29  51  76 102 130 163 204 247 292
#     4   8  16  32  51  73 103 134 161 201 256 296
#     4   9  18  33  53  75 100 133 171 207 246 295
#
# _framework density 18.907513000000002
#
# number of rings (size 3 to 8) (size 9 to 14) (size 15 to 20)
#    0.000    3.000    0.000    2.250    0.000    3.000 
#    0.000    8.750    0.000    0.000    0.000    0.000 
#    0.000    0.000    0.000    0.000    0.000    0.000 
#
# Total GULP energy -396450.908539 kJ/mol
# GULP energy per Si atom -12389.090892 kJ/mol
# Density = 1.886448 g / cm^3
# Si number density = 18.907513 Si / 1000 Ang^3
#
#
#
# Elastic Constant Matrix: (Units=GPa)
#
#
# Indices 1 2 3 4 5 6 
#
# 1 58.2106 47.4197 26.4815 0.0000 0.0000 0.0000
# 2 47.4197 136.1811 63.2779 0.0000 0.0000 0.0000
# 3 26.4815 63.2779 116.6659 0.0000 0.0000 0.0000
# 4 0.0000 0.0000 0.0000 25.9526 0.0000 0.0000
# 5 0.0000 0.0000 0.0000 0.0000 19.6311 0.0000
# 6 0.0000 0.0000 0.0000 0.0000 0.0000 34.0843
#
#
#
# Elastic Compliance Matrix: (Units=1/GPa)
#
#
# Indices 1 2 3 4 5 6 
#
# 1 0.024113 -0.007825 -0.001229 0.000000 0.000000 0.000000
# 2 -0.007825 0.012357 -0.004926 0.000000 0.000000 0.000000
# 3 -0.001229 -0.004926 0.011522 0.000000 0.000000 0.000000
# 4 0.000000 0.000000 0.000000 0.038532 0.000000 0.000000
# 5 0.000000 0.000000 0.000000 0.000000 0.050940 0.000000
# 6 0.000000 0.000000 0.000000 0.000000 0.000000 0.029339
#
#
# Mechanical properties :
#
#
# Convention : Reuss Voigt Hill
#
# Bulk Modulus (GPa) = 49.92142 65.04621 57.48381
# Shear Modulus (GPa) = 24.82131 27.52550 26.17340
#
# Velocity S-wave (km/s) = 3.62715 3.81963 3.72464
# Velocity P-wave (km/s) = 6.63340 7.34369 6.99756
#
# Compressibility (1/GPa) = 0.02003148
#
# Stress axis : x y z
#
# Youngs Moduli (GPa) = 41.47185 80.92633 86.78884
#
# Poissons Ratio (x) = 0.63327 0.10666
# Poissons Ratio (y) = 0.32453 0.42752
# Poissons Ratio (z) = 0.05097 0.39864
#
# Static dielectric constant tensor:
#      x y z
#    x 3.500580 0.000000 0.000000 
#    y 0.000000 4.240780 0.000000 
#    z 0.000000 0.000000 3.776380 
# 
# 
# High freq. dielectric constant tensor:
#      x y z
#    x 1.707160 0.000000 0.000000 
#    y 0.000000 1.733880 0.000000 
#    z 0.000000 0.000000 1.721900 
# 
# From -- ./inp_files/3093.got.cif
#   From: 2010.03.12/outbox.cif.g09.slc.cpg/sg26_2_cif.got.tgz:3093.got - 2010.04.14 03:33:09.
