data_PCOD8167507
_publ_section_title
;
Structure prediction by ZEFSAII (Michael W. Deem and Ramdas Pophale) SiO2 
 PCOD8167507
Probable space group: P M C 21
;
_chemical_formula_sum "Si O2"
_cell_formula_units_Z 32
_cell_length_a 8.759578
_cell_length_b 12.149001
_cell_length_c 14.306687
_cell_angle_alpha 90.000000
_cell_angle_beta 90.000000
_cell_angle_gamma 90.000000
_cell_volume 1522.519374
_symmetry_space_group_name_H-M "P M C 21"
_symmetry_group_IT_number 26
_symmetry_cell_setting 'orthorhombic'
loop_
_space_group_symop_operation_xyz
x,y,z
-x,-y,1/2+z
-x,y,z
x,-y,1/2+z
loop_
_atom_site_type_symbol
_atom_site_label
_atom_site_fract_x
_atom_site_fract_y
_atom_site_fract_z
Si Si1 0.181073 0.582247 0.634640
Si Si2 0.678318 0.612481 0.023762
Si Si3 0.831608 0.947008 0.617298
Si Si4 0.180555 0.327759 0.335811
Si Si5 0.171247 0.244179 0.981828
Si Si6 0.676955 0.149127 0.813291
Si Si7 0.824613 0.191813 0.621315
Si Si8 0.675814 0.899900 0.800899
O O1 0.252338 0.467429 0.602699
O O2 0.239130 0.620288 0.737355
O O3 0.235166 0.670695 0.557833
O O4 0.000000 0.572321 0.636713
O O5 0.500000 0.591121 0.015378
O O6 0.713138 0.734280 0.059863
O O7 0.751157 0.598803 0.920383
O O8 0.830437 0.876427 0.524768
O O9 0.707654 0.902092 0.690012
O O10 0.000000 0.941431 0.665757
O O11 0.796400 0.069620 0.582526
O O12 0.229250 0.199736 0.347179
O O13 0.000000 0.333759 0.342346
O O14 0.286995 0.235266 0.895711
O O15 0.000000 0.277403 0.949038
O O16 0.500000 0.156528 0.785513
O O17 0.780367 0.193132 0.729644
O O18 0.719399 0.021994 0.839792
O O19 0.000000 0.230753 0.609986
O O20 0.500000 0.872637 0.818946
#
# Coordination Sequence:
#
# PCOD8167507 Si02
#       8
#     4   4   4   4   4   4   4   4
#     4  10  23  45  69  92 122 163 213 263 312 368
#     4  12  27  44  65  95 129 164 208 261 320 381
#     4   9  18  35  59  89 121 161 209 255 307 367
#     4  11  23  43  69  93 121 162 212 264 309 371
#     4  10  20  37  61  92 124 163 213 260 307 371
#     4  10  22  37  56  91 134 175 210 255 318 379
#     4  10  21  40  64  90 123 167 214 260 309 368
#     4  10  20  35  57  90 130 167 205 254 316 375
#
# _framework density 21.017795
#
# number of rings (size 3 to 8) (size 9 to 14) (size 15 to 20)
#    0.000    1.750    1.250    2.625    1.750    5.000 
#    0.000    1.250    0.000    0.000    0.000    0.000 
#    0.000    0.000    0.000    0.000    0.000    0.000 
#
# Total GULP energy -396764.927978 kJ/mol
# GULP energy per Si atom -12398.903999 kJ/mol
# Density = 2.096996 g / cm^3
# Si number density = 21.017795 Si / 1000 Ang^3
#
#
#
# Elastic Constant Matrix: (Units=GPa)
#
#
# Indices 1 2 3 4 5 6 
#
# 1 47.4966 18.7580 17.6840 0.0000 0.0000 0.0000
# 2 18.7580 71.0201 32.5226 0.0000 0.0000 0.0000
# 3 17.6840 32.5226 69.4776 0.0000 0.0000 0.0000
# 4 0.0000 0.0000 0.0000 27.6345 0.0000 0.0000
# 5 0.0000 0.0000 0.0000 0.0000 26.2006 0.0000
# 6 0.0000 0.0000 0.0000 0.0000 0.0000 29.1694
#
#
#
# Elastic Compliance Matrix: (Units=1/GPa)
#
#
# Indices 1 2 3 4 5 6 
#
# 1 0.024374 -0.004578 -0.004061 0.000000 0.000000 0.000000
# 2 -0.004578 0.018782 -0.007627 0.000000 0.000000 0.000000
# 3 -0.004061 -0.007627 0.018997 0.000000 0.000000 0.000000
# 4 0.000000 0.000000 0.000000 0.036187 0.000000 0.000000
# 5 0.000000 0.000000 0.000000 0.000000 0.038167 0.000000
# 6 0.000000 0.000000 0.000000 0.000000 0.000000 0.034283
#
#
# Mechanical properties :
#
#
# Convention : Reuss Voigt Hill
#
# Bulk Modulus (GPa) = 33.75899 36.21372 34.98636
# Shear Modulus (GPa) = 23.45273 24.53622 23.99447
#
# Velocity S-wave (km/s) = 3.34406 3.42043 3.38246
# Velocity P-wave (km/s) = 5.56842 5.73294 5.65128
#
# Compressibility (1/GPa) = 0.02962174
#
# Stress axis : x y z
#
# Youngs Moduli (GPa) = 41.02708 53.24173 52.64039
#
# Poissons Ratio (x) = 0.24375 0.21377
# Poissons Ratio (y) = 0.18783 0.40148
# Poissons Ratio (z) = 0.16661 0.40606
#
# Static dielectric constant tensor:
#      x y z
#    x 3.706070 0.000000 0.000000 
#    y 0.000000 3.795260 0.000000 
#    z 0.000000 0.000000 3.746690 
# 
# 
# High freq. dielectric constant tensor:
#      x y z
#    x 1.817270 0.000000 0.000000 
#    y 0.000000 1.820530 0.000000 
#    z 0.000000 0.000000 1.819400 
# 
# From -- ./inp_files/4179.got.cif
#   From: 2010.03.12/outbox.cif.g09.slc.cpg/sg26_3_cif.got.tgz:4179.got - 2010.04.14 03:33:09.
