data_PCOD8167752
_publ_section_title
;
Structure prediction by ZEFSAII (Michael W. Deem and Ramdas Pophale) SiO2 
 PCOD8167752
Probable space group: P M C 21
;
_chemical_formula_sum "Si O2"
_cell_formula_units_Z 16
_cell_length_a 8.908359
_cell_length_b 7.787753
_cell_length_c 13.208384
_cell_angle_alpha 90.000000
_cell_angle_beta 90.000000
_cell_angle_gamma 90.000000
_cell_volume 916.346163
_symmetry_space_group_name_H-M "P M C 21"
_symmetry_group_IT_number 26
_symmetry_cell_setting 'orthorhombic'
loop_
_space_group_symop_operation_xyz
x,y,z
-x,-y,1/2+z
-x,y,z
x,-y,1/2+z
loop_
_atom_site_type_symbol
_atom_site_label
_atom_site_fract_x
_atom_site_fract_y
_atom_site_fract_z
Si Si1 0.669330 0.441083 0.230050
Si Si2 0.330617 0.236538 0.041691
Si Si3 0.176966 0.754614 0.329116
Si Si4 0.822624 0.105594 0.223953
O O1 0.500000 0.452936 0.273259
O O2 0.667825 0.413000 0.107957
O O3 0.758311 0.613411 0.253308
O O4 0.752542 0.274257 0.279459
O O5 0.500000 0.175280 0.017858
O O6 0.246272 0.091188 0.109803
O O7 0.242350 0.273835 0.939868
O O8 0.000000 0.734260 0.333499
O O9 0.225483 0.940212 0.287944
O O10 0.000000 0.125119 0.215955
#
# Coordination Sequence:
#
# PCOD8167752 Si02
#       4
#     4   4   4   4
#     4   9  20  37  56  81 111 143 183 226 268 321
#     4   9  20  37  56  81 111 143 181 228 270 321
#     4  11  21  35  60  83 108 148 180 223 279 322
#     4   9  19  37  56  81 112 140 182 227 269 324
#
# _framework density 17.460649
#
# number of rings (size 3 to 8) (size 9 to 14) (size 15 to 20)
#    1.500    1.000    0.000    2.250    0.000    4.000 
#    4.500    0.000    0.000    0.000    0.000    0.000 
#    0.000    0.000    0.000    0.000    0.000    0.000 
#
# Total GULP energy -198254.355865 kJ/mol
# GULP energy per Si atom -12390.897242 kJ/mol
# Density = 1.742091 g / cm^3
# Si number density = 17.460649 Si / 1000 Ang^3
#
#
#
# Elastic Constant Matrix: (Units=GPa)
#
#
# Indices 1 2 3 4 5 6 
#
# 1 112.3429 50.8007 34.4496 0.0000 0.0000 0.0000
# 2 50.8007 81.3272 16.6971 0.0000 0.0000 0.0000
# 3 34.4496 16.6971 68.3655 0.0000 0.0000 0.0000
# 4 0.0000 0.0000 0.0000 24.5595 0.0000 0.0000
# 5 0.0000 0.0000 0.0000 0.0000 27.4572 0.0000
# 6 0.0000 0.0000 0.0000 0.0000 0.0000 21.8773
#
#
#
# Elastic Compliance Matrix: (Units=1/GPa)
#
#
# Indices 1 2 3 4 5 6 
#
# 1 0.013942 -0.007650 -0.005157 0.000000 0.000000 0.000000
# 2 -0.007650 0.017143 -0.000332 0.000000 0.000000 0.000000
# 3 -0.005157 -0.000332 0.017307 0.000000 0.000000 0.000000
# 4 0.000000 0.000000 0.000000 0.040717 0.000000 0.000000
# 5 0.000000 0.000000 0.000000 0.000000 0.036420 0.000000
# 6 0.000000 0.000000 0.000000 0.000000 0.000000 0.045709
#
#
# Mechanical properties :
#
#
# Convention : Reuss Voigt Hill
#
# Bulk Modulus (GPa) = 45.22084 51.77003 48.49544
# Shear Modulus (GPa) = 24.40358 25.45137 24.92747
#
# Velocity S-wave (km/s) = 3.74255 3.82205 3.78251
# Velocity P-wave (km/s) = 6.68061 7.01365 6.84915
#
# Compressibility (1/GPa) = 0.02211370
#
# Stress axis : x y z
#
# Youngs Moduli (GPa) = 71.72577 58.33386 57.78020
#
# Poissons Ratio (x) = 0.44626 0.29797
# Poissons Ratio (y) = 0.54870 0.01918
# Poissons Ratio (z) = 0.36989 0.01936
#
# Static dielectric constant tensor:
#      x y z
#    x 3.374890 0.000000 0.000000 
#    y 0.000000 3.095360 0.000000 
#    z 0.000000 0.000000 3.006990 
# 
# 
# High freq. dielectric constant tensor:
#      x y z
#    x 1.697780 0.000000 0.000000 
#    y 0.000000 1.657330 0.000000 
#    z 0.000000 0.000000 1.655630 
# 
# From -- ./inp_files/1203.got.cif
#   From: 2010.03.12/outbox.cif.g09.slc.cpg/sg26_1_cif.got.tgz:1203.got - 2010.04.14 03:33:09.
