data_PCOD8167982
_publ_section_title
;
Structure prediction by ZEFSAII (Michael W. Deem and Ramdas Pophale) SiO2 
 PCOD8167982
Probable space group: P M A 2
;
_chemical_formula_sum "Si O2"
_cell_formula_units_Z 32
_cell_length_a 8.627530
_cell_length_b 9.587403
_cell_length_c 21.024461
_cell_angle_alpha 90.000000
_cell_angle_beta 90.000000
_cell_angle_gamma 90.000000
_cell_volume 1739.051054
_symmetry_space_group_name_H-M "P M A 2"
_symmetry_group_IT_number 28
_symmetry_cell_setting 'orthorhombic'
loop_
_space_group_symop_operation_xyz
x,y,z
-x,-y,z
1/2-x,y,z
1/2+x,-y,z
loop_
_atom_site_type_symbol
_atom_site_label
_atom_site_fract_x
_atom_site_fract_y
_atom_site_fract_z
Si Si1 0.430521 0.153825 0.796950
Si Si2 0.566255 0.655409 0.031217
Si Si3 0.428319 0.151080 0.656373
Si Si4 0.067408 0.153131 0.403466
Si Si5 0.933230 0.653135 0.287211
Si Si6 0.932557 0.155248 0.532284
Si Si7 0.066246 0.655383 0.158274
Si Si8 0.567449 0.346995 0.902484
O O1 0.250000 0.149084 0.816144
O O2 0.449885 0.220522 0.725893
O O3 0.526465 0.252401 0.842914
O O4 0.500000 0.000000 0.801667
O O5 0.500000 0.500000 0.030409
O O6 0.750000 0.655700 0.033268
O O7 0.505342 0.725391 0.965992
O O8 0.499908 0.732202 0.094742
O O9 0.250000 0.137666 0.637510
O O10 0.513543 0.232929 0.597868
O O11 0.500000 0.000000 0.663516
O O12 0.250000 0.140991 0.409226
O O13 0.015609 0.250505 0.345571
O O14 0.001548 0.224104 0.468253
O O15 0.000000 0.000000 0.392032
O O16 0.750000 0.642898 0.279470
O O17 0.000000 0.500000 0.299547
O O18 0.004819 0.724949 0.223490
O O19 0.750000 0.154897 0.527250
O O20 0.000000 0.000000 0.536077
O O21 0.250000 0.655486 0.156383
O O22 0.000000 0.500000 0.158966
O O23 0.500000 0.500000 0.890515
O O24 0.750000 0.358575 0.911177
#
# Coordination Sequence:
#
# PCOD8167982 Si02
#       8
#     4   4   4   4   4   4   4   4
#     4  10  20  34  52  76 103 134 168 205 249 297
#     4  10  17  28  46  69  97 126 161 204 246 289
#     4   9  16  27  45  68  96 125 159 201 243 285
#     4  10  20  33  50  72  99 129 163 200 242 289
#     4  10  20  33  50  73  99 129 162 199 242 289
#     4  10  17  26  44  68  95 124 159 200 243 285
#     4  10  17  27  45  69  96 125 159 200 243 286
#     4  11  21  34  52  75 103 134 168 207 250 298
#
# _framework density 18.400839999999999
#
# number of rings (size 3 to 8) (size 9 to 14) (size 15 to 20)
#    0.000    2.000    0.000    9.750    0.000    3.500 
#    0.000    0.000    0.000    1.500    0.000    7.000 
#    0.000    0.000    0.000    0.000    0.000    0.000 
#
# Total GULP energy -396562.233640 kJ/mol
# GULP energy per Si atom -12392.569801 kJ/mol
# Density = 1.835896 g / cm^3
# Si number density = 18.400840 Si / 1000 Ang^3
#
#
#
# Elastic Constant Matrix: (Units=GPa)
#
#
# Indices 1 2 3 4 5 6 
#
# 1 141.3696 21.7590 70.4952 0.0000 0.0000 0.0000
# 2 21.7590 36.0268 42.4302 0.0000 0.0000 0.0000
# 3 70.4952 42.4302 189.6485 0.0000 0.0000 0.0000
# 4 0.0000 0.0000 0.0000 20.8809 0.0000 0.0000
# 5 0.0000 0.0000 0.0000 0.0000 18.9361 0.0000
# 6 0.0000 0.0000 0.0000 0.0000 0.0000 17.3998
#
#
#
# Elastic Compliance Matrix: (Units=1/GPa)
#
#
# Indices 1 2 3 4 5 6 
#
# 1 0.008786 -0.001983 -0.002822 0.000000 0.000000 0.000000
# 2 -0.001983 0.038135 -0.007795 0.000000 0.000000 0.000000
# 3 -0.002822 -0.007795 0.008066 0.000000 0.000000 0.000000
# 4 0.000000 0.000000 0.000000 0.047891 0.000000 0.000000
# 5 0.000000 0.000000 0.000000 0.000000 0.052809 0.000000
# 6 0.000000 0.000000 0.000000 0.000000 0.000000 0.057472
#
#
# Mechanical properties :
#
#
# Convention : Reuss Voigt Hill
#
# Bulk Modulus (GPa) = 33.57130 70.71265 52.14198
# Shear Modulus (GPa) = 20.13789 26.93406 23.53598
#
# Velocity S-wave (km/s) = 3.31176 3.83004 3.58029
# Velocity P-wave (km/s) = 5.73653 7.62046 6.74459
#
# Compressibility (1/GPa) = 0.02978734
#
# Stress axis : x y z
#
# Youngs Moduli (GPa) = 113.81452 26.22256 123.97644
#
# Poissons Ratio (x) = 0.05199 0.34991
# Poissons Ratio (y) = 0.22564 0.96640
# Poissons Ratio (z) = 0.32123 0.20441
#
# Static dielectric constant tensor:
#      x y z
#    x 3.647770 0.000000 0.000000 
#    y 0.000000 2.764530 0.000000 
#    z 0.000000 0.000000 4.913870 
# 
# 
# High freq. dielectric constant tensor:
#      x y z
#    x 1.738140 0.000000 0.000000 
#    y 0.000000 1.631500 0.000000 
#    z 0.000000 0.000000 1.751570 
# 
# From -- ./inp_files/6943.got.cif
#   From: 2010.03.12/outbox.cif.g09.slc.cpg/sg28_4_cif.got.tgz:6943.got - 2010.04.14 03:39:34.
