data_PCOD8167570
_publ_section_title
;
Structure prediction by ZEFSAII (Michael W. Deem and Ramdas Pophale) SiO2 
 PCOD8167570
Probable space group: P M C 21
;
_chemical_formula_sum "Si O2"
_cell_formula_units_Z 32
_cell_length_a 8.485126
_cell_length_b 12.059771
_cell_length_c 15.431909
_cell_angle_alpha 90.000000
_cell_angle_beta 90.000000
_cell_angle_gamma 90.000000
_cell_volume 1579.126823
_symmetry_space_group_name_H-M "P M C 21"
_symmetry_group_IT_number 26
_symmetry_cell_setting 'orthorhombic'
loop_
_space_group_symop_operation_xyz
x,y,z
-x,-y,1/2+z
-x,y,z
x,-y,1/2+z
loop_
_atom_site_type_symbol
_atom_site_label
_atom_site_fract_x
_atom_site_fract_y
_atom_site_fract_z
Si Si1 0.817245 0.969021 0.366730
Si Si2 0.315422 0.101225 0.209072
Si Si3 0.686470 0.505786 0.054413
Si Si4 0.317139 0.489427 0.862536
Si Si5 0.820599 0.267113 0.803862
Si Si6 0.682258 0.257237 0.624944
Si Si7 0.687733 0.355426 0.210495
Si Si8 0.816559 0.045769 0.556416
O O1 0.776255 0.839233 0.360685
O O2 0.770750 0.995639 0.464333
O O3 0.000000 0.990833 0.345385
O O4 0.716245 0.043006 0.300854
O O5 0.500000 0.096602 0.188962
O O6 0.254869 0.228462 0.212883
O O7 0.224968 0.040241 0.132034
O O8 0.500000 0.492480 0.049430
O O9 0.736510 0.627527 0.084141
O O10 0.753250 0.415191 0.122944
O O11 0.761616 0.491837 0.958314
O O12 0.500000 0.516244 0.872050
O O13 0.295938 0.367087 0.824820
O O14 0.244346 0.579866 0.795474
O O15 0.793754 0.230305 0.705555
O O16 0.000000 0.305026 0.818993
O O17 0.500000 0.260880 0.652788
O O18 0.713298 0.157401 0.559018
O O19 0.500000 0.363961 0.211433
O O20 0.000000 0.074994 0.562641
#
# Coordination Sequence:
#
# PCOD8167570 Si02
#       8
#     4   4   4   4   4   4   4   4
#     4  10  24  43  61  82 120 166 199 241 305 362
#     4  11  23  38  62  91 120 154 201 255 298 352
#     4   9  19  35  59  88 117 150 190 240 298 346
#     4  10  20  37  62  86 116 156 193 241 297 347
#     4  11  22  39  61  86 119 157 199 247 294 354
#     4  11  21  38  65  91 115 152 202 252 300 354
#     4   9  19  36  55  85 121 150 188 239 293 346
#     4  11  24  42  61  85 122 163 200 245 305 363
#
# _framework density 20.264365000000002
#
# number of rings (size 3 to 8) (size 9 to 14) (size 15 to 20)
#    0.000    1.750    2.500    1.500    3.500    1.500 
#    0.000    2.500    0.000    0.000    0.000    0.000 
#    0.000    0.000    0.000    0.000    0.000    0.000 
#
# Total GULP energy -396818.638850 kJ/mol
# GULP energy per Si atom -12400.582464 kJ/mol
# Density = 2.021824 g / cm^3
# Si number density = 20.264365 Si / 1000 Ang^3
#
#
#
# Elastic Constant Matrix: (Units=GPa)
#
#
# Indices 1 2 3 4 5 6 
#
# 1 22.1525 23.5849 18.8672 0.0000 0.0000 0.0000
# 2 23.5849 124.8245 38.5588 0.0000 0.0000 0.0000
# 3 18.8672 38.5588 127.5982 0.0000 0.0000 0.0000
# 4 0.0000 0.0000 0.0000 34.2543 0.0000 0.0000
# 5 0.0000 0.0000 0.0000 0.0000 16.5981 0.0000
# 6 0.0000 0.0000 0.0000 0.0000 0.0000 15.9864
#
#
#
# Elastic Compliance Matrix: (Units=1/GPa)
#
#
# Indices 1 2 3 4 5 6 
#
# 1 0.060471 -0.009556 -0.006054 0.000000 0.000000 0.000000
# 2 -0.009556 0.010346 -0.001714 0.000000 0.000000 0.000000
# 3 -0.006054 -0.001714 0.009250 0.000000 0.000000 0.000000
# 4 0.000000 0.000000 0.000000 0.029193 0.000000 0.000000
# 5 0.000000 0.000000 0.000000 0.000000 0.060248 0.000000
# 6 0.000000 0.000000 0.000000 0.000000 0.000000 0.062553
#
#
# Mechanical properties :
#
#
# Convention : Reuss Voigt Hill
#
# Bulk Modulus (GPa) = 22.01611 48.51079 35.26345
# Shear Modulus (GPa) = 17.74002 26.27205 22.00603
#
# Velocity S-wave (km/s) = 2.96198 3.60455 3.29895
# Velocity P-wave (km/s) = 4.75245 6.42765 5.65245
#
# Compressibility (1/GPa) = 0.04542129
#
# Stress axis : x y z
#
# Youngs Moduli (GPa) = 16.53674 96.65532 108.10725
#
# Poissons Ratio (x) = 0.92360 0.65448
# Poissons Ratio (y) = 0.15802 0.18524
# Poissons Ratio (z) = 0.10011 0.16562
#
# Static dielectric constant tensor:
#      x y z
#    x 3.317700 0.000000 0.000000 
#    y 0.000000 3.784100 0.000000 
#    z 0.000000 0.000000 3.944110 
# 
# 
# High freq. dielectric constant tensor:
#      x y z
#    x 1.760970 0.000000 0.000000 
#    y 0.000000 1.803820 0.000000 
#    z 0.000000 0.000000 1.803290 
# 
# From -- ./inp_files/4271.got.cif
#   From: 2010.03.12/outbox.cif.g09.slc.cpg/sg26_3_cif.got.tgz:4271.got - 2010.04.14 03:33:09.
