data_PCOD8167703
_publ_section_title
;
Structure prediction by ZEFSAII (Michael W. Deem and Ramdas Pophale) SiO2 
 PCOD8167703
Probable space group: P M C 21
;
_chemical_formula_sum "Si O2"
_cell_formula_units_Z 18
_cell_length_a 7.136238
_cell_length_b 13.383237
_cell_length_c 9.433964
_cell_angle_alpha 90.000000
_cell_angle_beta 90.000000
_cell_angle_gamma 90.000000
_cell_volume 900.999830
_symmetry_space_group_name_H-M "P M C 21"
_symmetry_group_IT_number 26
_symmetry_cell_setting 'orthorhombic'
loop_
_space_group_symop_operation_xyz
x,y,z
-x,-y,1/2+z
-x,y,z
x,-y,1/2+z
loop_
_atom_site_type_symbol
_atom_site_label
_atom_site_fract_x
_atom_site_fract_y
_atom_site_fract_z
Si Si1 0.720020 0.907124 0.745650
Si Si2 0.000000 0.374376 0.912888
Si Si3 0.000000 0.603110 0.854025
Si Si4 0.277643 0.905998 0.066102
Si Si5 0.277523 0.310205 0.141189
Si Si6 0.000000 0.259590 0.625706
O O1 0.500000 0.914642 0.750851
O O2 0.781942 0.803018 0.676897
O O3 0.797484 0.997231 0.650116
O O4 0.796772 0.916672 0.905253
O O5 0.000000 0.493340 0.917656
O O6 0.000000 0.337403 0.752924
O O7 0.811478 0.335534 0.989321
O O8 0.812878 0.618275 0.760047
O O9 0.000000 0.680601 0.980765
O O10 0.500000 0.892783 0.075316
O O11 0.185784 0.808344 0.135526
O O12 0.500000 0.326863 0.137547
#
# Coordination Sequence:
#
# PCOD8167703 Si02
#       6
#     4   2   2   4   4   2
#     4   9  19  38  62  89 123 163 203 249 301 364
#     4  11  27  42  62  95 128 158 210 270 308 359
#     4  11  23  46  66  88 124 159 213 270 309 357
#     4  10  22  38  60  92 128 162 203 252 303 368
#     4  10  22  44  69  89 124 170 205 249 316 375
#     4  12  24  38  64  93 124 167 203 254 317 370
#
# _framework density 19.977806999999999
#
# number of rings (size 3 to 8) (size 9 to 14) (size 15 to 20)
#    0.000    1.778    2.222    1.333    3.111    4.444 
#    0.000    2.222    0.000    0.000    0.000    0.000 
#    0.000    0.000    0.000    0.000    0.000    0.000 
#
# Total GULP energy -223222.953008 kJ/mol
# GULP energy per Si atom -12401.275167 kJ/mol
# Density = 1.993234 g / cm^3
# Si number density = 19.977807 Si / 1000 Ang^3
#
#
#
# Elastic Constant Matrix: (Units=GPa)
#
#
# Indices 1 2 3 4 5 6 
#
# 1 120.0885 30.2596 31.4735 0.0000 0.0000 0.0000
# 2 30.2596 106.5734 18.9141 0.0000 0.0000 0.0000
# 3 31.4735 18.9141 76.3050 0.0000 0.0000 0.0000
# 4 0.0000 0.0000 0.0000 44.9039 0.0000 0.0000
# 5 0.0000 0.0000 0.0000 0.0000 24.6167 0.0000
# 6 0.0000 0.0000 0.0000 0.0000 0.0000 25.6388
#
#
#
# Elastic Compliance Matrix: (Units=1/GPa)
#
#
# Indices 1 2 3 4 5 6 
#
# 1 0.009789 -0.002158 -0.003503 0.000000 0.000000 0.000000
# 2 -0.002158 0.010291 -0.001661 0.000000 0.000000 0.000000
# 3 -0.003503 -0.001661 0.014962 0.000000 0.000000 0.000000
# 4 0.000000 0.000000 0.000000 0.022270 0.000000 0.000000
# 5 0.000000 0.000000 0.000000 0.000000 0.040623 0.000000
# 6 0.000000 0.000000 0.000000 0.000000 0.000000 0.039003
#
#
# Mechanical properties :
#
#
# Convention : Reuss Voigt Hill
#
# Bulk Modulus (GPa) = 49.02278 51.58460 50.30369
# Shear Modulus (GPa) = 31.56974 33.85318 32.71146
#
# Velocity S-wave (km/s) = 3.97954 4.12094 4.05086
# Velocity P-wave (km/s) = 6.76073 6.96562 6.86394
#
# Compressibility (1/GPa) = 0.02039868
#
# Stress axis : x y z
#
# Youngs Moduli (GPa) = 102.15626 97.17607 66.83700
#
# Poissons Ratio (x) = 0.20968 0.23412
# Poissons Ratio (y) = 0.22043 0.11100
# Poissons Ratio (z) = 0.35783 0.16139
#
# Static dielectric constant tensor:
#      x y z
#    x 3.588370 0.000000 0.000000 
#    y 0.000000 3.717820 0.000000 
#    z 0.000000 0.000000 3.797640 
# 
# 
# High freq. dielectric constant tensor:
#      x y z
#    x 1.784780 0.000000 0.000000 
#    y 0.000000 1.782620 0.000000 
#    z 0.000000 0.000000 1.786720 
# 
# From -- ./inp_files/1260.got.cif
#   From: 2010.03.12/outbox.cif.g09.slc.cpg/sg26_1_cif.got.tgz:1260.got - 2010.04.14 03:33:09.
