data_PCOD8167125
_publ_section_title
;
Structure prediction by ZEFSAII (Michael W. Deem and Ramdas Pophale) SiO2 
 PCOD8167125
Probable space group: P M C 21
;
_chemical_formula_sum "Si O2"
_cell_formula_units_Z 32
_cell_length_a 8.956683
_cell_length_b 10.405250
_cell_length_c 19.075879
_cell_angle_alpha 90.000000
_cell_angle_beta 90.000000
_cell_angle_gamma 90.000000
_cell_volume 1777.805649
_symmetry_space_group_name_H-M "P M C 21"
_symmetry_group_IT_number 26
_symmetry_cell_setting 'orthorhombic'
loop_
_space_group_symop_operation_xyz
x,y,z
-x,-y,1/2+z
-x,y,z
x,-y,1/2+z
loop_
_atom_site_type_symbol
_atom_site_label
_atom_site_fract_x
_atom_site_fract_y
_atom_site_fract_z
Si Si1 0.676349 0.373321 0.105450
Si Si2 0.827295 0.998166 0.241383
Si Si3 0.823017 0.721475 0.895781
Si Si4 0.324323 0.882981 0.116283
Si Si5 0.170230 0.015257 0.899646
Si Si6 0.323836 0.125998 0.025776
Si Si7 0.676689 0.369228 0.532189
Si Si8 0.676453 0.268621 0.252111
O O1 0.500000 0.368815 0.097851
O O2 0.744003 0.254015 0.061244
O O3 0.737119 0.506355 0.073706
O O4 0.719448 0.362046 0.187387
O O5 0.808600 0.941973 0.319403
O O6 0.732057 0.127113 0.231656
O O7 0.000000 0.029961 0.226030
O O8 0.764116 0.889629 0.189470
O O9 0.773573 0.868630 0.909003
O O10 0.755974 0.675950 0.821351
O O11 0.000000 0.707228 0.892093
O O12 0.756482 0.633072 0.956869
O O13 0.500000 0.885877 0.131387
O O14 0.275273 0.753548 0.077480
O O15 0.270710 0.002664 0.069611
O O16 0.000000 0.025343 0.923879
O O17 0.265439 0.112393 0.946662
O O18 0.500000 0.132900 0.023008
O O19 0.500000 0.372563 0.519761
O O20 0.500000 0.262772 0.264631
#
# Coordination Sequence:
#
# PCOD8167125 Si02
#       8
#     4   4   4   4   4   4   4   4
#     4   9  19  35  54  78 108 136 171 220 266 310
#     4  10  20  33  51  78 110 141 175 218 269 317
#     4  10  20  34  52  79 110 138 175 220 263 318
#     4  10  19  32  53  80 103 130 177 220 257 310
#     4   9  19  33  49  75 107 137 171 212 261 315
#     4  10  18  32  53  79 103 129 171 220 262 306
#     4  10  20  36  56  78 105 141 179 217 264 317
#     4  10  18  33  56  79 106 140 177 221 266 313
#
# _framework density 17.999718000000001
#
# number of rings (size 3 to 8) (size 9 to 14) (size 15 to 20)
#    0.000    2.250    2.500    1.875    0.000    3.500 
#    0.000    3.125    0.000    6.000    0.000    0.000 
#    0.000    0.000    0.000    0.000    0.000    0.000 
#
# Total GULP energy -396832.118581 kJ/mol
# GULP energy per Si atom -12401.003706 kJ/mol
# Density = 1.795875 g / cm^3
# Si number density = 17.999718 Si / 1000 Ang^3
#
#
#
# Elastic Constant Matrix: (Units=GPa)
#
#
# Indices 1 2 3 4 5 6 
#
# 1 51.8173 31.0025 48.8112 0.0000 0.0000 0.0000
# 2 31.0025 113.5552 74.3675 0.0000 0.0000 0.0000
# 3 48.8112 74.3675 154.4324 0.0000 0.0000 0.0000
# 4 0.0000 0.0000 0.0000 30.9755 0.0000 0.0000
# 5 0.0000 0.0000 0.0000 0.0000 25.9291 0.0000
# 6 0.0000 0.0000 0.0000 0.0000 0.0000 13.3356
#
#
#
# Elastic Compliance Matrix: (Units=1/GPa)
#
#
# Indices 1 2 3 4 5 6 
#
# 1 0.028037 -0.002704 -0.007560 0.000000 0.000000 0.000000
# 2 -0.002704 0.013124 -0.005465 0.000000 0.000000 0.000000
# 3 -0.007560 -0.005465 0.011496 0.000000 0.000000 0.000000
# 4 0.000000 0.000000 0.000000 0.032284 0.000000 0.000000
# 5 0.000000 0.000000 0.000000 0.000000 0.038567 0.000000
# 6 0.000000 0.000000 0.000000 0.000000 0.000000 0.074988
#
#
# Mechanical properties :
#
#
# Convention : Reuss Voigt Hill
#
# Bulk Modulus (GPa) = 47.16948 69.79639 58.48294
# Shear Modulus (GPa) = 21.09533 25.08961 23.09247
#
# Velocity S-wave (km/s) = 3.42714 3.73753 3.58569
# Velocity P-wave (km/s) = 6.47479 7.58196 7.05014
#
# Compressibility (1/GPa) = 0.02120015
#
# Stress axis : x y z
#
# Youngs Moduli (GPa) = 35.66666 76.19858 86.98338
#
# Poissons Ratio (x) = 0.20603 0.65757
# Poissons Ratio (y) = 0.09644 0.47537
# Poissons Ratio (z) = 0.26963 0.41643
#
# Static dielectric constant tensor:
#      x y z
#    x 3.143330 0.000000 0.000000 
#    y 0.000000 3.254990 0.000000 
#    z 0.000000 0.000000 3.478210 
# 
# 
# High freq. dielectric constant tensor:
#      x y z
#    x 1.686130 0.000000 0.000000 
#    y 0.000000 1.667550 0.000000 
#    z 0.000000 0.000000 1.711230 
# 
# From -- ./inp_files/5021.got.cif
#   From: 2010.03.12/outbox.cif.g09.slc.cpg/sg26_3_cif.got.tgz:5021.got - 2010.04.14 03:33:09.
