data_PCOD8167471
_publ_section_title
;
Structure prediction by ZEFSAII (Michael W. Deem and Ramdas Pophale) SiO2 
 PCOD8167471
Probable space group: P M C 21
;
_chemical_formula_sum "Si O2"
_cell_formula_units_Z 32
_cell_length_a 8.910545
_cell_length_b 12.415371
_cell_length_c 13.839106
_cell_angle_alpha 90.000000
_cell_angle_beta 90.000000
_cell_angle_gamma 90.000000
_cell_volume 1530.988771
_symmetry_space_group_name_H-M "P M C 21"
_symmetry_group_IT_number 26
_symmetry_cell_setting 'orthorhombic'
loop_
_space_group_symop_operation_xyz
x,y,z
-x,-y,1/2+z
-x,y,z
x,-y,1/2+z
loop_
_atom_site_type_symbol
_atom_site_label
_atom_site_fract_x
_atom_site_fract_y
_atom_site_fract_z
Si Si1 0.166743 0.094044 0.415240
Si Si2 0.327836 0.250054 0.728649
Si Si3 0.327661 0.116963 0.906532
Si Si4 0.833617 0.942970 0.140519
Si Si5 0.326298 0.618308 0.704697
Si Si6 0.823462 0.422581 0.606447
Si Si7 0.324176 0.321920 0.416604
Si Si8 0.674417 0.848722 0.624613
O O1 0.158864 0.061784 0.526205
O O2 0.262836 0.201691 0.400086
O O3 0.000000 0.114067 0.373708
O O4 0.238233 0.987431 0.365436
O O5 0.500000 0.282764 0.709595
O O6 0.296914 0.221724 0.840326
O O7 0.288976 0.144660 0.668190
O O8 0.222331 0.347060 0.695877
O O9 0.500000 0.081706 0.902264
O O10 0.281512 0.156387 0.012238
O O11 0.000000 0.921633 0.184464
O O12 0.773859 0.059255 0.175696
O O13 0.500000 0.593938 0.682113
O O14 0.227180 0.541161 0.637619
O O15 0.294002 0.607626 0.819633
O O16 0.281142 0.738140 0.674638
O O17 0.750497 0.383039 0.506485
O O18 0.000000 0.418594 0.591167
O O19 0.500000 0.311842 0.437475
O O20 0.500000 0.876089 0.639232
#
# Coordination Sequence:
#
# PCOD8167471 Si02
#       8
#     4   4   4   4   4   4   4   4
#     4  10  20  35  57  88 127 165 205 253 309 370
#     4  11  22  37  60  89 122 166 214 257 305 369
#     4   9  20  36  58  89 125 166 209 252 307 372
#     4  10  20  34  55  87 124 161 201 252 312 370
#     4  10  24  44  67  94 121 162 216 263 315 375
#     4  12  26  44  65  92 127 165 210 264 323 379
#     4  11  23  41  66  92 122 163 211 262 309 373
#     4   9  19  39  62  87 122 160 202 255 308 370
#
# _framework density 20.901524999999999
#
# number of rings (size 3 to 8) (size 9 to 14) (size 15 to 20)
#    0.000    1.750    1.250    2.625    1.750    4.500 
#    0.000    2.500    0.000    0.000    0.000    0.000 
#    0.000    0.000    0.000    0.000    0.000    0.000 
#
# Total GULP energy -396785.238116 kJ/mol
# GULP energy per Si atom -12399.538691 kJ/mol
# Density = 2.085395 g / cm^3
# Si number density = 20.901525 Si / 1000 Ang^3
#
#
#
# Elastic Constant Matrix: (Units=GPa)
#
#
# Indices 1 2 3 4 5 6 
#
# 1 114.8253 40.4067 35.9567 0.0000 0.0000 0.0000
# 2 40.4067 82.6329 19.7010 0.0000 0.0000 0.0000
# 3 35.9567 19.7010 54.7654 0.0000 0.0000 0.0000
# 4 0.0000 0.0000 0.0000 22.9057 0.0000 0.0000
# 5 0.0000 0.0000 0.0000 0.0000 20.6665 0.0000
# 6 0.0000 0.0000 0.0000 0.0000 0.0000 29.3311
#
#
#
# Elastic Compliance Matrix: (Units=1/GPa)
#
#
# Indices 1 2 3 4 5 6 
#
# 1 0.012311 -0.004477 -0.006472 0.000000 0.000000 0.000000
# 2 -0.004477 0.014865 -0.002408 0.000000 0.000000 0.000000
# 3 -0.006472 -0.002408 0.023376 0.000000 0.000000 0.000000
# 4 0.000000 0.000000 0.000000 0.043657 0.000000 0.000000
# 5 0.000000 0.000000 0.000000 0.000000 0.048387 0.000000
# 6 0.000000 0.000000 0.000000 0.000000 0.000000 0.034093
#
#
# Mechanical properties :
#
#
# Convention : Reuss Voigt Hill
#
# Bulk Modulus (GPa) = 41.95211 49.37249 45.66230
# Shear Modulus (GPa) = 23.65741 24.99128 24.32435
#
# Velocity S-wave (km/s) = 3.36795 3.46159 3.41509
# Velocity P-wave (km/s) = 5.93624 6.29679 6.11918
#
# Compressibility (1/GPa) = 0.02383670
#
# Stress axis : x y z
#
# Youngs Moduli (GPa) = 81.22766 67.27213 42.77979
#
# Poissons Ratio (x) = 0.30117 0.27689
# Poissons Ratio (y) = 0.36364 0.10302
# Poissons Ratio (z) = 0.52574 0.16200
#
# Static dielectric constant tensor:
#      x y z
#    x 3.951840 0.000000 0.000000 
#    y 0.000000 3.762320 0.000000 
#    z 0.000000 0.000000 3.933460 
# 
# 
# High freq. dielectric constant tensor:
#      x y z
#    x 1.819310 0.000000 0.000000 
#    y 0.000000 1.810810 0.000000 
#    z 0.000000 0.000000 1.827040 
# 
# From -- ./inp_files/4125.got.cif
#   From: 2010.03.12/outbox.cif.g09.slc.cpg/sg26_3_cif.got.tgz:4125.got - 2010.04.14 03:33:09.
