data_PCOD8167354
_publ_section_title
;
Structure prediction by ZEFSAII (Michael W. Deem and Ramdas Pophale) SiO2 
 PCOD8167354
Probable space group: P M C 21
;
_chemical_formula_sum "Si O2"
_cell_formula_units_Z 32
_cell_length_a 9.060175
_cell_length_b 14.209322
_cell_length_c 12.472152
_cell_angle_alpha 90.000000
_cell_angle_beta 90.000000
_cell_angle_gamma 90.000000
_cell_volume 1605.651677
_symmetry_space_group_name_H-M "P M C 21"
_symmetry_group_IT_number 26
_symmetry_cell_setting 'orthorhombic'
loop_
_space_group_symop_operation_xyz
x,y,z
-x,-y,1/2+z
-x,y,z
x,-y,1/2+z
loop_
_atom_site_type_symbol
_atom_site_label
_atom_site_fract_x
_atom_site_fract_y
_atom_site_fract_z
Si Si1 0.662906 0.869438 0.271510
Si Si2 0.830415 0.750857 0.983006
Si Si3 0.325225 0.675822 0.574303
Si Si4 0.827504 0.373298 0.291254
Si Si5 0.173777 0.854426 0.488590
Si Si6 0.172864 0.945001 0.082220
Si Si7 0.339009 0.329929 0.666601
Si Si8 0.675150 0.552277 0.367601
O O1 0.500000 0.905537 0.307869
O O2 0.766923 0.844015 0.369591
O O3 0.741954 0.945479 0.195473
O O4 0.643545 0.775855 0.204683
O O5 0.776507 0.857967 0.005526
O O6 0.756737 0.671729 0.058983
O O7 0.000000 0.743922 0.012771
O O8 0.802213 0.723364 0.858806
O O9 0.500000 0.688151 0.582815
O O10 0.263849 0.627858 0.681547
O O11 0.251881 0.778278 0.564302
O O12 0.281524 0.610923 0.473444
O O13 0.765497 0.455759 0.367281
O O14 0.000000 0.388595 0.266333
O O15 0.000000 0.836161 0.491687
O O16 0.216747 0.958734 0.525350
O O17 0.000000 0.939934 0.107433
O O18 0.500000 0.371357 0.636574
O O19 0.269694 0.391729 0.761946
O O20 0.500000 0.534492 0.364602
#
# Coordination Sequence:
#
# PCOD8167354 Si02
#       8
#     4   4   4   4   4   4   4   4
#     4  10  19  35  57  85 117 152 200 254 304 360
#     4   9  20  39  59  84 120 158 198 249 302 358
#     4  11  24  44  65  89 124 163 207 253 307 370
#     4  11  25  41  60  91 127 162 203 252 307 365
#     4  11  22  37  61  90 122 161 204 255 312 368
#     4   9  20  38  59  85 118 161 207 250 307 367
#     4   9  18  35  59  84 111 147 194 248 299 353
#     4  10  22  41  62  86 117 158 201 249 304 361
#
# _framework density 19.929604999999999
#
# number of rings (size 3 to 8) (size 9 to 14) (size 15 to 20)
#    0.000    2.000    1.250    1.500    1.750    5.000 
#    0.000    2.500    0.000    0.000    0.000    0.000 
#    0.000    0.000    0.000    0.000    0.000    0.000 
#
# Total GULP energy -396751.256607 kJ/mol
# GULP energy per Si atom -12398.476769 kJ/mol
# Density = 1.988424 g / cm^3
# Si number density = 19.929605 Si / 1000 Ang^3
#
#
#
# Elastic Constant Matrix: (Units=GPa)
#
#
# Indices 1 2 3 4 5 6 
#
# 1 77.5932 43.8360 40.8265 0.0000 0.0000 0.0000
# 2 43.8360 90.2286 36.9734 0.0000 0.0000 0.0000
# 3 40.8265 36.9734 95.9090 0.0000 0.0000 0.0000
# 4 0.0000 0.0000 0.0000 16.4018 0.0000 0.0000
# 5 0.0000 0.0000 0.0000 0.0000 33.5783 0.0000
# 6 0.0000 0.0000 0.0000 0.0000 0.0000 27.4975
#
#
#
# Elastic Compliance Matrix: (Units=1/GPa)
#
#
# Indices 1 2 3 4 5 6 
#
# 1 0.020071 -0.007423 -0.005682 0.000000 0.000000 0.000000
# 2 -0.007423 0.015907 -0.002973 0.000000 0.000000 0.000000
# 3 -0.005682 -0.002973 0.013991 0.000000 0.000000 0.000000
# 4 0.000000 0.000000 0.000000 0.060969 0.000000 0.000000
# 5 0.000000 0.000000 0.000000 0.000000 0.029781 0.000000
# 6 0.000000 0.000000 0.000000 0.000000 0.000000 0.036367
#
#
# Mechanical properties :
#
#
# Convention : Reuss Voigt Hill
#
# Bulk Modulus (GPa) = 56.13464 56.33362 56.23413
# Shear Modulus (GPa) = 23.23637 24.96852 24.10244
#
# Velocity S-wave (km/s) = 3.41826 3.54338 3.48139
# Velocity P-wave (km/s) = 6.61868 6.71330 6.66616
#
# Compressibility (1/GPa) = 0.01781431
#
# Stress axis : x y z
#
# Youngs Moduli (GPa) = 49.82336 62.86450 71.47266
#
# Poissons Ratio (x) = 0.46662 0.40613
# Poissons Ratio (y) = 0.36982 0.21246
# Poissons Ratio (z) = 0.28311 0.18687
#
# Static dielectric constant tensor:
#      x y z
#    x 3.813130 0.000000 0.000000 
#    y 0.000000 3.690530 0.000000 
#    z 0.000000 0.000000 3.618720 
# 
# 
# High freq. dielectric constant tensor:
#      x y z
#    x 1.778980 0.000000 0.000000 
#    y 0.000000 1.773010 0.000000 
#    z 0.000000 0.000000 1.778720 
# 
# From -- ./inp_files/3002.got.cif
#   From: 2010.03.12/outbox.cif.g09.slc.cpg/sg26_2_cif.got.tgz:3002.got - 2010.04.14 03:33:09.
