data_PCOD8167585
_publ_section_title
;
Structure prediction by ZEFSAII (Michael W. Deem and Ramdas Pophale) SiO2 
 PCOD8167585
Probable space group: P M C 21
;
_chemical_formula_sum "Si O2"
_cell_formula_units_Z 32
_cell_length_a 8.819071
_cell_length_b 15.208147
_cell_length_c 11.908817
_cell_angle_alpha 90.000000
_cell_angle_beta 90.000000
_cell_angle_gamma 90.000000
_cell_volume 1597.231117
_symmetry_space_group_name_H-M "P M C 21"
_symmetry_group_IT_number 26
_symmetry_cell_setting 'orthorhombic'
loop_
_space_group_symop_operation_xyz
x,y,z
-x,-y,1/2+z
-x,y,z
x,-y,1/2+z
loop_
_atom_site_type_symbol
_atom_site_label
_atom_site_fract_x
_atom_site_fract_y
_atom_site_fract_z
Si Si1 0.321974 0.748285 0.199880
Si Si2 0.178876 0.108325 0.287709
Si Si3 0.823792 0.591137 0.338549
Si Si4 0.824260 0.393745 0.283427
Si Si5 0.827694 0.824186 0.545294
Si Si6 0.826478 0.088340 0.818092
Si Si7 0.676434 0.650635 0.551253
Si Si8 0.321841 0.744229 0.939110
O O1 0.500000 0.736067 0.218362
O O2 0.239508 0.667227 0.259530
O O3 0.271767 0.841246 0.250407
O O4 0.276856 0.746319 0.069428
O O5 0.226630 0.139437 0.164329
O O6 0.255803 0.169314 0.380318
O O7 0.000000 0.112251 0.307349
O O8 0.238928 0.008771 0.297003
O O9 0.794638 0.497603 0.281102
O O10 0.739226 0.583866 0.458183
O O11 0.000000 0.609664 0.360193
O O12 0.762365 0.356445 0.167904
O O13 0.742955 0.345660 0.386757
O O14 0.000000 0.370337 0.292988
O O15 0.815421 0.899406 0.452035
O O16 0.713660 0.747785 0.505115
O O17 0.000000 0.787944 0.552173
O O18 0.000000 0.096895 0.776441
O O19 0.500000 0.634514 0.569509
O O20 0.500000 0.744435 0.921083
#
# Coordination Sequence:
#
# PCOD8167585 Si02
#       8
#     4   4   4   4   4   4   4   4
#     4  11  25  43  62  91 129 166 206 258 319 379
#     4  10  22  39  64  94 124 164 212 261 311 371
#     4  11  25  44  67  94 124 164 214 261 308 371
#     4  11  25  44  67  94 124 164 214 261 308 371
#     4  10  20  38  62  91 126 161 208 263 306 364
#     4  10  22  39  64  94 124 164 212 261 311 371
#     4  12  24  40  66  95 128 165 204 257 318 374
#     4  11  25  43  62  91 129 166 206 258 319 379
#
# _framework density 20.034670999999999
#
# number of rings (size 3 to 8) (size 9 to 14) (size 15 to 20)
#    0.000    1.250    2.500    2.625    3.500    4.500 
#    0.000    0.000    0.000    0.000    0.000    0.000 
#    0.000    0.000    0.000    0.000    0.000    0.000 
#
# Total GULP energy -396935.525100 kJ/mol
# GULP energy per Si atom -12404.235159 kJ/mol
# Density = 1.998907 g / cm^3
# Si number density = 20.034671 Si / 1000 Ang^3
#
#
#
# Elastic Constant Matrix: (Units=GPa)
#
#
# Indices 1 2 3 4 5 6 
#
# 1 56.3595 43.6427 37.3641 0.0000 0.0000 0.0000
# 2 43.6427 121.1120 40.3535 0.0000 0.0000 0.0000
# 3 37.3641 40.3535 112.3045 0.0000 0.0000 0.0000
# 4 0.0000 0.0000 0.0000 25.4663 0.0000 0.0000
# 5 0.0000 0.0000 0.0000 0.0000 32.7720 0.0000
# 6 0.0000 0.0000 0.0000 0.0000 0.0000 8.0774
#
#
#
# Elastic Compliance Matrix: (Units=1/GPa)
#
#
# Indices 1 2 3 4 5 6 
#
# 1 0.028277 -0.008015 -0.006528 0.000000 0.000000 0.000000
# 2 -0.008015 0.011651 -0.001520 0.000000 0.000000 0.000000
# 3 -0.006528 -0.001520 0.011622 0.000000 0.000000 0.000000
# 4 0.000000 0.000000 0.000000 0.039268 0.000000 0.000000
# 5 0.000000 0.000000 0.000000 0.000000 0.030514 0.000000
# 6 0.000000 0.000000 0.000000 0.000000 0.000000 0.123802
#
#
# Mechanical properties :
#
#
# Convention : Reuss Voigt Hill
#
# Bulk Modulus (GPa) = 51.47870 59.16628 55.32249
# Shear Modulus (GPa) = 17.62202 24.49086 21.05644
#
# Velocity S-wave (km/s) = 2.96898 3.50011 3.24543
# Velocity P-wave (km/s) = 6.12403 6.77720 6.45888
#
# Compressibility (1/GPa) = 0.01942551
#
# Stress axis : x y z
#
# Youngs Moduli (GPa) = 35.36398 85.82683 86.04004
#
# Poissons Ratio (x) = 0.68787 0.56168
# Poissons Ratio (y) = 0.28343 0.13079
# Poissons Ratio (z) = 0.23086 0.13047
#
# Static dielectric constant tensor:
#      x y z
#    x 3.640180 0.000000 0.000000 
#    y 0.000000 3.722570 0.000000 
#    z 0.000000 0.000000 3.760180 
# 
# 
# High freq. dielectric constant tensor:
#      x y z
#    x 1.781610 0.000000 0.000000 
#    y 0.000000 1.789340 0.000000 
#    z 0.000000 0.000000 1.795950 
# 
# From -- ./inp_files/2932.got.cif
#   From: 2010.03.12/outbox.cif.g09.slc.cpg/sg26_2_cif.got.tgz:2932.got - 2010.04.14 03:33:09.
