data_PCOD8167647
_publ_section_title
;
Structure prediction by ZEFSAII (Michael W. Deem and Ramdas Pophale) SiO2 
 PCOD8167647
Probable space group: P M C 21
;
_chemical_formula_sum "Si O2"
_cell_formula_units_Z 32
_cell_length_a 9.350147
_cell_length_b 15.039038
_cell_length_c 11.994659
_cell_angle_alpha 90.000000
_cell_angle_beta 90.000000
_cell_angle_gamma 90.000000
_cell_volume 1686.655556
_symmetry_space_group_name_H-M "P M C 21"
_symmetry_group_IT_number 26
_symmetry_cell_setting 'orthorhombic'
loop_
_space_group_symop_operation_xyz
x,y,z
-x,-y,1/2+z
-x,y,z
x,-y,1/2+z
loop_
_atom_site_type_symbol
_atom_site_label
_atom_site_fract_x
_atom_site_fract_y
_atom_site_fract_z
Si Si1 0.160535 0.137570 0.397700
Si Si2 0.331743 0.741717 0.252438
Si Si3 0.665513 0.253160 0.009104
Si Si4 0.337505 0.896023 0.682538
Si Si5 0.839854 0.659777 0.897979
Si Si6 0.168026 0.613750 0.659608
Si Si7 0.664037 0.092152 0.602666
Si Si8 0.831400 0.591110 0.125875
O O1 0.230200 0.134249 0.277149
O O2 0.161310 0.238928 0.436871
O O3 0.247069 0.082770 0.489236
O O4 0.000000 0.099574 0.390393
O O5 0.500000 0.725241 0.238084
O O6 0.290516 0.759986 0.380647
O O7 0.282161 0.827857 0.181689
O O8 0.248983 0.654071 0.213002
O O9 0.500000 0.278938 0.019802
O O10 0.698720 0.160152 0.071457
O O11 0.754694 0.334272 0.060542
O O12 0.500000 0.876998 0.720458
O O13 0.313908 0.000239 0.666173
O O14 0.764422 0.645826 0.778225
O O15 0.000000 0.622937 0.881251
O O16 0.769104 0.606463 0.000634
O O17 0.201715 0.509916 0.654716
O O18 0.000000 0.634748 0.648893
O O19 0.500000 0.107020 0.568629
O O20 0.000000 0.613329 0.130844
#
# Coordination Sequence:
#
# PCOD8167647 Si02
#       8
#     4   4   4   4   4   4   4   4
#     4  11  21  37  61  86 119 150 186 243 293 339
#     4  10  22  39  57  82 117 151 188 238 288 334
#     4  10  22  39  57  82 117 151 188 238 288 334
#     4  10  22  39  62  86 113 153 198 238 282 342
#     4   9  18  35  55  82 115 144 182 237 285 327
#     4  10  21  37  60  85 112 150 193 233 281 342
#     4  10  22  39  62  86 113 153 198 238 282 342
#     4  10  21  37  60  85 112 150 193 233 281 342
#
# _framework density 18.972458
#
# number of rings (size 3 to 8) (size 9 to 14) (size 15 to 20)
#    0.000    2.000    2.500    0.375    3.500    1.500 
#    0.000    0.625    0.000    0.000    0.000    0.000 
#    0.000    0.000    0.000    0.000    0.000    0.000 
#
# Total GULP energy -396810.802018 kJ/mol
# GULP energy per Si atom -12400.337563 kJ/mol
# Density = 1.892928 g / cm^3
# Si number density = 18.972458 Si / 1000 Ang^3
#
#
#
# Elastic Constant Matrix: (Units=GPa)
#
#
# Indices 1 2 3 4 5 6 
#
# 1 62.0121 37.3223 48.1842 0.0000 0.0000 0.0000
# 2 37.3223 94.2425 33.3097 0.0000 0.0000 0.0000
# 3 48.1842 33.3097 127.8643 0.0000 0.0000 0.0000
# 4 0.0000 0.0000 0.0000 25.6665 0.0000 0.0000
# 5 0.0000 0.0000 0.0000 0.0000 27.4032 0.0000
# 6 0.0000 0.0000 0.0000 0.0000 0.0000 24.3070
#
#
#
# Elastic Compliance Matrix: (Units=1/GPa)
#
#
# Indices 1 2 3 4 5 6 
#
# 1 0.027260 -0.007891 -0.008217 0.000000 0.000000 0.000000
# 2 -0.007891 0.013971 -0.000666 0.000000 0.000000 0.000000
# 3 -0.008217 -0.000666 0.011091 0.000000 0.000000 0.000000
# 4 0.000000 0.000000 0.000000 0.038961 0.000000 0.000000
# 5 0.000000 0.000000 0.000000 0.000000 0.036492 0.000000
# 6 0.000000 0.000000 0.000000 0.000000 0.000000 0.041140
#
#
# Mechanical properties :
#
#
# Convention : Reuss Voigt Hill
#
# Bulk Modulus (GPa) = 53.26556 57.97236 55.61896
# Shear Modulus (GPa) = 23.95529 26.49551 25.22540
#
# Velocity S-wave (km/s) = 3.55721 3.74106 3.65030
# Velocity P-wave (km/s) = 6.70879 7.02020 6.86626
#
# Compressibility (1/GPa) = 0.01877386
#
# Stress axis : x y z
#
# Youngs Moduli (GPa) = 36.68385 71.57442 90.16581
#
# Poissons Ratio (x) = 0.56482 0.74088
# Poissons Ratio (y) = 0.28949 0.06004
# Poissons Ratio (z) = 0.30142 0.04766
#
# Static dielectric constant tensor:
#      x y z
#    x 3.364730 0.000000 0.000000 
#    y 0.000000 3.451210 0.000000 
#    z 0.000000 0.000000 3.571830 
# 
# 
# High freq. dielectric constant tensor:
#      x y z
#    x 1.718280 0.000000 0.000000 
#    y 0.000000 1.739790 0.000000 
#    z 0.000000 0.000000 1.750220 
# 
# From -- ./inp_files/3065.got.cif
#   From: 2010.03.12/outbox.cif.g09.slc.cpg/sg26_2_cif.got.tgz:3065.got - 2010.04.14 03:33:09.
