data_PCOD8167754
_publ_section_title
;
Structure prediction by ZEFSAII (Michael W. Deem and Ramdas Pophale) SiO2 
 PCOD8167754
Probable space group: P M C 21
;
_chemical_formula_sum "Si O2"
_cell_formula_units_Z 32
_cell_length_a 8.632840
_cell_length_b 11.425715
_cell_length_c 16.426574
_cell_angle_alpha 90.000000
_cell_angle_beta 90.000000
_cell_angle_gamma 90.000000
_cell_volume 1620.257622
_symmetry_space_group_name_H-M "P M C 21"
_symmetry_group_IT_number 26
_symmetry_cell_setting 'orthorhombic'
loop_
_space_group_symop_operation_xyz
x,y,z
-x,-y,1/2+z
-x,y,z
x,-y,1/2+z
loop_
_atom_site_type_symbol
_atom_site_label
_atom_site_fract_x
_atom_site_fract_y
_atom_site_fract_z
Si Si1 0.816553 0.195889 0.572390
Si Si2 0.816484 0.445084 0.861233
Si Si3 0.184727 0.930933 0.597593
Si Si4 0.170794 0.266715 0.987135
Si Si5 0.682497 0.302989 0.407892
Si Si6 0.322632 0.365970 0.694711
Si Si7 0.180346 0.789334 0.751218
Si Si8 0.830994 0.573649 0.640727
O O1 0.754969 0.257907 0.491882
O O2 0.743831 0.249383 0.654257
O O3 0.000000 0.207673 0.575348
O O4 0.762906 0.061089 0.576360
O O5 0.745758 0.335011 0.913165
O O6 0.740551 0.566930 0.887862
O O7 0.779285 0.410187 0.769752
O O8 0.000000 0.457460 0.875096
O O9 0.255804 0.847859 0.525351
O O10 0.242144 0.888789 0.687600
O O11 0.000000 0.913179 0.597406
O O12 0.000000 0.228283 0.957066
O O13 0.158025 0.361825 0.056700
O O14 0.500000 0.304958 0.418175
O O15 0.728233 0.210330 0.336757
O O16 0.500000 0.347346 0.719057
O O17 0.299585 0.473219 0.631436
O O18 0.211547 0.662334 0.713047
O O19 0.000000 0.809597 0.770396
O O20 0.000000 0.517102 0.659226
#
# Coordination Sequence:
#
# PCOD8167754 Si02
#       8
#     4   4   4   4   4   4   4   4
#     4  11  23  41  63  85 115 158 207 250 296 352
#     4  11  21  36  60  89 121 155 197 241 295 360
#     4   8  17  37  63  89 112 143 199 257 292 337
#     4   8  16  32  58  89 112 137 183 246 293 335
#     4  12  24  38  58  89 127 158 195 244 302 362
#     4  12  24  37  54  81 123 158 192 242 300 355
#     4   9  17  34  62  90 115 148 195 248 295 345
#     4   9  16  31  58  86 113 145 188 234 291 352
#
# _framework density 19.749946999999999
#
# number of rings (size 3 to 8) (size 9 to 14) (size 15 to 20)
#    0.000    2.000    1.250    5.250    0.000    1.000 
#    2.250    1.875    0.000    4.500    0.000    0.000 
#    0.000    0.000    0.000    0.000    0.000    0.000 
#
# Total GULP energy -396531.023590 kJ/mol
# GULP energy per Si atom -12391.594487 kJ/mol
# Density = 1.970499 g / cm^3
# Si number density = 19.749947 Si / 1000 Ang^3
#
#
#
# Elastic Constant Matrix: (Units=GPa)
#
#
# Indices 1 2 3 4 5 6 
#
# 1 56.0224 16.8367 16.3036 0.0000 0.0000 0.0000
# 2 16.8367 116.7576 55.4666 0.0000 0.0000 0.0000
# 3 16.3036 55.4666 76.9396 0.0000 0.0000 0.0000
# 4 0.0000 0.0000 0.0000 23.6455 0.0000 0.0000
# 5 0.0000 0.0000 0.0000 0.0000 10.5693 0.0000
# 6 0.0000 0.0000 0.0000 0.0000 0.0000 -1.5270
#
#
#
# Elastic Compliance Matrix: (Units=1/GPa)
#
#
# Indices 1 2 3 4 5 6 
#
# 1 0.019146 -0.001268 -0.003143 0.000000 0.000000 0.000000
# 2 -0.001268 0.013110 -0.009182 0.000000 0.000000 0.000000
# 3 -0.003143 -0.009182 0.020283 0.000000 0.000000 0.000000
# 4 0.000000 0.000000 0.000000 0.042291 0.000000 0.000000
# 5 0.000000 0.000000 0.000000 0.000000 0.094614 0.000000
# 6 0.000000 0.000000 0.000000 0.000000 0.000000 -0.654866
#
#
# Mechanical properties :
#
#
# Convention : Reuss Voigt Hill
#
# Bulk Modulus (GPa) = 39.44454 47.43705 43.44079
# Shear Modulus (GPa) = -11.63369 17.27841 2.82236
#
# Velocity S-wave (km/s) = -2.42967 2.96101 1.19672
# Velocity P-wave (km/s) = 3.48487 5.98006 4.89415
#
# Compressibility (1/GPa) = 0.02535205
#
# Stress axis : x y z
#
# Youngs Moduli (GPa) = 52.23109 76.27964 49.30280
#
# Poissons Ratio (x) = 0.09670 0.15496
# Poissons Ratio (y) = 0.06621 0.45271
# Poissons Ratio (z) = 0.16417 0.70042
#
# Static dielectric constant tensor:
#      x y z
#    x 3.372760 0.000000 0.000000 
#    y 0.000000 3.749930 0.000000 
#    z 0.000000 0.000000 3.907590 
# 
# 
# High freq. dielectric constant tensor:
#      x y z
#    x 1.737750 0.000000 0.000000 
#    y 0.000000 1.764420 0.000000 
#    z 0.000000 0.000000 1.778830 
# 
# From -- ./inp_files/4188.got.cif
#   From: 2010.03.12/outbox.cif.g09.slc.cpg/sg26_3_cif.got.tgz:4188.got - 2010.04.14 03:33:09.
