data_PCOD8167422
_publ_section_title
;
Structure prediction by ZEFSAII (Michael W. Deem and Ramdas Pophale) SiO2 
 PCOD8167422
Probable space group: P M C 21
;
_chemical_formula_sum "Si O2"
_cell_formula_units_Z 32
_cell_length_a 13.368794
_cell_length_b 9.143673
_cell_length_c 13.559820
_cell_angle_alpha 90.000000
_cell_angle_beta 90.000000
_cell_angle_gamma 90.000000
_cell_volume 1657.550780
_symmetry_space_group_name_H-M "P M C 21"
_symmetry_group_IT_number 26
_symmetry_cell_setting 'orthorhombic'
loop_
_space_group_symop_operation_xyz
x,y,z
-x,-y,1/2+z
-x,y,z
x,-y,1/2+z
loop_
_atom_site_type_symbol
_atom_site_label
_atom_site_fract_x
_atom_site_fract_y
_atom_site_fract_z
Si Si1 0.111907 0.669906 0.878740
Si Si2 0.617518 0.098636 0.299408
Si Si3 0.887245 0.853904 0.685781
Si Si4 0.299538 0.241313 0.491330
Si Si5 0.294325 0.676829 0.645726
Si Si6 0.385393 0.548741 0.460582
Si Si7 0.755619 0.123853 0.697174
Si Si8 0.236655 0.429579 0.784155
O O1 0.119066 0.798161 0.798103
O O2 0.185797 0.710285 0.967251
O O3 0.142297 0.514614 0.830626
O O4 0.000000 0.655910 0.921180
O O5 0.500000 0.070494 0.300107
O O6 0.655206 0.135542 0.408636
O O7 0.643981 0.231231 0.226082
O O8 0.672285 0.951551 0.265314
O O9 0.811799 0.755227 0.620755
O O10 0.000000 0.840846 0.643823
O O11 0.852393 0.021740 0.682132
O O12 0.368406 0.384325 0.498767
O O13 0.298830 0.155569 0.593725
O O14 0.355059 0.664550 0.544840
O O15 0.276257 0.515604 0.688538
O O16 0.500000 0.572415 0.433985
O O17 0.325299 0.583000 0.362181
O O18 0.796573 0.269643 0.749386
#
# Coordination Sequence:
#
# PCOD8167422 Si02
#       8
#     4   4   4   4   4   4   4   4
#     4   9  18  39  66  85 113 158 199 240 299 363
#     4  11  23  41  60  83 120 166 204 246 303 362
#     4   9  19  39  64  84 115 160 193 235 300 360
#     4  11  21  39  61  87 121 158 201 251 304 362
#     4  10  19  40  61  86 116 156 202 247 292 355
#     4  11  22  36  62  90 118 160 205 247 299 356
#     4  11  23  38  60  91 125 154 197 252 304 360
#     4  10  21  38  58  90 124 150 193 260 297 342
#
# _framework density 19.305592000000001
#
# number of rings (size 3 to 8) (size 9 to 14) (size 15 to 20)
#    0.000    1.750    6.250    0.750    0.000    5.000 
#    0.000    2.500    0.000    0.000    0.000    0.000 
#    0.000    0.000    0.000    0.000    0.000    0.000 
#
# Total GULP energy -396854.736939 kJ/mol
# GULP energy per Si atom -12401.710529 kJ/mol
# Density = 1.926165 g / cm^3
# Si number density = 19.305592 Si / 1000 Ang^3
#
#
#
# Elastic Constant Matrix: (Units=GPa)
#
#
# Indices 1 2 3 4 5 6 
#
# 1 88.8210 6.9445 21.3517 0.0000 0.0000 0.0000
# 2 6.9445 104.1783 38.3060 0.0000 0.0000 0.0000
# 3 21.3517 38.3060 61.7955 0.0000 0.0000 0.0000
# 4 0.0000 0.0000 0.0000 30.9296 0.0000 0.0000
# 5 0.0000 0.0000 0.0000 0.0000 19.0014 0.0000
# 6 0.0000 0.0000 0.0000 0.0000 0.0000 18.3440
#
#
#
# Elastic Compliance Matrix: (Units=1/GPa)
#
#
# Indices 1 2 3 4 5 6 
#
# 1 0.012353 0.000966 -0.004867 0.000000 0.000000 0.000000
# 2 0.000966 0.012508 -0.008088 0.000000 0.000000 0.000000
# 3 -0.004867 -0.008088 0.022877 0.000000 0.000000 0.000000
# 4 0.000000 0.000000 0.000000 0.032332 0.000000 0.000000
# 5 0.000000 0.000000 0.000000 0.000000 0.052628 0.000000
# 6 0.000000 0.000000 0.000000 0.000000 0.000000 0.054514
#
#
# Mechanical properties :
#
#
# Convention : Reuss Voigt Hill
#
# Bulk Modulus (GPa) = 42.08437 43.11102 42.59770
# Shear Modulus (GPa) = 22.81964 26.20116 24.51040
#
# Velocity S-wave (km/s) = 3.44178 3.68799 3.56701
# Velocity P-wave (km/s) = 6.13522 6.36509 6.25121
#
# Compressibility (1/GPa) = 0.02376179
#
# Stress axis : x y z
#
# Youngs Moduli (GPa) = 80.95140 79.94713 43.71114
#
# Poissons Ratio (x) = -0.07725 0.21275
# Poissons Ratio (y) = -0.07822 0.35351
# Poissons Ratio (z) = 0.39401 0.64657
#
# Static dielectric constant tensor:
#      x y z
#    x 3.604250 0.000000 0.000000 
#    y 0.000000 3.547040 0.000000 
#    z 0.000000 0.000000 3.382660 
# 
# 
# High freq. dielectric constant tensor:
#      x y z
#    x 1.749840 0.000000 0.000000 
#    y 0.000000 1.752520 0.000000 
#    z 0.000000 0.000000 1.740890 
# 
# From -- ./inp_files/3606.got.cif
#   From: 2010.03.12/outbox.cif.g09.slc.cpg/sg26_2_cif.got.tgz:3606.got - 2010.04.14 03:33:09.
