data_PCOD8167127
_publ_section_title
;
Structure prediction by ZEFSAII (Michael W. Deem and Ramdas Pophale) SiO2 
 PCOD8167127
Probable space group: P M C 21
;
_chemical_formula_sum "Si O2"
_cell_formula_units_Z 32
_cell_length_a 8.990704
_cell_length_b 12.452463
_cell_length_c 14.579550
_cell_angle_alpha 90.000000
_cell_angle_beta 90.000000
_cell_angle_gamma 90.000000
_cell_volume 1632.274061
_symmetry_space_group_name_H-M "P M C 21"
_symmetry_group_IT_number 26
_symmetry_cell_setting 'orthorhombic'
loop_
_space_group_symop_operation_xyz
x,y,z
-x,-y,1/2+z
-x,y,z
x,-y,1/2+z
loop_
_atom_site_type_symbol
_atom_site_label
_atom_site_fract_x
_atom_site_fract_y
_atom_site_fract_z
Si Si1 0.676455 0.907189 0.026190
Si Si2 0.670066 0.368253 0.305235
Si Si3 0.176390 0.097613 0.911479
Si Si4 0.833738 0.278891 0.044919
Si Si5 0.833763 0.169853 0.234214
Si Si6 0.673945 0.520689 0.625181
Si Si7 0.673467 0.043686 0.734146
Si Si8 0.671142 0.667377 0.006901
O O1 0.500000 0.918633 0.011909
O O2 0.722583 0.926226 0.131657
O O3 0.739130 0.787511 0.001707
O O4 0.753568 0.993093 0.960119
O O5 0.500000 0.331248 0.285390
O O6 0.784774 0.272977 0.290713
O O7 0.711521 0.464376 0.233761
O O8 0.689504 0.399715 0.411632
O O9 0.225514 0.208992 0.959682
O O10 0.235524 0.113384 0.808007
O O11 0.000000 0.083776 0.913945
O O12 0.000000 0.322799 0.027872
O O13 0.832313 0.194258 0.127199
O O14 0.730508 0.379915 0.064922
O O15 0.000000 0.135238 0.265522
O O16 0.714344 0.078950 0.255411
O O17 0.500000 0.517011 0.607439
O O18 0.742890 0.408459 0.586636
O O19 0.500000 0.062450 0.749843
O O20 0.500000 0.686744 0.031122
#
# Coordination Sequence:
#
# PCOD8167127 Si02
#       8
#     4   4   4   4   4   4   4   4
#     4  10  21  37  57  81 115 151 185 233 283 333
#     4   9  17  31  54  81 106 139 183 230 275 325
#     4  11  22  37  57  81 112 149 185 226 278 339
#     4   9  19  35  54  76 105 138 175 224 275 320
#     4  10  18  32  54  78 106 141 180 227 273 325
#     4   9  18  33  55  80 104 137 180 225 273 326
#     4  11  22  34  51  81 114 148 184 225 278 336
#     4   9  18  35  54  78 110 143 180 226 277 326
#
# _framework density 19.60455
#
# number of rings (size 3 to 8) (size 9 to 14) (size 15 to 20)
#    0.000    2.250    1.250    1.875    0.000    3.000 
#    2.250    1.250    0.000    0.000    0.000    0.000 
#    0.000    0.000    0.000    0.000    0.000    0.000 
#
# Total GULP energy -396604.211143 kJ/mol
# GULP energy per Si atom -12393.881598 kJ/mol
# Density = 1.955993 g / cm^3
# Si number density = 19.604550 Si / 1000 Ang^3
#
#
#
# Elastic Constant Matrix: (Units=GPa)
#
#
# Indices 1 2 3 4 5 6 
#
# 1 40.6701 18.0764 24.8151 0.0000 0.0000 0.0000
# 2 18.0764 55.4147 19.9803 0.0000 0.0000 0.0000
# 3 24.8151 19.9803 93.9421 0.0000 0.0000 0.0000
# 4 0.0000 0.0000 0.0000 24.4673 0.0000 0.0000
# 5 0.0000 0.0000 0.0000 0.0000 24.0821 0.0000
# 6 0.0000 0.0000 0.0000 0.0000 0.0000 14.5011
#
#
#
# Elastic Compliance Matrix: (Units=1/GPa)
#
#
# Indices 1 2 3 4 5 6 
#
# 1 0.032348 -0.008092 -0.006824 0.000000 0.000000 0.000000
# 2 -0.008092 0.021569 -0.002450 0.000000 0.000000 0.000000
# 3 -0.006824 -0.002450 0.012968 0.000000 0.000000 0.000000
# 4 0.000000 0.000000 0.000000 0.040871 0.000000 0.000000
# 5 0.000000 0.000000 0.000000 0.000000 0.041525 0.000000
# 6 0.000000 0.000000 0.000000 0.000000 0.000000 0.068960
#
#
# Mechanical properties :
#
#
# Convention : Reuss Voigt Hill
#
# Bulk Modulus (GPa) = 31.09998 35.08560 33.09279
# Shear Modulus (GPa) = 18.96166 21.08711 20.02438
#
# Velocity S-wave (km/s) = 3.11337 3.28323 3.19943
# Velocity P-wave (km/s) = 5.36863 5.68404 5.52858
#
# Compressibility (1/GPa) = 0.03215436
#
# Stress axis : x y z
#
# Youngs Moduli (GPa) = 30.91372 46.36374 77.11004
#
# Poissons Ratio (x) = 0.37516 0.52619
# Poissons Ratio (y) = 0.25014 0.18892
# Poissons Ratio (z) = 0.21095 0.11359
#
# Static dielectric constant tensor:
#      x y z
#    x 3.444250 0.000000 0.000000 
#    y 0.000000 3.514710 0.000000 
#    z 0.000000 0.000000 3.832420 
# 
# 
# High freq. dielectric constant tensor:
#      x y z
#    x 1.745430 0.000000 0.000000 
#    y 0.000000 1.747120 0.000000 
#    z 0.000000 0.000000 1.772560 
# 
# From -- ./inp_files/4148.got.cif
#   From: 2010.03.12/outbox.cif.g09.slc.cpg/sg26_3_cif.got.tgz:4148.got - 2010.04.14 03:33:09.
