data_PCOD8167363
_publ_section_title
;
Structure prediction by ZEFSAII (Michael W. Deem and Ramdas Pophale) SiO2 
 PCOD8167363
Probable space group: P M C 21
;
_chemical_formula_sum "Si O2"
_cell_formula_units_Z 24
_cell_length_a 8.889729
_cell_length_b 10.097560
_cell_length_c 13.924817
_cell_angle_alpha 90.000000
_cell_angle_beta 90.000000
_cell_angle_gamma 90.000000
_cell_volume 1249.955238
_symmetry_space_group_name_H-M "P M C 21"
_symmetry_group_IT_number 26
_symmetry_cell_setting 'orthorhombic'
loop_
_space_group_symop_operation_xyz
x,y,z
-x,-y,1/2+z
-x,y,z
x,-y,1/2+z
loop_
_atom_site_type_symbol
_atom_site_label
_atom_site_fract_x
_atom_site_fract_y
_atom_site_fract_z
Si Si1 0.677980 0.611973 0.732800
Si Si2 0.324713 0.235105 0.901065
Si Si3 0.323709 0.870455 0.194365
Si Si4 0.175976 0.383474 0.620277
Si Si5 0.322266 0.145495 0.108041
Si Si6 0.175751 0.517670 0.910134
O O1 0.500000 0.616381 0.736391
O O2 0.731296 0.470273 0.695019
O O3 0.744438 0.729406 0.666621
O O4 0.743356 0.623015 0.840032
O O5 0.500000 0.272960 0.908159
O O6 0.291748 0.143790 0.808344
O O7 0.232440 0.369474 0.892552
O O8 0.272540 0.155032 0.996415
O O9 0.500000 0.852277 0.172333
O O10 0.229885 0.766345 0.132204
O O11 0.262388 0.012097 0.157926
O O12 0.217946 0.434689 0.515537
O O13 0.000000 0.395702 0.642267
O O14 0.500000 0.148931 0.116416
O O15 0.000000 0.521231 0.889783
#
# Coordination Sequence:
#
# PCOD8167363 Si02
#       6
#     4   4   4   4   4   4
#     4  11  21  36  61  89 115 150 197 245 291 344
#     4  10  19  35  59  84 115 155 198 239 292 352
#     4  10  21  37  60  88 117 155 196 242 295 347
#     4  11  23  38  57  85 119 155 195 241 290 348
#     4   9  20  37  58  88 121 151 195 246 292 346
#     4  11  23  37  57  86 121 156 197 243 292 347
#
# _framework density 19.200688
#
# number of rings (size 3 to 8) (size 9 to 14) (size 15 to 20)
#    0.000    1.667    3.333    1.500    0.000    3.333 
#    0.000    5.833    0.000    0.000    0.000    0.000 
#    0.000    0.000    0.000    0.000    0.000    0.000 
#
# Total GULP energy -297654.086897 kJ/mol
# GULP energy per Si atom -12402.253621 kJ/mol
# Density = 1.915699 g / cm^3
# Si number density = 19.200688 Si / 1000 Ang^3
#
#
#
# Elastic Constant Matrix: (Units=GPa)
#
#
# Indices 1 2 3 4 5 6 
#
# 1 52.6079 17.9897 38.0158 0.0000 0.0000 0.0000
# 2 17.9897 108.8429 47.5714 0.0000 0.0000 0.0000
# 3 38.0158 47.5714 117.9727 0.0000 0.0000 0.0000
# 4 0.0000 0.0000 0.0000 37.6580 0.0000 0.0000
# 5 0.0000 0.0000 0.0000 0.0000 27.9109 0.0000
# 6 0.0000 0.0000 0.0000 0.0000 0.0000 10.5517
#
#
#
# Elastic Compliance Matrix: (Units=1/GPa)
#
#
# Indices 1 2 3 4 5 6 
#
# 1 0.024827 -0.000737 -0.007703 0.000000 0.000000 0.000000
# 2 -0.000737 0.011175 -0.004269 0.000000 0.000000 0.000000
# 3 -0.007703 -0.004269 0.012680 0.000000 0.000000 0.000000
# 4 0.000000 0.000000 0.000000 0.026555 0.000000 0.000000
# 5 0.000000 0.000000 0.000000 0.000000 0.035828 0.000000
# 6 0.000000 0.000000 0.000000 0.000000 0.000000 0.094771
#
#
# Mechanical properties :
#
#
# Convention : Reuss Voigt Hill
#
# Bulk Modulus (GPa) = 42.98340 54.06416 48.52378
# Shear Modulus (GPa) = 20.91972 26.94724 23.93348
#
# Velocity S-wave (km/s) = 3.30438 3.75033 3.53440
# Velocity P-wave (km/s) = 6.08224 6.85360 6.47941
#
# Compressibility (1/GPa) = 0.02326479
#
# Stress axis : x y z
#
# Youngs Moduli (GPa) = 40.27870 89.48476 78.86282
#
# Poissons Ratio (x) = 0.06592 0.60750
# Poissons Ratio (y) = 0.02967 0.33666
# Poissons Ratio (z) = 0.31028 0.38200
#
# Static dielectric constant tensor:
#      x y z
#    x 3.316370 0.000000 0.000000 
#    y 0.000000 3.547660 0.000000 
#    z 0.000000 0.000000 3.910100 
# 
# 
# High freq. dielectric constant tensor:
#      x y z
#    x 1.730090 0.000000 0.000000 
#    y 0.000000 1.739530 0.000000 
#    z 0.000000 0.000000 1.766680 
# 
# From -- ./inp_files/2814.got.cif
#   From: 2010.03.12/outbox.cif.g09.slc.cpg/sg26_2_cif.got.tgz:2814.got - 2010.04.14 03:33:09.
