data_PCOD8167384
_publ_section_title
;
Structure prediction by ZEFSAII (Michael W. Deem and Ramdas Pophale) SiO2 
 PCOD8167384
Probable space group: P M C 21
;
_chemical_formula_sum "Si O2"
_cell_formula_units_Z 32
_cell_length_a 13.625714
_cell_length_b 13.603807
_cell_length_c 9.604947
_cell_angle_alpha 90.000000
_cell_angle_beta 90.000000
_cell_angle_gamma 90.000000
_cell_volume 1780.388185
_symmetry_space_group_name_H-M "P M C 21"
_symmetry_group_IT_number 26
_symmetry_cell_setting 'orthorhombic'
loop_
_space_group_symop_operation_xyz
x,y,z
-x,-y,1/2+z
-x,y,z
x,-y,1/2+z
loop_
_atom_site_type_symbol
_atom_site_label
_atom_site_fract_x
_atom_site_fract_y
_atom_site_fract_z
Si Si1 0.111009 0.129721 0.162350
Si Si2 0.705769 0.734327 0.619913
Si Si3 0.386382 0.622640 0.865950
Si Si4 0.699808 0.913189 0.257571
Si Si5 0.388042 0.598756 0.403770
Si Si6 0.890300 0.971501 0.378672
Si Si7 0.608628 0.275535 0.647838
Si Si8 0.388177 0.932382 0.556050
O O1 0.184629 0.220378 0.132108
O O2 0.129153 0.082183 0.316657
O O3 0.000000 0.171742 0.153391
O O4 0.124624 0.042622 0.045335
O O5 0.684032 0.661458 0.746074
O O6 0.689906 0.668078 0.482917
O O7 0.627953 0.823027 0.614275
O O8 0.500000 0.621412 0.817537
O O9 0.354341 0.513938 0.913361
O O10 0.367516 0.696343 0.991393
O O11 0.682323 0.806952 0.196092
O O12 0.634356 0.938818 0.392240
O O13 0.812835 0.902626 0.301260
O O14 0.682906 0.995251 0.140357
O O15 0.500000 0.612154 0.461992
O O16 0.383738 0.627361 0.241824
O O17 0.000000 0.939237 0.335187
O O18 0.500000 0.229713 0.659024
O O19 0.500000 0.963972 0.580973
#
# Coordination Sequence:
#
# PCOD8167384 Si02
#       8
#     4   4   4   4   4   4   4   4
#     4  10  21  37  58  82 108 143 187 234 280 325
#     4  12  21  36  58  81 110 143 186 231 274 332
#     4  10  22  35  54  82 108 142 184 230 275 326
#     4  12  22  37  51  77 111 149 182 221 267 327
#     4  10  19  36  57  79 109 143 183 226 272 325
#     4  10  19  36  56  78 106 143 190 234 270 313
#     4  10  20  34  51  74 110 146 180 220 268 326
#     4  12  24  35  51  77 114 153 182 212 264 334
#
# _framework density 17.973607999999999
#
# number of rings (size 3 to 8) (size 9 to 14) (size 15 to 20)
#    0.000    1.250    3.750    3.000    1.750    3.000 
#    0.000    0.000    0.000    0.750    0.000    1.750 
#    0.000    0.000    0.000    0.000    0.000    0.000 
#
# Total GULP energy -396674.797580 kJ/mol
# GULP energy per Si atom -12396.087424 kJ/mol
# Density = 1.793270 g / cm^3
# Si number density = 17.973608 Si / 1000 Ang^3
#
#
#
# Elastic Constant Matrix: (Units=GPa)
#
#
# Indices 1 2 3 4 5 6 
#
# 1 85.2961 30.2256 16.8022 0.0000 0.0000 0.0000
# 2 30.2256 88.9711 27.6052 0.0000 0.0000 0.0000
# 3 16.8022 27.6052 56.3877 0.0000 0.0000 0.0000
# 4 0.0000 0.0000 0.0000 25.3929 0.0000 0.0000
# 5 0.0000 0.0000 0.0000 0.0000 22.1082 0.0000
# 6 0.0000 0.0000 0.0000 0.0000 0.0000 15.2789
#
#
#
# Elastic Compliance Matrix: (Units=1/GPa)
#
#
# Indices 1 2 3 4 5 6 
#
# 1 0.013536 -0.003947 -0.002101 0.000000 0.000000 0.000000
# 2 -0.003947 0.014403 -0.005875 0.000000 0.000000 0.000000
# 3 -0.002101 -0.005875 0.021237 0.000000 0.000000 0.000000
# 4 0.000000 0.000000 0.000000 0.039381 0.000000 0.000000
# 5 0.000000 0.000000 0.000000 0.000000 0.045232 0.000000
# 6 0.000000 0.000000 0.000000 0.000000 0.000000 0.065450
#
#
# Mechanical properties :
#
#
# Convention : Reuss Voigt Hill
#
# Bulk Modulus (GPa) = 39.47909 42.21343 40.84626
# Shear Modulus (GPa) = 21.59555 22.95747 22.27651
#
# Velocity S-wave (km/s) = 3.47005 3.57779 3.52433
# Velocity P-wave (km/s) = 6.16990 6.37219 6.27186
#
# Compressibility (1/GPa) = 0.02532986
#
# Stress axis : x y z
#
# Youngs Moduli (GPa) = 73.87520 69.42851 47.08798
#
# Poissons Ratio (x) = 0.27401 0.09895
# Poissons Ratio (y) = 0.29156 0.27666
# Poissons Ratio (z) = 0.15524 0.40791
#
# Static dielectric constant tensor:
#      x y z
#    x 3.313080 0.000000 0.000000 
#    y 0.000000 3.269600 0.000000 
#    z 0.000000 0.000000 3.508380 
# 
# 
# High freq. dielectric constant tensor:
#      x y z
#    x 1.680070 0.000000 0.000000 
#    y 0.000000 1.679520 0.000000 
#    z 0.000000 0.000000 1.709960 
# 
# From -- ./inp_files/2239.got.cif
#   From: 2010.03.12/outbox.cif.g09.slc.cpg/sg26_2_cif.got.tgz:2239.got - 2010.04.14 03:33:09.
