data_PCOD8167873
_publ_section_title
;
Structure prediction by ZEFSAII (Michael W. Deem and Ramdas Pophale) SiO2 
 PCOD8167873
Probable space group: P C C 2
;
_chemical_formula_sum "Si O2"
_cell_formula_units_Z 28
_cell_length_a 6.526530
_cell_length_b 19.208632
_cell_length_c 10.058566
_cell_angle_alpha 90.000000
_cell_angle_beta 90.000000
_cell_angle_gamma 90.000000
_cell_volume 1260.999298
_symmetry_space_group_name_H-M "P C C 2"
_symmetry_group_IT_number 27
_symmetry_cell_setting 'orthorhombic'
loop_
_space_group_symop_operation_xyz
x,y,z
-x,-y,z
-x,y,1/2+z
x,-y,1/2+z
loop_
_atom_site_type_symbol
_atom_site_label
_atom_site_fract_x
_atom_site_fract_y
_atom_site_fract_z
Si Si1 0.220045 0.733419 0.972470
Si Si2 0.594998 0.362000 0.525806
Si Si3 0.857447 0.556546 0.825671
Si Si4 0.190494 0.887117 0.017096
Si Si5 0.939466 0.319660 0.703549
Si Si6 0.121511 0.067571 0.797407
Si Si7 0.500000 0.500000 0.667410
Si Si8 0.500000 0.000000 0.920799
O O1 0.289620 0.813948 0.972781
O O2 0.075316 0.718454 0.845861
O O3 0.422236 0.686253 0.961398
O O4 0.097599 0.720078 0.108541
O O5 0.761337 0.383987 0.416810
O O6 0.711658 0.319851 0.640903
O O7 0.491255 0.431881 0.577516
O O8 0.697082 0.504312 0.759445
O O9 0.000000 0.500000 0.903379
O O10 0.986782 0.600198 0.717394
O O11 0.355999 0.949414 0.008342
O O12 0.991724 0.899590 0.924773
O O13 0.119142 0.881122 0.170580
O O14 0.356144 0.049049 0.831541
O O15 0.000000 0.000000 0.748611
#
# Coordination Sequence:
#
# PCOD8167873 Si02
#       8
#     4   4   4   4   4   4   2   2
#     4  12  28  47  70 102 146 194 234 293 360 433
#     4  12  27  43  70 101 138 178 240 295 354 429
#     4  12  26  43  69 100 131 181 234 295 362 418
#     4  11  24  44  71 103 141 189 234 285 354 417
#     4  12  26  48  68 100 144 183 238 291 352 435
#     4  10  21  41  71 105 141 180 233 293 341 413
#     4  12  24  42  68 100 132 178 236 300 348 420
#     4  10  22  40  72 108 142 176 240 296 342 408
#
# _framework density 22.204611
#
# number of rings (size 3 to 8) (size 9 to 14) (size 15 to 20)
#    0.000    0.571    4.286    3.857    4.000    3.429 
#    0.000    0.000    0.000    0.000    0.000    0.000 
#    0.000    0.000    0.000    0.000    0.000    0.000 
#
# Total GULP energy -347230.855585 kJ/mol
# GULP energy per Si atom -12401.101985 kJ/mol
# Density = 2.215407 g / cm^3
# Si number density = 22.204611 Si / 1000 Ang^3
#
#
#
# Elastic Constant Matrix: (Units=GPa)
#
#
# Indices 1 2 3 4 5 6 
#
# 1 111.2812 43.5339 51.0332 0.0000 0.0000 0.0000
# 2 43.5339 120.5320 36.6273 0.0000 0.0000 0.0000
# 3 51.0332 36.6273 123.7677 0.0000 0.0000 0.0000
# 4 0.0000 0.0000 0.0000 24.4511 0.0000 0.0000
# 5 0.0000 0.0000 0.0000 0.0000 0.8962 0.0000
# 6 0.0000 0.0000 0.0000 0.0000 0.0000 31.1079
#
#
#
# Elastic Compliance Matrix: (Units=1/GPa)
#
#
# Indices 1 2 3 4 5 6 
#
# 1 0.012067 -0.003128 -0.004050 0.000000 0.000000 0.000000
# 2 -0.003128 0.009927 -0.001648 0.000000 0.000000 0.000000
# 3 -0.004050 -0.001648 0.010237 0.000000 0.000000 0.000000
# 4 0.000000 0.000000 0.000000 0.040898 0.000000 0.000000
# 5 0.000000 0.000000 0.000000 0.000000 1.115854 0.000000
# 6 0.000000 0.000000 0.000000 0.000000 0.000000 0.032146
#
#
# Mechanical properties :
#
#
# Convention : Reuss Voigt Hill
#
# Bulk Modulus (GPa) = 68.58805 68.66330 68.62568
# Shear Modulus (GPa) = 4.02045 26.25012 15.13528
#
# Velocity S-wave (km/s) = 1.34706 3.44203 2.61363
# Velocity P-wave (km/s) = 5.77716 6.84010 6.33098
#
# Compressibility (1/GPa) = 0.01457980
#
# Stress axis : x y z
#
# Youngs Moduli (GPa) = 82.86943 100.73481 97.68141
#
# Poissons Ratio (x) = 0.31507 0.39562
# Poissons Ratio (y) = 0.25919 0.16099
# Poissons Ratio (z) = 0.33563 0.16602
#
# Static dielectric constant tensor:
#      x y z
#    x 4.370760 0.000000 0.000000 
#    y 0.000000 3.928090 0.000000 
#    z 0.000000 0.000000 3.984220 
# 
# 
# High freq. dielectric constant tensor:
#      x y z
#    x 1.880490 0.000000 0.000000 
#    y 0.000000 1.870290 0.000000 
#    z 0.000000 0.000000 1.876260 
# 
# From -- ./inp_files/2089.got.cif
#   From: 2010.03.12/outbox.cif.g09.slc.cpg/sg27_2_cif.got.tgz:2089.got - 2010.04.14 03:36:05.
