data_PCOD8167231
_publ_section_title
;
Structure prediction by ZEFSAII (Michael W. Deem and Ramdas Pophale) SiO2 
 PCOD8167231
Probable space group: P M C 21
;
_chemical_formula_sum "Si O2"
_cell_formula_units_Z 32
_cell_length_a 9.068575
_cell_length_b 11.328046
_cell_length_c 16.420086
_cell_angle_alpha 90.000000
_cell_angle_beta 90.000000
_cell_angle_gamma 90.000000
_cell_volume 1686.822869
_symmetry_space_group_name_H-M "P M C 21"
_symmetry_group_IT_number 26
_symmetry_cell_setting 'orthorhombic'
loop_
_space_group_symop_operation_xyz
x,y,z
-x,-y,1/2+z
-x,y,z
x,-y,1/2+z
loop_
_atom_site_type_symbol
_atom_site_label
_atom_site_fract_x
_atom_site_fract_y
_atom_site_fract_z
Si Si1 0.673621 0.301159 0.856870
Si Si2 0.327174 0.739382 0.754125
Si Si3 0.164881 0.406370 0.127810
Si Si4 0.165107 0.791310 0.506188
Si Si5 0.672977 0.434964 0.389366
Si Si6 0.333050 0.383021 0.572345
Si Si7 0.825608 0.065365 0.163553
Si Si8 0.332614 0.824632 0.189411
O O1 0.500000 0.303123 0.869780
O O2 0.737445 0.210539 0.924467
O O3 0.738412 0.434686 0.867902
O O4 0.716528 0.252582 0.767623
O O5 0.500000 0.765669 0.760259
O O6 0.291444 0.655601 0.679034
O O7 0.263736 0.669180 0.832244
O O8 0.243702 0.862966 0.739584
O O9 0.214259 0.540865 0.121184
O O10 0.000000 0.398962 0.166399
O O11 0.164857 0.342266 0.040400
O O12 0.227013 0.881456 0.575857
O O13 0.000000 0.830367 0.481922
O O14 0.500000 0.443262 0.374078
O O15 0.713372 0.389715 0.478666
O O16 0.500000 0.432049 0.583897
O O17 0.322113 0.251668 0.607087
O O18 0.000000 0.078161 0.169526
O O19 0.777753 0.931376 0.174344
O O20 0.500000 0.870650 0.201676
#
# Coordination Sequence:
#
# PCOD8167231 Si02
#       8
#     4   4   4   4   4   4   4   4
#     4  10  19  34  57  86 115 142 183 233 282 338
#     4  10  19  34  58  83 111 145 185 234 282 328
#     4  10  19  32  52  82 116 146 184 225 276 340
#     4   9  19  35  55  80 109 143 185 231 274 331
#     4   9  18  33  56  88 117 142 178 228 283 338
#     4  10  19  35  58  81 113 150 186 229 281 336
#     4  10  22  41  59  78 111 149 193 237 282 344
#     4  10  22  38  57  84 114 149 194 239 282 337
#
# _framework density 18.970575
#
# number of rings (size 3 to 8) (size 9 to 14) (size 15 to 20)
#    0.000    2.250    1.250    2.625    0.000    5.500 
#    2.250    3.750    0.000    0.000    0.000    0.000 
#    0.000    0.000    0.000    0.000    0.000    0.000 
#
# Total GULP energy -396625.278512 kJ/mol
# GULP energy per Si atom -12394.539954 kJ/mol
# Density = 1.892740 g / cm^3
# Si number density = 18.970575 Si / 1000 Ang^3
#
#
#
# Elastic Constant Matrix: (Units=GPa)
#
#
# Indices 1 2 3 4 5 6 
#
# 1 52.6392 37.2769 31.0886 0.0000 0.0000 0.0000
# 2 37.2769 110.8491 59.1313 0.0000 0.0000 0.0000
# 3 31.0886 59.1313 98.9495 0.0000 0.0000 0.0000
# 4 0.0000 0.0000 0.0000 24.1413 0.0000 0.0000
# 5 0.0000 0.0000 0.0000 0.0000 19.9985 0.0000
# 6 0.0000 0.0000 0.0000 0.0000 0.0000 26.0008
#
#
#
# Elastic Compliance Matrix: (Units=1/GPa)
#
#
# Indices 1 2 3 4 5 6 
#
# 1 0.026150 -0.006475 -0.004346 0.000000 0.000000 0.000000
# 2 -0.006475 0.014846 -0.006838 0.000000 0.000000 0.000000
# 3 -0.004346 -0.006838 0.015558 0.000000 0.000000 0.000000
# 4 0.000000 0.000000 0.000000 0.041423 0.000000 0.000000
# 5 0.000000 0.000000 0.000000 0.000000 0.050004 0.000000
# 6 0.000000 0.000000 0.000000 0.000000 0.000000 0.038460
#
#
# Mechanical properties :
#
#
# Convention : Reuss Voigt Hill
#
# Bulk Modulus (GPa) = 47.09109 57.49241 52.29175
# Shear Modulus (GPa) = 21.84958 23.02417 22.43687
#
# Velocity S-wave (km/s) = 3.39744 3.48757 3.44280
# Velocity P-wave (km/s) = 6.34565 6.82564 6.59002
#
# Compressibility (1/GPa) = 0.02123544
#
# Stress axis : x y z
#
# Youngs Moduli (GPa) = 38.24141 67.35722 64.27656
#
# Poissons Ratio (x) = 0.43615 0.27937
# Poissons Ratio (y) = 0.24762 0.43949
# Poissons Ratio (z) = 0.16621 0.46056
#
# Static dielectric constant tensor:
#      x y z
#    x 3.335240 0.000000 0.000000 
#    y 0.000000 3.490030 0.000000 
#    z 0.000000 0.000000 3.495090 
# 
# 
# High freq. dielectric constant tensor:
#      x y z
#    x 1.722960 0.000000 0.000000 
#    y 0.000000 1.727140 0.000000 
#    z 0.000000 0.000000 1.733370 
# 
# From -- ./inp_files/5038.got.cif
#   From: 2010.03.12/outbox.cif.g09.slc.cpg/sg26_3_cif.got.tgz:5038.got - 2010.04.14 03:33:09.
