data_PCOD8167594
_publ_section_title
;
Structure prediction by ZEFSAII (Michael W. Deem and Ramdas Pophale) SiO2 
 PCOD8167594
Probable space group: P M C 21
;
_chemical_formula_sum "Si O2"
_cell_formula_units_Z 32
_cell_length_a 17.164053
_cell_length_b 9.103634
_cell_length_c 10.225291
_cell_angle_alpha 90.000000
_cell_angle_beta 90.000000
_cell_angle_gamma 90.000000
_cell_volume 1597.755468
_symmetry_space_group_name_H-M "P M C 21"
_symmetry_group_IT_number 26
_symmetry_cell_setting 'orthorhombic'
loop_
_space_group_symop_operation_xyz
x,y,z
-x,-y,1/2+z
-x,y,z
x,-y,1/2+z
loop_
_atom_site_type_symbol
_atom_site_label
_atom_site_fract_x
_atom_site_fract_y
_atom_site_fract_z
Si Si1 0.783315 0.282325 0.605160
Si Si2 0.336946 0.374526 0.407937
Si Si3 0.651404 0.683063 0.495775
Si Si4 0.586809 0.844130 0.733646
Si Si5 0.292786 0.918389 0.309714
Si Si6 0.910507 0.851951 0.676485
Si Si7 0.786806 0.601282 0.677135
Si Si8 0.849365 0.951986 0.941997
O O1 0.699230 0.317093 0.542760
O O2 0.768761 0.161915 0.716633
O O3 0.818020 0.434508 0.661171
O O4 0.845763 0.211488 0.505106
O O5 0.379362 0.530567 0.433602
O O6 0.401045 0.258027 0.360705
O O7 0.267520 0.389932 0.303551
O O8 0.593542 0.740445 0.607012
O O9 0.652180 0.802884 0.381766
O O10 0.738577 0.654894 0.550479
O O11 0.500000 0.911694 0.739352
O O12 0.651784 0.971463 0.728496
O O13 0.241024 0.006969 0.414679
O O14 0.861093 0.704259 0.692450
O O15 0.887860 0.936562 0.544167
O O16 0.000000 0.806450 0.666651
O O17 0.897527 0.950572 0.806609
#
# Coordination Sequence:
#
# PCOD8167594 Si02
#       8
#     4   4   4   4   4   4   4   4
#     4  11  21  36  69  94 115 156 223 264 310 363
#     4  10  20  40  65  89 117 162 213 261 309 376
#     4  10  21  39  65  88 118 159 214 263 305 367
#     4  11  25  40  58  93 131 163 203 261 331 385
#     4  12  21  39  67  96 119 166 217 267 308 376
#     4  12  25  42  63  96 136 173 205 261 332 386
#     4  10  20  39  65  93 117 158 212 267 304 372
#     4  12  22  41  67  95 129 169 221 260 308 385
#
# _framework density 20.028096000000001
#
# number of rings (size 3 to 8) (size 9 to 14) (size 15 to 20)
#    0.000    1.000    6.250    1.875    0.000    1.000 
#    0.000    1.250    0.000    0.000    0.000    0.000 
#    0.000    0.000    0.000    0.000    0.000    0.000 
#
# Total GULP energy -396854.136331 kJ/mol
# GULP energy per Si atom -12401.691760 kJ/mol
# Density = 1.998251 g / cm^3
# Si number density = 20.028096 Si / 1000 Ang^3
#
#
#
# Elastic Constant Matrix: (Units=GPa)
#
#
# Indices 1 2 3 4 5 6 
#
# 1 83.8009 32.8021 24.9140 0.0000 0.0000 0.0000
# 2 32.8021 116.3285 38.3250 0.0000 0.0000 0.0000
# 3 24.9140 38.3250 86.8781 0.0000 0.0000 0.0000
# 4 0.0000 0.0000 0.0000 40.6959 0.0000 0.0000
# 5 0.0000 0.0000 0.0000 0.0000 15.6387 0.0000
# 6 0.0000 0.0000 0.0000 0.0000 0.0000 21.0826
#
#
#
# Elastic Compliance Matrix: (Units=1/GPa)
#
#
# Indices 1 2 3 4 5 6 
#
# 1 0.013914 -0.003052 -0.002644 0.000000 0.000000 0.000000
# 2 -0.003052 0.010728 -0.003857 0.000000 0.000000 0.000000
# 3 -0.002644 -0.003857 0.013970 0.000000 0.000000 0.000000
# 4 0.000000 0.000000 0.000000 0.024573 0.000000 0.000000
# 5 0.000000 0.000000 0.000000 0.000000 0.063944 0.000000
# 6 0.000000 0.000000 0.000000 0.000000 0.000000 0.047433
#
#
# Mechanical properties :
#
#
# Convention : Reuss Voigt Hill
#
# Bulk Modulus (GPa) = 51.26766 53.23219 52.24992
# Shear Modulus (GPa) = 24.97899 28.21454 26.59677
#
# Velocity S-wave (km/s) = 3.53540 3.75740 3.64809
# Velocity P-wave (km/s) = 6.50529 6.74244 6.62493
#
# Compressibility (1/GPa) = 0.01950547
#
# Stress axis : x y z
#
# Youngs Moduli (GPa) = 71.87115 93.21578 71.58230
#
# Poissons Ratio (x) = 0.28454 0.18923
# Poissons Ratio (y) = 0.21938 0.27610
# Poissons Ratio (z) = 0.18999 0.35954
#
# Static dielectric constant tensor:
#      x y z
#    x 3.192200 0.000000 0.000000 
#    y 0.000000 3.816710 0.000000 
#    z 0.000000 0.000000 3.833370 
# 
# 
# High freq. dielectric constant tensor:
#      x y z
#    x 1.735460 0.000000 0.000000 
#    y 0.000000 1.794060 0.000000 
#    z 0.000000 0.000000 1.795220 
# 
# From -- ./inp_files/3607.got.cif
#   From: 2010.03.12/outbox.cif.g09.slc.cpg/sg26_2_cif.got.tgz:3607.got - 2010.04.14 03:33:09.
