data_PCOD8167222
_publ_section_title
;
Structure prediction by ZEFSAII (Michael W. Deem and Ramdas Pophale) SiO2 
 PCOD8167222
Probable space group: P M C 21
;
_chemical_formula_sum "Si O2"
_cell_formula_units_Z 32
_cell_length_a 8.938061
_cell_length_b 14.869251
_cell_length_c 13.693781
_cell_angle_alpha 90.000000
_cell_angle_beta 90.000000
_cell_angle_gamma 90.000000
_cell_volume 1819.934614
_symmetry_space_group_name_H-M "P M C 21"
_symmetry_group_IT_number 26
_symmetry_cell_setting 'orthorhombic'
loop_
_space_group_symop_operation_xyz
x,y,z
-x,-y,1/2+z
-x,y,z
x,-y,1/2+z
loop_
_atom_site_type_symbol
_atom_site_label
_atom_site_fract_x
_atom_site_fract_y
_atom_site_fract_z
Si Si1 0.322496 0.156345 0.053490
Si Si2 0.328895 0.014992 0.442466
Si Si3 0.671547 0.364787 0.503881
Si Si4 0.328709 0.870064 0.770630
Si Si5 0.669022 0.497971 0.173084
Si Si6 0.176272 0.190368 0.450513
Si Si7 0.824269 0.490792 0.872894
Si Si8 0.675750 0.355318 0.011001
O O1 0.500000 0.160788 0.054164
O O2 0.263666 0.127225 0.161071
O O3 0.260945 0.254221 0.023962
O O4 0.265208 0.082287 0.974924
O O5 0.500000 0.023911 0.478557
O O6 0.318739 0.031065 0.324172
O O7 0.233248 0.094568 0.494267
O O8 0.500000 0.351227 0.473215
O O9 0.685062 0.413699 0.607188
O O10 0.752332 0.269190 0.514816
O O11 0.750850 0.421758 0.419948
O O12 0.500000 0.835877 0.769258
O O13 0.232838 0.800655 0.837343
O O14 0.500000 0.490391 0.214310
O O15 0.787686 0.507986 0.258776
O O16 0.709129 0.409629 0.110183
O O17 0.000000 0.196609 0.455609
O O18 0.000000 0.494632 0.889306
O O19 0.760946 0.399457 0.920185
O O20 0.500000 0.357942 0.986952
#
# Coordination Sequence:
#
# PCOD8167222 Si02
#       8
#     4   4   4   4   4   4   4   4
#     4   9  16  31  56  81 102 134 182 227 260 299
#     4   8  16  31  51  74 103 134 170 216 259 305
#     4  10  20  36  57  77 100 136 182 224 262 308
#     4   8  16  30  51  76 102 132 171 218 260 304
#     4   9  19  34  54  77 102 139 182 221 262 313
#     4  10  19  32  50  76 107 134 166 211 267 321
#     4  11  22  35  52  77 112 143 169 215 275 327
#     4   9  19  35  55  80 106 140 186 226 261 311
#
# _framework density 17.583048999999999
#
# number of rings (size 3 to 8) (size 9 to 14) (size 15 to 20)
#    0.750    2.000    0.000    3.000    1.750    2.500 
#    0.000    3.125    0.000    4.500    0.000    0.000 
#    0.000    0.000    0.000    0.000    0.000    0.000 
#
# Total GULP energy -396574.073967 kJ/mol
# GULP energy per Si atom -12392.939811 kJ/mol
# Density = 1.754303 g / cm^3
# Si number density = 17.583049 Si / 1000 Ang^3
#
#
#
# Elastic Constant Matrix: (Units=GPa)
#
#
# Indices 1 2 3 4 5 6 
#
# 1 95.9164 45.1387 35.4239 0.0000 0.0000 0.0000
# 2 45.1387 144.1861 44.4448 0.0000 0.0000 0.0000
# 3 35.4239 44.4448 64.7334 0.0000 0.0000 0.0000
# 4 0.0000 0.0000 0.0000 18.0053 0.0000 0.0000
# 5 0.0000 0.0000 0.0000 0.0000 14.5958 0.0000
# 6 0.0000 0.0000 0.0000 0.0000 0.0000 14.9498
#
#
#
# Elastic Compliance Matrix: (Units=1/GPa)
#
#
# Indices 1 2 3 4 5 6 
#
# 1 0.013752 -0.002518 -0.005796 0.000000 0.000000 0.000000
# 2 -0.002518 0.009259 -0.004979 0.000000 0.000000 0.000000
# 3 -0.005796 -0.004979 0.022038 0.000000 0.000000 0.000000
# 4 0.000000 0.000000 0.000000 0.055539 0.000000 0.000000
# 5 0.000000 0.000000 0.000000 0.000000 0.068513 0.000000
# 6 0.000000 0.000000 0.000000 0.000000 0.000000 0.066891
#
#
# Mechanical properties :
#
#
# Convention : Reuss Voigt Hill
#
# Bulk Modulus (GPa) = 54.16593 61.65008 57.90800
# Shear Modulus (GPa) = 18.60598 21.49875 20.05236
#
# Velocity S-wave (km/s) = 3.25649 3.50050 3.38070
# Velocity P-wave (km/s) = 6.70912 7.17470 6.94581
#
# Compressibility (1/GPa) = 0.01846179
#
# Stress axis : x y z
#
# Youngs Moduli (GPa) = 72.71909 108.00859 45.37621
#
# Poissons Ratio (x) = 0.27201 0.26301
# Poissons Ratio (y) = 0.18314 0.22591
# Poissons Ratio (z) = 0.42149 0.53773
#
# Static dielectric constant tensor:
#      x y z
#    x 3.048590 0.000000 0.000000 
#    y 0.000000 3.360790 0.000000 
#    z 0.000000 0.000000 3.126220 
# 
# 
# High freq. dielectric constant tensor:
#      x y z
#    x 1.663490 0.000000 0.000000 
#    y 0.000000 1.675540 0.000000 
#    z 0.000000 0.000000 1.661560 
# 
# From -- ./inp_files/4333.got.cif
#   From: 2010.03.12/outbox.cif.g09.slc.cpg/sg26_3_cif.got.tgz:4333.got - 2010.04.14 03:33:09.
