data_PCOD8167298
_publ_section_title
;
Structure prediction by ZEFSAII (Michael W. Deem and Ramdas Pophale) SiO2 
 PCOD8167298
Probable space group: P M C 21
;
_chemical_formula_sum "Si O2"
_cell_formula_units_Z 32
_cell_length_a 8.448008
_cell_length_b 20.772388
_cell_length_c 9.016663
_cell_angle_alpha 90.000000
_cell_angle_beta 90.000000
_cell_angle_gamma 90.000000
_cell_volume 1582.291812
_symmetry_space_group_name_H-M "P M C 21"
_symmetry_group_IT_number 26
_symmetry_cell_setting 'orthorhombic'
loop_
_space_group_symop_operation_xyz
x,y,z
-x,-y,1/2+z
-x,y,z
x,-y,1/2+z
loop_
_atom_site_type_symbol
_atom_site_label
_atom_site_fract_x
_atom_site_fract_y
_atom_site_fract_z
Si Si1 0.689177 0.434476 0.229780
Si Si2 0.311976 0.689916 0.233659
Si Si3 0.688429 0.059177 0.397858
Si Si4 0.687641 0.691111 0.896902
Si Si5 0.816805 0.813602 0.391680
Si Si6 0.314004 0.935078 0.228899
Si Si7 0.687718 0.816044 0.718117
Si Si8 0.687874 0.439371 0.895350
O O1 0.500000 0.434145 0.229061
O O2 0.756041 0.371162 0.311944
O O3 0.755013 0.496902 0.315749
O O4 0.755296 0.435278 0.062166
O O5 0.500000 0.699335 0.244237
O O6 0.227910 0.744868 0.326711
O O7 0.256730 0.622337 0.302472
O O8 0.249877 0.692457 0.065091
O O9 0.500000 0.057431 0.404312
O O10 0.759331 0.064414 0.563592
O O11 0.744408 0.120512 0.304092
O O12 0.757695 0.994579 0.322424
O O13 0.500000 0.687361 0.899097
O O14 0.744854 0.755075 0.813621
O O15 0.719018 0.868055 0.307649
O O16 0.776513 0.814415 0.563688
O O17 0.000000 0.827771 0.367628
O O18 0.500000 0.944715 0.217111
O O19 0.500000 0.815067 0.690781
O O20 0.500000 0.442783 0.900088
#
# Coordination Sequence:
#
# PCOD8167298 Si02
#       8
#     4   4   4   4   4   4   4   4
#     4   9  15  24  39  71 112 141 166 209 262 312
#     4  10  19  34  55  78 102 137 179 221 265 314
#     4   9  18  33  60  90 111 135 174 217 258 304
#     4   9  17  29  51  80 108 135 172 218 266 314
#     4  12  25  38  52  76 107 142 179 220 266 314
#     4  10  19  36  60  85 110 139 174 215 259 310
#     4  10  19  35  57  81 107 139 176 217 260 310
#     4   9  16  25  43  71 107 142 172 209 260 312
#
# _framework density 20.223831000000001
#
# number of rings (size 3 to 8) (size 9 to 14) (size 15 to 20)
#    0.000    2.250    0.000    4.125    0.000    9.000 
#    0.000    5.000    0.000    0.000    0.000    7.875 
#    0.000    0.000    0.000    0.000    0.000    0.000 
#
# Total GULP energy -396851.416252 kJ/mol
# GULP energy per Si atom -12401.606758 kJ/mol
# Density = 2.017780 g / cm^3
# Si number density = 20.223831 Si / 1000 Ang^3
#
#
#
# Elastic Constant Matrix: (Units=GPa)
#
#
# Indices 1 2 3 4 5 6 
#
# 1 11.3048 11.0545 14.4401 0.0000 0.0000 0.0000
# 2 11.0545 131.9121 48.2606 0.0000 0.0000 0.0000
# 3 14.4401 48.2606 159.3194 0.0000 0.0000 0.0000
# 4 0.0000 0.0000 0.0000 48.5412 0.0000 0.0000
# 5 0.0000 0.0000 0.0000 0.0000 3.0369 0.0000
# 6 0.0000 0.0000 0.0000 0.0000 0.0000 1.4855
#
#
#
# Elastic Compliance Matrix: (Units=1/GPa)
#
#
# Indices 1 2 3 4 5 6 
#
# 1 0.103998 -0.005923 -0.007632 0.000000 0.000000 0.000000
# 2 -0.005923 0.008863 -0.002148 0.000000 0.000000 0.000000
# 3 -0.007632 -0.002148 0.007619 0.000000 0.000000 0.000000
# 4 0.000000 0.000000 0.000000 0.020601 0.000000 0.000000
# 5 0.000000 0.000000 0.000000 0.000000 0.329284 0.000000
# 6 0.000000 0.000000 0.000000 0.000000 0.000000 0.673190
#
#
# Mechanical properties :
#
#
# Convention : Reuss Voigt Hill
#
# Bulk Modulus (GPa) = 11.22654 50.00519 30.61586
# Shear Modulus (GPa) = 4.15057 25.86479 15.00768
#
# Velocity S-wave (km/s) = 1.43415 3.58009 2.72707
# Velocity P-wave (km/s) = 2.88194 6.47062 5.00872
#
# Compressibility (1/GPa) = 0.08907463
#
# Stress axis : x y z
#
# Youngs Moduli (GPa) = 9.61555 112.82870 131.24991
#
# Poissons Ratio (x) = 0.66830 1.00167
# Poissons Ratio (y) = 0.05695 0.28191
# Poissons Ratio (z) = 0.07338 0.24235
#
# Static dielectric constant tensor:
#      x y z
#    x 2.951860 0.000000 0.000000 
#    y 0.000000 3.893640 0.000000 
#    z 0.000000 0.000000 3.989300 
# 
# 
# High freq. dielectric constant tensor:
#      x y z
#    x 1.720420 0.000000 0.000000 
#    y 0.000000 1.809900 0.000000 
#    z 0.000000 0.000000 1.811980 
# 
# From -- ./inp_files/1597.got.cif
#   From: 2010.03.12/outbox.cif.g09.slc.cpg/sg26_1_cif.got.tgz:1597.got - 2010.04.14 03:33:09.
