data_PCOD8167188
_publ_section_title
;
Structure prediction by ZEFSAII (Michael W. Deem and Ramdas Pophale) SiO2 
 PCOD8167188
Probable space group: P M C 21
;
_chemical_formula_sum "Si O2"
_cell_formula_units_Z 22
_cell_length_a 18.192856
_cell_length_b 16.363032
_cell_length_c 5.044334
_cell_angle_alpha 90.000000
_cell_angle_beta 90.000000
_cell_angle_gamma 90.000000
_cell_volume 1501.649226
_symmetry_space_group_name_H-M "P M C 21"
_symmetry_group_IT_number 26
_symmetry_cell_setting 'orthorhombic'
loop_
_space_group_symop_operation_xyz
x,y,z
-x,-y,1/2+z
-x,y,z
x,-y,1/2+z
loop_
_atom_site_type_symbol
_atom_site_label
_atom_site_fract_x
_atom_site_fract_y
_atom_site_fract_z
Si Si1 0.078374 0.052981 0.564600
Si Si2 0.412506 0.451516 0.886315
Si Si3 0.586568 0.730702 0.489724
Si Si4 0.235982 0.056890 0.471190
Si Si5 0.370847 0.828228 0.974786
Si Si6 0.500000 0.052104 0.445187
O O1 0.154770 0.099698 0.500532
O O2 0.000000 0.101072 0.515169
O O3 0.079548 0.974258 0.370598
O O4 0.500000 0.450570 0.887824
O O5 0.381802 0.490096 0.616885
O O6 0.383675 0.359248 0.917484
O O7 0.500000 0.729760 0.554109
O O8 0.603002 0.791667 0.251482
O O9 0.630653 0.758376 0.750921
O O10 0.291439 0.131477 0.508544
O O11 0.247409 0.985594 0.687464
O O12 0.427643 0.896789 0.879273
O O13 0.500000 0.974400 0.251484
#
# Coordination Sequence:
#
# PCOD8167188 Si02
#       6
#     4   4   4   4   4   2
#     4   8  14  25  42  60  76  96 126 167 211 248
#     4   9  17  29  46  64  78  95 123 162 203 248
#     4  11  20  33  45  60  81 105 135 170 209 246
#     4  10  19  31  43  58  80 106 141 180 208 241
#     4  12  21  32  43  58  79 109 141 176 212 237
#     4  12  22  32  42  52  70 104 148 182 204 224
#
# _framework density 14.650558
#
# number of rings (size 3 to 8) (size 9 to 14) (size 15 to 20)
#    0.000    1.818    1.818    4.364    0.000    2.909 
#    0.000    0.000    0.000    0.000    0.000    0.000 
#    0.000    0.000    0.000    0.000    0.000   18.182 
#
# Total GULP energy -272675.058439 kJ/mol
# GULP energy per Si atom -12394.320838 kJ/mol
# Density = 1.461721 g / cm^3
# Si number density = 14.650558 Si / 1000 Ang^3
#
#
#
# Elastic Constant Matrix: (Units=GPa)
#
#
# Indices 1 2 3 4 5 6 
#
# 1 73.6015 25.7108 -0.6947 0.0000 0.0000 0.0000
# 2 25.7108 48.8071 -0.2534 0.0000 0.0000 0.0000
# 3 -0.6947 -0.2534 57.5640 0.0000 0.0000 0.0000
# 4 0.0000 0.0000 0.0000 24.7012 0.0000 0.0000
# 5 0.0000 0.0000 0.0000 0.0000 12.0333 0.0000
# 6 0.0000 0.0000 0.0000 0.0000 0.0000 4.8644
#
#
#
# Elastic Compliance Matrix: (Units=1/GPa)
#
#
# Indices 1 2 3 4 5 6 
#
# 1 0.016652 -0.008771 0.000162 0.000000 0.000000 0.000000
# 2 -0.008771 0.025109 0.000005 0.000000 0.000000 0.000000
# 3 0.000162 0.000005 0.017374 0.000000 0.000000 0.000000
# 4 0.000000 0.000000 0.000000 0.040484 0.000000 0.000000
# 5 0.000000 0.000000 0.000000 0.000000 0.083103 0.000000
# 6 0.000000 0.000000 0.000000 0.000000 0.000000 0.205577
#
#
# Mechanical properties :
#
#
# Convention : Reuss Voigt Hill
#
# Bulk Modulus (GPa) = 23.85096 25.49981 24.67538
# Shear Modulus (GPa) = 11.91943 18.66709 15.29326
#
# Velocity S-wave (km/s) = 2.85543 3.57340 3.23440
# Velocity P-wave (km/s) = 5.21407 5.87101 5.55227
#
# Compressibility (1/GPa) = 0.04192704
#
# Stress axis : x y z
#
# Youngs Moduli (GPa) = 60.05196 39.82570 57.55744
#
# Poissons Ratio (x) = 0.34932 -0.00934
# Poissons Ratio (y) = 0.52673 -0.00027
# Poissons Ratio (z) = -0.00975 -0.00019
#
# Static dielectric constant tensor:
#      x y z
#    x 2.930500 0.000000 0.000000 
#    y 0.000000 2.677240 0.000000 
#    z 0.000000 0.000000 3.053690 
# 
# 
# High freq. dielectric constant tensor:
#      x y z
#    x 1.531840 0.000000 0.000000 
#    y 0.000000 1.522590 0.000000 
#    z 0.000000 0.000000 1.587800 
# 
# From -- ./inp_files/756.got.cif
#   From: 2010.03.12/outbox.cif.g09.slc.cpg/sg26_1_cif.got.tgz:756.got - 2010.04.14 03:33:09.
