data_PCOD8167233
_publ_section_title
;
Structure prediction by ZEFSAII (Michael W. Deem and Ramdas Pophale) SiO2 
 PCOD8167233
Probable space group: P M C 21
;
_chemical_formula_sum "Si O2"
_cell_formula_units_Z 32
_cell_length_a 8.891345
_cell_length_b 11.814061
_cell_length_c 14.464904
_cell_angle_alpha 90.000000
_cell_angle_beta 90.000000
_cell_angle_gamma 90.000000
_cell_volume 1519.435352
_symmetry_space_group_name_H-M "P M C 21"
_symmetry_group_IT_number 26
_symmetry_cell_setting 'orthorhombic'
loop_
_space_group_symop_operation_xyz
x,y,z
-x,-y,1/2+z
-x,y,z
x,-y,1/2+z
loop_
_atom_site_type_symbol
_atom_site_label
_atom_site_fract_x
_atom_site_fract_y
_atom_site_fract_z
Si Si1 0.326071 0.411596 0.460340
Si Si2 0.677579 0.910851 0.758064
Si Si3 0.828676 0.888717 0.368418
Si Si4 0.672123 0.824071 0.056431
Si Si5 0.826819 0.488670 0.131159
Si Si6 0.828621 0.720919 0.218883
Si Si7 0.823285 0.324646 0.288776
Si Si8 0.173461 0.953682 0.564346
O O1 0.500000 0.437388 0.443190
O O2 0.295231 0.285618 0.496292
O O3 0.267175 0.501431 0.536370
O O4 0.238079 0.416177 0.363387
O O5 0.500000 0.900746 0.763012
O O6 0.744631 0.796144 0.801130
O O7 0.726458 0.921094 0.651575
O O8 0.726157 0.017895 0.818724
O O9 0.805938 0.763435 0.324170
O O10 0.794313 0.871037 0.477395
O O11 0.000000 0.930760 0.355420
O O12 0.500000 0.863631 0.050299
O O13 0.713733 0.798551 0.162079
O O14 0.780233 0.924271 0.022780
O O15 0.788972 0.589633 0.203808
O O16 0.787960 0.373480 0.185956
O O17 0.000000 0.492010 0.101680
O O18 0.000000 0.744457 0.185960
O O19 0.000000 0.311005 0.303537
O O20 0.000000 0.951674 0.595453
#
# Coordination Sequence:
#
# PCOD8167233 Si02
#       8
#     4   4   4   4   4   4   4   4
#     4  10  21  37  61  92 124 157 199 248 302 360
#     4  12  25  40  60  87 124 162 199 248 303 360
#     4  10  21  37  60  88 118 155 196 240 295 360
#     4  10  19  32  53  83 114 151 193 239 288 342
#     4   9  20  39  63  89 116 153 201 253 297 348
#     4   9  17  34  59  83 109 142 187 241 294 344
#     4  11  23  41  63  88 121 161 209 254 297 353
#     4  11  22  36  55  84 120 159 196 237 294 357
#
# _framework density 21.060455000000001
#
# number of rings (size 3 to 8) (size 9 to 14) (size 15 to 20)
#    0.000    1.750    1.250    3.375    0.000    5.500 
#    2.250    0.000    0.000    0.000    0.000    0.000 
#    0.000    0.000    0.000    0.000    0.000    0.000 
#
# Total GULP energy -396726.912373 kJ/mol
# GULP energy per Si atom -12397.716012 kJ/mol
# Density = 2.101252 g / cm^3
# Si number density = 21.060455 Si / 1000 Ang^3
#
#
#
# Elastic Constant Matrix: (Units=GPa)
#
#
# Indices 1 2 3 4 5 6 
#
# 1 100.7551 13.4228 35.8439 0.0000 0.0000 0.0000
# 2 13.4228 31.7778 -2.2268 0.0000 0.0000 0.0000
# 3 35.8439 -2.2268 87.8263 0.0000 0.0000 0.0000
# 4 0.0000 0.0000 0.0000 23.2693 0.0000 0.0000
# 5 0.0000 0.0000 0.0000 0.0000 24.5949 0.0000
# 6 0.0000 0.0000 0.0000 0.0000 0.0000 22.7042
#
#
#
# Elastic Compliance Matrix: (Units=1/GPa)
#
#
# Indices 1 2 3 4 5 6 
#
# 1 0.012555 -0.005672 -0.005268 0.000000 0.000000 0.000000
# 2 -0.005672 0.034087 0.003179 0.000000 0.000000 0.000000
# 3 -0.005268 0.003179 0.013617 0.000000 0.000000 0.000000
# 4 0.000000 0.000000 0.000000 0.042975 0.000000 0.000000
# 5 0.000000 0.000000 0.000000 0.000000 0.040659 0.000000
# 6 0.000000 0.000000 0.000000 0.000000 0.000000 0.044045
#
#
# Mechanical properties :
#
#
# Convention : Reuss Voigt Hill
#
# Bulk Modulus (GPa) = 22.35277 34.93766 28.64521
# Shear Modulus (GPa) = 22.89683 25.66829 24.28256
#
# Velocity S-wave (km/s) = 3.30084 3.49491 3.39926
# Velocity P-wave (km/s) = 5.01638 5.73682 5.38865
#
# Compressibility (1/GPa) = 0.04473718
#
# Stress axis : x y z
#
# Youngs Moduli (GPa) = 79.65142 29.33656 73.43985
#
# Poissons Ratio (x) = 0.16640 0.38686
# Poissons Ratio (y) = 0.45180 -0.23348
# Poissons Ratio (z) = 0.41958 -0.09327
#
# Static dielectric constant tensor:
#      x y z
#    x 3.755590 0.000000 0.000000 
#    y 0.000000 3.724010 0.000000 
#    z 0.000000 0.000000 3.862720 
# 
# 
# High freq. dielectric constant tensor:
#      x y z
#    x 1.823110 0.000000 0.000000 
#    y 0.000000 1.807030 0.000000 
#    z 0.000000 0.000000 1.829980 
# 
# From -- ./inp_files/4146.got.cif
#   From: 2010.03.12/outbox.cif.g09.slc.cpg/sg26_3_cif.got.tgz:4146.got - 2010.04.14 03:33:09.
