data_PCOD8167614
_publ_section_title
;
Structure prediction by ZEFSAII (Michael W. Deem and Ramdas Pophale) SiO2 
 PCOD8167614
Probable space group: P M C 21
;
_chemical_formula_sum "Si O2"
_cell_formula_units_Z 24
_cell_length_a 8.779630
_cell_length_b 15.344852
_cell_length_c 9.318970
_cell_angle_alpha 90.000000
_cell_angle_beta 90.000000
_cell_angle_gamma 90.000000
_cell_volume 1255.471422
_symmetry_space_group_name_H-M "P M C 21"
_symmetry_group_IT_number 26
_symmetry_cell_setting 'orthorhombic'
loop_
_space_group_symop_operation_xyz
x,y,z
-x,-y,1/2+z
-x,y,z
x,-y,1/2+z
loop_
_atom_site_type_symbol
_atom_site_label
_atom_site_fract_x
_atom_site_fract_y
_atom_site_fract_z
Si Si1 0.679738 0.734514 0.309580
Si Si2 0.326308 0.074446 0.807188
Si Si3 0.678683 0.577629 0.107727
Si Si4 0.823702 0.266575 0.109639
Si Si5 0.177199 0.431583 0.298854
Si Si6 0.674753 0.086252 0.138588
O O1 0.500000 0.740718 0.334711
O O2 0.745365 0.830701 0.268811
O O3 0.723198 0.668617 0.183398
O O4 0.746800 0.702793 0.461266
O O5 0.500000 0.075099 0.754299
O O6 0.246699 0.992978 0.727368
O O7 0.311175 0.058123 0.974886
O O8 0.500000 0.573335 0.071965
O O9 0.720594 0.501075 0.216220
O O10 0.775860 0.569457 0.964327
O O11 0.789906 0.337518 0.231333
O O12 0.761703 0.175589 0.170504
O O13 0.000000 0.256476 0.076833
O O14 0.000000 0.457444 0.286723
O O15 0.500000 0.101648 0.184403
#
# Coordination Sequence:
#
# PCOD8167614 Si02
#       6
#     4   4   4   4   4   4
#     4   9  19  36  57  81 108 138 176 224 273 318
#     4   8  15  29  50  75 101 133 172 213 265 321
#     4  11  23  38  60  87 110 137 181 232 271 313
#     4  10  21  36  54  77 107 145 184 219 262 320
#     4  11  24  40  57  79 112 150 181 216 272 335
#     4   9  17  31  52  75 102 137 176 220 265 311
#
# _framework density 19.116325
#
# number of rings (size 3 to 8) (size 9 to 14) (size 15 to 20)
#    0.000    2.333    0.000    3.500    0.000    8.000 
#    0.000    6.667    0.000    0.000    0.000    0.000 
#    0.000    0.000    0.000    0.000    0.000    0.000 
#
# Total GULP energy -297583.665411 kJ/mol
# GULP energy per Si atom -12399.319392 kJ/mol
# Density = 1.907282 g / cm^3
# Si number density = 19.116325 Si / 1000 Ang^3
#
#
#
# Elastic Constant Matrix: (Units=GPa)
#
#
# Indices 1 2 3 4 5 6 
#
# 1 40.3093 31.4844 20.0384 0.0000 0.0000 0.0000
# 2 31.4844 112.0338 50.3420 0.0000 0.0000 0.0000
# 3 20.0384 50.3420 81.8170 0.0000 0.0000 0.0000
# 4 0.0000 0.0000 0.0000 39.7735 0.0000 0.0000
# 5 0.0000 0.0000 0.0000 0.0000 26.2099 0.0000
# 6 0.0000 0.0000 0.0000 0.0000 0.0000 23.3047
#
#
#
# Elastic Compliance Matrix: (Units=1/GPa)
#
#
# Indices 1 2 3 4 5 6 
#
# 1 0.032389 -0.007654 -0.003223 0.000000 0.000000 0.000000
# 2 -0.007654 0.014145 -0.006829 0.000000 0.000000 0.000000
# 3 -0.003223 -0.006829 0.017214 0.000000 0.000000 0.000000
# 4 0.000000 0.000000 0.000000 0.025142 0.000000 0.000000
# 5 0.000000 0.000000 0.000000 0.000000 0.038154 0.000000
# 6 0.000000 0.000000 0.000000 0.000000 0.000000 0.042910
#
#
# Mechanical properties :
#
#
# Convention : Reuss Voigt Hill
#
# Bulk Modulus (GPa) = 35.29117 48.65439 41.97278
# Shear Modulus (GPa) = 23.27631 26.67731 24.97681
#
# Velocity S-wave (km/s) = 3.49322 3.73973 3.61857
# Velocity P-wave (km/s) = 5.89673 6.64488 6.28195
#
# Compressibility (1/GPa) = 0.02833570
#
# Stress axis : x y z
#
# Youngs Moduli (GPa) = 30.87511 70.69431 58.09296
#
# Poissons Ratio (x) = 0.54107 0.18724
# Poissons Ratio (y) = 0.23631 0.39673
# Poissons Ratio (z) = 0.09952 0.48278
#
# Static dielectric constant tensor:
#      x y z
#    x 3.362370 0.000000 0.000000 
#    y 0.000000 3.925540 0.000000 
#    z 0.000000 0.000000 3.416190 
# 
# 
# High freq. dielectric constant tensor:
#      x y z
#    x 1.723790 0.000000 0.000000 
#    y 0.000000 1.761540 0.000000 
#    z 0.000000 0.000000 1.740340 
# 
# From -- ./inp_files/1414.got.cif
#   From: 2010.03.12/outbox.cif.g09.slc.cpg/sg26_1_cif.got.tgz:1414.got - 2010.04.14 03:33:09.
