data_PCOD8167808
_publ_section_title
;
Structure prediction by ZEFSAII (Michael W. Deem and Ramdas Pophale) SiO2 
 PCOD8167808
Probable space group: P C C 2
;
_chemical_formula_sum "Si O2"
_cell_formula_units_Z 26
_cell_length_a 14.098358
_cell_length_b 10.430158
_cell_length_c 10.115832
_cell_angle_alpha 90.000000
_cell_angle_beta 90.000000
_cell_angle_gamma 90.000000
_cell_volume 1487.513890
_symmetry_space_group_name_H-M "P C C 2"
_symmetry_group_IT_number 27
_symmetry_cell_setting 'orthorhombic'
loop_
_space_group_symop_operation_xyz
x,y,z
-x,-y,z
-x,y,1/2+z
x,-y,1/2+z
loop_
_atom_site_type_symbol
_atom_site_label
_atom_site_fract_x
_atom_site_fract_y
_atom_site_fract_z
Si Si1 0.419491 0.255062 0.577750
Si Si2 0.500000 0.500000 0.174858
Si Si3 0.222858 0.151503 0.190651
Si Si4 0.422393 0.745796 0.772835
Si Si5 0.221352 0.848375 0.173172
Si Si6 0.884626 0.844693 0.930289
Si Si7 0.904153 0.148212 0.931030
O O1 0.433487 0.409578 0.582804
O O2 0.497009 0.189823 0.677336
O O3 0.430818 0.206759 0.425574
O O4 0.317701 0.221110 0.635232
O O5 0.565578 0.591073 0.267304
O O6 0.323280 0.218276 0.207692
O O7 0.156891 0.199600 0.309326
O O8 0.239291 0.999728 0.182981
O O9 0.170787 0.200945 0.059684
O O10 0.180652 0.795421 0.310776
O O11 0.142521 0.808866 0.067395
O O12 0.991280 0.788239 0.924697
O O13 0.902236 0.995520 0.924001
#
# Coordination Sequence:
#
# PCOD8167808 Si02
#       7
#     4   2   4   4   4   4   4
#     4  10  21  37  55  75 104 132 176 220 259 307
#     4   8  22  36  60  72  96 132 186 218 266 308
#     4  10  19  31  50  79 109 138 168 204 260 309
#     4  10  21  37  55  75 104 132 176 220 259 307
#     4  10  19  31  50  79 109 138 168 204 260 309
#     4   9  18  28  49  75 106 142 173 201 239 313
#     4   9  16  32  47  71 110 142 171 205 243 297
#
# _framework density 17.478829000000001
#
# number of rings (size 3 to 8) (size 9 to 14) (size 15 to 20)
#    0.923    1.538    1.538    1.385    2.154    4.308 
#    0.000    1.538    0.000    0.000    0.000    6.462 
#    0.000    0.000    0.000    0.000    0.000    0.000 
#
# Total GULP energy -322159.609573 kJ/mol
# GULP energy per Si atom -12390.754214 kJ/mol
# Density = 1.743905 g / cm^3
# Si number density = 17.478829 Si / 1000 Ang^3
#
#
#
# Elastic Constant Matrix: (Units=GPa)
#
#
# Indices 1 2 3 4 5 6 
#
# 1 119.3397 32.3046 20.6256 0.0000 0.0000 0.0000
# 2 32.3046 30.1712 17.5036 0.0000 0.0000 0.0000
# 3 20.6256 17.5036 81.4321 0.0000 0.0000 0.0000
# 4 0.0000 0.0000 0.0000 18.6848 0.0000 0.0000
# 5 0.0000 0.0000 0.0000 0.0000 3.4161 0.0000
# 6 0.0000 0.0000 0.0000 0.0000 0.0000 -5.8232
#
#
#
# Elastic Compliance Matrix: (Units=1/GPa)
#
#
# Indices 1 2 3 4 5 6 
#
# 1 0.011806 -0.012460 -0.000312 0.000000 0.000000 0.000000
# 2 -0.012460 0.051016 -0.007810 0.000000 0.000000 0.000000
# 3 -0.000312 -0.007810 0.014038 0.000000 0.000000 0.000000
# 4 0.000000 0.000000 0.000000 0.053519 0.000000 0.000000
# 5 0.000000 0.000000 0.000000 0.000000 0.292732 0.000000
# 6 0.000000 0.000000 0.000000 0.000000 0.000000 -0.171728
#
#
# Mechanical properties :
#
#
# Convention : Reuss Voigt Hill
#
# Bulk Modulus (GPa) = 28.01409 41.31228 34.66319
# Shear Modulus (GPa) = 16.42328 13.95617 15.18973
#
# Velocity S-wave (km/s) = 3.06863 2.82877 2.95114
# Velocity P-wave (km/s) = 5.34954 5.86142 5.61132
#
# Compressibility (1/GPa) = 0.03569632
#
# Stress axis : x y z
#
# Youngs Moduli (GPa) = 84.70113 19.60173 71.23563
#
# Poissons Ratio (x) = 0.24424 0.02223
# Poissons Ratio (y) = 1.05537 0.55634
# Poissons Ratio (z) = 0.02644 0.15309
#
# Static dielectric constant tensor:
#      x y z
#    x 3.476240 0.000000 0.000000 
#    y 0.000000 2.568300 0.000000 
#    z 0.000000 0.000000 3.465940 
# 
# 
# High freq. dielectric constant tensor:
#      x y z
#    x 1.688180 0.000000 0.000000 
#    y 0.000000 1.609560 0.000000 
#    z 0.000000 0.000000 1.693790 
# 
# From -- ./inp_files/2651.got.cif
#   From: 2010.03.12/outbox.cif.g09.slc.cpg/sg27_2_cif.got.tgz:2651.got - 2010.04.14 03:36:05.
