data_PCOD8167676
_publ_section_title
;
Structure prediction by ZEFSAII (Michael W. Deem and Ramdas Pophale) SiO2 
 PCOD8167676
Probable space group: P M C 21
;
_chemical_formula_sum "Si O2"
_cell_formula_units_Z 20
_cell_length_a 12.288061
_cell_length_b 15.893718
_cell_length_c 5.010298
_cell_angle_alpha 90.000000
_cell_angle_beta 90.000000
_cell_angle_gamma 90.000000
_cell_volume 978.526112
_symmetry_space_group_name_H-M "P M C 21"
_symmetry_group_IT_number 26
_symmetry_cell_setting 'orthorhombic'
loop_
_space_group_symop_operation_xyz
x,y,z
-x,-y,1/2+z
-x,y,z
x,-y,1/2+z
loop_
_atom_site_type_symbol
_atom_site_label
_atom_site_fract_x
_atom_site_fract_y
_atom_site_fract_z
Si Si1 0.500000 0.945360 0.928090
Si Si2 0.000000 0.553401 0.336582
Si Si3 0.311901 0.180737 0.461676
Si Si4 0.766601 0.557419 0.440880
Si Si5 0.125540 0.944594 0.941714
Si Si6 0.627724 0.716762 0.472747
O O1 0.606376 0.891387 0.864107
O O2 0.500000 0.025545 0.734425
O O3 0.113181 0.601320 0.405752
O O4 0.000000 0.469545 0.523525
O O5 0.192235 0.141025 0.486241
O O6 0.350227 0.215331 0.744954
O O7 0.312466 0.254846 0.243856
O O8 0.752710 0.519227 0.734682
O O9 0.675402 0.626886 0.387471
O O10 0.000000 0.918106 0.963999
O O11 0.155282 0.984544 0.657789
O O12 0.500000 0.707029 0.524642
#
# Coordination Sequence:
#
# PCOD8167676 Si02
#       6
#     2   2   4   4   4   4
#     4  12  22  36  62  86 110 156 204 236 284 342
#     4   8  16  34  58  84 112 140 184 248 286 330
#     4  12  23  41  58  88 126 156 195 251 298 354
#     4  10  21  39  63  88 115 153 202 240 289 357
#     4  10  21  40  64  88 118 156 199 249 297 355
#     4  12  24  41  59  85 128 162 192 249 303 338
#
# _framework density 20.438901999999999
#
# number of rings (size 3 to 8) (size 9 to 14) (size 15 to 20)
#    0.000    1.200    2.000    4.800    0.000    0.800 
#    3.600    0.000    0.000    0.000    0.000    0.000 
#    0.000    0.000    0.000    0.000    0.000    0.000 
#
# Total GULP energy -248077.600592 kJ/mol
# GULP energy per Si atom -12403.880030 kJ/mol
# Density = 2.039238 g / cm^3
# Si number density = 20.438902 Si / 1000 Ang^3
#
#
#
# Elastic Constant Matrix: (Units=GPa)
#
#
# Indices 1 2 3 4 5 6 
#
# 1 112.5447 51.2765 21.8840 0.0000 0.0000 0.0000
# 2 51.2765 69.9790 8.9230 0.0000 0.0000 0.0000
# 3 21.8840 8.9230 83.6901 0.0000 0.0000 0.0000
# 4 0.0000 0.0000 0.0000 29.3289 0.0000 0.0000
# 5 0.0000 0.0000 0.0000 0.0000 25.2969 0.0000
# 6 0.0000 0.0000 0.0000 0.0000 0.0000 42.6500
#
#
#
# Elastic Compliance Matrix: (Units=1/GPa)
#
#
# Indices 1 2 3 4 5 6 
#
# 1 0.013866 -0.009831 -0.002578 0.000000 0.000000 0.000000
# 2 -0.009831 0.021458 0.000283 0.000000 0.000000 0.000000
# 3 -0.002578 0.000283 0.012593 0.000000 0.000000 0.000000
# 4 0.000000 0.000000 0.000000 0.034096 0.000000 0.000000
# 5 0.000000 0.000000 0.000000 0.000000 0.039531 0.000000
# 6 0.000000 0.000000 0.000000 0.000000 0.000000 0.023447
#
#
# Mechanical properties :
#
#
# Convention : Reuss Voigt Hill
#
# Bulk Modulus (GPa) = 42.25763 47.82010 45.03886
# Shear Modulus (GPa) = 28.22791 31.73052 29.97921
#
# Velocity S-wave (km/s) = 3.72033 3.94440 3.83400
# Velocity P-wave (km/s) = 6.25895 6.64769 6.45625
#
# Compressibility (1/GPa) = 0.02366437
#
# Stress axis : x y z
#
# Youngs Moduli (GPa) = 72.11958 46.60305 79.41130
#
# Poissons Ratio (x) = 0.45817 0.20469
# Poissons Ratio (y) = 0.70904 -0.02247
# Poissons Ratio (z) = 0.18589 -0.01319
#
# Static dielectric constant tensor:
#      x y z
#    x 3.891650 0.000000 0.000000 
#    y 0.000000 3.295710 0.000000 
#    z 0.000000 0.000000 3.782480 
# 
# 
# High freq. dielectric constant tensor:
#      x y z
#    x 1.810260 0.000000 0.000000 
#    y 0.000000 1.768270 0.000000 
#    z 0.000000 0.000000 1.818770 
# 
# From -- ./inp_files/357.got.cif
#   From: 2010.03.12/outbox.cif.g09.slc.cpg/sg26_1_cif.got.tgz:357.got - 2010.04.14 03:33:09.
