data_PCOD8167719
_publ_section_title
;
Structure prediction by ZEFSAII (Michael W. Deem and Ramdas Pophale) SiO2 
 PCOD8167719
Probable space group: P M C 21
;
_chemical_formula_sum "Si O2"
_cell_formula_units_Z 24
_cell_length_a 8.478081
_cell_length_b 11.870458
_cell_length_c 11.644201
_cell_angle_alpha 90.000000
_cell_angle_beta 90.000000
_cell_angle_gamma 90.000000
_cell_volume 1171.857303
_symmetry_space_group_name_H-M "P M C 21"
_symmetry_group_IT_number 26
_symmetry_cell_setting 'orthorhombic'
loop_
_space_group_symop_operation_xyz
x,y,z
-x,-y,1/2+z
-x,y,z
x,-y,1/2+z
loop_
_atom_site_type_symbol
_atom_site_label
_atom_site_fract_x
_atom_site_fract_y
_atom_site_fract_z
Si Si1 0.315963 0.724671 0.769170
Si Si2 0.816062 0.076168 0.131434
Si Si3 0.819939 0.217902 0.905980
Si Si4 0.682168 0.833209 0.167328
Si Si5 0.681824 0.409189 0.044756
Si Si6 0.181224 0.351981 0.506356
O O1 0.500000 0.723287 0.799643
O O2 0.266071 0.849065 0.729405
O O3 0.272011 0.633747 0.671523
O O4 0.216844 0.693264 0.880205
O O5 0.000000 0.064823 0.160839
O O6 0.734370 0.956146 0.128494
O O7 0.786681 0.130647 0.007748
O O8 0.707136 0.183409 0.802490
O O9 0.000000 0.212526 0.864243
O O10 0.782945 0.344164 0.948706
O O11 0.500000 0.815383 0.136557
O O12 0.785815 0.743826 0.098909
O O13 0.500000 0.382711 0.019935
O O14 0.712008 0.541168 0.036584
O O15 0.000000 0.388157 0.514283
#
# Coordination Sequence:
#
# PCOD8167719 Si02
#       6
#     4   4   4   4   4   4
#     4  10  22  42  67  94 126 165 210 258 316 376
#     4  10  22  42  67  94 127 165 209 257 315 377
#     4  10  22  42  67  94 126 165 210 258 316 376
#     4  12  26  42  64  93 129 167 213 262 314 373
#     4  10  22  42  67  94 127 165 209 257 315 377
#     4  12  26  42  64  93 129 167 213 262 314 373
#
# _framework density 20.480311
#
# number of rings (size 3 to 8) (size 9 to 14) (size 15 to 20)
#    0.000    1.333    0.000    5.000    4.667    4.000 
#    0.000    0.000    0.000    0.000    0.000    0.000 
#    0.000    0.000    0.000    0.000    0.000    0.000 
#
# Total GULP energy -297795.942458 kJ/mol
# GULP energy per Si atom -12408.164269 kJ/mol
# Density = 2.043370 g / cm^3
# Si number density = 20.480311 Si / 1000 Ang^3
#
#
#
# Elastic Constant Matrix: (Units=GPa)
#
#
# Indices 1 2 3 4 5 6 
#
# 1 68.2553 12.8122 26.6912 0.0000 0.0000 0.0000
# 2 12.8122 121.5191 37.4846 0.0000 0.0000 0.0000
# 3 26.6912 37.4846 88.4812 0.0000 0.0000 0.0000
# 4 0.0000 0.0000 0.0000 21.8987 0.0000 0.0000
# 5 0.0000 0.0000 0.0000 0.0000 35.0675 0.0000
# 6 0.0000 0.0000 0.0000 0.0000 0.0000 36.2530
#
#
#
# Elastic Compliance Matrix: (Units=1/GPa)
#
#
# Indices 1 2 3 4 5 6 
#
# 1 0.016616 -0.000237 -0.004912 0.000000 0.000000 0.000000
# 2 -0.000237 0.009470 -0.003940 0.000000 0.000000 0.000000
# 3 -0.004912 -0.003940 0.014453 0.000000 0.000000 0.000000
# 4 0.000000 0.000000 0.000000 0.045665 0.000000 0.000000
# 5 0.000000 0.000000 0.000000 0.000000 0.028516 0.000000
# 6 0.000000 0.000000 0.000000 0.000000 0.000000 0.027584
#
#
# Mechanical properties :
#
#
# Convention : Reuss Voigt Hill
#
# Bulk Modulus (GPa) = 44.72201 48.02573 46.37387
# Shear Modulus (GPa) = 29.77330 32.06169 30.91749
#
# Velocity S-wave (km/s) = 3.81695 3.96092 3.88960
# Velocity P-wave (km/s) = 6.42724 6.66477 6.54708
#
# Compressibility (1/GPa) = 0.02236036
#
# Stress axis : x y z
#
# Youngs Moduli (GPa) = 60.18226 105.60130 69.19005
#
# Poissons Ratio (x) = 0.02499 0.33987
# Poissons Ratio (y) = 0.01424 0.27263
# Poissons Ratio (z) = 0.29563 0.41611
#
# Static dielectric constant tensor:
#      x y z
#    x 3.756450 0.000000 0.000000 
#    y 0.000000 3.717070 0.000000 
#    z 0.000000 0.000000 3.723630 
# 
# 
# High freq. dielectric constant tensor:
#      x y z
#    x 1.814260 0.000000 0.000000 
#    y 0.000000 1.808670 0.000000 
#    z 0.000000 0.000000 1.805670 
# 
# From -- ./inp_files/2816.got.cif
#   From: 2010.03.12/outbox.cif.g09.slc.cpg/sg26_2_cif.got.tgz:2816.got - 2010.04.14 03:33:09.
