data_PCOD8167482
_publ_section_title
;
Structure prediction by ZEFSAII (Michael W. Deem and Ramdas Pophale) SiO2 
 PCOD8167482
Probable space group: P M C 21
;
_chemical_formula_sum "Si O2"
_cell_formula_units_Z 24
_cell_length_a 8.770334
_cell_length_b 11.964710
_cell_length_c 11.831422
_cell_angle_alpha 90.000000
_cell_angle_beta 90.000000
_cell_angle_gamma 90.000000
_cell_volume 1241.524386
_symmetry_space_group_name_H-M "P M C 21"
_symmetry_group_IT_number 26
_symmetry_cell_setting 'orthorhombic'
loop_
_space_group_symop_operation_xyz
x,y,z
-x,-y,1/2+z
-x,y,z
x,-y,1/2+z
loop_
_atom_site_type_symbol
_atom_site_label
_atom_site_fract_x
_atom_site_fract_y
_atom_site_fract_z
Si Si1 0.176946 0.333944 0.053340
Si Si2 0.318813 0.086042 0.671828
Si Si3 0.325638 0.437025 0.602035
Si Si4 0.318795 0.160201 0.220367
Si Si5 0.674200 0.710562 0.320853
Si Si6 0.318578 0.226076 0.465008
O O1 0.218578 0.455956 0.098686
O O2 0.269408 0.241243 0.121163
O O3 0.000000 0.312807 0.072501
O O4 0.216438 0.324271 0.921921
O O5 0.500000 0.083061 0.665877
O O6 0.270342 0.169920 0.772356
O O7 0.255337 0.132071 0.551899
O O8 0.251847 0.963339 0.695970
O O9 0.500000 0.473051 0.577679
O O10 0.312061 0.383275 0.725185
O O11 0.268419 0.348982 0.507160
O O12 0.500000 0.156510 0.225274
O O13 0.252264 0.202950 0.340402
O O14 0.500000 0.718263 0.364044
O O15 0.500000 0.220757 0.465577
#
# Coordination Sequence:
#
# PCOD8167482 Si02
#       6
#     4   4   4   4   4   4
#     4  12  26  38  52  81 120 154 189 228 275 338
#     4   8  16  32  59  91 114 136 178 236 286 330
#     4   9  19  38  61  83 110 144 189 239 283 328
#     4  10  20  34  59  88 114 145 184 231 280 331
#     4   9  19  38  63  87 110 142 187 237 286 333
#     4   8  16  32  56  88 114 137 177 233 288 330
#
# _framework density 19.331074000000001
#
# number of rings (size 3 to 8) (size 9 to 14) (size 15 to 20)
#    0.000    2.667    0.000    3.500    4.667    0.667 
#    0.000    0.833    0.000    2.000    0.000    0.000 
#    0.000    0.000    0.000    0.000    0.000    0.000 
#
# Total GULP energy -297579.221229 kJ/mol
# GULP energy per Si atom -12399.134218 kJ/mol
# Density = 1.928708 g / cm^3
# Si number density = 19.331074 Si / 1000 Ang^3
#
#
#
# Elastic Constant Matrix: (Units=GPa)
#
#
# Indices 1 2 3 4 5 6 
#
# 1 22.1369 17.7074 16.2776 0.0000 0.0000 0.0000
# 2 17.7074 138.2122 45.8310 0.0000 0.0000 0.0000
# 3 16.2776 45.8310 92.1281 0.0000 0.0000 0.0000
# 4 0.0000 0.0000 0.0000 24.6083 0.0000 0.0000
# 5 0.0000 0.0000 0.0000 0.0000 7.7439 0.0000
# 6 0.0000 0.0000 0.0000 0.0000 0.0000 -0.0468
#
#
#
# Elastic Compliance Matrix: (Units=1/GPa)
#
#
# Indices 1 2 3 4 5 6 
#
# 1 0.054169 -0.004510 -0.007327 0.000000 0.000000 0.000000
# 2 -0.004510 0.009040 -0.003700 0.000000 0.000000 0.000000
# 3 -0.007327 -0.003700 0.013990 0.000000 0.000000 0.000000
# 4 0.000000 0.000000 0.000000 0.040637 0.000000 0.000000
# 5 0.000000 0.000000 0.000000 0.000000 0.129134 0.000000
# 6 0.000000 0.000000 0.000000 0.000000 0.000000-21.368101
#
#
# Mechanical properties :
#
#
# Convention : Reuss Voigt Hill
#
# Bulk Modulus (GPa) = 21.68092 45.78992 33.73542
# Shear Modulus (GPa) = -0.23725 17.97182 8.86728
#
# Velocity S-wave (km/s) = -0.35071 3.05238 2.14407
# Velocity P-wave (km/s) = 3.32805 6.01343 4.85990
#
# Compressibility (1/GPa) = 0.04612350
#
# Stress axis : x y z
#
# Youngs Moduli (GPa) = 18.46076 110.61805 71.48058
#
# Poissons Ratio (x) = 0.49893 0.52374
# Poissons Ratio (y) = 0.08326 0.26450
# Poissons Ratio (z) = 0.13526 0.40932
#
# Static dielectric constant tensor:
#      x y z
#    x 3.027510 0.000000 0.000000 
#    y 0.000000 3.754230 0.000000 
#    z 0.000000 0.000000 3.721760 
# 
# 
# High freq. dielectric constant tensor:
#      x y z
#    x 1.697890 0.000000 0.000000 
#    y 0.000000 1.764520 0.000000 
#    z 0.000000 0.000000 1.762170 
# 
# From -- ./inp_files/2792.got.cif
#   From: 2010.03.12/outbox.cif.g09.slc.cpg/sg26_2_cif.got.tgz:2792.got - 2010.04.14 03:33:09.
