data_PCOD8167176
_publ_section_title
;
Structure prediction by ZEFSAII (Michael W. Deem and Ramdas Pophale) SiO2 
 PCOD8167176
Probable space group: P M C 21
;
_chemical_formula_sum "Si O2"
_cell_formula_units_Z 32
_cell_length_a 20.719168
_cell_length_b 26.867597
_cell_length_c 5.150834
_cell_angle_alpha 90.000000
_cell_angle_beta 90.000000
_cell_angle_gamma 90.000000
_cell_volume 2867.336685
_symmetry_space_group_name_H-M "P M C 21"
_symmetry_group_IT_number 26
_symmetry_cell_setting 'orthorhombic'
loop_
_space_group_symop_operation_xyz
x,y,z
-x,-y,1/2+z
-x,y,z
x,-y,1/2+z
loop_
_atom_site_type_symbol
_atom_site_label
_atom_site_fract_x
_atom_site_fract_y
_atom_site_fract_z
Si Si1 0.422991 0.300575 0.252490
Si Si2 0.200866 0.031667 0.706161
Si Si3 0.576647 0.129272 0.757942
Si Si4 0.423049 0.358702 0.752461
Si Si5 0.423035 0.529031 0.253789
Si Si6 0.659394 0.966854 0.289376
Si Si7 0.423337 0.811372 0.757267
Si Si8 0.069181 0.967377 0.341626
O O1 0.500000 0.299453 0.252940
O O2 0.396567 0.329865 0.501864
O O3 0.395193 0.244545 0.253351
O O4 0.396587 0.329491 0.001955
O O5 0.198803 0.015565 0.405076
O O6 0.269269 0.058796 0.761590
O O7 0.135424 0.063911 0.777218
O O8 0.500000 0.123406 0.758292
O O9 0.605464 0.074407 0.749240
O O10 0.601392 0.160432 0.511972
O O11 0.602152 0.158536 0.009232
O O12 0.500000 0.359704 0.752631
O O13 0.395854 0.414836 0.753439
O O14 0.500000 0.529967 0.253715
O O15 0.396519 0.500073 0.504009
O O16 0.650519 0.990468 0.573394
O O17 0.500000 0.808705 0.753471
O O18 0.000000 0.938544 0.302194
O O19 0.071529 0.986854 0.636313
#
# Coordination Sequence:
#
# PCOD8167176 Si02
#       8
#     4   4   4   4   4   4   4   4
#     4   9  15  23  34  45  55  65  80 104 132 160
#     4   8  14  23  33  45  60  76  92 108 126 147
#     4  10  19  29  39  49  59  71  88 109 137 172
#     4   9  15  21  30  43  55  69  88 105 123 150
#     4   9  15  21  27  36  53  74  91 105 119 137
#     4  10  19  29  39  49  61  76  92 110 131 159
#     4   9  17  28  39  49  59  69  82 107 142 173
#     4   8  12  18  29  44  60  76  92 108 124 142
#
# _framework density 11.160182000000001
#
# number of rings (size 3 to 8) (size 9 to 14) (size 15 to 20)
#    0.000    3.000    0.000    2.250    0.000    6.500 
#    0.000    0.000    0.000    0.000    0.000    0.000 
#    0.000    0.000    0.000    0.000    0.000    0.000 
#
# Total GULP energy -396420.216608 kJ/mol
# GULP energy per Si atom -12388.131769 kJ/mol
# Density = 1.113478 g / cm^3
# Si number density = 11.160182 Si / 1000 Ang^3
#
#
#
# Elastic Constant Matrix: (Units=GPa)
#
#
# Indices 1 2 3 4 5 6 
#
# 1 27.1038 19.4782 12.9666 0.0000 0.0000 0.0000
# 2 19.4782 66.3203 30.3398 0.0000 0.0000 0.0000
# 3 12.9666 30.3398 88.9975 0.0000 0.0000 0.0000
# 4 0.0000 0.0000 0.0000 18.5182 0.0000 0.0000
# 5 0.0000 0.0000 0.0000 0.0000 6.9504 0.0000
# 6 0.0000 0.0000 0.0000 0.0000 0.0000 0.1401
#
#
#
# Elastic Compliance Matrix: (Units=1/GPa)
#
#
# Indices 1 2 3 4 5 6 
#
# 1 0.047250 -0.012710 -0.002551 0.000000 0.000000 0.000000
# 2 -0.012710 0.021283 -0.005404 0.000000 0.000000 0.000000
# 3 -0.002551 -0.005404 0.013450 0.000000 0.000000 0.000000
# 4 0.000000 0.000000 0.000000 0.054001 0.000000 0.000000
# 5 0.000000 0.000000 0.000000 0.000000 0.143876 0.000000
# 6 0.000000 0.000000 0.000000 0.000000 0.000000 7.139533
#
#
# Mechanical properties :
#
#
# Convention : Reuss Voigt Hill
#
# Bulk Modulus (GPa) = 24.59835 34.22120 29.40978
# Shear Modulus (GPa) = 0.66896 13.09755 6.88326
#
# Velocity S-wave (km/s) = 0.77506 3.42950 2.48618
# Velocity P-wave (km/s) = 4.78435 6.81265 5.88652
#
# Compressibility (1/GPa) = 0.04065313
#
# Stress axis : x y z
#
# Youngs Moduli (GPa) = 21.16412 46.98503 74.34863
#
# Poissons Ratio (x) = 0.59719 0.18967
# Poissons Ratio (y) = 0.26900 0.40177
# Poissons Ratio (z) = 0.05399 0.25390
#
# Static dielectric constant tensor:
#      x y z
#    x 2.244150 0.000000 0.000000 
#    y 0.000000 2.252270 0.000000 
#    z 0.000000 0.000000 2.625310 
# 
# 
# High freq. dielectric constant tensor:
#      x y z
#    x 1.367130 0.000000 0.000000 
#    y 0.000000 1.392420 0.000000 
#    z 0.000000 0.000000 1.449410 
# 
# From -- ./inp_files/826.got.cif
#   From: 2010.03.12/outbox.cif.g09.slc.cpg/sg26_1_cif.got.tgz:826.got - 2010.04.14 03:33:09.
