data_PCOD8167205
_publ_section_title
;
Structure prediction by ZEFSAII (Michael W. Deem and Ramdas Pophale) SiO2 
 PCOD8167205
Probable space group: P M C 21
;
_chemical_formula_sum "Si O2"
_cell_formula_units_Z 32
_cell_length_a 9.433599
_cell_length_b 11.464566
_cell_length_c 16.298319
_cell_angle_alpha 90.000000
_cell_angle_beta 90.000000
_cell_angle_gamma 90.000000
_cell_volume 1762.697725
_symmetry_space_group_name_H-M "P M C 21"
_symmetry_group_IT_number 26
_symmetry_cell_setting 'orthorhombic'
loop_
_space_group_symop_operation_xyz
x,y,z
-x,-y,1/2+z
-x,y,z
x,-y,1/2+z
loop_
_atom_site_type_symbol
_atom_site_label
_atom_site_fract_x
_atom_site_fract_y
_atom_site_fract_z
Si Si1 0.843447 0.576923 0.787820
Si Si2 0.337193 0.242298 0.196881
Si Si3 0.332638 0.916705 0.845810
Si Si4 0.665962 0.428203 0.560521
Si Si5 0.660780 0.377679 0.749234
Si Si6 0.840188 0.266452 0.444619
Si Si7 0.335325 0.822819 0.364115
Si Si8 0.665187 0.310402 0.021361
O O1 0.756560 0.648003 0.720804
O O2 0.763244 0.456339 0.804676
O O3 0.851501 0.641783 0.872688
O O4 0.000000 0.553840 0.752321
O O5 0.500000 0.279333 0.210720
O O6 0.300039 0.130016 0.253078
O O7 0.307562 0.224529 0.099787
O O8 0.500000 0.906571 0.864265
O O9 0.247272 0.845637 0.914378
O O10 0.272197 0.047929 0.852057
O O11 0.500000 0.415178 0.538700
O O12 0.694703 0.398742 0.654933
O O13 0.755150 0.327894 0.516841
O O14 0.723857 0.557991 0.537624
O O15 0.500000 0.412480 0.770502
O O16 0.690200 0.245298 0.778597
O O17 0.000000 0.230251 0.472392
O O18 0.500000 0.838194 0.383329
O O19 0.265769 0.752723 0.441570
O O20 0.500000 0.326479 0.005558
#
# Coordination Sequence:
#
# PCOD8167205 Si02
#       8
#     4   4   4   4   4   4   4   4
#     4  10  19  31  50  76 104 135 170 209 262 315
#     4   9  16  30  52  75 100 133 173 215 254 303
#     4   9  18  34  54  76 101 135 178 215 258 307
#     4  10  19  32  52  80 106 135 172 211 263 319
#     4  10  19  33  53  77 109 139 169 212 263 318
#     4  10  21  35  52  75 103 137 175 218 260 305
#     4   9  18  32  51  79 108 135 170 217 263 305
#     4   9  16  29  50  78 107 133 167 211 263 312
#
# _framework density 18.153991999999999
#
# number of rings (size 3 to 8) (size 9 to 14) (size 15 to 20)
#    0.000    2.500    1.250    1.500    0.000    3.000 
#    2.250    0.625    0.000    1.500    0.000    0.000 
#    0.000    0.000    0.000    0.000    0.000    0.000 
#
# Total GULP energy -396577.848014 kJ/mol
# GULP energy per Si atom -12393.057750 kJ/mol
# Density = 1.811267 g / cm^3
# Si number density = 18.153992 Si / 1000 Ang^3
#
#
#
# Elastic Constant Matrix: (Units=GPa)
#
#
# Indices 1 2 3 4 5 6 
#
# 1 63.8045 45.7145 27.7798 0.0000 0.0000 0.0000
# 2 45.7145 148.9231 63.2146 0.0000 0.0000 0.0000
# 3 27.7798 63.2146 85.6283 0.0000 0.0000 0.0000
# 4 0.0000 0.0000 0.0000 23.3041 0.0000 0.0000
# 5 0.0000 0.0000 0.0000 0.0000 10.1454 0.0000
# 6 0.0000 0.0000 0.0000 0.0000 0.0000 3.5272
#
#
#
# Elastic Compliance Matrix: (Units=1/GPa)
#
#
# Indices 1 2 3 4 5 6 
#
# 1 0.020585 -0.005074 -0.002932 0.000000 0.000000 0.000000
# 2 -0.005074 0.011030 -0.006497 0.000000 0.000000 0.000000
# 3 -0.002932 -0.006497 0.017426 0.000000 0.000000 0.000000
# 4 0.000000 0.000000 0.000000 0.042911 0.000000 0.000000
# 5 0.000000 0.000000 0.000000 0.000000 0.098567 0.000000
# 6 0.000000 0.000000 0.000000 0.000000 0.000000 0.283508
#
#
# Mechanical properties :
#
#
# Convention : Reuss Voigt Hill
#
# Bulk Modulus (GPa) = 49.91354 63.53041 56.72198
# Shear Modulus (GPa) = 9.80946 18.17181 13.99064
#
# Velocity S-wave (km/s) = 2.32706 3.16726 2.77910
# Velocity P-wave (km/s) = 5.89699 6.96036 6.45063
#
# Compressibility (1/GPa) = 0.02003465
#
# Stress axis : x y z
#
# Youngs Moduli (GPa) = 48.57870 90.65950 57.38581
#
# Poissons Ratio (x) = 0.46003 0.16827
# Poissons Ratio (y) = 0.24650 0.37283
# Poissons Ratio (z) = 0.14244 0.58900
#
# Static dielectric constant tensor:
#      x y z
#    x 3.306000 0.000000 0.000000 
#    y 0.000000 3.459300 0.000000 
#    z 0.000000 0.000000 3.449290 
# 
# 
# High freq. dielectric constant tensor:
#      x y z
#    x 1.673750 0.000000 0.000000 
#    y 0.000000 1.694730 0.000000 
#    z 0.000000 0.000000 1.703330 
# 
# From -- ./inp_files/4298.got.cif
#   From: 2010.03.12/outbox.cif.g09.slc.cpg/sg26_3_cif.got.tgz:4298.got - 2010.04.14 03:33:09.
