data_PCOD8167019
_publ_section_title
;
Structure prediction by ZEFSAII (Michael W. Deem and Ramdas Pophale) SiO2 
 PCOD8167019
Probable space group: P M M 2
;
_chemical_formula_sum "Si O2"
_cell_formula_units_Z 32
_cell_length_a 9.541698
_cell_length_b 9.591368
_cell_length_c 20.726098
_cell_angle_alpha 90.000000
_cell_angle_beta 90.000000
_cell_angle_gamma 90.000000
_cell_volume 1896.809728
_symmetry_space_group_name_H-M "P M M 2"
_symmetry_group_IT_number 25
_symmetry_cell_setting 'orthorhombic'
loop_
_space_group_symop_operation_xyz
x,y,z
-x,-y,z
-x,y,z
x,-y,z
loop_
_atom_site_type_symbol
_atom_site_label
_atom_site_fract_x
_atom_site_fract_y
_atom_site_fract_z
Si Si1 0.166793 0.156453 0.298010
Si Si2 0.832944 0.345033 0.184395
Si Si3 0.335557 0.338566 0.923441
Si Si4 0.663538 0.661090 0.682246
Si Si5 0.833501 0.843624 0.440180
Si Si6 0.844225 0.665829 0.043382
Si Si7 0.333547 0.841613 0.803038
Si Si8 0.837827 0.338434 0.557578
O O1 0.232276 0.251965 0.241740
O O2 0.216572 0.207987 0.369149
O O3 0.000000 0.160816 0.294529
O O4 0.220822 0.000000 0.286420
O O5 0.771144 0.500000 0.193330
O O6 0.000000 0.349626 0.188482
O O7 0.791155 0.282430 0.113974
O O8 0.500000 0.319882 0.933877
O O9 0.298263 0.500000 0.908593
O O10 0.260881 0.282685 0.988035
O O11 0.278758 0.243140 0.865179
O O12 0.500000 0.684887 0.668173
O O13 0.692809 0.500000 0.700751
O O14 0.718444 0.759170 0.739873
O O15 0.749543 0.707265 0.619609
O O16 0.775241 0.743132 0.495954
O O17 0.000000 0.841868 0.441727
O O18 0.778215 0.000000 0.453094
O O19 0.849475 0.500000 0.046043
O O20 0.000000 0.724244 0.028394
O O21 0.500000 0.843477 0.803978
O O22 0.274246 0.000000 0.803191
O O23 0.817499 0.500000 0.542199
O O24 0.000000 0.301591 0.570716
#
# Coordination Sequence:
#
# PCOD8167019 Si02
#       8
#     4   4   4   4   4   4   4   4
#     4   8  13  21  33  51  76 104 133 164 197 233
#     4   8  13  21  34  52  74 101 132 164 197 233
#     4   9  16  27  45  65  81 102 135 169 198 234
#     4   9  17  30  47  64  82 106 135 165 198 238
#     4   8  14  24  37  54  79 110 138 164 199 241
#     4   8  14  25  40  59  84 110 133 161 201 244
#     4   9  17  29  45  64  84 105 132 168 204 235
#     4   9  17  28  42  62  86 108 132 165 202 238
#
# _framework density 16.870432000000001
#
# number of rings (size 3 to 8) (size 9 to 14) (size 15 to 20)
#    0.000    3.500    0.000    1.875    0.000    2.500 
#    0.000    3.750    0.000    4.875    0.000    0.875 
#    0.000    5.000    0.000    0.000    0.000    0.000 
#
# Total GULP energy -396574.869748 kJ/mol
# GULP energy per Si atom -12392.964680 kJ/mol
# Density = 1.683203 g / cm^3
# Si number density = 16.870432 Si / 1000 Ang^3
#
#
#
# Elastic Constant Matrix: (Units=GPa)
#
#
# Indices 1 2 3 4 5 6 
#
# 1 24.2172 21.3290 39.2750 0.0000 0.0000 0.0000
# 2 21.3290 84.7928 88.4024 0.0000 0.0000 0.0000
# 3 39.2750 88.4024 193.6698 0.0000 0.0000 0.0000
# 4 0.0000 0.0000 0.0000 19.1887 0.0000 0.0000
# 5 0.0000 0.0000 0.0000 0.0000 4.4644 0.0000
# 6 0.0000 0.0000 0.0000 0.0000 0.0000 9.2811
#
#
#
# Elastic Compliance Matrix: (Units=1/GPa)
#
#
# Indices 1 2 3 4 5 6 
#
# 1 0.062531 -0.004786 -0.010496 0.000000 0.000000 0.000000
# 2 -0.004786 0.022868 -0.009468 0.000000 0.000000 0.000000
# 3 -0.010496 -0.009468 0.011614 0.000000 0.000000 0.000000
# 4 0.000000 0.000000 0.000000 0.052114 0.000000 0.000000
# 5 0.000000 0.000000 0.000000 0.000000 0.223995 0.000000
# 6 0.000000 0.000000 0.000000 0.000000 0.000000 0.107746
#
#
# Mechanical properties :
#
#
# Convention : Reuss Voigt Hill
#
# Bulk Modulus (GPa) = 21.04717 66.74363 43.89540
# Shear Modulus (GPa) = 9.15407 16.83173 12.99290
#
# Velocity S-wave (km/s) = 2.33193 3.16208 2.77818
# Velocity P-wave (km/s) = 4.44448 7.27874 6.03048
#
# Compressibility (1/GPa) = 0.04751232
#
# Stress axis : x y z
#
# Youngs Moduli (GPa) = 15.99213 43.72879 86.10571
#
# Poissons Ratio (x) = 0.20930 0.90377
# Poissons Ratio (y) = 0.07654 0.81523
# Poissons Ratio (z) = 0.16786 0.41402
#
# Static dielectric constant tensor:
#      x y z
#    x 2.688110 0.000000 0.000000 
#    y 0.000000 3.213270 0.000000 
#    z 0.000000 0.000000 3.562580 
# 
# 
# High freq. dielectric constant tensor:
#      x y z
#    x 1.589500 0.000000 0.000000 
#    y 0.000000 1.636060 0.000000 
#    z 0.000000 0.000000 1.667190 
# 
# From -- ./inp_files/6291.got.cif
#   From: 2010.03.12/outbox.cif.g09.slc.cpg/sg25_4_cif.got.tgz:6291.got - 2010.04.14 03:30:10.
