data_PCOD8167366
_publ_section_title
;
Structure prediction by ZEFSAII (Michael W. Deem and Ramdas Pophale) SiO2 
 PCOD8167366
Probable space group: P M C 21
;
_chemical_formula_sum "Si O2"
_cell_formula_units_Z 32
_cell_length_a 9.238828
_cell_length_b 11.824030
_cell_length_c 15.265869
_cell_angle_alpha 90.000000
_cell_angle_beta 90.000000
_cell_angle_gamma 90.000000
_cell_volume 1667.646269
_symmetry_space_group_name_H-M "P M C 21"
_symmetry_group_IT_number 26
_symmetry_cell_setting 'orthorhombic'
loop_
_space_group_symop_operation_xyz
x,y,z
-x,-y,1/2+z
-x,y,z
x,-y,1/2+z
loop_
_atom_site_type_symbol
_atom_site_label
_atom_site_fract_x
_atom_site_fract_y
_atom_site_fract_z
Si Si1 0.665105 0.251204 0.699740
Si Si2 0.669069 0.127257 0.343322
Si Si3 0.828529 0.107832 0.838621
Si Si4 0.666554 0.498931 0.259733
Si Si5 0.171394 0.492515 0.438065
Si Si6 0.829868 0.261623 0.000171
Si Si7 0.666092 0.285651 0.503660
Si Si8 0.666278 0.730927 0.672741
O O1 0.500000 0.226279 0.728090
O O2 0.770984 0.170207 0.752446
O O3 0.704988 0.381687 0.716659
O O4 0.687978 0.225425 0.597208
O O5 0.500000 0.095663 0.343662
O O6 0.712532 0.197931 0.429024
O O7 0.712040 0.199634 0.258539
O O8 0.763751 0.015796 0.344328
O O9 0.000000 0.100730 0.831279
O O10 0.778870 0.176553 0.924342
O O11 0.500000 0.492338 0.291330
O O12 0.768691 0.474641 0.341200
O O13 0.697048 0.401902 0.188158
O O14 0.222992 0.613557 0.473855
O O15 0.234670 0.396588 0.501126
O O16 0.000000 0.483036 0.435208
O O17 0.757754 0.224063 0.090925
O O18 0.000000 0.257065 0.013452
O O19 0.500000 0.324057 0.490820
O O20 0.500000 0.752821 0.650005
#
# Coordination Sequence:
#
# PCOD8167366 Si02
#       8
#     4   4   4   4   4   4   4   4
#     4  10  21  37  63  92 117 151 194 240 292 347
#     4  10  22  41  62  85 115 150 197 248 293 343
#     4  11  24  42  60  81 118 158 197 243 291 347
#     4  10  19  35  59  89 121 152 189 236 293 350
#     4  11  21  35  58  88 122 158 192 232 289 353
#     4  10  23  40  57  85 122 157 192 235 288 347
#     4  10  21  40  63  88 120 152 191 245 293 345
#     4  10  21  38  62  90 117 150 192 241 293 344
#
# _framework density 19.188721999999999
#
# number of rings (size 3 to 8) (size 9 to 14) (size 15 to 20)
#    0.000    1.750    2.500    1.500    0.000    6.000 
#    0.000    3.750    0.000    0.000    0.000    0.000 
#    0.000    0.000    0.000    0.000    0.000    0.000 
#
# Total GULP energy -396957.749338 kJ/mol
# GULP energy per Si atom -12404.929667 kJ/mol
# Density = 1.914505 g / cm^3
# Si number density = 19.188722 Si / 1000 Ang^3
#
#
#
# Elastic Constant Matrix: (Units=GPa)
#
#
# Indices 1 2 3 4 5 6 
#
# 1 60.5707 49.9037 41.0934 0.0000 0.0000 0.0000
# 2 49.9037 123.2481 49.0885 0.0000 0.0000 0.0000
# 3 41.0934 49.0885 122.6906 0.0000 0.0000 0.0000
# 4 0.0000 0.0000 0.0000 10.1594 0.0000 0.0000
# 5 0.0000 0.0000 0.0000 0.0000 28.8485 0.0000
# 6 0.0000 0.0000 0.0000 0.0000 0.0000 33.6739
#
#
#
# Elastic Compliance Matrix: (Units=1/GPa)
#
#
# Indices 1 2 3 4 5 6 
#
# 1 0.027778 -0.008971 -0.005714 0.000000 0.000000 0.000000
# 2 -0.008971 0.012549 -0.002016 0.000000 0.000000 0.000000
# 3 -0.005714 -0.002016 0.010871 0.000000 0.000000 0.000000
# 4 0.000000 0.000000 0.000000 0.098431 0.000000 0.000000
# 5 0.000000 0.000000 0.000000 0.000000 0.034664 0.000000
# 6 0.000000 0.000000 0.000000 0.000000 0.000000 0.029697
#
#
# Mechanical properties :
#
#
# Convention : Reuss Voigt Hill
#
# Bulk Modulus (GPa) = 56.19679 65.18671 60.69175
# Shear Modulus (GPa) = 19.73748 25.63128 22.68438
#
# Velocity S-wave (km/s) = 3.21066 3.65875 3.44200
# Velocity P-wave (km/s) = 6.56463 7.20373 6.89159
#
# Compressibility (1/GPa) = 0.01779461
#
# Stress axis : x y z
#
# Youngs Moduli (GPa) = 35.99979 79.68574 91.98646
#
# Poissons Ratio (x) = 0.71490 0.52564
# Poissons Ratio (y) = 0.32297 0.18546
# Poissons Ratio (z) = 0.20571 0.16066
#
# Static dielectric constant tensor:
#      x y z
#    x 3.416540 0.000000 0.000000 
#    y 0.000000 3.521420 0.000000 
#    z 0.000000 0.000000 3.591610 
# 
# 
# High freq. dielectric constant tensor:
#      x y z
#    x 1.739800 0.000000 0.000000 
#    y 0.000000 1.746080 0.000000 
#    z 0.000000 0.000000 1.756230 
# 
# From -- ./inp_files/4220.got.cif
#   From: 2010.03.12/outbox.cif.g09.slc.cpg/sg26_3_cif.got.tgz:4220.got - 2010.04.14 03:33:09.
