data_PCOD8167220
_publ_section_title
;
Structure prediction by ZEFSAII (Michael W. Deem and Ramdas Pophale) SiO2 
 PCOD8167220
Probable space group: P M C 21
;
_chemical_formula_sum "Si O2"
_cell_formula_units_Z 32
_cell_length_a 9.008700
_cell_length_b 9.262462
_cell_length_c 20.167642
_cell_angle_alpha 90.000000
_cell_angle_beta 90.000000
_cell_angle_gamma 90.000000
_cell_volume 1682.843336
_symmetry_space_group_name_H-M "P M C 21"
_symmetry_group_IT_number 26
_symmetry_cell_setting 'orthorhombic'
loop_
_space_group_symop_operation_xyz
x,y,z
-x,-y,1/2+z
-x,y,z
x,-y,1/2+z
loop_
_atom_site_type_symbol
_atom_site_label
_atom_site_fract_x
_atom_site_fract_y
_atom_site_fract_z
Si Si1 0.167551 0.044451 0.770240
Si Si2 0.175875 0.811237 0.526057
Si Si3 0.163263 0.379747 0.736679
Si Si4 0.668861 0.887678 0.396533
Si Si5 0.677243 0.986973 0.636787
Si Si6 0.175363 0.279524 0.598976
Si Si7 0.335502 0.554149 0.357829
Si Si8 0.827608 0.508329 0.984094
O O1 0.160596 0.213867 0.757843
O O2 0.251934 0.015771 0.839819
O O3 0.258373 0.969218 0.710878
O O4 0.000000 0.981357 0.773650
O O5 0.239437 0.904925 0.464634
O O6 0.217578 0.643908 0.516394
O O7 0.000000 0.837832 0.531299
O O8 0.257651 0.856630 0.593389
O O9 0.217504 0.385284 0.660422
O O10 0.267655 0.472630 0.784873
O O11 0.000000 0.447683 0.743258
O O12 0.500000 0.941682 0.406797
O O13 0.670155 0.722245 0.374456
O O14 0.500000 0.981581 0.639396
O O15 0.729675 0.134661 0.602106
O O16 0.219655 0.362388 0.532358
O O17 0.000000 0.241076 0.602478
O O18 0.500000 0.492377 0.355772
O O19 0.250240 0.464320 0.413864
O O20 0.000000 0.509164 0.969261
#
# Coordination Sequence:
#
# PCOD8167220 Si02
#       8
#     4   4   4   4   4   4   4   4
#     4   9  16  28  46  68  93 123 159 200 240 282
#     4  10  19  32  50  72  98 130 164 199 239 288
#     4   8  14  25  43  65  90 118 151 192 236 277
#     4   9  16  27  44  69  97 123 155 199 243 283
#     4  11  21  32  48  72 100 130 161 199 244 288
#     4   9  18  33  51  72  96 124 159 199 240 287
#     4   9  16  25  41  66  95 122 152 191 234 278
#     4   9  18  32  51  72  95 124 159 197 238 283
#
# _framework density 19.015436000000001
#
# number of rings (size 3 to 8) (size 9 to 14) (size 15 to 20)
#    0.000    2.750    0.000    3.375    0.000    7.000 
#    0.000    0.000    0.000    1.500    0.000    3.500 
#    0.000    0.000    0.000    0.000    0.000    0.000 
#
# Total GULP energy -396713.789230 kJ/mol
# GULP energy per Si atom -12397.305913 kJ/mol
# Density = 1.897216 g / cm^3
# Si number density = 19.015436 Si / 1000 Ang^3
#
#
#
# Elastic Constant Matrix: (Units=GPa)
#
#
# Indices 1 2 3 4 5 6 
#
# 1 93.9084 6.3655 5.2982 0.0000 0.0000 0.0000
# 2 6.3655 11.1616 -10.2986 0.0000 0.0000 0.0000
# 3 5.2982 -10.2986 19.6900 0.0000 0.0000 0.0000
# 4 0.0000 0.0000 0.0000 21.5210 0.0000 0.0000
# 5 0.0000 0.0000 0.0000 0.0000 31.6442 0.0000
# 6 0.0000 0.0000 0.0000 0.0000 0.0000 15.9754
#
#
#
# Elastic Compliance Matrix: (Units=1/GPa)
#
#
# Indices 1 2 3 4 5 6 
#
# 1 0.012816 -0.020276 -0.014053 0.000000 0.000000 0.000000
# 2 -0.020276 0.205234 0.112800 0.000000 0.000000 0.000000
# 3 -0.014053 0.112800 0.113567 0.000000 0.000000 0.000000
# 4 0.000000 0.000000 0.000000 0.046466 0.000000 0.000000
# 5 0.000000 0.000000 0.000000 0.000000 0.031601 0.000000
# 6 0.000000 0.000000 0.000000 0.000000 0.000000 0.062596
#
#
# Mechanical properties :
#
#
# Convention : Reuss Voigt Hill
#
# Bulk Modulus (GPa) = 2.04683 14.16558 8.10620
# Shear Modulus (GPa) = 10.45605 22.05443 16.25524
#
# Velocity S-wave (km/s) = 2.34748 3.40930 2.92694
# Velocity P-wave (km/s) = 2.90281 4.79202 3.96168
#
# Compressibility (1/GPa) = 0.48856022
#
# Stress axis : x y z
#
# Youngs Moduli (GPa) = 78.02796 4.87248 8.80535
#
# Poissons Ratio (x) = 0.09879 0.12374
# Poissons Ratio (y) = 1.58207 -0.99325
# Poissons Ratio (z) = 1.09656 -0.54962
#
# Static dielectric constant tensor:
#      x y z
#    x 3.601530 0.000000 0.000000 
#    y 0.000000 2.904190 0.000000 
#    z 0.000000 0.000000 3.747060 
# 
# 
# High freq. dielectric constant tensor:
#      x y z
#    x 1.744920 0.000000 0.000000 
#    y 0.000000 1.675110 0.000000 
#    z 0.000000 0.000000 1.753330 
# 
# From -- ./inp_files/5057.got.cif
#   From: 2010.03.12/outbox.cif.g09.slc.cpg/sg26_3_cif.got.tgz:5057.got - 2010.04.14 03:33:09.
