data_PCOD8167091
_publ_section_title
;
Structure prediction by ZEFSAII (Michael W. Deem and Ramdas Pophale) SiO2 
 PCOD8167091
Probable space group: P M C 21
;
_chemical_formula_sum "Si O2"
_cell_formula_units_Z 32
_cell_length_a 9.249733
_cell_length_b 11.473037
_cell_length_c 17.809785
_cell_angle_alpha 90.000000
_cell_angle_beta 90.000000
_cell_angle_gamma 90.000000
_cell_volume 1890.019424
_symmetry_space_group_name_H-M "P M C 21"
_symmetry_group_IT_number 26
_symmetry_cell_setting 'orthorhombic'
loop_
_space_group_symop_operation_xyz
x,y,z
-x,-y,1/2+z
-x,y,z
x,-y,1/2+z
loop_
_atom_site_type_symbol
_atom_site_label
_atom_site_fract_x
_atom_site_fract_y
_atom_site_fract_z
Si Si1 0.159020 0.476616 0.476410
Si Si2 0.168731 0.242730 0.416141
Si Si3 0.829710 0.880285 0.063536
Si Si4 0.841228 0.358832 0.636976
Si Si5 0.829743 0.766301 0.747434
Si Si6 0.657851 0.331707 0.032996
Si Si7 0.339421 0.551548 0.693633
Si Si8 0.327002 0.891403 0.616550
O O1 0.235312 0.373437 0.427367
O O2 0.149900 0.432436 0.561182
O O3 0.246116 0.598421 0.472693
O O4 0.000000 0.506473 0.445210
O O5 0.223909 0.151781 0.479008
O O6 0.197972 0.193174 0.333309
O O7 0.000000 0.261280 0.433076
O O8 0.793904 0.773255 0.119177
O O9 0.000000 0.912628 0.065806
O O10 0.731107 0.985307 0.090539
O O11 0.728772 0.421303 0.693521
O O12 0.000000 0.358390 0.674833
O O13 0.765369 0.636782 0.739864
O O14 0.746944 0.858592 0.695602
O O15 0.000000 0.763999 0.727868
O O16 0.500000 0.318738 0.996400
O O17 0.647156 0.403484 0.109421
O O18 0.719735 0.203531 0.053419
O O19 0.500000 0.546985 0.730022
O O20 0.500000 0.892131 0.627604
#
# Coordination Sequence:
#
# PCOD8167091 Si02
#       8
#     4   4   4   4   4   4   4   4
#     4   8  13  24  43  65  87 109 136 175 222 268
#     4   8  16  30  48  71  95 117 149 196 242 286
#     4   9  17  31  50  71  94 122 161 203 240 282
#     4   8  14  25  43  66  89 113 143 180 222 271
#     4  10  18  30  49  69  92 124 158 194 239 287
#     4   8  15  26  39  59  88 116 141 176 219 264
#     4   9  16  26  41  64  93 118 143 180 225 272
#     4  10  20  32  45  67  98 127 161 202 239 280
#
# _framework density 16.931042999999999
#
# number of rings (size 3 to 8) (size 9 to 14) (size 15 to 20)
#    0.000    3.250    0.000    3.375    0.000    4.000 
#    0.000    4.375    0.000    1.500    0.000    3.500 
#    0.000    0.000    0.000    0.000    0.000    0.000 
#
# Total GULP energy -396496.651623 kJ/mol
# GULP energy per Si atom -12390.520363 kJ/mol
# Density = 1.689251 g / cm^3
# Si number density = 16.931043 Si / 1000 Ang^3
#
#
#
# Elastic Constant Matrix: (Units=GPa)
#
#
# Indices 1 2 3 4 5 6 
#
# 1 89.3589 57.8418 35.6580 0.0000 0.0000 0.0000
# 2 57.8418 125.7221 41.4843 0.0000 0.0000 0.0000
# 3 35.6580 41.4843 59.7635 0.0000 0.0000 0.0000
# 4 0.0000 0.0000 0.0000 14.7849 0.0000 0.0000
# 5 0.0000 0.0000 0.0000 0.0000 10.3250 0.0000
# 6 0.0000 0.0000 0.0000 0.0000 0.0000 25.7543
#
#
#
# Elastic Compliance Matrix: (Units=1/GPa)
#
#
# Indices 1 2 3 4 5 6 
#
# 1 0.017610 -0.006012 -0.006334 0.000000 0.000000 0.000000
# 2 -0.006012 0.012370 -0.004999 0.000000 0.000000 0.000000
# 3 -0.006334 -0.004999 0.023982 0.000000 0.000000 0.000000
# 4 0.000000 0.000000 0.000000 0.067637 0.000000 0.000000
# 5 0.000000 0.000000 0.000000 0.000000 0.096852 0.000000
# 6 0.000000 0.000000 0.000000 0.000000 0.000000 0.038828
#
#
# Mechanical properties :
#
#
# Convention : Reuss Voigt Hill
#
# Bulk Modulus (GPa) = 51.89046 60.53478 56.21262
# Shear Modulus (GPa) = 16.75646 19.49686 18.12666
#
# Velocity S-wave (km/s) = 3.14934 3.39712 3.27558
# Velocity P-wave (km/s) = 6.62866 7.15672 6.89774
#
# Compressibility (1/GPa) = 0.01927136
#
# Stress axis : x y z
#
# Youngs Moduli (GPa) = 56.78668 80.84357 41.69819
#
# Poissons Ratio (x) = 0.48602 0.26411
# Poissons Ratio (y) = 0.34140 0.20846
# Poissons Ratio (z) = 0.35968 0.40415
#
# Static dielectric constant tensor:
#      x y z
#    x 3.344730 0.000000 0.000000 
#    y 0.000000 3.174910 0.000000 
#    z 0.000000 0.000000 2.853820 
# 
# 
# High freq. dielectric constant tensor:
#      x y z
#    x 1.648810 0.000000 0.000000 
#    y 0.000000 1.644020 0.000000 
#    z 0.000000 0.000000 1.609890 
# 
# From -- ./inp_files/5004.got.cif
#   From: 2010.03.12/outbox.cif.g09.slc.cpg/sg26_3_cif.got.tgz:5004.got - 2010.04.14 03:33:09.
