data_PCOD8167609
_publ_section_title
;
Structure prediction by ZEFSAII (Michael W. Deem and Ramdas Pophale) SiO2 
 PCOD8167609
Probable space group: P M C 21
;
_chemical_formula_sum "Si O2"
_cell_formula_units_Z 32
_cell_length_a 9.249902
_cell_length_b 12.497971
_cell_length_c 13.953874
_cell_angle_alpha 90.000000
_cell_angle_beta 90.000000
_cell_angle_gamma 90.000000
_cell_volume 1613.137701
_symmetry_space_group_name_H-M "P M C 21"
_symmetry_group_IT_number 26
_symmetry_cell_setting 'orthorhombic'
loop_
_space_group_symop_operation_xyz
x,y,z
-x,-y,1/2+z
-x,y,z
x,-y,1/2+z
loop_
_atom_site_type_symbol
_atom_site_label
_atom_site_fract_x
_atom_site_fract_y
_atom_site_fract_z
Si Si1 0.839604 0.913715 0.840670
Si Si2 0.334357 0.770086 0.150918
Si Si3 0.829471 0.669917 0.837898
Si Si4 0.673452 0.580537 0.023585
Si Si5 0.155262 0.947776 0.064911
Si Si6 0.166885 0.392888 0.125739
Si Si7 0.836515 0.824525 0.523399
Si Si8 0.668319 0.119256 0.837659
O O1 0.776003 0.793541 0.827699
O O2 0.000000 0.919187 0.794102
O O3 0.741862 0.009645 0.796884
O O4 0.847996 0.942490 0.951257
O O5 0.500000 0.760301 0.126773
O O6 0.264639 0.665933 0.101745
O O7 0.285219 0.878511 0.101723
O O8 0.303323 0.782666 0.263597
O O9 0.798736 0.605796 0.739352
O O10 0.000000 0.669395 0.863478
O O11 0.740766 0.608934 0.920405
O O12 0.500000 0.576271 0.014184
O O13 0.730012 0.468571 0.063874
O O14 0.000000 0.906808 0.105464
O O15 0.179522 0.072083 0.092718
O O16 0.000000 0.424067 0.107478
O O17 0.202699 0.274671 0.089361
O O18 0.727276 0.833473 0.435690
O O19 0.000000 0.816650 0.482619
O O20 0.500000 0.093249 0.848620
#
# Coordination Sequence:
#
# PCOD8167609 Si02
#       8
#     4   4   4   4   4   4   4   4
#     4   9  18  34  57  86 118 152 194 244 296 349
#     4  10  22  37  53  81 119 158 196 237 287 345
#     4  10  21  40  65  90 116 152 199 252 301 354
#     4  11  24  42  62  86 123 162 201 250 299 356
#     4   9  17  31  56  85 113 147 187 236 291 346
#     4  10  23  42  65  90 118 154 202 254 304 356
#     4   9  20  39  58  84 118 151 192 245 299 351
#     4  10  21  35  54  84 123 164 199 238 291 355
#
# _framework density 19.837115000000001
#
# number of rings (size 3 to 8) (size 9 to 14) (size 15 to 20)
#    0.000    2.250    1.250    1.500    1.750    6.000 
#    0.000    2.500    0.000    0.000    0.000    0.000 
#    0.000    0.000    0.000    0.000    0.000    0.000 
#
# Total GULP energy -396625.216219 kJ/mol
# GULP energy per Si atom -12394.538007 kJ/mol
# Density = 1.979196 g / cm^3
# Si number density = 19.837115 Si / 1000 Ang^3
#
#
#
# Elastic Constant Matrix: (Units=GPa)
#
#
# Indices 1 2 3 4 5 6 
#
# 1 38.6249 24.6131 28.4288 0.0000 0.0000 0.0000
# 2 24.6131 94.9734 33.7899 0.0000 0.0000 0.0000
# 3 28.4288 33.7899 55.4699 0.0000 0.0000 0.0000
# 4 0.0000 0.0000 0.0000 28.1062 0.0000 0.0000
# 5 0.0000 0.0000 0.0000 0.0000 26.0852 0.0000
# 6 0.0000 0.0000 0.0000 0.0000 0.0000 26.8662
#
#
#
# Elastic Compliance Matrix: (Units=1/GPa)
#
#
# Indices 1 2 3 4 5 6 
#
# 1 0.042846 -0.004202 -0.019399 0.000000 0.000000 0.000000
# 2 -0.004202 0.013855 -0.006286 0.000000 0.000000 0.000000
# 3 -0.019399 -0.006286 0.031799 0.000000 0.000000 0.000000
# 4 0.000000 0.000000 0.000000 0.035579 0.000000 0.000000
# 5 0.000000 0.000000 0.000000 0.000000 0.038336 0.000000
# 6 0.000000 0.000000 0.000000 0.000000 0.000000 0.037221
#
#
# Mechanical properties :
#
#
# Convention : Reuss Voigt Hill
#
# Bulk Modulus (GPa) = 34.81255 40.30352 37.55804
# Shear Modulus (GPa) = 18.58829 23.02730 20.80779
#
# Velocity S-wave (km/s) = 3.06444 3.41078 3.24224
# Velocity P-wave (km/s) = 5.48711 5.98937 5.74373
#
# Compressibility (1/GPa) = 0.02872527
#
# Stress axis : x y z
#
# Youngs Moduli (GPa) = 23.33943 72.17743 31.44713
#
# Poissons Ratio (x) = 0.30328 0.61005
# Poissons Ratio (y) = 0.09807 0.19768
# Poissons Ratio (z) = 0.45277 0.45372
#
# Static dielectric constant tensor:
#      x y z
#    x 3.599670 0.000000 0.000000 
#    y 0.000000 3.725270 0.000000 
#    z 0.000000 0.000000 3.610010 
# 
# 
# High freq. dielectric constant tensor:
#      x y z
#    x 1.763550 0.000000 0.000000 
#    y 0.000000 1.772830 0.000000 
#    z 0.000000 0.000000 1.775230 
# 
# From -- ./inp_files/4193.got.cif
#   From: 2010.03.12/outbox.cif.g09.slc.cpg/sg26_3_cif.got.tgz:4193.got - 2010.04.14 03:33:09.
