data_PCOD8167558
_publ_section_title
;
Structure prediction by ZEFSAII (Michael W. Deem and Ramdas Pophale) SiO2 
 PCOD8167558
Probable space group: P M C 21
;
_chemical_formula_sum "Si O2"
_cell_formula_units_Z 28
_cell_length_a 12.558382
_cell_length_b 11.814506
_cell_length_c 9.642717
_cell_angle_alpha 90.000000
_cell_angle_beta 90.000000
_cell_angle_gamma 90.000000
_cell_volume 1430.700330
_symmetry_space_group_name_H-M "P M C 21"
_symmetry_group_IT_number 26
_symmetry_cell_setting 'orthorhombic'
loop_
_space_group_symop_operation_xyz
x,y,z
-x,-y,1/2+z
-x,y,z
x,-y,1/2+z
loop_
_atom_site_type_symbol
_atom_site_label
_atom_site_fract_x
_atom_site_fract_y
_atom_site_fract_z
Si Si1 0.742024 0.200793 0.776480
Si Si2 0.624901 0.924210 0.494320
Si Si3 0.878041 0.740379 0.754658
Si Si4 0.880575 0.652080 0.449993
Si Si5 0.739248 0.048053 0.271162
Si Si6 0.732527 0.543703 0.870402
Si Si7 0.624127 0.605934 0.138809
O O1 0.662533 0.187160 0.909522
O O2 0.847404 0.267047 0.823185
O O3 0.677349 0.271304 0.662262
O O4 0.778631 0.077276 0.721146
O O5 0.500000 0.938685 0.487845
O O6 0.658973 0.907772 0.653216
O O7 0.677673 0.034484 0.418448
O O8 0.871111 0.722056 0.590933
O O9 0.837981 0.867205 0.788601
O O10 0.803108 0.651692 0.831968
O O11 0.000000 0.728726 0.806757
O O12 0.807701 0.541928 0.454004
O O13 0.000000 0.610729 0.422316
O O14 0.679595 0.488147 0.735703
O O15 0.639793 0.577643 0.977218
O O16 0.500000 0.610607 0.173466
#
# Coordination Sequence:
#
# PCOD8167558 Si02
#       7
#     4   4   4   4   4   4   4
#     4   9  22  38  61  88 123 159 204 255 301 377
#     4  10  20  37  59  84 122 161 199 246 303 361
#     4  11  22  40  64  90 126 166 203 260 313 359
#     4  10  20  41  64  85 119 166 205 252 314 365
#     4  10  22  39  59  91 122 156 209 252 300 375
#     4  11  23  42  63  95 125 158 213 258 301 379
#     4  11  23  41  66  91 127 166 203 257 312 362
#
# _framework density 19.570834999999999
#
# number of rings (size 3 to 8) (size 9 to 14) (size 15 to 20)
#    0.857    0.857    2.857    1.714    2.000    0.571 
#    0.000    5.000    0.000    0.000    0.000    0.000 
#    0.000    0.000    0.000    0.000    0.000    0.000 
#
# Total GULP energy -347086.263148 kJ/mol
# GULP energy per Si atom -12395.937970 kJ/mol
# Density = 1.952629 g / cm^3
# Si number density = 19.570835 Si / 1000 Ang^3
#
#
#
# Elastic Constant Matrix: (Units=GPa)
#
#
# Indices 1 2 3 4 5 6 
#
# 1 92.9866 31.2817 20.0832 0.0000 0.0000 0.0000
# 2 31.2817 114.1406 9.5310 0.0000 0.0000 0.0000
# 3 20.0832 9.5310 49.0314 0.0000 0.0000 0.0000
# 4 0.0000 0.0000 0.0000 26.0916 0.0000 0.0000
# 5 0.0000 0.0000 0.0000 0.0000 29.9959 0.0000
# 6 0.0000 0.0000 0.0000 0.0000 0.0000 23.2482
#
#
#
# Elastic Compliance Matrix: (Units=1/GPa)
#
#
# Indices 1 2 3 4 5 6 
#
# 1 0.012806 -0.003122 -0.004639 0.000000 0.000000 0.000000
# 2 -0.003122 0.009667 -0.000600 0.000000 0.000000 0.000000
# 3 -0.004639 -0.000600 0.022412 0.000000 0.000000 0.000000
# 4 0.000000 0.000000 0.000000 0.038326 0.000000 0.000000
# 5 0.000000 0.000000 0.000000 0.000000 0.033338 0.000000
# 6 0.000000 0.000000 0.000000 0.000000 0.000000 0.043014
#
#
# Mechanical properties :
#
#
# Convention : Reuss Voigt Hill
#
# Bulk Modulus (GPa) = 35.50780 41.99448 38.75114
# Shear Modulus (GPa) = 26.92896 28.88465 27.90681
#
# Velocity S-wave (km/s) = 3.71344 3.84592 3.78026
# Velocity P-wave (km/s) = 6.04721 6.42072 6.23676
#
# Compressibility (1/GPa) = 0.02816282
#
# Stress axis : x y z
#
# Youngs Moduli (GPa) = 78.08540 103.44479 44.61954
#
# Poissons Ratio (x) = 0.32300 0.20697
# Poissons Ratio (y) = 0.24382 0.02678
# Poissons Ratio (z) = 0.36220 0.06208
#
# Static dielectric constant tensor:
#      x y z
#    x 3.445330 0.000000 0.000000 
#    y 0.000000 3.549050 0.000000 
#    z 0.000000 0.000000 3.430710 
# 
# 
# High freq. dielectric constant tensor:
#      x y z
#    x 1.755500 0.000000 0.000000 
#    y 0.000000 1.762330 0.000000 
#    z 0.000000 0.000000 1.759090 
# 
# From -- ./inp_files/3327.got.cif
#   From: 2010.03.12/outbox.cif.g09.slc.cpg/sg26_2_cif.got.tgz:3327.got - 2010.04.14 03:33:09.
