data_PCOD8167272
_publ_section_title
;
Structure prediction by ZEFSAII (Michael W. Deem and Ramdas Pophale) SiO2 
 PCOD8167272
Probable space group: P M C 21
;
_chemical_formula_sum "Si O2"
_cell_formula_units_Z 32
_cell_length_a 9.431793
_cell_length_b 12.236396
_cell_length_c 14.122685
_cell_angle_alpha 90.000000
_cell_angle_beta 90.000000
_cell_angle_gamma 90.000000
_cell_volume 1629.915375
_symmetry_space_group_name_H-M "P M C 21"
_symmetry_group_IT_number 26
_symmetry_cell_setting 'orthorhombic'
loop_
_space_group_symop_operation_xyz
x,y,z
-x,-y,1/2+z
-x,y,z
x,-y,1/2+z
loop_
_atom_site_type_symbol
_atom_site_label
_atom_site_fract_x
_atom_site_fract_y
_atom_site_fract_z
Si Si1 0.157742 0.526994 0.789460
Si Si2 0.334870 0.904288 0.209363
Si Si3 0.663642 0.160186 0.499031
Si Si4 0.341655 0.640199 0.514742
Si Si5 0.830481 0.907620 0.814812
Si Si6 0.155486 0.729122 0.666472
Si Si7 0.335695 0.594520 0.962837
Si Si8 0.340125 0.326014 0.794894
O O1 0.148366 0.604472 0.699442
O O2 0.242004 0.593317 0.869059
O O3 0.236570 0.418311 0.754683
O O4 0.000000 0.497948 0.826890
O O5 0.500000 0.932145 0.228787
O O6 0.292685 0.787926 0.251745
O O7 0.232905 0.987617 0.262625
O O8 0.303431 0.902633 0.096852
O O9 0.500000 0.143016 0.469169
O O10 0.763050 0.108838 0.418441
O O11 0.692238 0.290353 0.515525
O O12 0.500000 0.652652 0.553088
O O13 0.251774 0.728021 0.573675
O O14 0.293934 0.512393 0.525406
O O15 0.327020 0.678643 0.407439
O O16 0.784658 0.805361 0.749846
O O17 0.000000 0.918244 0.826017
O O18 0.000000 0.771897 0.637062
O O19 0.500000 0.581888 0.932414
O O20 0.500000 0.354775 0.762962
#
# Coordination Sequence:
#
# PCOD8167272 Si02
#       8
#     4   4   4   4   4   4   4   4
#     4  10  19  33  54  82 117 155 193 236 290 351
#     4  10  23  42  65  91 118 153 202 255 304 355
#     4  10  21  39  64  90 116 152 199 251 302 356
#     4   9  19  33  55  87 119 155 194 236 291 352
#     4  11  24  43  62  85 123 162 202 249 298 356
#     4  10  22  37  53  81 118 158 197 238 287 344
#     4   9  18  34  56  86 118 151 195 243 296 350
#     4   9  20  39  59  84 119 152 190 244 298 352
#
# _framework density 19.632921
#
# number of rings (size 3 to 8) (size 9 to 14) (size 15 to 20)
#    0.000    2.250    1.250    1.500    1.750    6.000 
#    0.000    3.750    0.000    0.000    0.000    0.000 
#    0.000    0.000    0.000    0.000    0.000    0.000 
#
# Total GULP energy -396709.951028 kJ/mol
# GULP energy per Si atom -12397.185970 kJ/mol
# Density = 1.958824 g / cm^3
# Si number density = 19.632921 Si / 1000 Ang^3
#
#
#
# Elastic Constant Matrix: (Units=GPa)
#
#
# Indices 1 2 3 4 5 6 
#
# 1 79.4212 47.4546 31.5778 0.0000 0.0000 0.0000
# 2 47.4546 97.4522 43.6064 0.0000 0.0000 0.0000
# 3 31.5778 43.6064 66.4758 0.0000 0.0000 0.0000
# 4 0.0000 0.0000 0.0000 23.9236 0.0000 0.0000
# 5 0.0000 0.0000 0.0000 0.0000 20.5695 0.0000
# 6 0.0000 0.0000 0.0000 0.0000 0.0000 26.1682
#
#
#
# Elastic Compliance Matrix: (Units=1/GPa)
#
#
# Indices 1 2 3 4 5 6 
#
# 1 0.018507 -0.007188 -0.004076 0.000000 0.000000 0.000000
# 2 -0.007188 0.017317 -0.007945 0.000000 0.000000 0.000000
# 3 -0.004076 -0.007945 0.022191 0.000000 0.000000 0.000000
# 4 0.000000 0.000000 0.000000 0.041800 0.000000 0.000000
# 5 0.000000 0.000000 0.000000 0.000000 0.048616 0.000000
# 6 0.000000 0.000000 0.000000 0.000000 0.000000 0.038214
#
#
# Mechanical properties :
#
#
# Convention : Reuss Voigt Hill
#
# Bulk Modulus (GPa) = 51.02936 54.29185 52.66060
# Shear Modulus (GPa) = 21.58957 22.17964 21.88460
#
# Velocity S-wave (km/s) = 3.31971 3.36477 3.34232
# Velocity P-wave (km/s) = 6.38296 6.54287 6.46341
#
# Compressibility (1/GPa) = 0.01959656
#
# Stress axis : x y z
#
# Youngs Moduli (GPa) = 54.03494 57.74788 45.06357
#
# Poissons Ratio (x) = 0.41509 0.18368
# Poissons Ratio (y) = 0.38840 0.35802
# Poissons Ratio (z) = 0.22025 0.45880
#
# Static dielectric constant tensor:
#      x y z
#    x 3.678450 0.000000 0.000000 
#    y 0.000000 3.570830 0.000000 
#    z 0.000000 0.000000 3.376540 
# 
# 
# High freq. dielectric constant tensor:
#      x y z
#    x 1.762420 0.000000 0.000000 
#    y 0.000000 1.762210 0.000000 
#    z 0.000000 0.000000 1.757720 
# 
# From -- ./inp_files/4129.got.cif
#   From: 2010.03.12/outbox.cif.g09.slc.cpg/sg26_3_cif.got.tgz:4129.got - 2010.04.14 03:33:09.
