data_PCOD8167661
_publ_section_title
;
Structure prediction by ZEFSAII (Michael W. Deem and Ramdas Pophale) SiO2 
 PCOD8167661
Probable space group: P M C 21
;
_chemical_formula_sum "Si O2"
_cell_formula_units_Z 28
_cell_length_a 17.899852
_cell_length_b 9.240680
_cell_length_c 8.621253
_cell_angle_alpha 90.000000
_cell_angle_beta 90.000000
_cell_angle_gamma 90.000000
_cell_volume 1426.013908
_symmetry_space_group_name_H-M "P M C 21"
_symmetry_group_IT_number 26
_symmetry_cell_setting 'orthorhombic'
loop_
_space_group_symop_operation_xyz
x,y,z
-x,-y,1/2+z
-x,y,z
x,-y,1/2+z
loop_
_atom_site_type_symbol
_atom_site_label
_atom_site_fract_x
_atom_site_fract_y
_atom_site_fract_z
Si Si1 0.413131 0.614253 0.317040
Si Si2 0.000000 0.307796 0.391645
Si Si3 0.293972 0.192433 0.968164
Si Si4 0.000000 0.407280 0.049835
Si Si5 0.838292 0.305195 0.375636
Si Si6 0.704445 0.887902 0.826010
Si Si7 0.161574 0.390356 0.024125
Si Si8 0.586533 0.685843 0.966259
O O1 0.500000 0.645652 0.348650
O O2 0.367967 0.716133 0.433423
O O3 0.394094 0.447538 0.353369
O O4 0.389842 0.643653 0.140385
O O5 0.919966 0.224582 0.398344
O O6 0.000000 0.420677 0.531005
O O7 0.000000 0.396931 0.233413
O O8 0.220819 0.290332 0.934307
O O9 0.290935 0.058538 0.851218
O O10 0.297761 0.137888 0.143382
O O11 0.923435 0.340812 0.976932
O O12 0.776402 0.184516 0.407447
O O13 0.826458 0.439667 0.491347
O O14 0.827222 0.371729 0.206346
O O15 0.630876 0.825631 0.908409
O O16 0.500000 0.727569 0.959167
#
# Coordination Sequence:
#
# PCOD8167661 Si02
#       8
#     4   2   4   2   4   4   4   4
#     4  10  21  38  60  84 108 136 172 214 260 311
#     4   8  14  28  49  74 102 130 166 212 259 306
#     4  11  23  37  53  76 107 143 180 218 263 313
#     4   8  14  28  49  74 102 130 166 212 259 306
#     4   9  18  32  53  78 103 134 172 215 261 310
#     4  11  23  37  53  76 107 143 180 218 263 313
#     4   9  18  32  53  78 103 134 172 215 261 310
#     4  10  21  38  60  84 108 136 172 214 260 311
#
# _framework density 19.635152000000001
#
# number of rings (size 3 to 8) (size 9 to 14) (size 15 to 20)
#    0.000    2.286    0.000    2.571    0.000    6.857 
#    0.000    0.714    0.000    0.000    0.000    0.000 
#    0.000    0.000    0.000    0.000    0.000    0.000 
#
# Total GULP energy -347082.447168 kJ/mol
# GULP energy per Si atom -12395.801685 kJ/mol
# Density = 1.959046 g / cm^3
# Si number density = 19.635152 Si / 1000 Ang^3
#
#
#
# Elastic Constant Matrix: (Units=GPa)
#
#
# Indices 1 2 3 4 5 6 
#
# 1 102.2753 33.4052 20.2714 0.0000 0.0000 0.0000
# 2 33.4052 54.9090 -1.5169 0.0000 0.0000 0.0000
# 3 20.2714 -1.5169 37.1913 0.0000 0.0000 0.0000
# 4 0.0000 0.0000 0.0000 29.1681 0.0000 0.0000
# 5 0.0000 0.0000 0.0000 0.0000 25.1917 0.0000
# 6 0.0000 0.0000 0.0000 0.0000 0.0000 11.9024
#
#
#
# Elastic Compliance Matrix: (Units=1/GPa)
#
#
# Indices 1 2 3 4 5 6 
#
# 1 0.014314 -0.008934 -0.008166 0.000000 0.000000 0.000000
# 2 -0.008934 0.023809 0.005841 0.000000 0.000000 0.000000
# 3 -0.008166 0.005841 0.031577 0.000000 0.000000 0.000000
# 4 0.000000 0.000000 0.000000 0.034284 0.000000 0.000000
# 5 0.000000 0.000000 0.000000 0.000000 0.039696 0.000000
# 6 0.000000 0.000000 0.000000 0.000000 0.000000 0.084016
#
#
# Mechanical properties :
#
#
# Convention : Reuss Voigt Hill
#
# Bulk Modulus (GPa) = 21.19518 33.18833 27.19175
# Shear Modulus (GPa) = 18.80104 22.73350 20.76727
#
# Velocity S-wave (km/s) = 3.09774 3.40633 3.25569
# Velocity P-wave (km/s) = 4.85928 5.69298 5.29257
#
# Compressibility (1/GPa) = 0.04718053
#
# Stress axis : x y z
#
# Youngs Moduli (GPa) = 69.86080 42.00175 31.66817
#
# Poissons Ratio (x) = 0.37524 0.25862
# Poissons Ratio (y) = 0.62414 -0.18496
# Poissons Ratio (z) = 0.57052 -0.24532
#
# Static dielectric constant tensor:
#      x y z
#    x 4.040200 0.000000 0.000000 
#    y 0.000000 3.305640 0.000000 
#    z 0.000000 0.000000 3.517640 
# 
# 
# High freq. dielectric constant tensor:
#      x y z
#    x 1.787740 0.000000 0.000000 
#    y 0.000000 1.730710 0.000000 
#    z 0.000000 0.000000 1.766060 
# 
# From -- ./inp_files/2420.got.cif
#   From: 2010.03.12/outbox.cif.g09.slc.cpg/sg26_2_cif.got.tgz:2420.got - 2010.04.14 03:33:09.
