data_PCOD8167032
_publ_section_title
;
Structure prediction by ZEFSAII (Michael W. Deem and Ramdas Pophale) SiO2 
 PCOD8167032
Probable space group: P M M 2
;
_chemical_formula_sum "Si O2"
_cell_formula_units_Z 32
_cell_length_a 9.671445
_cell_length_b 24.522319
_cell_length_c 7.598787
_cell_angle_alpha 90.000000
_cell_angle_beta 90.000000
_cell_angle_gamma 90.000000
_cell_volume 1802.175889
_symmetry_space_group_name_H-M "P M M 2"
_symmetry_group_IT_number 25
_symmetry_cell_setting 'orthorhombic'
loop_
_space_group_symop_operation_xyz
x,y,z
-x,-y,z
-x,y,z
x,-y,z
loop_
_atom_site_type_symbol
_atom_site_label
_atom_site_fract_x
_atom_site_fract_y
_atom_site_fract_z
Si Si1 0.664589 0.638358 0.816240
Si Si2 0.163469 0.060462 0.120984
Si Si3 0.346855 0.758319 0.829462
Si Si4 0.838360 0.142272 0.823839
Si Si5 0.653144 0.758328 0.412474
Si Si6 0.334831 0.438635 0.120946
Si Si7 0.664589 0.638366 0.425636
Si Si8 0.838365 0.142265 0.418155
O O1 0.500000 0.636535 0.807536
O O2 0.707643 0.698470 0.887729
O O3 0.725629 0.627048 0.620936
O O4 0.722030 0.592380 0.948136
O O5 0.210886 0.091805 0.297832
O O6 0.000000 0.055287 0.120933
O O7 0.230565 0.000000 0.120977
O O8 0.210928 0.091821 0.944182
O O9 0.500000 0.770018 0.908151
O O10 0.241147 0.804383 0.894575
O O11 0.356105 0.758400 0.620968
O O12 0.802196 0.128393 0.620998
O O13 0.000000 0.154256 0.847672
O O14 0.500000 0.770029 0.333791
O O15 0.707642 0.698482 0.354178
O O16 0.758846 0.804397 0.347383
O O17 0.500000 0.438718 0.120953
O O18 0.276176 0.500000 0.120967
O O19 0.277960 0.407607 0.293725
O O20 0.500000 0.636539 0.434329
O O21 0.000000 0.154260 0.394335
#
# Coordination Sequence:
#
# PCOD8167032 Si02
#       8
#     4   4   4   4   4   4   4   4
#     4   8  14  24  36  51  74 103 132 162 198 242
#     4   9  18  31  45  63  87 113 142 173 204 244
#     4   8  14  26  44  64  86 112 139 167 206 256
#     4   9  17  29  46  67  88 109 136 173 211 244
#     4   8  14  26  44  64  86 112 139 167 206 256
#     4   9  16  23  32  50  75 103 136 169 200 236
#     4   8  14  24  36  51  74 103 132 162 198 242
#     4   9  17  29  46  67  88 109 136 173 211 244
#
# _framework density 17.756312000000001
#
# number of rings (size 3 to 8) (size 9 to 14) (size 15 to 20)
#    0.000    3.500    0.000    1.500    0.000    2.000 
#    0.000    6.875    0.000    1.500    0.000    3.500 
#    0.000    2.000    0.000    9.750    0.000   10.000 
#
# Total GULP energy -396551.361904 kJ/mol
# GULP energy per Si atom -12392.230060 kJ/mol
# Density = 1.771590 g / cm^3
# Si number density = 17.756312 Si / 1000 Ang^3
#
#
#
# Elastic Constant Matrix: (Units=GPa)
#
#
# Indices 1 2 3 4 5 6 
#
# 1 27.3879 36.7228 19.6819 0.0000 0.0000 0.0000
# 2 36.7228 188.7540 82.1527 0.0000 0.0000 0.0000
# 3 19.6819 82.1527 104.0074 0.0000 0.0000 0.0000
# 4 0.0000 0.0000 0.0000 32.1496 0.0000 0.0000
# 5 0.0000 0.0000 0.0000 0.0000 7.3759 0.0000
# 6 0.0000 0.0000 0.0000 0.0000 0.0000 9.8840
#
#
#
# Elastic Compliance Matrix: (Units=1/GPa)
#
#
# Indices 1 2 3 4 5 6 
#
# 1 0.049893 -0.008530 -0.002704 0.000000 0.000000 0.000000
# 2 -0.008530 0.009532 -0.005915 0.000000 0.000000 0.000000
# 3 -0.002704 -0.005915 0.014798 0.000000 0.000000 0.000000
# 4 0.000000 0.000000 0.000000 0.031105 0.000000 0.000000
# 5 0.000000 0.000000 0.000000 0.000000 0.135576 0.000000
# 6 0.000000 0.000000 0.000000 0.000000 0.000000 0.101174
#
#
# Mechanical properties :
#
#
# Convention : Reuss Voigt Hill
#
# Bulk Modulus (GPa) = 25.04652 66.36270 45.70461
# Shear Modulus (GPa) = 12.83091 21.98802 17.40947
#
# Velocity S-wave (km/s) = 2.69106 3.52280 3.13464
# Velocity P-wave (km/s) = 4.87771 7.34861 6.23675
#
# Compressibility (1/GPa) = 0.03992571
#
# Stress axis : x y z
#
# Youngs Moduli (GPa) = 20.04291 104.91253 67.57562
#
# Poissons Ratio (x) = 0.89491 0.18272
# Poissons Ratio (y) = 0.17097 0.39969
# Poissons Ratio (z) = 0.05419 0.62053
#
# Static dielectric constant tensor:
#      x y z
#    x 2.891030 0.000000 0.000000 
#    y 0.000000 3.656410 0.000000 
#    z 0.000000 0.000000 3.428430 
# 
# 
# High freq. dielectric constant tensor:
#      x y z
#    x 1.618420 0.000000 0.000000 
#    y 0.000000 1.689200 0.000000 
#    z 0.000000 0.000000 1.689980 
# 
# From -- ./inp_files/2919.got.cif
#   From: 2010.03.12/outbox.cif.g09.slc.cpg/sg25_2_cif.got.tgz:2919.got - 2010.04.14 03:30:10.
