data_PCOD8167891
_publ_section_title
;
Structure prediction by ZEFSAII (Michael W. Deem and Ramdas Pophale) SiO2 
 PCOD8167891
Probable space group: P C C 2
;
_chemical_formula_sum "Si O2"
_cell_formula_units_Z 32
_cell_length_a 11.897290
_cell_length_b 8.532864
_cell_length_c 14.421697
_cell_angle_alpha 90.000000
_cell_angle_beta 90.000000
_cell_angle_gamma 90.000000
_cell_volume 1464.061224
_symmetry_space_group_name_H-M "P C C 2"
_symmetry_group_IT_number 27
_symmetry_cell_setting 'orthorhombic'
loop_
_space_group_symop_operation_xyz
x,y,z
-x,-y,z
-x,y,1/2+z
x,-y,1/2+z
loop_
_atom_site_type_symbol
_atom_site_label
_atom_site_fract_x
_atom_site_fract_y
_atom_site_fract_z
Si Si1 0.981045 0.680717 0.763090
Si Si2 0.951803 0.167197 0.947650
Si Si3 0.225844 0.593563 0.163455
Si Si4 0.580963 0.369029 0.697897
Si Si5 0.701096 0.822147 0.512045
Si Si6 0.335111 0.174267 0.033513
Si Si7 0.494945 0.183788 0.376657
Si Si8 0.895716 0.675109 0.081011
O O1 0.848518 0.695468 0.735483
O O2 0.000000 0.500000 0.792262
O O3 0.009843 0.801651 0.843256
O O4 0.063193 0.738367 0.680807
O O5 0.818468 0.168733 0.958075
O O6 0.000000 0.000000 0.980606
O O7 0.001744 0.306002 0.010421
O O8 0.299675 0.459309 0.216115
O O9 0.300788 0.708092 0.100850
O O10 0.137009 0.506975 0.094494
O O11 0.500000 0.500000 0.656626
O O12 0.594078 0.239817 0.619175
O O13 0.519233 0.291293 0.786111
O O14 0.610875 0.764725 0.438007
O O15 0.661547 0.989576 0.548754
O O16 0.207774 0.231287 0.036652
O O17 0.391707 0.223858 0.935006
O O18 0.500000 0.000000 0.349403
#
# Coordination Sequence:
#
# PCOD8167891 Si02
#       8
#     4   4   4   4   4   4   4   4
#     4  10  24  40  62  98 139 179 227 280 338 402
#     4  12  25  39  65 101 134 187 229 279 339 405
#     4  10  23  41  66 100 136 182 226 280 345 406
#     4  11  25  44  71 101 130 178 230 281 348 408
#     4  11  23  42  68  97 136 179 228 278 349 401
#     4  10  23  46  70  93 135 178 227 285 338 408
#     4  10  25  44  65  99 133 173 224 284 344 409
#     4  10  22  44  64  96 137 182 230 277 339 403
#
# _framework density 21.857009000000001
#
# number of rings (size 3 to 8) (size 9 to 14) (size 15 to 20)
#    0.000    1.500    2.500    0.750    7.000    7.500 
#    0.000    0.000    0.000    0.000    0.000    0.000 
#    0.000    0.000    0.000    0.000    0.000    0.000 
#
# Total GULP energy -396715.923209 kJ/mol
# GULP energy per Si atom -12397.372600 kJ/mol
# Density = 2.180726 g / cm^3
# Si number density = 21.857009 Si / 1000 Ang^3
#
#
#
# Elastic Constant Matrix: (Units=GPa)
#
#
# Indices 1 2 3 4 5 6 
#
# 1 89.3475 39.4634 37.6098 0.0000 0.0000 0.0000
# 2 39.4634 75.7176 54.4276 0.0000 0.0000 0.0000
# 3 37.6098 54.4276 112.1718 0.0000 0.0000 0.0000
# 4 0.0000 0.0000 0.0000 31.3932 0.0000 0.0000
# 5 0.0000 0.0000 0.0000 0.0000 37.8290 0.0000
# 6 0.0000 0.0000 0.0000 0.0000 0.0000 38.7132
#
#
#
# Elastic Compliance Matrix: (Units=1/GPa)
#
#
# Indices 1 2 3 4 5 6 
#
# 1 0.014791 -0.006364 -0.001871 0.000000 0.000000 0.000000
# 2 -0.006364 0.023018 -0.009035 0.000000 0.000000 0.000000
# 3 -0.001871 -0.009035 0.013926 0.000000 0.000000 0.000000
# 4 0.000000 0.000000 0.000000 0.031854 0.000000 0.000000
# 5 0.000000 0.000000 0.000000 0.000000 0.026435 0.000000
# 6 0.000000 0.000000 0.000000 0.000000 0.000000 0.025831
#
#
# Mechanical properties :
#
#
# Convention : Reuss Voigt Hill
#
# Bulk Modulus (GPa) = 58.15655 60.02650 59.09152
# Shear Modulus (GPa) = 28.38851 31.30281 29.84566
#
# Velocity S-wave (km/s) = 3.60784 3.78850 3.69927
# Velocity P-wave (km/s) = 6.63482 6.83080 6.73352
#
# Compressibility (1/GPa) = 0.01719497
#
# Stress axis : x y z
#
# Youngs Moduli (GPa) = 67.61000 43.44346 71.80588
#
# Poissons Ratio (x) = 0.27646 0.13438
# Poissons Ratio (y) = 0.43024 0.64879
# Poissons Ratio (z) = 0.12653 0.39252
#
# Static dielectric constant tensor:
#      x y z
#    x 4.369310 0.000000 0.000000 
#    y 0.000000 3.876600 0.000000 
#    z 0.000000 0.000000 3.772720 
# 
# 
# High freq. dielectric constant tensor:
#      x y z
#    x 1.880410 0.000000 0.000000 
#    y 0.000000 1.856380 0.000000 
#    z 0.000000 0.000000 1.844920 
# 
# From -- ./inp_files/3459.got.cif
#   From: 2010.03.12/outbox.cif.g09.slc.cpg/sg27_2_cif.got.tgz:3459.got - 2010.04.14 03:36:05.
