data_PCOD8167766
_publ_section_title
;
Structure prediction by ZEFSAII (Michael W. Deem and Ramdas Pophale) SiO2 
 PCOD8167766
Probable space group: P M C 21
;
_chemical_formula_sum "Si O2"
_cell_formula_units_Z 24
_cell_length_a 15.740427
_cell_length_b 8.853819
_cell_length_c 8.302665
_cell_angle_alpha 90.000000
_cell_angle_beta 90.000000
_cell_angle_gamma 90.000000
_cell_volume 1157.083403
_symmetry_space_group_name_H-M "P M C 21"
_symmetry_group_IT_number 26
_symmetry_cell_setting 'orthorhombic'
loop_
_space_group_symop_operation_xyz
x,y,z
-x,-y,1/2+z
-x,y,z
x,-y,1/2+z
loop_
_atom_site_type_symbol
_atom_site_label
_atom_site_fract_x
_atom_site_fract_y
_atom_site_fract_z
Si Si1 0.500000 0.597843 0.730120
Si Si2 0.500000 0.709010 0.372781
Si Si3 0.683331 0.389703 0.252166
Si Si4 0.155818 0.113246 0.943219
Si Si5 0.000000 0.385602 0.440520
Si Si6 0.842705 0.208641 0.312469
Si Si7 0.316670 0.711396 0.388665
Si Si8 0.000000 0.291053 0.809886
O O1 0.500000 0.625528 0.542148
O O2 0.500000 0.416959 0.735494
O O3 0.412288 0.659814 0.811037
O O4 0.409051 0.795975 0.359890
O O5 0.753303 0.292445 0.347519
O O6 0.697036 0.569495 0.270350
O O7 0.692550 0.358367 0.064599
O O8 0.244729 0.163611 0.861877
O O9 0.081948 0.189770 0.841155
O O10 0.149499 0.933131 0.931185
O O11 0.148689 0.155869 0.129084
O O12 0.917215 0.324744 0.350390
O O13 0.000000 0.343449 0.626523
O O14 0.000000 0.566341 0.428962
#
# Coordination Sequence:
#
# PCOD8167766 Si02
#       8
#     2   2   4   4   2   4   4   2
#     4   8  14  28  49  76 106 138 176 222 269 316
#     4   8  14  28  49  76 106 138 176 222 269 316
#     4   9  18  32  54  80 108 141 181 225 271 320
#     4  11  23  39  57  81 112 148 184 224 273 326
#     4  12  25  42  63  86 110 140 178 224 271 324
#     4  11  23  39  57  81 112 148 184 224 273 326
#     4   9  18  32  54  80 108 141 181 225 271 320
#     4  12  25  42  63  86 110 140 178 224 271 324
#
# _framework density 20.741804999999999
#
# number of rings (size 3 to 8) (size 9 to 14) (size 15 to 20)
#    0.000    2.000    0.000    4.000    0.000    5.333 
#    0.000    0.833    0.000    0.000    0.000    0.000 
#    0.000    0.000    0.000    0.000    0.000    0.000 
#
# Total GULP energy -297451.607690 kJ/mol
# GULP energy per Si atom -12393.816987 kJ/mol
# Density = 2.069460 g / cm^3
# Si number density = 20.741805 Si / 1000 Ang^3
#
#
#
# Elastic Constant Matrix: (Units=GPa)
#
#
# Indices 1 2 3 4 5 6 
#
# 1 164.5860 30.4511 17.3595 0.0000 0.0000 0.0000
# 2 30.4511 62.1262 -5.3323 0.0000 0.0000 0.0000
# 3 17.3595 -5.3323 34.9235 0.0000 0.0000 0.0000
# 4 0.0000 0.0000 0.0000 27.6320 0.0000 0.0000
# 5 0.0000 0.0000 0.0000 0.0000 16.3055 0.0000
# 6 0.0000 0.0000 0.0000 0.0000 0.0000 8.0463
#
#
#
# Elastic Compliance Matrix: (Units=1/GPa)
#
#
# Indices 1 2 3 4 5 6 
#
# 1 0.007242 -0.003910 -0.004197 0.000000 0.000000 0.000000
# 2 -0.003910 0.018421 0.004756 0.000000 0.000000 0.000000
# 3 -0.004197 0.004756 0.031446 0.000000 0.000000 0.000000
# 4 0.000000 0.000000 0.000000 0.036190 0.000000 0.000000
# 5 0.000000 0.000000 0.000000 0.000000 0.061329 0.000000
# 6 0.000000 0.000000 0.000000 0.000000 0.000000 0.124281
#
#
# Mechanical properties :
#
#
# Convention : Reuss Voigt Hill
#
# Bulk Modulus (GPa) = 19.83808 38.51024 29.17416
# Shear Modulus (GPa) = 16.53369 25.00724 20.77047
#
# Velocity S-wave (km/s) = 2.82639 3.47601 3.16789
# Velocity P-wave (km/s) = 4.49849 5.89211 5.24182
#
# Compressibility (1/GPa) = 0.05040811
#
# Stress axis : x y z
#
# Youngs Moduli (GPa) = 138.08589 54.28622 31.80029
#
# Poissons Ratio (x) = 0.21225 0.13346
# Poissons Ratio (y) = 0.53989 -0.15124
# Poissons Ratio (z) = 0.57950 -0.25819
#
# Static dielectric constant tensor:
#      x y z
#    x 4.498780 0.000000 0.000000 
#    y 0.000000 3.570590 0.000000 
#    z 0.000000 0.000000 3.609900 
# 
# 
# High freq. dielectric constant tensor:
#      x y z
#    x 1.842610 0.000000 0.000000 
#    y 0.000000 1.778720 0.000000 
#    z 0.000000 0.000000 1.806720 
# 
# From -- ./inp_files/2156.got.cif
#   From: 2010.03.12/outbox.cif.g09.slc.cpg/sg26_2_cif.got.tgz:2156.got - 2010.04.14 03:33:09.
