data_PCOD8167775
_publ_section_title
;
Structure prediction by ZEFSAII (Michael W. Deem and Ramdas Pophale) SiO2 
 PCOD8167775
Probable space group: P M C 21
;
_chemical_formula_sum "Si O2"
_cell_formula_units_Z 20
_cell_length_a 12.718181
_cell_length_b 9.787603
_cell_length_c 9.317997
_cell_angle_alpha 90.000000
_cell_angle_beta 90.000000
_cell_angle_gamma 90.000000
_cell_volume 1159.908986
_symmetry_space_group_name_H-M "P M C 21"
_symmetry_group_IT_number 26
_symmetry_cell_setting 'orthorhombic'
loop_
_space_group_symop_operation_xyz
x,y,z
-x,-y,1/2+z
-x,y,z
x,-y,1/2+z
loop_
_atom_site_type_symbol
_atom_site_label
_atom_site_fract_x
_atom_site_fract_y
_atom_site_fract_z
Si Si1 0.500000 0.334820 0.232950
Si Si2 0.500000 0.424987 0.925817
Si Si3 0.729295 0.670845 0.715896
Si Si4 0.878970 0.834748 0.338659
Si Si5 0.120525 0.096339 0.162794
Si Si6 0.727992 0.600250 0.392235
O O1 0.500000 0.418097 0.379536
O O2 0.387687 0.256559 0.224149
O O3 0.500000 0.437713 0.097450
O O4 0.393725 0.351940 0.867172
O O5 0.811541 0.790764 0.746779
O O6 0.752222 0.601833 0.561787
O O7 0.744611 0.553084 0.834355
O O8 0.855890 0.900778 0.493770
O O9 0.805276 0.704068 0.310372
O O10 0.000000 0.787382 0.326537
O O11 0.850000 0.946252 0.219014
O O12 0.000000 0.130132 0.198491
#
# Coordination Sequence:
#
# PCOD8167775 Si02
#       6
#     2   2   4   4   4   4
#     4   8  14  26  43  62  86 114 140 170 211 254
#     4   8  14  26  43  62  86 114 140 170 211 254
#     4   9  17  29  46  67  89 113 143 178 214 254
#     4   9  18  32  47  63  86 116 147 178 214 256
#     4   9  18  32  47  63  86 116 147 178 214 256
#     4   9  17  29  46  67  89 113 143 178 214 254
#
# _framework density 17.242730999999999
#
# number of rings (size 3 to 8) (size 9 to 14) (size 15 to 20)
#    0.000    3.200    0.000    0.000    0.000    2.400 
#    0.000    1.000    0.000    0.000    0.000    0.000 
#    0.000    0.000    0.000    0.000    0.000    0.000 
#
# Total GULP energy -247799.131332 kJ/mol
# GULP energy per Si atom -12389.956567 kJ/mol
# Density = 1.720349 g / cm^3
# Si number density = 17.242731 Si / 1000 Ang^3
#
#
#
# Elastic Constant Matrix: (Units=GPa)
#
#
# Indices 1 2 3 4 5 6 
#
# 1 79.3764 34.8834 9.3529 0.0000 0.0000 0.0000
# 2 34.8834 45.6025 2.4852 0.0000 0.0000 0.0000
# 3 9.3529 2.4852 20.2337 0.0000 0.0000 0.0000
# 4 0.0000 0.0000 0.0000 26.1328 0.0000 0.0000
# 5 0.0000 0.0000 0.0000 0.0000 19.3020 0.0000
# 6 0.0000 0.0000 0.0000 0.0000 0.0000 15.1477
#
#
#
# Elastic Compliance Matrix: (Units=1/GPa)
#
#
# Indices 1 2 3 4 5 6 
#
# 1 0.020028 -0.014916 -0.007426 0.000000 0.000000 0.000000
# 2 -0.014916 0.033185 0.002819 0.000000 0.000000 0.000000
# 3 -0.007426 0.002819 0.052509 0.000000 0.000000 0.000000
# 4 0.000000 0.000000 0.000000 0.038266 0.000000 0.000000
# 5 0.000000 0.000000 0.000000 0.000000 0.051808 0.000000
# 6 0.000000 0.000000 0.000000 0.000000 0.000000 0.066017
#
#
# Mechanical properties :
#
#
# Convention : Reuss Voigt Hill
#
# Bulk Modulus (GPa) = 14.99785 26.51728 20.75757
# Shear Modulus (GPa) = 15.47585 18.68258 17.07921
#
# Velocity S-wave (km/s) = 2.99913 3.29523 3.15066
# Velocity P-wave (km/s) = 4.55082 5.46720 5.02992
#
# Compressibility (1/GPa) = 0.06667621
#
# Stress axis : x y z
#
# Youngs Moduli (GPa) = 49.92953 30.13426 19.04439
#
# Poissons Ratio (x) = 0.44948 0.14142
# Poissons Ratio (y) = 0.74474 -0.05368
# Poissons Ratio (z) = 0.37077 -0.08494
#
# Static dielectric constant tensor:
#      x y z
#    x 3.574340 0.000000 0.000000 
#    y 0.000000 2.878050 0.000000 
#    z 0.000000 0.000000 3.177630 
# 
# 
# High freq. dielectric constant tensor:
#      x y z
#    x 1.682240 0.000000 0.000000 
#    y 0.000000 1.623540 0.000000 
#    z 0.000000 0.000000 1.661920 
# 
# From -- ./inp_files/1791.got.cif
#   From: 2010.03.12/outbox.cif.g09.slc.cpg/sg26_1_cif.got.tgz:1791.got - 2010.04.14 03:33:09.
