data_PCOD8168236
_publ_section_title
;
Structure prediction by ZEFSAII (Michael W. Deem and Ramdas Pophale) SiO2 
 PCOD8168236
Probable space group: P M A 2
;
_chemical_formula_sum "Si O2"
_cell_formula_units_Z 28
_cell_length_a 8.751610
_cell_length_b 9.460132
_cell_length_c 18.036552
_cell_angle_alpha 90.000000
_cell_angle_beta 90.000000
_cell_angle_gamma 90.000000
_cell_volume 1493.271135
_symmetry_space_group_name_H-M "P M A 2"
_symmetry_group_IT_number 28
_symmetry_cell_setting 'orthorhombic'
loop_
_space_group_symop_operation_xyz
x,y,z
-x,-y,z
1/2-x,y,z
1/2+x,-y,z
loop_
_atom_site_type_symbol
_atom_site_label
_atom_site_fract_x
_atom_site_fract_y
_atom_site_fract_z
Si Si1 0.930821 0.343554 0.160520
Si Si2 0.431142 0.649504 0.912258
Si Si3 0.930601 0.345386 0.481380
Si Si4 0.073446 0.649846 0.321385
Si Si5 0.569104 0.153390 0.614227
Si Si6 0.931541 0.845280 0.033322
Si Si7 0.570906 0.353975 0.743288
O O1 0.750000 0.349740 0.143086
O O2 0.962707 0.273682 0.242752
O O3 0.000000 0.500000 0.153669
O O4 0.016325 0.243414 0.103899
O O5 0.500000 0.500000 0.938923
O O6 0.250000 0.646271 0.924123
O O7 0.478462 0.680180 0.827359
O O8 0.505149 0.774743 0.958818
O O9 0.750000 0.359955 0.490162
O O10 0.977556 0.279122 0.399842
O O11 0.995268 0.240485 0.543832
O O12 0.000000 0.500000 0.492555
O O13 0.250000 0.619953 0.327091
O O14 0.000000 0.500000 0.315340
O O15 0.750000 0.141569 0.611258
O O16 0.513447 0.229088 0.689788
O O17 0.500000 0.000000 0.612061
O O18 0.750000 0.853099 0.029971
O O19 0.000000 0.000000 0.040261
O O20 0.500000 0.500000 0.715144
O O21 0.750000 0.372968 0.737290
#
# Coordination Sequence:
#
# PCOD8168236 Si02
#       7
#     4   4   4   4   4   4   4
#     4  10  19  34  56  81 108 139 176 217 262 311
#     4  10  20  37  59  83 109 137 173 215 260 310
#     4   9  17  31  52  77 104 134 172 216 259 304
#     4   8  15  28  49  76 104 133 168 213 259 303
#     4  10  21  35  50  73 106 141 176 213 255 305
#     4  12  25  40  56  77 106 140 177 216 263 315
#     4   9  19  35  56  81 106 134 171 214 257 304
#
# _framework density 18.750779999999999
#
# number of rings (size 3 to 8) (size 9 to 14) (size 15 to 20)
#    0.000    2.286    0.000    3.000    0.000    2.857 
#    0.000    2.143    0.000    1.714    0.000    0.000 
#    0.000    0.000    0.000    0.000    0.000    0.000 
#
# Total GULP energy -346994.983731 kJ/mol
# GULP energy per Si atom -12392.677990 kJ/mol
# Density = 1.870810 g / cm^3
# Si number density = 18.750780 Si / 1000 Ang^3
#
#
#
# Elastic Constant Matrix: (Units=GPa)
#
#
# Indices 1 2 3 4 5 6 
#
# 1 66.1083 39.6223 42.5613 0.0000 0.0000 0.0000
# 2 39.6223 128.2326 81.9838 0.0000 0.0000 0.0000
# 3 42.5613 81.9838 148.6449 0.0000 0.0000 0.0000
# 4 0.0000 0.0000 0.0000 20.9697 0.0000 0.0000
# 5 0.0000 0.0000 0.0000 0.0000 17.3549 0.0000
# 6 0.0000 0.0000 0.0000 0.0000 0.0000 32.9108
#
#
#
# Elastic Compliance Matrix: (Units=1/GPa)
#
#
# Indices 1 2 3 4 5 6 
#
# 1 0.019693 -0.003831 -0.003526 0.000000 0.000000 0.000000
# 2 -0.003831 0.012791 -0.005958 0.000000 0.000000 0.000000
# 3 -0.003526 -0.005958 0.011023 0.000000 0.000000 0.000000
# 4 0.000000 0.000000 0.000000 0.047688 0.000000 0.000000
# 5 0.000000 0.000000 0.000000 0.000000 0.057621 0.000000
# 6 0.000000 0.000000 0.000000 0.000000 0.000000 0.030385
#
#
# Mechanical properties :
#
#
# Convention : Reuss Voigt Hill
#
# Bulk Modulus (GPa) = 59.24910 74.59120 66.92015
# Shear Modulus (GPa) = 23.64568 26.16831 24.90700
#
# Velocity S-wave (km/s) = 3.55498 3.73981 3.64856
# Velocity P-wave (km/s) = 6.96544 7.64950 7.31547
#
# Compressibility (1/GPa) = 0.01687789
#
# Stress axis : x y z
#
# Youngs Moduli (GPa) = 50.78071 78.17928 90.71872
#
# Poissons Ratio (x) = 0.29947 0.31986
# Poissons Ratio (y) = 0.19452 0.54050
# Poissons Ratio (z) = 0.17904 0.46579
#
# Static dielectric constant tensor:
#      x y z
#    x 3.476690 0.000000 0.000000 
#    y 0.000000 2.778670 0.000000 
#    z 0.000000 0.000000 4.206800 
# 
# 
# High freq. dielectric constant tensor:
#      x y z
#    x 1.730070 0.000000 0.000000 
#    y 0.000000 1.700420 0.000000 
#    z 0.000000 0.000000 1.756440 
# 
# From -- ./inp_files/6772.got.cif
#   From: 2010.03.12/outbox.cif.g09.slc.cpg/sg28_4_cif.got.tgz:6772.got - 2010.04.14 03:39:34.
