data_PCOD8168495
_publ_section_title
;
Structure prediction by ZEFSAII (Michael W. Deem and Ramdas Pophale) SiO2 
 PCOD8168495
Probable space group: P M A 2
;
_chemical_formula_sum "Si O2"
_cell_formula_units_Z 32
_cell_length_a 8.518443
_cell_length_b 14.653844
_cell_length_c 12.271344
_cell_angle_alpha 90.000000
_cell_angle_beta 90.000000
_cell_angle_gamma 90.000000
_cell_volume 1531.806529
_symmetry_space_group_name_H-M "P M A 2"
_symmetry_group_IT_number 28
_symmetry_cell_setting 'orthorhombic'
loop_
_space_group_symop_operation_xyz
x,y,z
-x,-y,z
1/2-x,y,z
1/2+x,-y,z
loop_
_atom_site_type_symbol
_atom_site_label
_atom_site_fract_x
_atom_site_fract_y
_atom_site_fract_z
Si Si1 0.063949 0.592369 0.203050
Si Si2 0.067137 0.218878 0.269236
Si Si3 0.932574 0.409293 0.753818
Si Si4 0.068230 0.089280 0.848845
Si Si5 0.433957 0.352437 0.978069
Si Si6 0.568353 0.214155 0.676431
Si Si7 0.935326 0.102028 0.464877
Si Si8 0.069347 0.829935 0.046973
O O1 0.250000 0.590350 0.190308
O O2 0.000000 0.500000 0.262190
O O3 0.018103 0.682416 0.272361
O O4 0.981098 0.590817 0.084965
O O5 0.250000 0.235801 0.286025
O O6 0.004427 0.150067 0.359273
O O7 0.036591 0.168815 0.154701
O O8 0.750000 0.419299 0.779886
O O9 0.962952 0.323028 0.673932
O O10 0.000000 0.500000 0.693949
O O11 0.025917 0.404953 0.867723
O O12 0.250000 0.081042 0.871174
O O13 0.035001 0.176871 0.775350
O O14 0.000000 0.000000 0.786908
O O15 0.979425 0.089770 0.965430
O O16 0.250000 0.328630 0.982981
O O17 0.537421 0.261192 0.977892
O O18 0.750000 0.192294 0.700061
O O19 0.513083 0.166173 0.565445
O O20 0.750000 0.096116 0.453575
O O21 0.000000 0.000000 0.479905
O O22 0.250000 0.837094 0.081849
#
# Coordination Sequence:
#
# PCOD8168495 Si02
#       8
#     4   4   4   4   4   4   4   4
#     4  11  21  36  58  88 126 169 211 258 307 368
#     4  11  23  41  64  93 125 162 208 259 313 374
#     4  11  22  37  58  87 124 166 209 256 307 366
#     4  12  24  38  60  90 125 163 205 251 309 377
#     4  11  20  33  54  85 122 166 211 254 302 365
#     4  10  23  43  66  90 124 163 207 260 313 369
#     4  11  24  45  70  96 121 158 208 262 318 376
#     4  11  21  37  59  87 125 165 203 251 310 370
#
# _framework density 20.890366
#
# number of rings (size 3 to 8) (size 9 to 14) (size 15 to 20)
#    0.000    1.000    1.250    8.625    0.000    3.000 
#    0.000    3.125    0.000    1.500    0.000    0.000 
#    0.000    0.000    0.000    0.000    0.000    0.000 
#
# Total GULP energy -396829.290309 kJ/mol
# GULP energy per Si atom -12400.915322 kJ/mol
# Density = 2.084282 g / cm^3
# Si number density = 20.890366 Si / 1000 Ang^3
#
#
#
# Elastic Constant Matrix: (Units=GPa)
#
#
# Indices 1 2 3 4 5 6 
#
# 1 114.1048 42.5059 28.2002 0.0000 0.0000 0.0000
# 2 42.5059 141.5227 53.2941 0.0000 0.0000 0.0000
# 3 28.2002 53.2941 84.7467 0.0000 0.0000 0.0000
# 4 0.0000 0.0000 0.0000 25.0532 0.0000 0.0000
# 5 0.0000 0.0000 0.0000 0.0000 13.4506 0.0000
# 6 0.0000 0.0000 0.0000 0.0000 0.0000 38.3902
#
#
#
# Elastic Compliance Matrix: (Units=1/GPa)
#
#
# Indices 1 2 3 4 5 6 
#
# 1 0.010097 -0.002316 -0.001904 0.000000 0.000000 0.000000
# 2 -0.002316 0.009790 -0.005386 0.000000 0.000000 0.000000
# 3 -0.001904 -0.005386 0.015820 0.000000 0.000000 0.000000
# 4 0.000000 0.000000 0.000000 0.039915 0.000000 0.000000
# 5 0.000000 0.000000 0.000000 0.000000 0.074346 0.000000
# 6 0.000000 0.000000 0.000000 0.000000 0.000000 0.026048
#
#
# Mechanical properties :
#
#
# Convention : Reuss Voigt Hill
#
# Bulk Modulus (GPa) = 60.61826 65.37494 62.99660
# Shear Modulus (GPa) = 24.90960 29.80371 27.35665
#
# Velocity S-wave (km/s) = 3.45686 3.78123 3.62267
# Velocity P-wave (km/s) = 6.70921 7.10111 6.90794
#
# Compressibility (1/GPa) = 0.01649668
#
# Stress axis : x y z
#
# Youngs Moduli (GPa) = 99.03942 102.14817 63.21022
#
# Poissons Ratio (x) = 0.23655 0.12032
# Poissons Ratio (y) = 0.22935 0.34044
# Poissons Ratio (z) = 0.18853 0.55015
#
# Static dielectric constant tensor:
#      x y z
#    x 3.805000 0.000000 0.000000 
#    y 0.000000 4.103650 0.000000 
#    z 0.000000 0.000000 3.604610 
# 
# 
# High freq. dielectric constant tensor:
#      x y z
#    x 1.830660 0.000000 0.000000 
#    y 0.000000 1.834420 0.000000 
#    z 0.000000 0.000000 1.789110 
# 
# From -- ./inp_files/5002.got.cif
#   From: 2010.03.12/outbox.cif.g09.slc.cpg/sg28_3_cif.got.tgz:5002.got - 2010.04.14 03:39:34.
