data_PCOD8168977
_publ_section_title
;
Structure prediction by ZEFSAII (Michael W. Deem and Ramdas Pophale) SiO2 
 PCOD8168977
Probable space group: P C A 21
;
_chemical_formula_sum "Si O2"
_cell_formula_units_Z 32
_cell_length_a 30.509203
_cell_length_b 6.200916
_cell_length_c 9.042048
_cell_angle_alpha 90.000000
_cell_angle_beta 90.000000
_cell_angle_gamma 90.000000
_cell_volume 1710.619896
_symmetry_space_group_name_H-M "P C A 21"
_symmetry_group_IT_number 29
_symmetry_cell_setting 'orthorhombic'
loop_
_space_group_symop_operation_xyz
x,y,z
-x,-y,1/2+z
1/2-x,y,1/2+z
1/2+x,-y,z
loop_
_atom_site_type_symbol
_atom_site_label
_atom_site_fract_x
_atom_site_fract_y
_atom_site_fract_z
Si Si1 0.125466 0.886570 0.135190
Si Si2 0.459135 0.123759 0.628949
Si Si3 0.373677 0.121802 0.335807
Si Si4 0.717650 0.783229 0.740609
Si Si5 0.715334 0.182683 0.248388
Si Si6 0.248307 0.518710 0.993876
Si Si7 0.457645 0.883985 0.332318
Si Si8 0.083658 0.502916 0.985558
O O1 0.164967 0.898052 0.252965
O O2 0.117887 0.643710 0.079474
O O3 0.080182 0.983112 0.203628
O O4 0.139649 0.029323 0.995387
O O5 0.503308 0.112660 0.718697
O O6 0.443064 0.367959 0.608080
O O7 0.470489 0.037289 0.467060
O O8 0.331010 0.116146 0.231674
O O9 0.390461 0.364004 0.363495
O O10 0.412166 0.976179 0.261539
O O11 0.722744 0.640870 0.593700
O O12 0.752720 0.976513 0.747432
O O13 0.719242 0.630314 0.885675
O O14 0.721563 0.326484 0.394070
O O15 0.719865 0.327510 0.100281
O O16 0.450732 0.643942 0.392398
#
# Coordination Sequence:
#
# PCOD8168977 Si02
#       8
#     4   4   4   4   4   4   4   4
#     4   9  18  33  55  77 102 140 180 214 262 322
#     4   9  19  35  55  79 104 135 175 216 265 320
#     4   9  18  33  55  77 102 140 180 214 262 322
#     4  11  21  38  57  80 113 146 181 229 273 318
#     4  11  21  38  57  80 113 146 181 229 273 318
#     4  10  23  34  56  85 108 144 190 221 269 332
#     4   9  19  35  55  79 104 135 175 216 265 320
#     4   8  17  32  54  77 102 138 178 215 259 318
#
# _framework density 18.706669000000002
#
# number of rings (size 3 to 8) (size 9 to 14) (size 15 to 20)
#    0.000    3.000    0.000    3.000    0.000   10.000 
#    0.000    5.000    0.000    1.500    0.000    0.000 
#    0.000    0.000    0.000    0.000    0.000    0.000 
#
# Total GULP energy -396619.176965 kJ/mol
# GULP energy per Si atom -12394.349280 kJ/mol
# Density = 1.866409 g / cm^3
# Si number density = 18.706669 Si / 1000 Ang^3
#
#
#
# Elastic Constant Matrix: (Units=GPa)
#
#
# Indices 1 2 3 4 5 6 
#
# 1 107.3323 20.7422 27.4894 0.0000 0.0000 0.0000
# 2 20.7422 95.9986 19.8411 0.0000 0.0000 0.0000
# 3 27.4894 19.8411 65.5237 0.0000 0.0000 0.0000
# 4 0.0000 0.0000 0.0000 22.5643 0.0000 0.0000
# 5 0.0000 0.0000 0.0000 0.0000 34.5161 0.0000
# 6 0.0000 0.0000 0.0000 0.0000 0.0000 13.9393
#
#
#
# Elastic Compliance Matrix: (Units=1/GPa)
#
#
# Indices 1 2 3 4 5 6 
#
# 1 0.010629 -0.001467 -0.004015 0.000000 0.000000 0.000000
# 2 -0.001467 0.011315 -0.002811 0.000000 0.000000 0.000000
# 3 -0.004015 -0.002811 0.017797 0.000000 0.000000 0.000000
# 4 0.000000 0.000000 0.000000 0.044318 0.000000 0.000000
# 5 0.000000 0.000000 0.000000 0.000000 0.028972 0.000000
# 6 0.000000 0.000000 0.000000 0.000000 0.000000 0.071739
#
#
# Mechanical properties :
#
#
# Convention : Reuss Voigt Hill
#
# Bulk Modulus (GPa) = 43.18622 45.00001 44.09311
# Shear Modulus (GPa) = 23.91507 27.58940 25.75224
#
# Velocity S-wave (km/s) = 3.57939 3.84453 3.71433
# Velocity P-wave (km/s) = 6.34183 6.61930 6.48205
#
# Compressibility (1/GPa) = 0.02315554
#
# Stress axis : x y z
#
# Youngs Moduli (GPa) = 94.08593 88.38088 56.18861
#
# Poissons Ratio (x) = 0.12963 0.22559
# Poissons Ratio (y) = 0.13799 0.15794
# Poissons Ratio (z) = 0.37775 0.24842
#
# Static dielectric constant tensor:
#      x y z
#    x 3.378160 0.000000 0.000000 
#    y 0.000000 3.767650 0.000000 
#    z 0.000000 0.000000 3.173590 
# 
# 
# High freq. dielectric constant tensor:
#      x y z
#    x 1.724530 0.000000 0.000000 
#    y 0.000000 1.747080 0.000000 
#    z 0.000000 0.000000 1.691890 
# 
# From -- ./inp_files/2621.got.cif
#   From: 2010.03.12/outbox.cif.g09.slc.cpg/sg29_2_cif.got.tgz:2621.got - 2010.04.14 03:43:10.
