data_PCOD8168056
_publ_section_title
;
Structure prediction by ZEFSAII (Michael W. Deem and Ramdas Pophale) SiO2 
 PCOD8168056
Probable space group: P M A 2
;
_chemical_formula_sum "Si O2"
_cell_formula_units_Z 28
_cell_length_a 8.798072
_cell_length_b 18.139650
_cell_length_c 9.469499
_cell_angle_alpha 90.000000
_cell_angle_beta 90.000000
_cell_angle_gamma 90.000000
_cell_volume 1511.274719
_symmetry_space_group_name_H-M "P M A 2"
_symmetry_group_IT_number 28
_symmetry_cell_setting 'orthorhombic'
loop_
_space_group_symop_operation_xyz
x,y,z
-x,-y,z
1/2-x,y,z
1/2+x,-y,z
loop_
_atom_site_type_symbol
_atom_site_label
_atom_site_fract_x
_atom_site_fract_y
_atom_site_fract_z
Si Si1 0.082038 0.208500 0.767570
Si Si2 0.573962 0.079411 0.178785
Si Si3 0.570799 0.420115 0.742293
Si Si4 0.575703 0.074767 0.848169
Si Si5 0.919469 0.683944 0.521522
Si Si6 0.574490 0.306820 0.975837
Si Si7 0.069780 0.236097 0.243556
O O1 0.250000 0.213891 0.839207
O O2 0.087753 0.243315 0.614966
O O3 0.026879 0.125944 0.749227
O O4 0.949911 0.241692 0.865233
O O5 0.750000 0.075696 0.222687
O O6 0.500950 0.153346 0.247982
O O7 0.500000 0.000000 0.223892
O O8 0.553727 0.092365 0.012918
O O9 0.500000 0.500000 0.744864
O O10 0.750000 0.425793 0.735532
O O11 0.518543 0.378137 0.600010
O O12 0.520578 0.379952 0.889123
O O13 0.750000 0.077068 0.802378
O O14 0.500000 0.000000 0.806883
O O15 0.750000 0.651064 0.499411
O O16 0.988751 0.713629 0.374604
O O17 0.750000 0.311204 0.020716
O O18 0.474874 0.288013 0.111917
O O19 0.250000 0.225784 0.248380
#
# Coordination Sequence:
#
# PCOD8168056 Si02
#       7
#     4   4   4   4   4   4   4
#     4  10  18  32  53  75 102 137 177 223 270 319
#     4  10  20  33  51  76 109 145 186 234 280 329
#     4  10  21  38  62  87 113 144 180 223 271 328
#     4  10  19  30  47  73 104 136 178 229 278 326
#     4   9  21  38  56  81 112 147 185 221 267 329
#     4  10  20  34  54  82 110 139 178 221 267 320
#     4  11  21  35  56  82 113 148 186 229 275 325
#
# _framework density 18.527405000000002
#
# number of rings (size 3 to 8) (size 9 to 14) (size 15 to 20)
#    0.000    2.000    1.429    2.571    0.000    4.571 
#    0.000    1.429    0.000    1.714    0.000    0.000 
#    0.000    0.000    0.000    0.000    0.000    0.000 
#
# Total GULP energy -346931.919900 kJ/mol
# GULP energy per Si atom -12390.425711 kJ/mol
# Density = 1.848524 g / cm^3
# Si number density = 18.527405 Si / 1000 Ang^3
#
#
#
# Elastic Constant Matrix: (Units=GPa)
#
#
# Indices 1 2 3 4 5 6 
#
# 1 86.4721 60.9021 37.1278 0.0000 0.0000 0.0000
# 2 60.9021 147.1130 57.3556 0.0000 0.0000 0.0000
# 3 37.1278 57.3556 82.7946 0.0000 0.0000 0.0000
# 4 0.0000 0.0000 0.0000 5.6493 0.0000 0.0000
# 5 0.0000 0.0000 0.0000 0.0000 20.6945 0.0000
# 6 0.0000 0.0000 0.0000 0.0000 0.0000 33.0305
#
#
#
# Elastic Compliance Matrix: (Units=1/GPa)
#
#
# Indices 1 2 3 4 5 6 
#
# 1 0.017154 -0.005620 -0.003799 0.000000 0.000000 0.000000
# 2 -0.005620 0.011154 -0.005207 0.000000 0.000000 0.000000
# 3 -0.003799 -0.005207 0.017389 0.000000 0.000000 0.000000
# 4 0.000000 0.000000 0.000000 0.177012 0.000000 0.000000
# 5 0.000000 0.000000 0.000000 0.000000 0.048322 0.000000
# 6 0.000000 0.000000 0.000000 0.000000 0.000000 0.030275
#
#
# Mechanical properties :
#
#
# Convention : Reuss Voigt Hill
#
# Bulk Modulus (GPa) = 60.80949 69.68342 65.24646
# Shear Modulus (GPa) = 14.87922 22.60782 18.74352
#
# Velocity S-wave (km/s) = 2.83696 3.49698 3.18412
# Velocity P-wave (km/s) = 6.60483 7.34832 6.98647
#
# Compressibility (1/GPa) = 0.01644480
#
# Stress axis : x y z
#
# Youngs Moduli (GPa) = 58.29580 89.65284 57.50905
#
# Poissons Ratio (x) = 0.50387 0.21847
# Poissons Ratio (y) = 0.32764 0.29943
# Poissons Ratio (z) = 0.22146 0.46679
#
# Static dielectric constant tensor:
#      x y z
#    x 3.529460 0.000000 0.000000 
#    y 0.000000 3.907290 0.000000 
#    z 0.000000 0.000000 3.298610 
# 
# 
# High freq. dielectric constant tensor:
#      x y z
#    x 1.730550 0.000000 0.000000 
#    y 0.000000 1.720840 0.000000 
#    z 0.000000 0.000000 1.694990 
# 
# From -- ./inp_files/2634.got.cif
#   From: 2010.03.12/outbox.cif.g09.slc.cpg/sg28_2_cif.got.tgz:2634.got - 2010.04.14 03:39:34.
