data_PCOD8168379
_publ_section_title
;
Structure prediction by ZEFSAII (Michael W. Deem and Ramdas Pophale) SiO2 
 PCOD8168379
Probable space group: P M A 2
;
_chemical_formula_sum "Si O2"
_cell_formula_units_Z 24
_cell_length_a 8.649982
_cell_length_b 9.547046
_cell_length_c 15.174742
_cell_angle_alpha 90.000000
_cell_angle_beta 90.000000
_cell_angle_gamma 90.000000
_cell_volume 1253.157146
_symmetry_space_group_name_H-M "P M A 2"
_symmetry_group_IT_number 28
_symmetry_cell_setting 'orthorhombic'
loop_
_space_group_symop_operation_xyz
x,y,z
-x,-y,z
1/2-x,y,z
1/2+x,-y,z
loop_
_atom_site_type_symbol
_atom_site_label
_atom_site_fract_x
_atom_site_fract_y
_atom_site_fract_z
Si Si1 0.931680 0.851814 0.267700
Si Si2 0.566916 0.852930 0.464530
Si Si3 0.431950 0.354220 0.610682
Si Si4 0.066322 0.844383 0.956154
Si Si5 0.933379 0.655355 0.110780
Si Si6 0.433449 0.348944 0.810679
O O1 0.750000 0.871648 0.266073
O O2 0.990215 0.811546 0.366015
O O3 0.982860 0.727389 0.202786
O O4 0.000000 0.000000 0.235823
O O5 0.750000 0.856850 0.467582
O O6 0.498367 0.751186 0.538776
O O7 0.500000 0.000000 0.492390
O O8 0.500000 0.500000 0.581268
O O9 0.250000 0.361268 0.604308
O O10 0.481662 0.315543 0.710055
O O11 0.250000 0.852055 0.958223
O O12 0.009674 0.776154 0.865226
O O13 0.000000 0.000000 0.966139
O O14 0.005944 0.746930 0.033911
O O15 0.750000 0.649752 0.098270
O O16 0.000000 0.500000 0.108469
O O17 0.500000 0.500000 0.840299
O O18 0.250000 0.350903 0.825102
#
# Coordination Sequence:
#
# PCOD8168379 Si02
#       6
#     4   4   4   4   4   4
#     4   9  19  35  56  79 108 143 181 223 270 320
#     4   9  18  34  53  78 109 143 181 223 268 319
#     4   9  19  34  54  79 110 144 181 222 267 317
#     4  12  25  41  60  83 110 143 180 224 273 326
#     4  11  23  39  58  83 112 145 182 224 271 324
#     4  10  20  37  58  82 111 146 184 226 273 324
#
# _framework density 19.151627999999999
#
# number of rings (size 3 to 8) (size 9 to 14) (size 15 to 20)
#    0.000    2.000    0.000    3.500    0.000    5.333 
#    0.000    1.667    0.000    0.000    0.000    0.000 
#    0.000    0.000    0.000    0.000    0.000    0.000 
#
# Total GULP energy -297590.252710 kJ/mol
# GULP energy per Si atom -12399.593863 kJ/mol
# Density = 1.910804 g / cm^3
# Si number density = 19.151628 Si / 1000 Ang^3
#
#
#
# Elastic Constant Matrix: (Units=GPa)
#
#
# Indices 1 2 3 4 5 6 
#
# 1 68.7013 53.6452 42.5564 0.0000 0.0000 0.0000
# 2 53.6452 180.3833 108.7261 0.0000 0.0000 0.0000
# 3 42.5564 108.7261 135.6014 0.0000 0.0000 0.0000
# 4 0.0000 0.0000 0.0000 42.4807 0.0000 0.0000
# 5 0.0000 0.0000 0.0000 0.0000 17.0863 0.0000
# 6 0.0000 0.0000 0.0000 0.0000 0.0000 37.1224
#
#
#
# Elastic Compliance Matrix: (Units=1/GPa)
#
#
# Indices 1 2 3 4 5 6 
#
# 1 0.019510 -0.004087 -0.002846 0.000000 0.000000 0.000000
# 2 -0.004087 0.011585 -0.008006 0.000000 0.000000 0.000000
# 3 -0.002846 -0.008006 0.014687 0.000000 0.000000 0.000000
# 4 0.000000 0.000000 0.000000 0.023540 0.000000 0.000000
# 5 0.000000 0.000000 0.000000 0.000000 0.058526 0.000000
# 6 0.000000 0.000000 0.000000 0.000000 0.000000 0.026938
#
#
# Mechanical properties :
#
#
# Convention : Reuss Voigt Hill
#
# Bulk Modulus (GPa) = 62.87808 88.28239 75.58023
# Shear Modulus (GPa) = 26.32048 31.32176 28.82112
#
# Velocity S-wave (km/s) = 3.71120 4.04847 3.88350
# Velocity P-wave (km/s) = 7.16010 8.24925 7.72390
#
# Compressibility (1/GPa) = 0.01590379
#
# Stress axis : x y z
#
# Youngs Moduli (GPa) = 51.25617 86.31914 68.08586
#
# Poissons Ratio (x) = 0.35275 0.19379
# Poissons Ratio (y) = 0.20946 0.54512
# Poissons Ratio (z) = 0.14589 0.69110
#
# Static dielectric constant tensor:
#      x y z
#    x 3.510330 0.000000 0.000000 
#    y 0.000000 3.720500 0.000000 
#    z 0.000000 0.000000 4.013210 
# 
# 
# High freq. dielectric constant tensor:
#      x y z
#    x 1.746510 0.000000 0.000000 
#    y 0.000000 1.746940 0.000000 
#    z 0.000000 0.000000 1.760690 
# 
# From -- ./inp_files/6024.got.cif
#   From: 2010.03.12/outbox.cif.g09.slc.cpg/sg28_4_cif.got.tgz:6024.got - 2010.04.14 03:39:34.
