data_PCOD8168218
_publ_section_title
;
Structure prediction by ZEFSAII (Michael W. Deem and Ramdas Pophale) SiO2 
 PCOD8168218
Probable space group: P M A 2
;
_chemical_formula_sum "Si O2"
_cell_formula_units_Z 24
_cell_length_a 8.883218
_cell_length_b 15.487533
_cell_length_c 9.944981
_cell_angle_alpha 90.000000
_cell_angle_beta 90.000000
_cell_angle_gamma 90.000000
_cell_volume 1368.221853
_symmetry_space_group_name_H-M "P M A 2"
_symmetry_group_IT_number 28
_symmetry_cell_setting 'orthorhombic'
loop_
_space_group_symop_operation_xyz
x,y,z
-x,-y,z
1/2-x,y,z
1/2+x,-y,z
loop_
_atom_site_type_symbol
_atom_site_label
_atom_site_fract_x
_atom_site_fract_y
_atom_site_fract_z
Si Si1 0.429529 0.726138 0.141610
Si Si2 0.929611 0.591224 0.943388
Si Si3 0.915447 0.081959 0.457700
Si Si4 0.928487 0.268661 0.445753
Si Si5 0.914627 0.082005 0.138725
Si Si6 0.069826 0.590767 0.659953
O O1 0.250000 0.714463 0.120635
O O2 0.477439 0.705698 0.295175
O O3 0.482524 0.823672 0.103278
O O4 0.525425 0.661920 0.051766
O O5 0.750000 0.582843 0.931798
O O6 0.000000 0.500000 0.988336
O O7 0.000234 0.619913 0.801460
O O8 0.750000 0.079880 0.521814
O O9 0.994983 0.174514 0.489333
O O10 0.906297 0.072220 0.298116
O O11 0.000000 0.000000 0.522113
O O12 0.750000 0.258473 0.446874
O O13 0.984354 0.340597 0.549269
O O14 0.750000 0.077729 0.074849
O O15 0.000000 0.000000 0.074596
O O16 0.250000 0.584126 0.670952
O O17 0.000000 0.500000 0.614477
#
# Coordination Sequence:
#
# PCOD8168218 Si02
#       6
#     4   4   4   4   4   4
#     4   9  17  32  51  74 101 129 159 197 241 284
#     4  11  22  36  52  71  94 125 162 200 239 289
#     4   8  13  24  41  65  94 125 155 186 225 274
#     4   8  16  30  50  73  99 127 157 192 237 285
#     4   8  14  24  42  66  96 128 157 189 230 277
#     4  10  19  34  53  71  92 124 160 196 237 287
#
# _framework density 17.541015999999999
#
# number of rings (size 3 to 8) (size 9 to 14) (size 15 to 20)
#    0.000    3.000    0.000    5.000    0.000    1.333 
#    0.000    7.500    0.000    1.000    0.000    2.333 
#    0.000    0.000    0.000    0.000    0.000    0.000 
#
# Total GULP energy -297376.937503 kJ/mol
# GULP energy per Si atom -12390.705729 kJ/mol
# Density = 1.750109 g / cm^3
# Si number density = 17.541016 Si / 1000 Ang^3
#
#
#
# Elastic Constant Matrix: (Units=GPa)
#
#
# Indices 1 2 3 4 5 6 
#
# 1 79.2163 54.9737 33.1526 0.0000 0.0000 0.0000
# 2 54.9737 162.1574 82.2120 0.0000 0.0000 0.0000
# 3 33.1526 82.2120 72.5455 0.0000 0.0000 0.0000
# 4 0.0000 0.0000 0.0000 -2.3315 0.0000 0.0000
# 5 0.0000 0.0000 0.0000 0.0000 10.9791 0.0000
# 6 0.0000 0.0000 0.0000 0.0000 0.0000 31.4555
#
#
#
# Elastic Compliance Matrix: (Units=1/GPa)
#
#
# Indices 1 2 3 4 5 6 
#
# 1 0.016757 -0.004227 -0.002867 0.000000 0.000000 0.000000
# 2 -0.004227 0.015561 -0.015703 0.000000 0.000000 0.000000
# 3 -0.002867 -0.015703 0.032890 0.000000 0.000000 0.000000
# 4 0.000000 0.000000 0.000000 -0.428907 0.000000 0.000000
# 5 0.000000 0.000000 0.000000 0.000000 0.091082 0.000000
# 6 0.000000 0.000000 0.000000 0.000000 0.000000 0.031791
#
#
# Mechanical properties :
#
#
# Convention : Reuss Voigt Hill
#
# Bulk Modulus (GPa) = 50.98537 72.73286 61.85911
# Shear Modulus (GPa) = -26.49803 17.59268 -4.45267
#
# Velocity S-wave (km/s) = -3.89090 3.17037 -1.59498
# Velocity P-wave (km/s) = 2.99065 7.41324 5.65244
#
# Compressibility (1/GPa) = 0.01961347
#
# Stress axis : x y z
#
# Youngs Moduli (GPa) = 59.67563 64.26321 30.40449
#
# Poissons Ratio (x) = 0.27165 0.08718
# Poissons Ratio (y) = 0.25226 0.47743
# Poissons Ratio (z) = 0.17112 1.00910
#
# Static dielectric constant tensor:
#      x y z
#    x 3.260780 0.000000 0.000000 
#    y 0.000000 3.616140 0.000000 
#    z 0.000000 0.000000 2.971060 
# 
# 
# High freq. dielectric constant tensor:
#      x y z
#    x 1.662350 0.000000 0.000000 
#    y 0.000000 1.696390 0.000000 
#    z 0.000000 0.000000 1.636780 
# 
# From -- ./inp_files/4690.got.cif
#   From: 2010.03.12/outbox.cif.g09.slc.cpg/sg28_3_cif.got.tgz:4690.got - 2010.04.14 03:39:34.
