data_PCOD8168974
_publ_section_title
;
Structure prediction by ZEFSAII (Michael W. Deem and Ramdas Pophale) SiO2 
 PCOD8168974
Probable space group: P C A 21
;
_chemical_formula_sum "Si O2"
_cell_formula_units_Z 28
_cell_length_a 20.705230
_cell_length_b 6.028568
_cell_length_c 9.022016
_cell_angle_alpha 90.000000
_cell_angle_beta 90.000000
_cell_angle_gamma 90.000000
_cell_volume 1126.154084
_symmetry_space_group_name_H-M "P C A 21"
_symmetry_group_IT_number 29
_symmetry_cell_setting 'orthorhombic'
loop_
_space_group_symop_operation_xyz
x,y,z
-x,-y,1/2+z
1/2-x,y,1/2+z
1/2+x,-y,z
loop_
_atom_site_type_symbol
_atom_site_label
_atom_site_fract_x
_atom_site_fract_y
_atom_site_fract_z
Si Si1 0.907801 0.925477 0.340940
Si Si2 0.100316 0.394849 0.096636
Si Si3 0.278971 0.156236 0.719056
Si Si4 0.494323 0.677607 0.335669
Si Si5 0.076379 0.408875 0.606177
Si Si6 0.790250 0.588190 0.004311
Si Si7 0.316096 0.778192 0.519174
O O1 0.839771 0.051209 0.387697
O O2 0.972413 0.071065 0.352114
O O3 0.926799 0.724638 0.450871
O O4 0.905538 0.835190 0.171480
O O5 0.168912 0.290673 0.126680
O O6 0.058786 0.350953 0.241700
O O7 0.116644 0.654266 0.063094
O O8 0.215777 0.289142 0.663239
O O9 0.287196 0.900799 0.666259
O O10 0.284149 0.199756 0.893266
O O11 0.435639 0.558208 0.250599
O O12 0.511520 0.589211 0.502722
O O13 0.136293 0.504583 0.508735
O O14 0.740414 0.388930 0.963035
#
# Coordination Sequence:
#
# PCOD8168974 Si02
#       7
#     4   4   4   4   4   4   4
#     4  11  24  44  75 103 145 192 245 306 371 438
#     4  10  22  48  72 104 147 188 247 301 358 450
#     4  10  24  45  72 104 146 187 240 302 370 439
#     4  12  25  47  73 105 144 201 243 311 370 429
#     4  12  27  46  72 110 148 189 256 307 369 451
#     4  11  26  47  72 110 148 187 252 305 370 461
#     4  10  24  47  78 102 148 196 239 306 382 436
#
# _framework density 24.863379999999999
#
# number of rings (size 3 to 8) (size 9 to 14) (size 15 to 20)
#    0.000    1.143    1.429    3.429    8.000    4.571 
#    2.571    0.000    0.000    0.000    0.000    0.000 
#    0.000    0.000    0.000    0.000    0.000    0.000 
#
# Total GULP energy -346930.200409 kJ/mol
# GULP energy per Si atom -12390.364300 kJ/mol
# Density = 2.480679 g / cm^3
# Si number density = 24.863380 Si / 1000 Ang^3
#
#
#
# Elastic Constant Matrix: (Units=GPa)
#
#
# Indices 1 2 3 4 5 6 
#
# 1 86.6672 39.0001 38.0523 0.0000 0.0000 0.0000
# 2 39.0001 109.3612 43.9038 0.0000 0.0000 0.0000
# 3 38.0523 43.9038 122.5477 0.0000 0.0000 0.0000
# 4 0.0000 0.0000 0.0000 48.0896 0.0000 0.0000
# 5 0.0000 0.0000 0.0000 0.0000 33.3035 0.0000
# 6 0.0000 0.0000 0.0000 0.0000 0.0000 31.7719
#
#
#
# Elastic Compliance Matrix: (Units=1/GPa)
#
#
# Indices 1 2 3 4 5 6 
#
# 1 0.014710 -0.003985 -0.003140 0.000000 0.000000 0.000000
# 2 -0.003985 0.011760 -0.002976 0.000000 0.000000 0.000000
# 3 -0.003140 -0.002976 0.010201 0.000000 0.000000 0.000000
# 4 0.000000 0.000000 0.000000 0.020795 0.000000 0.000000
# 5 0.000000 0.000000 0.000000 0.000000 0.030027 0.000000
# 6 0.000000 0.000000 0.000000 0.000000 0.000000 0.031474
#
#
# Mechanical properties :
#
#
# Convention : Reuss Voigt Hill
#
# Bulk Modulus (GPa) = 60.71817 62.27651 61.49734
# Shear Modulus (GPa) = 34.56408 35.80765 35.18586
#
# Velocity S-wave (km/s) = 3.73253 3.79908 3.76595
# Velocity P-wave (km/s) = 6.56121 6.65927 6.61042
#
# Compressibility (1/GPa) = 0.01646953
#
# Stress axis : x y z
#
# Youngs Moduli (GPa) = 67.97883 85.03507 98.02878
#
# Poissons Ratio (x) = 0.33890 0.30780
# Poissons Ratio (y) = 0.27093 0.29169
# Poissons Ratio (z) = 0.21345 0.25303
#
# Static dielectric constant tensor:
#      x y z
#    x 4.539700 0.000000 0.000000 
#    y 0.000000 4.665430 0.000000 
#    z 0.000000 0.000000 4.316990 
# 
# 
# High freq. dielectric constant tensor:
#      x y z
#    x 2.006420 0.000000 0.000000 
#    y 0.000000 1.981550 0.000000 
#    z 0.000000 0.000000 1.992640 
# 
# From -- ./inp_files/2439.got.cif
#   From: 2010.03.12/outbox.cif.g09.slc.cpg/sg29_2_cif.got.tgz:2439.got - 2010.04.14 03:43:10.
