data_PCOD8168364
_publ_section_title
;
Structure prediction by ZEFSAII (Michael W. Deem and Ramdas Pophale) SiO2 
 PCOD8168364
Probable space group: P M A 2
;
_chemical_formula_sum "Si O2"
_cell_formula_units_Z 28
_cell_length_a 8.860124
_cell_length_b 9.109482
_cell_length_c 17.739126
_cell_angle_alpha 90.000000
_cell_angle_beta 90.000000
_cell_angle_gamma 90.000000
_cell_volume 1431.745084
_symmetry_space_group_name_H-M "P M A 2"
_symmetry_group_IT_number 28
_symmetry_cell_setting 'orthorhombic'
loop_
_space_group_symop_operation_xyz
x,y,z
-x,-y,z
1/2-x,y,z
1/2+x,-y,z
loop_
_atom_site_type_symbol
_atom_site_label
_atom_site_fract_x
_atom_site_fract_y
_atom_site_fract_z
Si Si1 0.570885 0.656340 0.931580
Si Si2 0.071757 0.845284 0.057024
Si Si3 0.073168 0.157441 0.787905
Si Si4 0.073309 0.848129 0.229094
Si Si5 0.927801 0.159201 0.509028
Si Si6 0.074303 0.654246 0.363786
Si Si7 0.570741 0.659065 0.642795
O O1 0.500000 0.500000 0.913326
O O2 0.750000 0.642140 0.938924
O O3 0.520965 0.763739 0.864411
O O4 0.502018 0.716082 0.009094
O O5 0.250000 0.852826 0.043061
O O6 0.030715 0.807925 0.143433
O O7 0.000000 0.000000 0.032571
O O8 0.250000 0.134548 0.787168
O O9 0.020584 0.253543 0.717169
O O10 0.000000 0.000000 0.782371
O O11 0.250000 0.869820 0.239142
O O12 0.014215 0.719498 0.284233
O O13 0.000000 0.000000 0.254420
O O14 0.750000 0.147953 0.524285
O O15 0.965158 0.229060 0.428288
O O16 0.003613 0.260754 0.570960
O O17 0.000000 0.000000 0.512827
O O18 0.250000 0.623547 0.359571
O O19 0.000000 0.500000 0.382343
O O20 0.500000 0.500000 0.649128
O O21 0.750000 0.647028 0.634929
#
# Coordination Sequence:
#
# PCOD8168364 Si02
#       7
#     4   4   4   4   4   4   4
#     4  11  23  39  58  83 114 149 189 233 284 336
#     4  10  20  36  58  84 114 148 188 233 281 335
#     4  10  23  40  60  85 113 148 189 232 278 332
#     4   9  19  36  57  82 111 145 186 230 277 331
#     4  11  23  39  60  86 115 149 190 234 281 334
#     4  10  22  38  56  81 113 148 187 231 280 333
#     4  11  23  40  61  87 118 151 188 231 281 333
#
# _framework density 19.556553999999998
#
# number of rings (size 3 to 8) (size 9 to 14) (size 15 to 20)
#    0.000    1.714    0.000    3.857    0.000    8.571 
#    0.000    1.429    0.000    0.000    0.000    0.000 
#    0.000    0.000    0.000    0.000    0.000    0.000 
#
# Total GULP energy -347326.501664 kJ/mol
# GULP energy per Si atom -12404.517917 kJ/mol
# Density = 1.951204 g / cm^3
# Si number density = 19.556554 Si / 1000 Ang^3
#
#
#
# Elastic Constant Matrix: (Units=GPa)
#
#
# Indices 1 2 3 4 5 6 
#
# 1 73.1761 60.0499 51.4940 0.0000 0.0000 0.0000
# 2 60.0499 165.4756 69.8908 0.0000 0.0000 0.0000
# 3 51.4940 69.8908 119.0140 0.0000 0.0000 0.0000
# 4 0.0000 0.0000 0.0000 16.9333 0.0000 0.0000
# 5 0.0000 0.0000 0.0000 0.0000 30.0369 0.0000
# 6 0.0000 0.0000 0.0000 0.0000 0.0000 42.3384
#
#
#
# Elastic Compliance Matrix: (Units=1/GPa)
#
#
# Indices 1 2 3 4 5 6 
#
# 1 0.022855 -0.005475 -0.006673 0.000000 0.000000 0.000000
# 2 -0.005475 0.009348 -0.003121 0.000000 0.000000 0.000000
# 3 -0.006673 -0.003121 0.013122 0.000000 0.000000 0.000000
# 4 0.000000 0.000000 0.000000 0.059055 0.000000 0.000000
# 5 0.000000 0.000000 0.000000 0.000000 0.033292 0.000000
# 6 0.000000 0.000000 0.000000 0.000000 0.000000 0.023619
#
#
# Mechanical properties :
#
#
# Convention : Reuss Voigt Hill
#
# Bulk Modulus (GPa) = 67.62792 80.05945 73.84369
# Shear Modulus (GPa) = 25.41173 29.61046 27.51109
#
# Velocity S-wave (km/s) = 3.60863 3.89536 3.75473
# Velocity P-wave (km/s) = 7.21240 7.82675 7.52585
#
# Compressibility (1/GPa) = 0.01478679
#
# Stress axis : x y z
#
# Youngs Moduli (GPa) = 43.75451 106.97230 76.20597
#
# Poissons Ratio (x) = 0.58571 0.50854
# Poissons Ratio (y) = 0.23957 0.23782
# Poissons Ratio (z) = 0.29198 0.33383
#
# Static dielectric constant tensor:
#      x y z
#    x 3.611890 0.000000 0.000000 
#    y 0.000000 3.580710 0.000000 
#    z 0.000000 0.000000 3.893000 
# 
# 
# High freq. dielectric constant tensor:
#      x y z
#    x 1.766310 0.000000 0.000000 
#    y 0.000000 1.770950 0.000000 
#    z 0.000000 0.000000 1.779050 
# 
# From -- ./inp_files/6825.got.cif
#   From: 2010.03.12/outbox.cif.g09.slc.cpg/sg28_4_cif.got.tgz:6825.got - 2010.04.14 03:39:34.
