data_PCOD8168941
_publ_section_title
;
Structure prediction by ZEFSAII (Michael W. Deem and Ramdas Pophale) SiO2 
 PCOD8168941
Probable space group: P C A 21
;
_chemical_formula_sum "Si O2"
_cell_formula_units_Z 20
_cell_length_a 8.879294
_cell_length_b 9.690508
_cell_length_c 7.703585
_cell_angle_alpha 90.000000
_cell_angle_beta 90.000000
_cell_angle_gamma 90.000000
_cell_volume 662.853966
_symmetry_space_group_name_H-M "P C A 21"
_symmetry_group_IT_number 29
_symmetry_cell_setting 'orthorhombic'
loop_
_space_group_symop_operation_xyz
x,y,z
-x,-y,1/2+z
1/2-x,y,1/2+z
1/2+x,-y,z
loop_
_atom_site_type_symbol
_atom_site_label
_atom_site_fract_x
_atom_site_fract_y
_atom_site_fract_z
Si Si1 0.823827 0.189957 0.437770
Si Si2 0.746739 0.806248 0.733740
Si Si3 0.090806 0.020635 0.499336
Si Si4 0.528248 0.325220 0.616697
Si Si5 0.463905 0.626537 0.734922
O O1 0.646546 0.132865 0.443231
O O2 0.852449 0.250811 0.246302
O O3 0.866241 0.300532 0.586102
O O4 0.912101 0.045027 0.481286
O O5 0.881348 0.772263 0.594212
O O6 0.636321 0.676053 0.748960
O O7 0.840077 0.842255 0.905942
O O8 0.650108 0.946494 0.693675
O O9 0.467668 0.464830 0.700867
O O10 0.611454 0.353665 0.428965
#
# Coordination Sequence:
#
# PCOD8168941 Si02
#       5
#     4   4   4   4   4
#     4  10  24  45  70 108 144 187 236 290 360 420
#     4  10  22  44  66  94 138 186 224 286 364 414
#     4  10  22  43  70  98 142 187 228 288 354 430
#     4  11  22  42  72 101 137 185 238 295 354 420
#     4  11  22  42  72 101 137 185 238 295 354 420
#
# _framework density 30.172559
#
# number of rings (size 3 to 8) (size 9 to 14) (size 15 to 20)
#    0.000    1.600    4.000    0.000    0.000    6.400 
#    3.600    6.000    0.000    0.000    0.000    0.000 
#    0.000    0.000    0.000    0.000    0.000    0.000 
#
# Total GULP energy -247925.032697 kJ/mol
# GULP energy per Si atom -12396.251635 kJ/mol
# Density = 3.010389 g / cm^3
# Si number density = 30.172559 Si / 1000 Ang^3
#
#
#
# Elastic Constant Matrix: (Units=GPa)
#
#
# Indices 1 2 3 4 5 6 
#
# 1 89.6961 5.4274 21.3737 0.0000 0.0000 0.0000
# 2 5.4274 163.8554 19.9092 0.0000 0.0000 0.0000
# 3 21.3737 19.9092 134.6072 0.0000 0.0000 0.0000
# 4 0.0000 0.0000 0.0000 44.0160 0.0000 0.0000
# 5 0.0000 0.0000 0.0000 0.0000 52.6866 0.0000
# 6 0.0000 0.0000 0.0000 0.0000 0.0000 40.8029
#
#
#
# Elastic Compliance Matrix: (Units=1/GPa)
#
#
# Indices 1 2 3 4 5 6 
#
# 1 0.011591 -0.000163 -0.001816 0.000000 0.000000 0.000000
# 2 -0.000163 0.006217 -0.000894 0.000000 0.000000 0.000000
# 3 -0.001816 -0.000894 0.007850 0.000000 0.000000 0.000000
# 4 0.000000 0.000000 0.000000 0.022719 0.000000 0.000000
# 5 0.000000 0.000000 0.000000 0.000000 0.018980 0.000000
# 6 0.000000 0.000000 0.000000 0.000000 0.000000 0.024508
#
#
# Mechanical properties :
#
#
# Convention : Reuss Voigt Hill
#
# Bulk Modulus (GPa) = 50.22227 53.50883 51.86555
# Shear Modulus (GPa) = 47.96211 50.26431 49.11321
#
# Velocity S-wave (km/s) = 3.99130 4.08597 4.03891
# Velocity P-wave (km/s) = 6.15806 6.32716 6.24318
#
# Compressibility (1/GPa) = 0.01991148
#
# Stress axis : x y z
#
# Youngs Moduli (GPa) = 86.27038 160.85123 127.39482
#
# Poissons Ratio (x) = 0.02626 0.23140
# Poissons Ratio (y) = 0.01408 0.11384
# Poissons Ratio (z) = 0.15670 0.14374
#
# Static dielectric constant tensor:
#      x y z
#    x 5.924700 0.000000 0.000000 
#    y 0.000000 5.294230 0.000000 
#    z 0.000000 0.000000 5.732920 
# 
# 
# High freq. dielectric constant tensor:
#      x y z
#    x 2.258260 0.000000 0.000000 
#    y 0.000000 2.246870 0.000000 
#    z 0.000000 0.000000 2.252480 
# 
# From -- ./inp_files/1388.got.cif
#   From: 2010.03.12/outbox.cif.g09.slc.cpg/sg29_1_cif.got.tgz:1388.got - 2010.04.14 03:43:10.
