data_PCOD8168698
_publ_section_title
;
Structure prediction by ZEFSAII (Michael W. Deem and Ramdas Pophale) SiO2 
 PCOD8168698
Probable space group: P C A 21
;
_chemical_formula_sum "Si O2"
_cell_formula_units_Z 32
_cell_length_a 9.819710
_cell_length_b 11.118343
_cell_length_c 13.667922
_cell_angle_alpha 90.000000
_cell_angle_beta 90.000000
_cell_angle_gamma 90.000000
_cell_volume 1492.248743
_symmetry_space_group_name_H-M "P C A 21"
_symmetry_group_IT_number 29
_symmetry_cell_setting 'orthorhombic'
loop_
_space_group_symop_operation_xyz
x,y,z
-x,-y,1/2+z
1/2-x,y,1/2+z
1/2+x,-y,z
loop_
_atom_site_type_symbol
_atom_site_label
_atom_site_fract_x
_atom_site_fract_y
_atom_site_fract_z
Si Si1 0.902396 0.112140 0.370270
Si Si2 0.547660 0.156742 0.643683
Si Si3 0.773778 0.803403 0.565754
Si Si4 0.307467 0.379961 0.204583
Si Si5 0.030694 0.621444 0.908332
Si Si6 0.497769 0.582174 0.184839
Si Si7 0.857812 0.015439 0.964683
Si Si8 0.216343 0.407735 0.929346
O O1 0.919061 0.117133 0.253538
O O2 0.939140 0.237108 0.425853
O O3 0.745637 0.079340 0.390335
O O4 0.996545 0.003245 0.411981
O O5 0.392470 0.119289 0.617558
O O6 0.557093 0.300588 0.628101
O O7 0.642733 0.091916 0.564816
O O8 0.679448 0.750667 0.653622
O O9 0.838745 0.692778 0.503725
O O10 0.688545 0.881663 0.491021
O O11 0.420725 0.461798 0.150298
O O12 0.326131 0.365802 0.320413
O O13 0.159567 0.435558 0.179169
O O14 0.050561 0.600397 0.794814
O O15 0.142281 0.533355 0.959407
O O16 0.879509 0.583286 0.942330
#
# Coordination Sequence:
#
# PCOD8168698 Si02
#       8
#     4   4   4   4   4   4   4   4
#     4  11  25  45  71  91 137 172 221 285 333 386
#     4  10  24  45  66  94 132 169 223 281 324 395
#     4  11  23  38  64  93 125 170 217 265 320 398
#     4   9  19  36  58  88 124 165 203 260 325 384
#     4   9  19  38  61  93 124 170 209 264 326 391
#     4   8  17  37  60  86 125 163 206 260 322 387
#     4  12  25  44  65  98 124 175 228 268 332 400
#     4  10  20  37  63  89 129 164 211 263 328 391
#
# _framework density 21.444147000000001
#
# number of rings (size 3 to 8) (size 9 to 14) (size 15 to 20)
#    0.000    2.000    2.500    0.750    1.750    4.000 
#    2.250    1.250    0.000    0.000    0.000    0.000 
#    0.000    0.000    0.000    0.000    0.000    0.000 
#
# Total GULP energy -396627.302897 kJ/mol
# GULP energy per Si atom -12394.603216 kJ/mol
# Density = 2.139534 g / cm^3
# Si number density = 21.444147 Si / 1000 Ang^3
#
#
#
# Elastic Constant Matrix: (Units=GPa)
#
#
# Indices 1 2 3 4 5 6 
#
# 1 81.1149 38.0119 21.4588 0.0000 0.0000 0.0000
# 2 38.0119 57.2187 22.9724 0.0000 0.0000 0.0000
# 3 21.4588 22.9724 98.4287 0.0000 0.0000 0.0000
# 4 0.0000 0.0000 0.0000 35.2164 0.0000 0.0000
# 5 0.0000 0.0000 0.0000 0.0000 27.8455 0.0000
# 6 0.0000 0.0000 0.0000 0.0000 0.0000 37.6164
#
#
#
# Elastic Compliance Matrix: (Units=1/GPa)
#
#
# Indices 1 2 3 4 5 6 
#
# 1 0.018040 -0.011481 -0.001253 0.000000 0.000000 0.000000
# 2 -0.011481 0.026591 -0.003703 0.000000 0.000000 0.000000
# 3 -0.001253 -0.003703 0.011297 0.000000 0.000000 0.000000
# 4 0.000000 0.000000 0.000000 0.028396 0.000000 0.000000
# 5 0.000000 0.000000 0.000000 0.000000 0.035912 0.000000
# 6 0.000000 0.000000 0.000000 0.000000 0.000000 0.026584
#
#
# Mechanical properties :
#
#
# Convention : Reuss Voigt Hill
#
# Bulk Modulus (GPa) = 43.37873 44.62759 44.00316
# Shear Modulus (GPa) = 26.68372 30.42360 28.55366
#
# Velocity S-wave (km/s) = 3.53134 3.77070 3.65298
# Velocity P-wave (km/s) = 6.07452 6.30982 6.19329
#
# Compressibility (1/GPa) = 0.02305277
#
# Stress axis : x y z
#
# Youngs Moduli (GPa) = 55.43199 37.60690 88.51802
#
# Poissons Ratio (x) = 0.43178 0.11094
# Poissons Ratio (y) = 0.63643 0.32778
# Poissons Ratio (z) = 0.06948 0.13926
#
# Static dielectric constant tensor:
#      x y z
#    x 3.799450 0.000000 0.000000 
#    y 0.000000 4.003270 0.000000 
#    z 0.000000 0.000000 3.906310 
# 
# 
# High freq. dielectric constant tensor:
#      x y z
#    x 1.830130 0.000000 0.000000 
#    y 0.000000 1.832700 0.000000 
#    z 0.000000 0.000000 1.849480 
# 
# From -- ./inp_files/4325.got.cif
#   From: 2010.03.12/outbox.cif.g09.slc.cpg/sg29_3_cif.got.tgz:4325.got - 2010.04.14 03:43:10.
