data_PCOD8168867
_publ_section_title
;
Structure prediction by ZEFSAII (Michael W. Deem and Ramdas Pophale) SiO2 
 PCOD8168867
Probable space group: P C A 21
;
_chemical_formula_sum "Si O2"
_cell_formula_units_Z 28
_cell_length_a 12.897720
_cell_length_b 11.494326
_cell_length_c 8.367450
_cell_angle_alpha 90.000000
_cell_angle_beta 90.000000
_cell_angle_gamma 90.000000
_cell_volume 1240.479469
_symmetry_space_group_name_H-M "P C A 21"
_symmetry_group_IT_number 29
_symmetry_cell_setting 'orthorhombic'
loop_
_space_group_symop_operation_xyz
x,y,z
-x,-y,1/2+z
1/2-x,y,1/2+z
1/2+x,-y,z
loop_
_atom_site_type_symbol
_atom_site_label
_atom_site_fract_x
_atom_site_fract_y
_atom_site_fract_z
Si Si1 0.545831 0.503341 0.933030
Si Si2 0.391876 0.309800 0.898632
Si Si3 0.177639 0.312548 0.751657
Si Si4 0.399534 0.690049 0.054096
Si Si5 0.688120 0.309931 0.910544
Si Si6 0.950291 0.121947 0.509481
Si Si7 0.025267 0.127943 0.867520
O O1 0.617268 0.572654 0.808874
O O2 0.624833 0.409248 0.011912
O O3 0.458325 0.422874 0.849173
O O4 0.487702 0.590179 0.053739
O O5 0.333908 0.320712 0.064511
O O6 0.301331 0.304276 0.768567
O O7 0.464185 0.194994 0.907677
O O8 0.129721 0.200252 0.837652
O O9 0.347038 0.693752 0.226198
O O10 0.309963 0.664056 0.923620
O O11 0.452594 0.810978 0.000522
O O12 0.660776 0.185259 0.988606
O O13 0.968750 0.115485 0.698045
O O14 0.941715 0.995348 0.435606
#
# Coordination Sequence:
#
# PCOD8168867 Si02
#       7
#     4   4   4   4   4   4   4
#     4  10  22  38  58  86 120 154 194 240 290 350
#     4  10  22  38  59  87 117 152 193 239 291 347
#     4  10  22  38  59  87 117 152 193 239 291 347
#     4  11  23  39  62  90 121 159 201 247 300 356
#     4  11  23  39  62  90 121 159 201 247 300 356
#     4  10  22  41  62  87 120 157 201 249 300 356
#     4  10  22  41  62  87 120 157 201 249 300 356
#
# _framework density 22.571915000000001
#
# number of rings (size 3 to 8) (size 9 to 14) (size 15 to 20)
#    0.000    1.714    0.000    3.429    0.000   11.429 
#    0.000    2.857    0.000    0.000    0.000    0.000 
#    0.000    0.000    0.000    0.000    0.000    0.000 
#
# Total GULP energy -347017.804832 kJ/mol
# GULP energy per Si atom -12393.493030 kJ/mol
# Density = 2.252054 g / cm^3
# Si number density = 22.571915 Si / 1000 Ang^3
#
#
#
# Elastic Constant Matrix: (Units=GPa)
#
#
# Indices 1 2 3 4 5 6 
#
# 1 83.2498 23.6252 9.5108 0.0000 0.0000 0.0000
# 2 23.6252 149.6291 21.9622 0.0000 0.0000 0.0000
# 3 9.5108 21.9622 57.8866 0.0000 0.0000 0.0000
# 4 0.0000 0.0000 0.0000 10.6038 0.0000 0.0000
# 5 0.0000 0.0000 0.0000 0.0000 36.7747 0.0000
# 6 0.0000 0.0000 0.0000 0.0000 0.0000 18.0004
#
#
#
# Elastic Compliance Matrix: (Units=1/GPa)
#
#
# Indices 1 2 3 4 5 6 
#
# 1 0.012682 -0.001797 -0.001402 0.000000 0.000000 0.000000
# 2 -0.001797 0.007332 -0.002487 0.000000 0.000000 0.000000
# 3 -0.001402 -0.002487 0.018449 0.000000 0.000000 0.000000
# 4 0.000000 0.000000 0.000000 0.094306 0.000000 0.000000
# 5 0.000000 0.000000 0.000000 0.000000 0.027193 0.000000
# 6 0.000000 0.000000 0.000000 0.000000 0.000000 0.055554
#
#
# Mechanical properties :
#
#
# Convention : Reuss Voigt Hill
#
# Bulk Modulus (GPa) = 36.91062 44.55133 40.73098
# Shear Modulus (GPa) = 21.19388 28.78691 24.99040
#
# Velocity S-wave (km/s) = 3.06755 3.57507 3.33099
# Velocity P-wave (km/s) = 5.37908 6.06810 5.73395
#
# Compressibility (1/GPa) = 0.02709247
#
# Stress axis : x y z
#
# Youngs Moduli (GPa) = 78.85144 136.39162 54.20374
#
# Poissons Ratio (x) = 0.24504 0.07600
# Poissons Ratio (y) = 0.14167 0.13478
# Poissons Ratio (z) = 0.11055 0.33914
#
# Static dielectric constant tensor:
#      x y z
#    x 4.384140 0.000000 0.000000 
#    y 0.000000 4.224340 0.000000 
#    z 0.000000 0.000000 3.886080 
# 
# 
# High freq. dielectric constant tensor:
#      x y z
#    x 1.896690 0.000000 0.000000 
#    y 0.000000 1.892330 0.000000 
#    z 0.000000 0.000000 1.888210 
# 
# From -- ./inp_files/1483.got.cif
#   From: 2010.03.12/outbox.cif.g09.slc.cpg/sg29_1_cif.got.tgz:1483.got - 2010.04.14 03:43:10.
