data_PCOD8168007
_publ_section_title
;
Structure prediction by ZEFSAII (Michael W. Deem and Ramdas Pophale) SiO2 
 PCOD8168007
Probable space group: P M A 2
;
_chemical_formula_sum "Si O2"
_cell_formula_units_Z 32
_cell_length_a 8.784312
_cell_length_b 14.344282
_cell_length_c 15.624901
_cell_angle_alpha 90.000000
_cell_angle_beta 90.000000
_cell_angle_gamma 90.000000
_cell_volume 1968.810158
_symmetry_space_group_name_H-M "P M A 2"
_symmetry_group_IT_number 28
_symmetry_cell_setting 'orthorhombic'
loop_
_space_group_symop_operation_xyz
x,y,z
-x,-y,z
1/2-x,y,z
1/2+x,-y,z
loop_
_atom_site_type_symbol
_atom_site_label
_atom_site_fract_x
_atom_site_fract_y
_atom_site_fract_z
Si Si1 0.430672 0.897338 0.557070
Si Si2 0.930704 0.209842 0.390377
Si Si3 0.928755 0.898738 0.725699
Si Si4 0.569379 0.100792 0.225106
Si Si5 0.071856 0.595450 0.325007
Si Si6 0.930403 0.781260 0.073881
Si Si7 0.927403 0.899765 0.913279
Si Si8 0.929577 0.403494 0.126593
O O1 0.250000 0.905524 0.558206
O O2 0.488652 0.831562 0.480080
O O3 0.490180 0.847970 0.645056
O O4 0.500000 0.000000 0.544631
O O5 0.750000 0.212698 0.386097
O O6 0.990525 0.143288 0.314475
O O7 0.992569 0.315512 0.377649
O O8 0.750000 0.903591 0.707521
O O9 0.965396 0.855214 0.819267
O O10 0.000000 0.000000 0.727532
O O11 0.750000 0.094015 0.222571
O O12 0.514949 0.166850 0.149839
O O13 0.500000 0.000000 0.211375
O O14 0.250000 0.585394 0.337119
O O15 0.029368 0.611657 0.226060
O O16 0.000000 0.500000 0.360791
O O17 0.750000 0.786034 0.087260
O O18 0.988123 0.675566 0.071128
O O19 0.982801 0.827252 0.984496
O O20 0.750000 0.918199 0.920647
O O21 0.000000 0.000000 0.929156
O O22 0.750000 0.401536 0.110518
O O23 0.000000 0.500000 0.093721
#
# Coordination Sequence:
#
# PCOD8168007 Si02
#       8
#     4   4   4   4   4   4   4   4
#     4  10  18  29  46  67  92 123 155 191 230 273
#     4   9  18  32  47  64  93 126 155 188 232 277
#     4   9  16  29  46  65  90 119 152 193 235 274
#     4  11  21  34  46  63  93 131 164 194 230 273
#     4   9  17  32  49  67  89 118 152 191 233 274
#     4  11  21  33  48  70  95 125 162 196 235 282
#     4   9  19  32  47  67  94 126 158 194 235 279
#     4  10  19  33  52  71  94 123 157 198 241 281
#
# _framework density 16.253473
#
# number of rings (size 3 to 8) (size 9 to 14) (size 15 to 20)
#    0.000    2.250    1.250    3.375    0.000    3.000 
#    0.000    3.125    0.000    0.000    0.000    0.875 
#    0.000    4.000    0.000    0.000    0.000    0.000 
#
# Total GULP energy -396671.366888 kJ/mol
# GULP energy per Si atom -12395.980215 kJ/mol
# Density = 1.621648 g / cm^3
# Si number density = 16.253473 Si / 1000 Ang^3
#
#
#
# Elastic Constant Matrix: (Units=GPa)
#
#
# Indices 1 2 3 4 5 6 
#
# 1 54.1183 28.8681 37.0626 0.0000 0.0000 0.0000
# 2 28.8681 109.7946 55.9531 0.0000 0.0000 0.0000
# 3 37.0626 55.9531 128.7163 0.0000 0.0000 0.0000
# 4 0.0000 0.0000 0.0000 9.9616 0.0000 0.0000
# 5 0.0000 0.0000 0.0000 0.0000 -61.7339 0.0000
# 6 0.0000 0.0000 0.0000 0.0000 0.0000 24.3355
#
#
#
# Elastic Compliance Matrix: (Units=1/GPa)
#
#
# Indices 1 2 3 4 5 6 
#
# 1 0.024072 -0.003593 -0.005369 0.000000 0.000000 0.000000
# 2 -0.003593 0.012236 -0.004284 0.000000 0.000000 0.000000
# 3 -0.005369 -0.004284 0.011178 0.000000 0.000000 0.000000
# 4 0.000000 0.000000 0.000000 0.100385 0.000000 0.000000
# 5 0.000000 0.000000 0.000000 0.000000 -0.016199 0.000000
# 6 0.000000 0.000000 0.000000 0.000000 0.000000 0.041092
#
#
# Mechanical properties :
#
#
# Convention : Reuss Voigt Hill
#
# Bulk Modulus (GPa) = 47.63742 59.59964 53.61853
# Shear Modulus (GPa) = 24.24183 5.89566 15.06875
#
# Velocity S-wave (km/s) = 3.86617 1.90662 3.04815
# Velocity P-wave (km/s) = 7.02156 6.44945 6.74158
#
# Compressibility (1/GPa) = 0.02099190
#
# Stress axis : x y z
#
# Youngs Moduli (GPa) = 41.54243 81.72597 89.46491
#
# Poissons Ratio (x) = 0.29363 0.48038
# Poissons Ratio (y) = 0.14925 0.38331
# Poissons Ratio (z) = 0.22306 0.35015
#
# Static dielectric constant tensor:
#      x y z
#    x 3.145250 0.000000 0.000000 
#    y 0.000000 3.141090 0.000000 
#    z 0.000000 0.000000 3.669030 
# 
# 
# High freq. dielectric constant tensor:
#      x y z
#    x 1.628100 0.000000 0.000000 
#    y 0.000000 1.605990 0.000000 
#    z 0.000000 0.000000 1.619440 
# 
# From -- ./inp_files/6419.got.cif
#   From: 2010.03.12/outbox.cif.g09.slc.cpg/sg28_4_cif.got.tgz:6419.got - 2010.04.14 03:39:34.
