data_PCOD8168405
_publ_section_title
;
Structure prediction by ZEFSAII (Michael W. Deem and Ramdas Pophale) SiO2 
 PCOD8168405
Probable space group: P M A 2
;
_chemical_formula_sum "Si O2"
_cell_formula_units_Z 24
_cell_length_a 14.097068
_cell_length_b 9.405042
_cell_length_c 9.069433
_cell_angle_alpha 90.000000
_cell_angle_beta 90.000000
_cell_angle_gamma 90.000000
_cell_volume 1202.457321
_symmetry_space_group_name_H-M "P M A 2"
_symmetry_group_IT_number 28
_symmetry_cell_setting 'orthorhombic'
loop_
_space_group_symop_operation_xyz
x,y,z
-x,-y,z
1/2-x,y,z
1/2+x,-y,z
loop_
_atom_site_type_symbol
_atom_site_label
_atom_site_fract_x
_atom_site_fract_y
_atom_site_fract_z
Si Si1 0.750000 0.532821 0.284320
Si Si2 0.250000 0.972756 0.985444
Si Si3 0.934825 0.137469 0.465697
Si Si4 0.945536 0.642547 0.297764
Si Si5 0.250000 0.809287 0.286552
Si Si6 0.425383 0.878293 0.795075
Si Si7 0.544903 0.654738 0.967490
Si Si8 0.250000 0.302166 0.986132
O O1 0.841868 0.601942 0.361638
O O2 0.750000 0.361802 0.292978
O O3 0.750000 0.580830 0.115177
O O4 0.339510 0.943006 0.884368
O O5 0.250000 0.136801 0.038469
O O6 0.250000 0.863175 0.119834
O O7 0.843482 0.125947 0.361466
O O8 0.895864 0.168405 0.629954
O O9 0.002161 0.266570 0.419879
O O10 0.000000 0.000000 0.448316
O O11 0.000000 0.500000 0.267076
O O12 0.942609 0.715858 0.135265
O O13 0.470064 0.747671 0.880555
O O14 0.500000 0.000000 0.772417
O O15 0.500000 0.500000 0.961206
O O16 0.651807 0.664976 0.896130
#
# Coordination Sequence:
#
# PCOD8168405 Si02
#       8
#     2   2   4   4   2   4   4   2
#     4  10  22  39  64  95 133 159 212 273 325 364
#     4  12  25  39  73  94 126 170 218 266 323 377
#     4  11  26  42  65  92 134 170 214 261 321 389
#     4  10  20  39  65  93 126 169 212 269 318 369
#     4  12  25  43  67  98 128 166 216 272 319 381
#     4  11  24  44  62  92 130 174 210 262 320 381
#     4  10  22  39  66  93 130 165 216 270 312 377
#     4  10  22  39  62  99 127 159 214 267 323 372
#
# _framework density 19.959126999999999
#
# number of rings (size 3 to 8) (size 9 to 14) (size 15 to 20)
#    0.000    1.333    3.333    1.500    9.333    2.000 
#    0.000    1.667    0.000    0.000    0.000    0.000 
#    0.000    0.000    0.000    0.000    0.000    0.000 
#
# Total GULP energy -297490.169582 kJ/mol
# GULP energy per Si atom -12395.423733 kJ/mol
# Density = 1.991370 g / cm^3
# Si number density = 19.959127 Si / 1000 Ang^3
#
#
#
# Elastic Constant Matrix: (Units=GPa)
#
#
# Indices 1 2 3 4 5 6 
#
# 1 140.8639 26.5000 33.7976 0.0000 0.0000 0.0000
# 2 26.5000 86.0523 32.6890 0.0000 0.0000 0.0000
# 3 33.7976 32.6890 100.6785 0.0000 0.0000 0.0000
# 4 0.0000 0.0000 0.0000 25.6357 0.0000 0.0000
# 5 0.0000 0.0000 0.0000 0.0000 33.8292 0.0000
# 6 0.0000 0.0000 0.0000 0.0000 0.0000 35.8466
#
#
#
# Elastic Compliance Matrix: (Units=1/GPa)
#
#
# Indices 1 2 3 4 5 6 
#
# 1 0.007916 -0.001629 -0.002128 0.000000 0.000000 0.000000
# 2 -0.001629 0.013591 -0.003866 0.000000 0.000000 0.000000
# 3 -0.002128 -0.003866 0.011902 0.000000 0.000000 0.000000
# 4 0.000000 0.000000 0.000000 0.039008 0.000000 0.000000
# 5 0.000000 0.000000 0.000000 0.000000 0.029560 0.000000
# 6 0.000000 0.000000 0.000000 0.000000 0.000000 0.027897
#
#
# Mechanical properties :
#
#
# Convention : Reuss Voigt Hill
#
# Bulk Modulus (GPa) = 55.05880 57.06311 56.06095
# Shear Modulus (GPa) = 33.07401 34.70286 33.88843
#
# Velocity S-wave (km/s) = 4.07515 4.17429 4.12502
# Velocity P-wave (km/s) = 7.05607 7.20312 7.12998
#
# Compressibility (1/GPa) = 0.01816240
#
# Stress axis : x y z
#
# Youngs Moduli (GPa) = 126.32250 73.57737 84.01705
#
# Poissons Ratio (x) = 0.11988 0.17883
# Poissons Ratio (y) = 0.20581 0.32480
# Poissons Ratio (z) = 0.26887 0.28444
#
# Static dielectric constant tensor:
#      x y z
#    x 4.286660 0.000000 0.000000 
#    y 0.000000 3.208100 0.000000 
#    z 0.000000 0.000000 3.591310 
# 
# 
# High freq. dielectric constant tensor:
#      x y z
#    x 1.806590 0.000000 0.000000 
#    y 0.000000 1.783230 0.000000 
#    z 0.000000 0.000000 1.754890 
# 
# From -- ./inp_files/3411.got.cif
#   From: 2010.03.12/outbox.cif.g09.slc.cpg/sg28_2_cif.got.tgz:3411.got - 2010.04.14 03:39:34.
