data_PCOD8168811
_publ_section_title
;
Structure prediction by ZEFSAII (Michael W. Deem and Ramdas Pophale) SiO2 
 PCOD8168811
Probable space group: P C A 21
;
_chemical_formula_sum "Si O2"
_cell_formula_units_Z 32
_cell_length_a 8.972064
_cell_length_b 10.864495
_cell_length_c 17.171374
_cell_angle_alpha 90.000000
_cell_angle_beta 90.000000
_cell_angle_gamma 90.000000
_cell_volume 1673.813070
_symmetry_space_group_name_H-M "P C A 21"
_symmetry_group_IT_number 29
_symmetry_cell_setting 'orthorhombic'
loop_
_space_group_symop_operation_xyz
x,y,z
-x,-y,1/2+z
1/2-x,y,1/2+z
1/2+x,-y,z
loop_
_atom_site_type_symbol
_atom_site_label
_atom_site_fract_x
_atom_site_fract_y
_atom_site_fract_z
Si Si1 0.476784 0.416304 0.260700
Si Si2 0.484738 0.854877 0.715344
Si Si3 0.232449 0.992906 0.798670
Si Si4 0.712720 0.614044 0.015487
Si Si5 0.676577 0.597853 0.344796
Si Si6 0.470509 0.486865 0.091565
Si Si7 0.456631 0.220360 0.047916
Si Si8 0.474385 0.149105 0.878501
O O1 0.546632 0.283248 0.243915
O O2 0.567860 0.481859 0.329834
O O3 0.302419 0.397689 0.278779
O O4 0.489892 0.501867 0.184011
O O5 0.336717 0.932515 0.732858
O O6 0.515431 0.864482 0.622831
O O7 0.630647 0.903615 0.759396
O O8 0.127371 0.890035 0.837089
O O9 0.339497 0.053427 0.863820
O O10 0.543139 0.600393 0.043655
O O11 0.796267 0.510817 0.068900
O O12 0.778396 0.750187 0.035129
O O13 0.736087 0.581572 0.925520
O O14 0.573783 0.718836 0.344697
O O15 0.534759 0.354333 0.060095
O O16 0.513727 0.152972 0.970320
#
# Coordination Sequence:
#
# PCOD8168811 Si02
#       8
#     4   4   4   4   4   4   4   4
#     4  11  22  34  57  85 117 146 189 238 283 347
#     4  10  21  40  57  84 114 149 194 236 287 337
#     4  10  22  38  63  81 113 154 193 243 283 339
#     4   9  18  34  52  76 114 151 183 224 279 341
#     4  11  22  35  57  87 117 149 186 236 289 344
#     4   9  18  33  52  76 111 153 182 223 283 336
#     4   8  20  35  59  77 115 145 189 241 278 340
#     4  10  21  41  59  86 113 151 196 237 290 340
#
# _framework density 19.118024999999999
#
# number of rings (size 3 to 8) (size 9 to 14) (size 15 to 20)
#    0.750    1.500    1.250    1.500    1.750    1.000 
#    0.000    0.000    0.000    0.000    0.000    0.000 
#    0.000    0.000    0.000    0.000    0.000    0.000 
#
# Total GULP energy -396541.974425 kJ/mol
# GULP energy per Si atom -12391.936701 kJ/mol
# Density = 1.907451 g / cm^3
# Si number density = 19.118025 Si / 1000 Ang^3
#
#
#
# Elastic Constant Matrix: (Units=GPa)
#
#
# Indices 1 2 3 4 5 6 
#
# 1 69.9832 21.3483 34.9719 0.0000 0.0000 0.0000
# 2 21.3483 62.5776 38.9151 0.0000 0.0000 0.0000
# 3 34.9719 38.9151 129.3376 0.0000 0.0000 0.0000
# 4 0.0000 0.0000 0.0000 25.1789 0.0000 0.0000
# 5 0.0000 0.0000 0.0000 0.0000 26.2838 0.0000
# 6 0.0000 0.0000 0.0000 0.0000 0.0000 25.5159
#
#
#
# Elastic Compliance Matrix: (Units=1/GPa)
#
#
# Indices 1 2 3 4 5 6 
#
# 1 0.017175 -0.003655 -0.003544 0.000000 0.000000 0.000000
# 2 -0.003655 0.020436 -0.005161 0.000000 0.000000 0.000000
# 3 -0.003544 -0.005161 0.010243 0.000000 0.000000 0.000000
# 4 0.000000 0.000000 0.000000 0.039716 0.000000 0.000000
# 5 0.000000 0.000000 0.000000 0.000000 0.038046 0.000000
# 6 0.000000 0.000000 0.000000 0.000000 0.000000 0.039191
#
#
# Mechanical properties :
#
#
# Convention : Reuss Voigt Hill
#
# Bulk Modulus (GPa) = 43.22596 50.26322 46.74459
# Shear Modulus (GPa) = 25.34994 26.50661 25.92827
#
# Velocity S-wave (km/s) = 3.64534 3.72758 3.68669
# Velocity P-wave (km/s) = 6.35430 6.69884 6.52885
#
# Compressibility (1/GPa) = 0.02313425
#
# Stress axis : x y z
#
# Youngs Moduli (GPa) = 58.22305 48.93252 97.63004
#
# Poissons Ratio (x) = 0.17886 0.34603
# Poissons Ratio (y) = 0.21282 0.50382
# Poissons Ratio (z) = 0.20636 0.25252
#
# Static dielectric constant tensor:
#      x y z
#    x 3.323480 0.000000 0.000000 
#    y 0.000000 3.265360 0.000000 
#    z 0.000000 0.000000 3.483330 
# 
# 
# High freq. dielectric constant tensor:
#      x y z
#    x 1.735530 0.000000 0.000000 
#    y 0.000000 1.719300 0.000000 
#    z 0.000000 0.000000 1.750960 
# 
# From -- ./inp_files/4336.got.cif
#   From: 2010.03.12/outbox.cif.g09.slc.cpg/sg29_3_cif.got.tgz:4336.got - 2010.04.14 03:43:10.
