data_PCOD8168062
_publ_section_title
;
Structure prediction by ZEFSAII (Michael W. Deem and Ramdas Pophale) SiO2 
 PCOD8168062
Probable space group: P M A 2
;
_chemical_formula_sum "Si O2"
_cell_formula_units_Z 20
_cell_length_a 8.679116
_cell_length_b 14.617719
_cell_length_c 7.842309
_cell_angle_alpha 90.000000
_cell_angle_beta 90.000000
_cell_angle_gamma 90.000000
_cell_volume 994.944950
_symmetry_space_group_name_H-M "P M A 2"
_symmetry_group_IT_number 28
_symmetry_cell_setting 'orthorhombic'
loop_
_space_group_symop_operation_xyz
x,y,z
-x,-y,z
1/2-x,y,z
1/2+x,-y,z
loop_
_atom_site_type_symbol
_atom_site_label
_atom_site_fract_x
_atom_site_fract_y
_atom_site_fract_z
Si Si1 0.568195 0.592610 0.984510
Si Si2 0.932565 0.099777 0.794982
Si Si3 0.430187 0.784282 0.481931
Si Si4 0.567649 0.406863 0.611235
Si Si5 0.930536 0.226957 0.104804
O O1 0.500000 0.500000 0.069156
O O2 0.750000 0.583656 0.964669
O O3 0.490526 0.606938 0.802131
O O4 0.524261 0.678791 0.100074
O O5 0.750000 0.092570 0.790390
O O6 0.001094 0.146680 0.622838
O O7 0.987689 0.158256 0.958387
O O8 0.000000 0.000000 0.813605
O O9 0.250000 0.781699 0.518821
O O10 0.492484 0.680706 0.505057
O O11 0.466604 0.818190 0.290004
O O12 0.500000 0.500000 0.529459
O O13 0.750000 0.414782 0.612100
O O14 0.750000 0.249080 0.085273
#
# Coordination Sequence:
#
# PCOD8168062 Si02
#       5
#     4   4   4   4   4
#     4  11  21  34  55  84 117 153 193 231 276 332
#     4  10  21  39  60  83 112 147 186 232 287 340
#     4   9  19  36  59  84 111 149 188 226 280 338
#     4  10  18  33  55  82 114 150 191 228 275 333
#     4  10  20  38  61  83 114 150 188 234 281 334
#
# _framework density 20.101616
#
# number of rings (size 3 to 8) (size 9 to 14) (size 15 to 20)
#    0.000    2.000    2.000    3.600    0.000    2.400 
#    0.000    5.000    0.000    0.000    0.000    0.000 
#    0.000    0.000    0.000    0.000    0.000    0.000 
#
# Total GULP energy -247959.564630 kJ/mol
# GULP energy per Si atom -12397.978232 kJ/mol
# Density = 2.005586 g / cm^3
# Si number density = 20.101616 Si / 1000 Ang^3
#
#
#
# Elastic Constant Matrix: (Units=GPa)
#
#
# Indices 1 2 3 4 5 6 
#
# 1 59.7439 34.0244 21.8787 0.0000 0.0000 0.0000
# 2 34.0244 158.2989 75.8927 0.0000 0.0000 0.0000
# 3 21.8787 75.8927 131.3084 0.0000 0.0000 0.0000
# 4 0.0000 0.0000 0.0000 16.0423 0.0000 0.0000
# 5 0.0000 0.0000 0.0000 0.0000 4.4617 0.0000
# 6 0.0000 0.0000 0.0000 0.0000 0.0000 34.4502
#
#
#
# Elastic Compliance Matrix: (Units=1/GPa)
#
#
# Indices 1 2 3 4 5 6 
#
# 1 0.019192 -0.003586 -0.001125 0.000000 0.000000 0.000000
# 2 -0.003586 0.009408 -0.004840 0.000000 0.000000 0.000000
# 3 -0.001125 -0.004840 0.010601 0.000000 0.000000 0.000000
# 4 0.000000 0.000000 0.000000 0.062335 0.000000 0.000000
# 5 0.000000 0.000000 0.000000 0.000000 0.224129 0.000000
# 6 0.000000 0.000000 0.000000 0.000000 0.000000 0.029027
#
#
# Mechanical properties :
#
#
# Convention : Reuss Voigt Hill
#
# Bulk Modulus (GPa) = 49.75459 68.10475 58.92967
# Shear Modulus (GPa) = 13.14077 25.49454 19.31765
#
# Velocity S-wave (km/s) = 2.55956 3.56516 3.10336
# Velocity P-wave (km/s) = 5.79141 7.13449 6.49774
#
# Compressibility (1/GPa) = 0.02009865
#
# Stress axis : x y z
#
# Youngs Moduli (GPa) = 52.10436 106.28745 94.33249
#
# Poissons Ratio (x) = 0.38110 0.10617
# Poissons Ratio (y) = 0.18682 0.45661
# Poissons Ratio (z) = 0.05864 0.51447
#
# Static dielectric constant tensor:
#      x y z
#    x 3.425200 0.000000 0.000000 
#    y 0.000000 3.904880 0.000000 
#    z 0.000000 0.000000 3.707390 
# 
# 
# High freq. dielectric constant tensor:
#      x y z
#    x 1.759670 0.000000 0.000000 
#    y 0.000000 1.786770 0.000000 
#    z 0.000000 0.000000 1.784510 
# 
# From -- ./inp_files/2367.got.cif
#   From: 2010.03.12/outbox.cif.g09.slc.cpg/sg28_2_cif.got.tgz:2367.got - 2010.04.14 03:39:34.
