data_PCOD8168085
_publ_section_title
;
Structure prediction by ZEFSAII (Michael W. Deem and Ramdas Pophale) SiO2 
 PCOD8168085
Probable space group: P M A 2
;
_chemical_formula_sum "Si O2"
_cell_formula_units_Z 32
_cell_length_a 9.046876
_cell_length_b 19.212708
_cell_length_c 10.280318
_cell_angle_alpha 90.000000
_cell_angle_beta 90.000000
_cell_angle_gamma 90.000000
_cell_volume 1786.873338
_symmetry_space_group_name_H-M "P M A 2"
_symmetry_group_IT_number 28
_symmetry_cell_setting 'orthorhombic'
loop_
_space_group_symop_operation_xyz
x,y,z
-x,-y,z
1/2-x,y,z
1/2+x,-y,z
loop_
_atom_site_type_symbol
_atom_site_label
_atom_site_fract_x
_atom_site_fract_y
_atom_site_fract_z
Si Si1 0.576090 0.659490 0.644050
Si Si2 0.083285 0.067691 0.546634
Si Si3 0.924277 0.207768 0.541801
Si Si4 0.575981 0.207090 0.240682
Si Si5 0.576447 0.660630 0.148343
Si Si6 0.416527 0.067458 0.237361
Si Si7 0.077641 0.427548 0.397522
Si Si8 0.923432 0.574219 0.898060
O O1 0.750000 0.675511 0.634932
O O2 0.488478 0.731399 0.631841
O O3 0.523752 0.608337 0.529646
O O4 0.530926 0.622878 0.777953
O O5 0.250000 0.069901 0.601931
O O6 0.085903 0.063542 0.392020
O O7 0.996163 0.136241 0.592035
O O8 0.000000 0.000000 0.603688
O O9 0.750000 0.202448 0.560669
O O10 0.966365 0.221820 0.391156
O O11 0.750000 0.201390 0.222142
O O12 0.512002 0.267244 0.148452
O O13 0.503711 0.135670 0.191158
O O14 0.750000 0.677185 0.141474
O O15 0.531399 0.620736 0.278411
O O16 0.524192 0.613883 0.027485
O O17 0.250000 0.069560 0.182002
O O18 0.500000 0.000000 0.180154
O O19 0.250000 0.442101 0.399970
O O20 0.000000 0.500000 0.378996
O O21 0.750000 0.560093 0.899772
O O22 0.000000 0.500000 0.886870
#
# Coordination Sequence:
#
# PCOD8168085 Si02
#       8
#     4   4   4   4   4   4   4   4
#     4  10  20  35  52  73 100 133 168 207 256 307
#     4   9  16  26  42  66 100 139 173 208 251 300
#     4  10  19  30  47  73 102 133 171 214 256 301
#     4  10  19  30  47  73 102 133 171 214 256 301
#     4  10  20  35  52  73 100 133 168 207 256 307
#     4   9  16  26  42  66 100 139 173 208 251 300
#     4  10  20  32  50  72  97 126 161 202 250 304
#     4  10  22  38  56  76 101 132 169 212 258 310
#
# _framework density 17.908374999999999
#
# number of rings (size 3 to 8) (size 9 to 14) (size 15 to 20)
#    0.000    2.250    1.250    2.250    0.000    6.000 
#    0.000    0.000    0.000    0.000    0.000    0.875 
#    0.000    0.000    0.000    0.000    0.000    0.000 
#
# Total GULP energy -396877.732226 kJ/mol
# GULP energy per Si atom -12402.429132 kJ/mol
# Density = 1.786761 g / cm^3
# Si number density = 17.908375 Si / 1000 Ang^3
#
#
#
# Elastic Constant Matrix: (Units=GPa)
#
#
# Indices 1 2 3 4 5 6 
#
# 1 90.9702 76.6359 28.9212 0.0000 0.0000 0.0000
# 2 76.6359 145.9473 17.4780 0.0000 0.0000 0.0000
# 3 28.9212 17.4780 49.0477 0.0000 0.0000 0.0000
# 4 0.0000 0.0000 0.0000 21.1783 0.0000 0.0000
# 5 0.0000 0.0000 0.0000 0.0000 10.8443 0.0000
# 6 0.0000 0.0000 0.0000 0.0000 0.0000 42.6893
#
#
#
# Elastic Compliance Matrix: (Units=1/GPa)
#
#
# Indices 1 2 3 4 5 6 
#
# 1 0.023570 -0.011189 -0.009911 0.000000 0.000000 0.000000
# 2 -0.011189 0.012469 0.002155 0.000000 0.000000 0.000000
# 3 -0.009911 0.002155 0.025464 0.000000 0.000000 0.000000
# 4 0.000000 0.000000 0.000000 0.047218 0.000000 0.000000
# 5 0.000000 0.000000 0.000000 0.000000 0.092214 0.000000
# 6 0.000000 0.000000 0.000000 0.000000 0.000000 0.023425
#
#
# Mechanical properties :
#
#
# Convention : Reuss Voigt Hill
#
# Bulk Modulus (GPa) = 42.35093 59.11504 50.73298
# Shear Modulus (GPa) = 18.51008 25.80438 22.15723
#
# Velocity S-wave (km/s) = 3.21845 3.80005 3.52128
# Velocity P-wave (km/s) = 6.12464 7.23431 6.70248
#
# Compressibility (1/GPa) = 0.02361223
#
# Stress axis : x y z
#
# Youngs Moduli (GPa) = 42.42734 80.19724 39.27046
#
# Poissons Ratio (x) = 0.89736 0.38920
# Poissons Ratio (y) = 0.47474 -0.08461
# Poissons Ratio (z) = 0.42048 -0.17279
#
# Static dielectric constant tensor:
#      x y z
#    x 3.266410 0.000000 0.000000 
#    y 0.000000 3.406810 0.000000 
#    z 0.000000 0.000000 3.040200 
# 
# 
# High freq. dielectric constant tensor:
#      x y z
#    x 1.698210 0.000000 0.000000 
#    y 0.000000 1.709650 0.000000 
#    z 0.000000 0.000000 1.646300 
# 
# From -- ./inp_files/5174.got.cif
#   From: 2010.03.12/outbox.cif.g09.slc.cpg/sg28_3_cif.got.tgz:5174.got - 2010.04.14 03:39:34.
