data_PCOD8168102
_publ_section_title
;
Structure prediction by ZEFSAII (Michael W. Deem and Ramdas Pophale) SiO2 
 PCOD8168102
Probable space group: P M A 2
;
_chemical_formula_sum "Si O2"
_cell_formula_units_Z 32
_cell_length_a 8.623726
_cell_length_b 14.258261
_cell_length_c 15.712411
_cell_angle_alpha 90.000000
_cell_angle_beta 90.000000
_cell_angle_gamma 90.000000
_cell_volume 1931.987625
_symmetry_space_group_name_H-M "P M A 2"
_symmetry_group_IT_number 28
_symmetry_cell_setting 'orthorhombic'
loop_
_space_group_symop_operation_xyz
x,y,z
-x,-y,z
1/2-x,y,z
1/2+x,-y,z
loop_
_atom_site_type_symbol
_atom_site_label
_atom_site_fract_x
_atom_site_fract_y
_atom_site_fract_z
Si Si1 0.433270 0.901528 0.677880
Si Si2 0.067160 0.603047 0.766618
Si Si3 0.433626 0.281476 0.611323
Si Si4 0.932637 0.902161 0.862731
Si Si5 0.066615 0.395513 0.082933
Si Si6 0.430303 0.399094 0.267655
Si Si7 0.566749 0.603283 0.450989
Si Si8 0.568956 0.277906 0.932213
O O1 0.250000 0.906943 0.680995
O O2 0.487736 0.820313 0.614513
O O3 0.494151 0.877471 0.771683
O O4 0.500000 0.000000 0.644412
O O5 0.250000 0.599931 0.749928
O O6 0.024762 0.657032 0.852795
O O7 0.000000 0.500000 0.775935
O O8 0.984636 0.654051 0.689073
O O9 0.250000 0.269328 0.613087
O O10 0.495416 0.327904 0.524083
O O11 0.750000 0.911308 0.852242
O O12 0.976442 0.819836 0.927678
O O13 0.000000 0.000000 0.898081
O O14 0.250000 0.398499 0.064657
O O15 0.029430 0.350115 0.177140
O O16 0.000000 0.500000 0.073639
O O17 0.980966 0.328327 0.018012
O O18 0.500000 0.500000 0.261966
O O19 0.250000 0.413708 0.273892
O O20 0.484711 0.353190 0.357907
O O21 0.500000 0.500000 0.465145
O O22 0.750000 0.594834 0.459037
O O23 0.750000 0.255505 0.934218
#
# Coordination Sequence:
#
# PCOD8168102 Si02
#       8
#     4   4   4   4   4   4   4   4
#     4  11  21  35  53  73  97 126 163 205 249 291
#     4  11  23  35  47  64  95 134 170 203 239 284
#     4  11  21  33  50  72  98 130 167 204 244 292
#     4  11  21  35  55  75  98 126 162 204 248 292
#     4  10  19  31  49  72  99 132 168 206 248 293
#     4   8  15  29  47  68  95 126 162 204 247 290
#     4   9  18  31  48  71  99 131 166 203 245 290
#     4  11  22  35  50  71  99 131 168 205 244 290
#
# _framework density 16.563254000000001
#
# number of rings (size 3 to 8) (size 9 to 14) (size 15 to 20)
#    0.000    1.750    1.250    5.250    0.000    5.000 
#    0.000    0.000    0.000    0.000    0.000    0.875 
#    0.000    4.000    0.000    0.000    0.000    0.000 
#
# Total GULP energy -396643.480533 kJ/mol
# GULP energy per Si atom -12395.108767 kJ/mol
# Density = 1.652556 g / cm^3
# Si number density = 16.563254 Si / 1000 Ang^3
#
#
#
# Elastic Constant Matrix: (Units=GPa)
#
#
# Indices 1 2 3 4 5 6 
#
# 1 82.8018 37.7272 37.8586 0.0000 0.0000 0.0000
# 2 37.7272 111.0542 56.7569 0.0000 0.0000 0.0000
# 3 37.8586 56.7569 122.2903 0.0000 0.0000 0.0000
# 4 0.0000 0.0000 0.0000 3.2806 0.0000 0.0000
# 5 0.0000 0.0000 0.0000 0.0000 14.2339 0.0000
# 6 0.0000 0.0000 0.0000 0.0000 0.0000 28.6471
#
#
#
# Elastic Compliance Matrix: (Units=1/GPa)
#
#
# Indices 1 2 3 4 5 6 
#
# 1 0.015086 -0.003590 -0.003004 0.000000 0.000000 0.000000
# 2 -0.003590 0.012659 -0.004764 0.000000 0.000000 0.000000
# 3 -0.003004 -0.004764 0.011318 0.000000 0.000000 0.000000
# 4 0.000000 0.000000 0.000000 0.304818 0.000000 0.000000
# 5 0.000000 0.000000 0.000000 0.000000 0.070255 0.000000
# 6 0.000000 0.000000 0.000000 0.000000 0.000000 0.034908
#
#
# Mechanical properties :
#
#
# Convention : Reuss Voigt Hill
#
# Bulk Modulus (GPa) = 61.17102 64.53684 62.85393
# Shear Modulus (GPa) = 10.47760 21.48592 15.98176
#
# Velocity S-wave (km/s) = 2.51785 3.60558 3.10964
# Velocity P-wave (km/s) = 6.74275 7.50880 7.13606
#
# Compressibility (1/GPa) = 0.01634761
#
# Stress axis : x y z
#
# Youngs Moduli (GPa) = 66.28553 78.99672 88.35214
#
# Poissons Ratio (x) = 0.28357 0.26544
# Poissons Ratio (y) = 0.23794 0.42090
# Poissons Ratio (z) = 0.19915 0.37633
#
# Static dielectric constant tensor:
#      x y z
#    x 3.241070 0.000000 0.000000 
#    y 0.000000 3.191560 0.000000 
#    z 0.000000 0.000000 3.566170 
# 
# 
# High freq. dielectric constant tensor:
#      x y z
#    x 1.654560 0.000000 0.000000 
#    y 0.000000 1.618560 0.000000 
#    z 0.000000 0.000000 1.633730 
# 
# From -- ./inp_files/6382.got.cif
#   From: 2010.03.12/outbox.cif.g09.slc.cpg/sg28_4_cif.got.tgz:6382.got - 2010.04.14 03:39:34.
