data_PCOD8168876
_publ_section_title
;
Structure prediction by ZEFSAII (Michael W. Deem and Ramdas Pophale) SiO2 
 PCOD8168876
Probable space group: P C A 21
;
_chemical_formula_sum "Si O2"
_cell_formula_units_Z 32
_cell_length_a 8.414392
_cell_length_b 8.632519
_cell_length_c 20.639672
_cell_angle_alpha 90.000000
_cell_angle_beta 90.000000
_cell_angle_gamma 90.000000
_cell_volume 1499.212086
_symmetry_space_group_name_H-M "P C A 21"
_symmetry_group_IT_number 29
_symmetry_cell_setting 'orthorhombic'
loop_
_space_group_symop_operation_xyz
x,y,z
-x,-y,1/2+z
1/2-x,y,1/2+z
1/2+x,-y,z
loop_
_atom_site_type_symbol
_atom_site_label
_atom_site_fract_x
_atom_site_fract_y
_atom_site_fract_z
Si Si1 0.298415 0.787314 0.228280
Si Si2 0.778883 0.712826 0.850230
Si Si3 0.701601 0.712686 0.097305
Si Si4 0.841981 0.888108 0.722830
Si Si5 0.641035 0.386291 0.856155
Si Si6 0.778890 0.212824 0.975357
Si Si7 0.641041 0.886292 0.969432
Si Si8 0.658002 0.388111 0.602755
O O1 0.471935 0.858634 0.221570
O O2 0.277338 0.692181 0.294146
O O3 0.260438 0.673231 0.168574
O O4 0.174648 0.927706 0.228554
O O5 0.759214 0.801779 0.782656
O O6 0.656238 0.570834 0.850542
O O7 0.734435 0.832489 0.906115
O O8 0.956368 0.652497 0.861261
O O9 0.739573 0.826780 0.157008
O O10 0.528081 0.641367 0.104017
O O11 0.825373 0.572299 0.097038
O O12 0.722676 0.807803 0.031435
O O13 0.734439 0.332471 0.919466
O O14 0.956374 0.152489 0.964327
O O15 0.656246 0.070833 0.975054
O O16 0.759228 0.301798 0.042926
#
# Coordination Sequence:
#
# PCOD8168876 Si02
#       8
#     4   4   4   4   4   4   4   4
#     4  10  22  39  59  85 115 149 190 235 284 338
#     4  11  23  39  60  86 117 152 192 237 286 341
#     4  10  22  39  59  85 115 149 190 235 284 338
#     4  10  22  39  59  85 115 149 190 235 284 338
#     4  11  23  39  60  86 117 152 192 237 286 341
#     4  11  23  39  60  86 117 152 192 237 286 341
#     4  11  23  39  60  86 117 152 192 237 286 341
#     4  10  22  39  59  85 115 149 190 235 284 338
#
# _framework density 21.344546000000001
#
# number of rings (size 3 to 8) (size 9 to 14) (size 15 to 20)
#    0.000    1.500    0.000    4.500    0.000    9.000 
#    0.000    0.000    0.000    0.000    0.000    0.000 
#    0.000    0.000    0.000    0.000    0.000    0.000 
#
# Total GULP energy -397054.449886 kJ/mol
# GULP energy per Si atom -12407.951559 kJ/mol
# Density = 2.129596 g / cm^3
# Si number density = 21.344546 Si / 1000 Ang^3
#
#
#
# Elastic Constant Matrix: (Units=GPa)
#
#
# Indices 1 2 3 4 5 6 
#
# 1 23.8794 -5.6919 16.0039 0.0000 0.0000 0.0000
# 2 -5.6919 66.1082 -0.5211 0.0000 0.0000 0.0000
# 3 16.0039 -0.5211 84.6248 0.0000 0.0000 0.0000
# 4 0.0000 0.0000 0.0000 42.0802 0.0000 0.0000
# 5 0.0000 0.0000 0.0000 0.0000 28.9768 0.0000
# 6 0.0000 0.0000 0.0000 0.0000 0.0000 37.7873
#
#
#
# Elastic Compliance Matrix: (Units=1/GPa)
#
#
# Indices 1 2 3 4 5 6 
#
# 1 0.049069 0.004152 -0.009254 0.000000 0.000000 0.000000
# 2 0.004152 0.015479 -0.000690 0.000000 0.000000 0.000000
# 3 -0.009254 -0.000690 0.013563 0.000000 0.000000 0.000000
# 4 0.000000 0.000000 0.000000 0.023764 0.000000 0.000000
# 5 0.000000 0.000000 0.000000 0.000000 0.034510 0.000000
# 6 0.000000 0.000000 0.000000 0.000000 0.000000 0.026464
#
#
# Mechanical properties :
#
#
# Convention : Reuss Voigt Hill
#
# Bulk Modulus (GPa) = 15.03173 21.57712 18.30443
# Shear Modulus (GPa) = 25.43129 32.75695 29.09412
#
# Velocity S-wave (km/s) = 3.45551 3.92174 3.69598
# Velocity P-wave (km/s) = 4.79358 5.53513 5.17765
#
# Compressibility (1/GPa) = 0.06652596
#
# Stress axis : x y z
#
# Youngs Moduli (GPa) = 20.37958 64.60470 73.73154
#
# Poissons Ratio (x) = -0.26823 0.68232
# Poissons Ratio (y) = -0.08461 0.05086
# Poissons Ratio (z) = 0.18859 0.04457
#
# Static dielectric constant tensor:
#      x y z
#    x 3.628900 0.000000 0.000000 
#    y 0.000000 3.893160 0.000000 
#    z 0.000000 0.000000 4.189980 
# 
# 
# High freq. dielectric constant tensor:
#      x y z
#    x 1.829360 0.000000 0.000000 
#    y 0.000000 1.848000 0.000000 
#    z 0.000000 0.000000 1.856600 
# 
# From -- ./inp_files/2260.got.cif
#   From: 2010.03.12/outbox.cif.g09.slc.cpg/sg29_2_cif.got.tgz:2260.got - 2010.04.14 03:43:10.
