data_PCOD8168912
_publ_section_title
;
Structure prediction by ZEFSAII (Michael W. Deem and Ramdas Pophale) SiO2 
 PCOD8168912
Probable space group: P C A 21
;
_chemical_formula_sum "Si O2"
_cell_formula_units_Z 32
_cell_length_a 12.042960
_cell_length_b 9.172406
_cell_length_c 13.097206
_cell_angle_alpha 90.000000
_cell_angle_beta 90.000000
_cell_angle_gamma 90.000000
_cell_volume 1446.755600
_symmetry_space_group_name_H-M "P C A 21"
_symmetry_group_IT_number 29
_symmetry_cell_setting 'orthorhombic'
loop_
_space_group_symop_operation_xyz
x,y,z
-x,-y,1/2+z
1/2-x,y,1/2+z
1/2+x,-y,z
loop_
_atom_site_type_symbol
_atom_site_label
_atom_site_fract_x
_atom_site_fract_y
_atom_site_fract_z
Si Si1 0.585475 0.053136 0.398420
Si Si2 0.392391 0.555344 0.722357
Si Si3 0.077447 0.123305 0.069197
Si Si4 0.775980 0.480145 0.058825
Si Si5 0.012669 0.863179 0.181037
Si Si6 0.739983 0.294421 0.873255
Si Si7 0.171708 0.200517 0.531844
Si Si8 0.437887 0.677749 0.208629
O O1 0.505260 0.140941 0.474247
O O2 0.519940 0.056985 0.290883
O O3 0.701468 0.139723 0.392082
O O4 0.615508 0.888685 0.437150
O O5 0.319149 0.469259 0.638267
O O6 0.434666 0.705651 0.676000
O O7 0.320949 0.588398 0.821331
O O8 0.496000 0.458360 0.755764
O O9 0.197823 0.174567 0.037269
O O10 0.024598 0.204212 0.167135
O O11 0.086390 0.954359 0.100845
O O12 0.839374 0.624306 0.015697
O O13 0.862938 0.374986 0.114675
O O14 0.711041 0.380986 0.976215
O O15 0.885919 0.852318 0.138135
O O16 0.634032 0.258525 0.802328
#
# Coordination Sequence:
#
# PCOD8168912 Si02
#       8
#     4   4   4   4   4   4   4   4
#     4  10  24  45  65  98 135 181 224 278 348 417
#     4  10  22  41  65  98 133 176 222 280 346 405
#     4  11  24  42  69  99 136 176 227 285 344 414
#     4  11  22  42  67  98 135 177 227 285 343 419
#     4  10  24  44  66  95 141 177 222 287 347 413
#     4  10  24  40  68  93 133 182 222 274 354 418
#     4  11  24  42  71 100 132 180 233 285 341 413
#     4  11  22  42  65  99 135 175 225 286 351 403
#
# _framework density 22.118455000000001
#
# number of rings (size 3 to 8) (size 9 to 14) (size 15 to 20)
#    0.000    1.500    3.750    0.000    1.750    9.000 
#    2.250    0.000    0.000    0.000    0.000    0.000 
#    0.000    0.000    0.000    0.000    0.000    0.000 
#
# Total GULP energy -396698.036243 kJ/mol
# GULP energy per Si atom -12396.813633 kJ/mol
# Density = 2.206811 g / cm^3
# Si number density = 22.118455 Si / 1000 Ang^3
#
#
#
# Elastic Constant Matrix: (Units=GPa)
#
#
# Indices 1 2 3 4 5 6 
#
# 1 83.0547 11.5331 15.0368 0.0000 0.0000 0.0000
# 2 11.5331 73.6005 22.1685 0.0000 0.0000 0.0000
# 3 15.0368 22.1685 65.8082 0.0000 0.0000 0.0000
# 4 0.0000 0.0000 0.0000 29.6535 0.0000 0.0000
# 5 0.0000 0.0000 0.0000 0.0000 36.3580 0.0000
# 6 0.0000 0.0000 0.0000 0.0000 0.0000 26.5844
#
#
#
# Elastic Compliance Matrix: (Units=1/GPa)
#
#
# Indices 1 2 3 4 5 6 
#
# 1 0.012660 -0.001238 -0.002476 0.000000 0.000000 0.000000
# 2 -0.001238 0.015242 -0.004852 0.000000 0.000000 0.000000
# 3 -0.002476 -0.004852 0.017396 0.000000 0.000000 0.000000
# 4 0.000000 0.000000 0.000000 0.033723 0.000000 0.000000
# 5 0.000000 0.000000 0.000000 0.000000 0.027504 0.000000
# 6 0.000000 0.000000 0.000000 0.000000 0.000000 0.037616
#
#
# Mechanical properties :
#
#
# Convention : Reuss Voigt Hill
#
# Bulk Modulus (GPa) = 35.50228 35.54891 35.52559
# Shear Modulus (GPa) = 29.29772 30.10084 29.69928
#
# Velocity S-wave (km/s) = 3.64343 3.69303 3.66831
# Velocity P-wave (km/s) = 5.81251 5.85590 5.83425
#
# Compressibility (1/GPa) = 0.02816721
#
# Stress axis : x y z
#
# Youngs Moduli (GPa) = 78.98635 65.60728 57.48540
#
# Poissons Ratio (x) = 0.08123 0.14232
# Poissons Ratio (y) = 0.09780 0.27890
# Poissons Ratio (z) = 0.19555 0.31830
#
# Static dielectric constant tensor:
#      x y z
#    x 3.954440 0.000000 0.000000 
#    y 0.000000 4.073290 0.000000 
#    z 0.000000 0.000000 3.958770 
# 
# 
# High freq. dielectric constant tensor:
#      x y z
#    x 1.868040 0.000000 0.000000 
#    y 0.000000 1.876740 0.000000 
#    z 0.000000 0.000000 1.867020 
# 
# From -- ./inp_files/4549.got.cif
#   From: 2010.03.12/outbox.cif.g09.slc.cpg/sg29_3_cif.got.tgz:4549.got - 2010.04.14 03:43:10.
