data_PCOD8168556
_publ_section_title
;
Structure prediction by ZEFSAII (Michael W. Deem and Ramdas Pophale) SiO2 
 PCOD8168556
Probable space group: P C A 21
;
_chemical_formula_sum "Si O2"
_cell_formula_units_Z 32
_cell_length_a 8.980372
_cell_length_b 20.974757
_cell_length_c 8.326524
_cell_angle_alpha 90.000000
_cell_angle_beta 90.000000
_cell_angle_gamma 90.000000
_cell_volume 1568.393390
_symmetry_space_group_name_H-M "P C A 21"
_symmetry_group_IT_number 29
_symmetry_cell_setting 'orthorhombic'
loop_
_space_group_symop_operation_xyz
x,y,z
-x,-y,1/2+z
1/2-x,y,1/2+z
1/2+x,-y,z
loop_
_atom_site_type_symbol
_atom_site_label
_atom_site_fract_x
_atom_site_fract_y
_atom_site_fract_z
Si Si1 0.123660 0.817792 0.562790
Si Si2 0.870616 0.441048 0.059884
Si Si3 0.872386 0.941943 0.235693
Si Si4 0.550610 0.940725 0.106629
Si Si5 0.551045 0.180353 0.191047
Si Si6 0.547676 0.442642 0.190669
Si Si7 0.375253 0.687933 0.216681
Si Si8 0.549736 0.311855 0.089457
O O1 0.299984 0.827648 0.585622
O O2 0.096872 0.816274 0.374802
O O3 0.059539 0.752372 0.638450
O O4 0.035599 0.875495 0.645685
O O5 0.692970 0.444900 0.077682
O O6 0.939011 0.375189 0.129392
O O7 0.939389 0.499425 0.156796
O O8 0.906471 0.445817 0.874283
O O9 0.695359 0.943238 0.217680
O O10 0.905172 0.945724 0.422406
O O11 0.939737 0.877805 0.157185
O O12 0.941470 0.001555 0.144652
O O13 0.466324 0.245724 0.134895
O O14 0.462483 0.375831 0.146043
O O15 0.414802 0.685325 0.402472
O O16 0.198019 0.689020 0.198783
#
# Coordination Sequence:
#
# PCOD8168556 Si02
#       8
#     4   4   4   4   4   4   4   4
#     4  10  20  35  56  83 110 142 181 226 275 328
#     4  11  21  36  56  81 112 147 187 232 279 331
#     4  11  24  40  60  84 114 148 186 228 276 328
#     4  11  24  40  60  84 114 148 186 228 276 328
#     4  10  20  35  56  83 110 142 181 226 275 328
#     4  11  21  36  56  81 112 147 187 232 279 331
#     4  10  18  31  53  80 108 143 183 226 274 329
#     4  10  18  31  53  80 108 143 183 226 274 329
#
# _framework density 20.403044999999999
#
# number of rings (size 3 to 8) (size 9 to 14) (size 15 to 20)
#    0.000    1.500    0.000    9.750    0.000    6.000 
#    0.000    1.250    0.000    3.000    0.000    0.000 
#    0.000    0.000    0.000    0.000    0.000    0.000 
#
# Total GULP energy -396813.370095 kJ/mol
# GULP energy per Si atom -12400.417815 kJ/mol
# Density = 2.035661 g / cm^3
# Si number density = 20.403045 Si / 1000 Ang^3
#
#
#
# Elastic Constant Matrix: (Units=GPa)
#
#
# Indices 1 2 3 4 5 6 
#
# 1 45.7523 37.2879 -8.3015 0.0000 0.0000 0.0000
# 2 37.2879 192.0298 19.1275 0.0000 0.0000 0.0000
# 3 -8.3015 19.1275 53.3826 0.0000 0.0000 0.0000
# 4 0.0000 0.0000 0.0000 37.0622 0.0000 0.0000
# 5 0.0000 0.0000 0.0000 0.0000 20.5494 0.0000
# 6 0.0000 0.0000 0.0000 0.0000 0.0000 28.2408
#
#
#
# Elastic Compliance Matrix: (Units=1/GPa)
#
#
# Indices 1 2 3 4 5 6 
#
# 1 0.028006 -0.006089 0.006537 0.000000 0.000000 0.000000
# 2 -0.006089 0.006724 -0.003356 0.000000 0.000000 0.000000
# 3 0.006537 -0.003356 0.020952 0.000000 0.000000 0.000000
# 4 0.000000 0.000000 0.000000 0.026982 0.000000 0.000000
# 5 0.000000 0.000000 0.000000 0.000000 0.048663 0.000000
# 6 0.000000 0.000000 0.000000 0.000000 0.000000 0.035410
#
#
# Mechanical properties :
#
#
# Convention : Reuss Voigt Hill
#
# Bulk Modulus (GPa) = 20.05431 43.04362 31.54896
# Shear Modulus (GPa) = 26.43055 33.37385 29.90220
#
# Velocity S-wave (km/s) = 3.60310 4.04880 3.83244
# Velocity P-wave (km/s) = 5.21155 6.55740 5.92283
#
# Compressibility (1/GPa) = 0.04986460
#
# Stress axis : x y z
#
# Youngs Moduli (GPa) = 35.70713 148.71611 47.72852
#
# Poissons Ratio (x) = 0.90556 -0.31200
# Poissons Ratio (y) = 0.21743 0.16019
# Poissons Ratio (z) = -0.23342 0.49913
#
# Static dielectric constant tensor:
#      x y z
#    x -3.183640 0.000000 0.000000 
#    y 0.000000 4.594230 0.000000 
#    z 0.000000 0.000000 3.700960 
# 
# 
# High freq. dielectric constant tensor:
#      x y z
#    x 1.748360 0.000000 0.000000 
#    y 0.000000 1.830450 0.000000 
#    z 0.000000 0.000000 1.815410 
# 
# From -- ./inp_files/1271.got.cif
#   From: 2010.03.12/outbox.cif.g09.slc.cpg/sg29_1_cif.got.tgz:1271.got - 2010.04.14 03:43:10.
