data_PCOD8168866
_publ_section_title
;
Structure prediction by ZEFSAII (Michael W. Deem and Ramdas Pophale) SiO2 
 PCOD8168866
Probable space group: P C A 21
;
_chemical_formula_sum "Si O2"
_cell_formula_units_Z 24
_cell_length_a 13.968940
_cell_length_b 8.415428
_cell_length_c 9.408705
_cell_angle_alpha 90.000000
_cell_angle_beta 90.000000
_cell_angle_gamma 90.000000
_cell_volume 1106.036636
_symmetry_space_group_name_H-M "P C A 21"
_symmetry_group_IT_number 29
_symmetry_cell_setting 'orthorhombic'
loop_
_space_group_symop_operation_xyz
x,y,z
-x,-y,1/2+z
1/2-x,y,1/2+z
1/2+x,-y,z
loop_
_atom_site_type_symbol
_atom_site_label
_atom_site_fract_x
_atom_site_fract_y
_atom_site_fract_z
Si Si1 0.480872 0.057638 0.381710
Si Si2 0.715248 0.325343 0.586461
Si Si3 0.513221 0.215496 0.673734
Si Si4 0.175959 0.843005 0.311854
Si Si5 0.227969 0.159680 0.901889
Si Si6 0.310700 0.346995 0.666684
O O1 0.502296 0.079475 0.550696
O O2 0.560998 0.160364 0.297611
O O3 0.377505 0.125114 0.341713
O O4 0.484606 0.874552 0.326495
O O5 0.608647 0.320665 0.652410
O O6 0.776832 0.183795 0.658800
O O7 0.712268 0.295379 0.417897
O O8 0.771869 0.486802 0.611416
O O9 0.426470 0.342439 0.669239
O O10 0.201666 0.013010 0.378182
O O11 0.268918 0.314171 0.822006
O O12 0.225728 0.202257 0.067793
#
# Coordination Sequence:
#
# PCOD8168866 Si02
#       6
#     4   4   4   4   4   4
#     4  10  22  37  63  95 121 156 216 262 300 367
#     4  11  24  41  62  93 131 165 204 259 320 374
#     4  10  22  41  63  93 125 162 212 256 314 365
#     4  11  22  40  64  92 121 166 212 259 307 368
#     4  11  22  40  64  92 121 166 212 259 307 368
#     4  11  24  41  62  93 131 165 204 259 320 374
#
# _framework density 21.699099
#
# number of rings (size 3 to 8) (size 9 to 14) (size 15 to 20)
#    0.000    1.333    3.333    2.000    4.667    1.333 
#    0.000    6.667    0.000    0.000    0.000    0.000 
#    0.000    0.000    0.000    0.000    0.000    0.000 
#
# Total GULP energy -297586.957619 kJ/mol
# GULP energy per Si atom -12399.456567 kJ/mol
# Density = 2.164971 g / cm^3
# Si number density = 21.699099 Si / 1000 Ang^3
#
#
#
# Elastic Constant Matrix: (Units=GPa)
#
#
# Indices 1 2 3 4 5 6 
#
# 1 115.6043 17.3157 30.2723 0.0000 0.0000 0.0000
# 2 17.3157 72.8120 4.0996 0.0000 0.0000 0.0000
# 3 30.2723 4.0996 37.8735 0.0000 0.0000 0.0000
# 4 0.0000 0.0000 0.0000 36.1044 0.0000 0.0000
# 5 0.0000 0.0000 0.0000 0.0000 26.0397 0.0000
# 6 0.0000 0.0000 0.0000 0.0000 0.0000 37.5869
#
#
#
# Elastic Compliance Matrix: (Units=1/GPa)
#
#
# Indices 1 2 3 4 5 6 
#
# 1 0.011276 -0.002187 -0.008776 0.000000 0.000000 0.000000
# 2 -0.002187 0.014243 0.000207 0.000000 0.000000 0.000000
# 3 -0.008776 0.000207 0.033396 0.000000 0.000000 0.000000
# 4 0.000000 0.000000 0.000000 0.027697 0.000000 0.000000
# 5 0.000000 0.000000 0.000000 0.000000 0.038403 0.000000
# 6 0.000000 0.000000 0.000000 0.000000 0.000000 0.026605
#
#
# Mechanical properties :
#
#
# Convention : Reuss Voigt Hill
#
# Bulk Modulus (GPa) = 26.73728 36.62945 31.68336
# Shear Modulus (GPa) = 26.93958 31.58635 29.26297
#
# Velocity S-wave (km/s) = 3.52732 3.81944 3.67629
# Velocity P-wave (km/s) = 5.37940 6.03060 5.71428
#
# Compressibility (1/GPa) = 0.03740097
#
# Stress axis : x y z
#
# Youngs Moduli (GPa) = 88.68417 70.21202 29.94367
#
# Poissons Ratio (x) = 0.15359 0.26279
# Poissons Ratio (y) = 0.19399 -0.00619
# Poissons Ratio (z) = 0.77830 -0.01452
#
# Static dielectric constant tensor:
#      x y z
#    x 4.137630 0.000000 0.000000 
#    y 0.000000 3.529960 0.000000 
#    z 0.000000 0.000000 4.018120 
# 
# 
# High freq. dielectric constant tensor:
#      x y z
#    x 1.872770 0.000000 0.000000 
#    y 0.000000 1.824760 0.000000 
#    z 0.000000 0.000000 1.852910 
# 
# From -- ./inp_files/1709.got.cif
#   From: 2010.03.12/outbox.cif.g09.slc.cpg/sg29_1_cif.got.tgz:1709.got - 2010.04.14 03:43:10.
