data_PCOD8168237
_publ_section_title
;
Structure prediction by ZEFSAII (Michael W. Deem and Ramdas Pophale) SiO2 
 PCOD8168237
Probable space group: P M A 2
;
_chemical_formula_sum "Si O2"
_cell_formula_units_Z 28
_cell_length_a 8.704284
_cell_length_b 9.422996
_cell_length_c 18.191204
_cell_angle_alpha 90.000000
_cell_angle_beta 90.000000
_cell_angle_gamma 90.000000
_cell_volume 1492.050435
_symmetry_space_group_name_H-M "P M A 2"
_symmetry_group_IT_number 28
_symmetry_cell_setting 'orthorhombic'
loop_
_space_group_symop_operation_xyz
x,y,z
-x,-y,z
1/2-x,y,z
1/2+x,-y,z
loop_
_atom_site_type_symbol
_atom_site_label
_atom_site_fract_x
_atom_site_fract_y
_atom_site_fract_z
Si Si1 0.932598 0.658083 0.167330
Si Si2 0.568691 0.654519 0.849654
Si Si3 0.071578 0.348139 0.007154
Si Si4 0.932641 0.157083 0.295159
Si Si5 0.932011 0.850859 0.721958
Si Si6 0.569863 0.850808 0.557628
Si Si7 0.932119 0.656331 0.424959
O O1 0.750000 0.652871 0.182016
O O2 0.973427 0.721983 0.085543
O O3 0.000000 0.500000 0.178575
O O4 0.013536 0.767978 0.220830
O O5 0.500000 0.500000 0.844251
O O6 0.750000 0.643399 0.840948
O O7 0.499198 0.742733 0.781863
O O8 0.525529 0.728262 0.929541
O O9 0.250000 0.374433 0.007606
O O10 0.000000 0.500000 0.004842
O O11 0.750000 0.149116 0.297771
O O12 0.993990 0.247993 0.362617
O O13 0.000000 0.000000 0.299537
O O14 0.750000 0.858141 0.725956
O O15 0.987168 0.808673 0.639619
O O16 0.000000 0.000000 0.744984
O O17 0.750000 0.873729 0.556444
O O18 0.520891 0.724865 0.503082
O O19 0.500000 0.000000 0.531236
O O20 0.750000 0.650247 0.413574
O O21 0.000000 0.500000 0.420883
#
# Coordination Sequence:
#
# PCOD8168237 Si02
#       7
#     4   4   4   4   4   4   4
#     4  10  19  34  56  81 108 139 177 219 264 312
#     4   9  17  30  49  74 104 136 173 216 259 304
#     4   8  15  28  48  73 102 136 172 212 257 305
#     4  12  25  41  59  80 107 139 175 214 261 314
#     4   9  18  33  51  73 103 138 175 214 257 307
#     4   9  19  35  55  77 103 137 175 214 258 309
#     4  11  23  39  58  82 110 139 174 215 260 309
#
# _framework density 18.766121999999999
#
# number of rings (size 3 to 8) (size 9 to 14) (size 15 to 20)
#    0.000    2.286    0.000    3.000    0.000    4.000 
#    0.000    0.714    0.000    1.714    0.000    0.000 
#    0.000    0.000    0.000    0.000    0.000    0.000 
#
# Total GULP energy -346929.506316 kJ/mol
# GULP energy per Si atom -12390.339511 kJ/mol
# Density = 1.872341 g / cm^3
# Si number density = 18.766122 Si / 1000 Ang^3
#
#
#
# Elastic Constant Matrix: (Units=GPa)
#
#
# Indices 1 2 3 4 5 6 
#
# 1 64.5996 46.4367 55.1579 0.0000 0.0000 0.0000
# 2 46.4367 130.6206 97.6270 0.0000 0.0000 0.0000
# 3 55.1579 97.6270 178.3836 0.0000 0.0000 0.0000
# 4 0.0000 0.0000 0.0000 -38.6211 0.0000 0.0000
# 5 0.0000 0.0000 0.0000 0.0000 2.9402 0.0000
# 6 0.0000 0.0000 0.0000 0.0000 0.0000 30.9686
#
#
#
# Elastic Compliance Matrix: (Units=1/GPa)
#
#
# Indices 1 2 3 4 5 6 
#
# 1 0.022664 -0.004771 -0.004397 0.000000 0.000000 0.000000
# 2 -0.004771 0.013959 -0.006165 0.000000 0.000000 0.000000
# 3 -0.004397 -0.006165 0.010339 0.000000 0.000000 0.000000
# 4 0.000000 0.000000 0.000000 -0.025893 0.000000 0.000000
# 5 0.000000 0.000000 0.000000 0.000000 0.340113 0.000000
# 6 0.000000 0.000000 0.000000 0.000000 0.000000 0.032291
#
#
# Mechanical properties :
#
#
# Convention : Reuss Voigt Hill
#
# Bulk Modulus (GPa) = 61.35836 85.78300 73.57068
# Shear Modulus (GPa) = 11.63954 10.68302 11.16128
#
# Velocity S-wave (km/s) = 2.49317 2.38853 2.44141
# Velocity P-wave (km/s) = 6.40743 7.30874 6.87287
#
# Compressibility (1/GPa) = 0.01629770
#
# Stress axis : x y z
#
# Youngs Moduli (GPa) = 44.12355 71.63694 96.71972
#
# Poissons Ratio (x) = 0.34178 0.42525
# Poissons Ratio (y) = 0.21051 0.59623
# Poissons Ratio (z) = 0.19400 0.44161
#
# Static dielectric constant tensor:
#      x y z
#    x 3.482640 0.000000 0.000000 
#    y 0.000000 3.421650 0.000000 
#    z 0.000000 0.000000 4.405220 
# 
# 
# High freq. dielectric constant tensor:
#      x y z
#    x 1.730740 0.000000 0.000000 
#    y 0.000000 1.703890 0.000000 
#    z 0.000000 0.000000 1.758480 
# 
# From -- ./inp_files/6760.got.cif
#   From: 2010.03.12/outbox.cif.g09.slc.cpg/sg28_4_cif.got.tgz:6760.got - 2010.04.14 03:39:34.
