data_PCOD8168508
_publ_section_title
;
Structure prediction by ZEFSAII (Michael W. Deem and Ramdas Pophale) SiO2 
 PCOD8168508
Probable space group: P M A 2
;
_chemical_formula_sum "Si O2"
_cell_formula_units_Z 20
_cell_length_a 10.048458
_cell_length_b 8.638966
_cell_length_c 11.637090
_cell_angle_alpha 90.000000
_cell_angle_beta 90.000000
_cell_angle_gamma 90.000000
_cell_volume 1010.195849
_symmetry_space_group_name_H-M "P M A 2"
_symmetry_group_IT_number 28
_symmetry_cell_setting 'orthorhombic'
loop_
_space_group_symop_operation_xyz
x,y,z
-x,-y,z
1/2-x,y,z
1/2+x,-y,z
loop_
_atom_site_type_symbol
_atom_site_label
_atom_site_fract_x
_atom_site_fract_y
_atom_site_fract_z
Si Si1 0.412980 0.845591 0.842260
Si Si2 0.750000 0.810884 0.192819
Si Si3 0.494679 0.815892 0.593778
Si Si4 0.250000 0.821735 0.199019
Si Si5 0.750000 0.807342 0.460129
Si Si6 0.506592 0.317604 0.068825
Si Si7 0.250000 0.823569 0.454577
O O1 0.250000 0.875446 0.842410
O O2 0.463022 0.765611 0.724254
O O3 0.500000 0.000000 0.863377
O O4 0.459301 0.725666 0.938295
O O5 0.750000 0.750143 0.326287
O O6 0.626755 0.753132 0.119296
O O7 0.750000 0.994694 0.190269
O O8 0.626208 0.744546 0.535288
O O9 0.377263 0.751824 0.515627
O O10 0.500000 0.000000 0.591406
O O11 0.379424 0.752745 0.144785
O O12 0.250000 0.760697 0.327399
O O13 0.750000 0.991570 0.458580
O O14 0.500000 0.500000 0.079043
#
# Coordination Sequence:
#
# PCOD8168508 Si02
#       7
#     4   2   4   2   2   4   2
#     4  11  23  39  64  95 125 161 210 260 308 371
#     4  11  23  40  67  96 124 165 210 261 302 373
#     4   9  17  30  54  89 126 151 190 253 314 360
#     4  11  21  40  65  92 122 161 212 257 306 369
#     4   9  18  32  55  92 126 149 198 251 312 361
#     4  12  26  42  61  88 130 169 208 259 319 370
#     4   9  16  30  55  88 118 153 188 253 310 355
#
# _framework density 19.798141999999999
#
# number of rings (size 3 to 8) (size 9 to 14) (size 15 to 20)
#    0.000    1.600    2.000    3.600    5.600    3.200 
#    0.000    0.000    0.000    7.200    0.000    0.000 
#    0.000    0.000    0.000    0.000    0.000    0.000 
#
# Total GULP energy -247829.610984 kJ/mol
# GULP energy per Si atom -12391.480549 kJ/mol
# Density = 1.975308 g / cm^3
# Si number density = 19.798142 Si / 1000 Ang^3
#
#
#
# Elastic Constant Matrix: (Units=GPa)
#
#
# Indices 1 2 3 4 5 6 
#
# 1 200.1141 34.4654 97.3945 0.0000 0.0000 0.0000
# 2 34.4654 69.0302 41.3057 0.0000 0.0000 0.0000
# 3 97.3945 41.3057 195.2395 0.0000 0.0000 0.0000
# 4 0.0000 0.0000 0.0000 -9.2624 0.0000 0.0000
# 5 0.0000 0.0000 0.0000 0.0000 47.6704 0.0000
# 6 0.0000 0.0000 0.0000 0.0000 0.0000 17.7972
#
#
#
# Elastic Compliance Matrix: (Units=1/GPa)
#
#
# Indices 1 2 3 4 5 6 
#
# 1 0.006741 -0.001550 -0.003035 0.000000 0.000000 0.000000
# 2 -0.001550 0.016942 -0.002811 0.000000 0.000000 0.000000
# 3 -0.003035 -0.002811 0.007231 0.000000 0.000000 0.000000
# 4 0.000000 0.000000 0.000000 -0.107964 0.000000 0.000000
# 5 0.000000 0.000000 0.000000 0.000000 0.020977 0.000000
# 6 0.000000 0.000000 0.000000 0.000000 0.000000 0.056189
#
#
# Mechanical properties :
#
#
# Convention : Reuss Voigt Hill
#
# Bulk Modulus (GPa) = 62.02615 90.07945 76.05280
# Shear Modulus (GPa) = 246.52096 30.65559 138.58828
#
# Velocity S-wave (km/s) = 11.17083 3.93925 8.37572
# Velocity P-wave (km/s) = 14.06345 8.14174 11.49062
#
# Compressibility (1/GPa) = 0.01612223
#
# Stress axis : x y z
#
# Youngs Moduli (GPa) = 148.34293 59.02356 138.30000
#
# Poissons Ratio (x) = 0.09147 0.41973
# Poissons Ratio (y) = 0.22989 0.38881
# Poissons Ratio (z) = 0.45021 0.16594
#
# Static dielectric constant tensor:
#      x y z
#    x 4.028960 0.000000 0.000000 
#    y 0.000000 3.158910 0.000000 
#    z 0.000000 0.000000 4.089940 
# 
# 
# High freq. dielectric constant tensor:
#      x y z
#    x 1.796980 0.000000 0.000000 
#    y 0.000000 1.721180 0.000000 
#    z 0.000000 0.000000 1.799230 
# 
# From -- ./inp_files/4625.got.cif
#   From: 2010.03.12/outbox.cif.g09.slc.cpg/sg28_3_cif.got.tgz:4625.got - 2010.04.14 03:39:34.
