data_PCOD8168235
_publ_section_title
;
Structure prediction by ZEFSAII (Michael W. Deem and Ramdas Pophale) SiO2 
 PCOD8168235
Probable space group: P M A 2
;
_chemical_formula_sum "Si O2"
_cell_formula_units_Z 32
_cell_length_a 8.722157
_cell_length_b 9.756842
_cell_length_c 20.534025
_cell_angle_alpha 90.000000
_cell_angle_beta 90.000000
_cell_angle_gamma 90.000000
_cell_volume 1747.460060
_symmetry_space_group_name_H-M "P M A 2"
_symmetry_group_IT_number 28
_symmetry_cell_setting 'orthorhombic'
loop_
_space_group_symop_operation_xyz
x,y,z
-x,-y,z
1/2-x,y,z
1/2+x,-y,z
loop_
_atom_site_type_symbol
_atom_site_label
_atom_site_fract_x
_atom_site_fract_y
_atom_site_fract_z
Si Si1 0.067628 0.152927 0.296440
Si Si2 0.930988 0.850322 0.014377
Si Si3 0.068180 0.146533 0.508551
Si Si4 0.067308 0.652756 0.405333
Si Si5 0.568760 0.645206 0.906605
Si Si6 0.068989 0.355817 0.760632
Si Si7 0.569879 0.858513 0.657264
Si Si8 0.072167 0.146079 0.154560
O O1 0.250000 0.147437 0.309512
O O2 0.027127 0.214322 0.223899
O O3 0.988270 0.260069 0.343839
O O4 0.000000 0.000000 0.306369
O O5 0.750000 0.863544 0.006574
O O6 0.973692 0.781698 0.085674
O O7 0.999121 0.754860 0.957575
O O8 0.000000 0.000000 0.006157
O O9 0.250000 0.143844 0.496902
O O10 0.022857 0.175899 0.583292
O O11 0.992546 0.270865 0.469600
O O12 0.000000 0.000000 0.485616
O O13 0.250000 0.644255 0.406265
O O14 0.000000 0.500000 0.402359
O O15 0.500000 0.500000 0.925960
O O16 0.750000 0.634287 0.912235
O O17 0.518302 0.688617 0.833533
O O18 0.250000 0.365873 0.755967
O O19 0.001767 0.252294 0.707128
O O20 0.000000 0.500000 0.741381
O O21 0.750000 0.868958 0.663756
O O22 0.500000 0.000000 0.680534
O O23 0.250000 0.120126 0.155346
O O24 0.000000 0.000000 0.152488
#
# Coordination Sequence:
#
# PCOD8168235 Si02
#       8
#     4   4   4   4   4   4   4   4
#     4  10  19  34  56  80 104 135 172 210 251 302
#     4   9  17  30  48  73 101 130 164 207 252 295
#     4  10  20  37  58  80 105 136 171 208 249 300
#     4  12  25  40  56  77 105 136 169 210 255 302
#     4   9  18  32  49  68  97 133 170 208 248 295
#     4   9  18  33  50  71  98 132 170 208 248 295
#     4   9  19  34  53  77 105 132 164 205 249 294
#     4   8  15  28  48  72 100 130 164 204 247 293
#
# _framework density 18.312294000000001
#
# number of rings (size 3 to 8) (size 9 to 14) (size 15 to 20)
#    0.000    2.500    0.000    2.250    0.000    3.000 
#    0.000    1.875    0.000    1.500    0.000    0.000 
#    0.000    0.000    0.000    0.000    0.000    0.000 
#
# Total GULP energy -396519.978514 kJ/mol
# GULP energy per Si atom -12391.249329 kJ/mol
# Density = 1.827061 g / cm^3
# Si number density = 18.312294 Si / 1000 Ang^3
#
#
#
# Elastic Constant Matrix: (Units=GPa)
#
#
# Indices 1 2 3 4 5 6 
#
# 1 52.8666 43.6811 40.1271 0.0000 0.0000 0.0000
# 2 43.6811 132.3481 100.6171 0.0000 0.0000 0.0000
# 3 40.1271 100.6171 156.6648 0.0000 0.0000 0.0000
# 4 0.0000 0.0000 0.0000 10.0525 0.0000 0.0000
# 5 0.0000 0.0000 0.0000 0.0000 71.5226 0.0000
# 6 0.0000 0.0000 0.0000 0.0000 0.0000 30.8762
#
#
#
# Elastic Compliance Matrix: (Units=1/GPa)
#
#
# Indices 1 2 3 4 5 6 
#
# 1 0.026418 -0.006986 -0.002280 0.000000 0.000000 0.000000
# 2 -0.006986 0.016612 -0.008880 0.000000 0.000000 0.000000
# 3 -0.002280 -0.008880 0.012670 0.000000 0.000000 0.000000
# 4 0.000000 0.000000 0.000000 0.099478 0.000000 0.000000
# 5 0.000000 0.000000 0.000000 0.000000 0.013982 0.000000
# 6 0.000000 0.000000 0.000000 0.000000 0.000000 0.032387
#
#
# Mechanical properties :
#
#
# Convention : Reuss Voigt Hill
#
# Bulk Modulus (GPa) = 51.52196 78.97001 65.24598
# Shear Modulus (GPa) = 20.46587 32.98721 26.72654
#
# Velocity S-wave (km/s) = 3.34668 4.24886 3.82447
# Velocity P-wave (km/s) = 6.56734 8.20293 7.43028
#
# Compressibility (1/GPa) = 0.01940920
#
# Stress axis : x y z
#
# Youngs Moduli (GPa) = 37.85265 60.19583 78.92618
#
# Poissons Ratio (x) = 0.42053 0.17994
# Poissons Ratio (y) = 0.26444 0.70086
# Poissons Ratio (z) = 0.08630 0.53453
#
# Static dielectric constant tensor:
#      x y z
#    x 3.203270 0.000000 0.000000 
#    y 0.000000 3.334570 0.000000 
#    z 0.000000 0.000000 4.179910 
# 
# 
# High freq. dielectric constant tensor:
#      x y z
#    x 1.710130 0.000000 0.000000 
#    y 0.000000 1.687490 0.000000 
#    z 0.000000 0.000000 1.733250 
# 
# From -- ./inp_files/7055.got.cif
#   From: 2010.03.12/outbox.cif.g09.slc.cpg/sg28_4_cif.got.tgz:7055.got - 2010.04.14 03:39:34.
