data_PCOD8168338
_publ_section_title
;
Structure prediction by ZEFSAII (Michael W. Deem and Ramdas Pophale) SiO2 
 PCOD8168338
Probable space group: P M A 2
;
_chemical_formula_sum "Si O2"
_cell_formula_units_Z 32
_cell_length_a 8.782548
_cell_length_b 14.649029
_cell_length_c 12.026381
_cell_angle_alpha 90.000000
_cell_angle_beta 90.000000
_cell_angle_gamma 90.000000
_cell_volume 1547.263673
_symmetry_space_group_name_H-M "P M A 2"
_symmetry_group_IT_number 28
_symmetry_cell_setting 'orthorhombic'
loop_
_space_group_symop_operation_xyz
x,y,z
-x,-y,z
1/2-x,y,z
1/2+x,-y,z
loop_
_atom_site_type_symbol
_atom_site_label
_atom_site_fract_x
_atom_site_fract_y
_atom_site_fract_z
Si Si1 0.077687 0.414794 0.707220
Si Si2 0.069036 0.906807 0.078405
Si Si3 0.419718 0.868572 0.829407
Si Si4 0.070210 0.281754 0.128841
Si Si5 0.930170 0.399581 0.323477
Si Si6 0.420984 0.668558 0.904351
Si Si7 0.075766 0.281382 0.511135
Si Si8 0.928519 0.908557 0.602360
O O1 0.250000 0.438641 0.735785
O O2 0.066471 0.325432 0.632604
O O3 0.000000 0.500000 0.642573
O O4 0.987076 0.407389 0.822995
O O5 0.250000 0.903294 0.092473
O O6 0.999764 0.819795 0.143098
O O7 0.020818 0.904106 0.948749
O O8 0.000000 0.000000 0.130128
O O9 0.250000 0.905873 0.804852
O O10 0.418729 0.759949 0.831975
O O11 0.529256 0.902736 0.732432
O O12 0.250000 0.275792 0.146012
O O13 0.999077 0.351544 0.215942
O O14 0.031935 0.322477 0.008823
O O15 0.750000 0.409348 0.311270
O O16 0.000000 0.500000 0.339907
O O17 0.967294 0.335319 0.428075
O O18 0.250000 0.644064 0.944848
O O19 0.250000 0.283807 0.466479
O O20 0.015406 0.177942 0.529146
O O21 0.750000 0.914629 0.594140
O O22 0.000000 0.000000 0.549424
#
# Coordination Sequence:
#
# PCOD8168338 Si02
#       8
#     4   4   4   4   4   4   4   4
#     4  11  22  37  58  88 123 161 203 248 307 373
#     4  10  20  35  56  89 128 170 214 258 306 367
#     4   9  18  32  53  82 120 164 208 251 297 354
#     4  11  23  41  65  92 125 163 206 260 314 369
#     4  12  26  46  72  97 121 155 204 259 315 378
#     4  10  20  36  58  87 124 163 204 252 307 369
#     4  10  23  43  64  90 124 161 206 258 309 367
#     4  11  22  36  57  87 124 164 207 253 302 362
#
# _framework density 20.681674000000001
#
# number of rings (size 3 to 8) (size 9 to 14) (size 15 to 20)
#    0.000    1.500    1.250    5.250    0.000    7.000 
#    0.000    3.125    0.000    1.500    0.000    0.000 
#    0.000    0.000    0.000    0.000    0.000    0.000 
#
# Total GULP energy -396807.345880 kJ/mol
# GULP energy per Si atom -12400.229559 kJ/mol
# Density = 2.063460 g / cm^3
# Si number density = 20.681674 Si / 1000 Ang^3
#
#
#
# Elastic Constant Matrix: (Units=GPa)
#
#
# Indices 1 2 3 4 5 6 
#
# 1 136.3118 63.4251 36.9783 0.0000 0.0000 0.0000
# 2 63.4251 149.9057 43.8409 0.0000 0.0000 0.0000
# 3 36.9783 43.8409 62.0826 0.0000 0.0000 0.0000
# 4 0.0000 0.0000 0.0000 24.0253 0.0000 0.0000
# 5 0.0000 0.0000 0.0000 0.0000 32.0226 0.0000
# 6 0.0000 0.0000 0.0000 0.0000 0.0000 37.0706
#
#
#
# Elastic Compliance Matrix: (Units=1/GPa)
#
#
# Indices 1 2 3 4 5 6 
#
# 1 0.009748 -0.003058 -0.003647 0.000000 0.000000 0.000000
# 2 -0.003058 0.009366 -0.004793 0.000000 0.000000 0.000000
# 3 -0.003647 -0.004793 0.021664 0.000000 0.000000 0.000000
# 4 0.000000 0.000000 0.000000 0.041623 0.000000 0.000000
# 5 0.000000 0.000000 0.000000 0.000000 0.031228 0.000000
# 6 0.000000 0.000000 0.000000 0.000000 0.000000 0.026976
#
#
# Mechanical properties :
#
#
# Convention : Reuss Voigt Hill
#
# Bulk Modulus (GPa) = 56.23174 70.75431 63.49303
# Shear Modulus (GPa) = 29.49351 32.22740 30.86045
#
# Velocity S-wave (km/s) = 3.78043 3.95176 3.86704
# Velocity P-wave (km/s) = 6.80468 7.42343 7.12078
#
# Compressibility (1/GPa) = 0.01778355
#
# Stress axis : x y z
#
# Youngs Moduli (GPa) = 102.58200 106.76491 46.15868
#
# Poissons Ratio (x) = 0.32648 0.16834
# Poissons Ratio (y) = 0.31369 0.22123
# Poissons Ratio (z) = 0.37411 0.51171
#
# Static dielectric constant tensor:
#      x y z
#    x 3.836320 0.000000 0.000000 
#    y 0.000000 4.078440 0.000000 
#    z 0.000000 0.000000 3.461220 
# 
# 
# High freq. dielectric constant tensor:
#      x y z
#    x 1.816700 0.000000 0.000000 
#    y 0.000000 1.825680 0.000000 
#    z 0.000000 0.000000 1.782110 
# 
# From -- ./inp_files/5054.got.cif
#   From: 2010.03.12/outbox.cif.g09.slc.cpg/sg28_3_cif.got.tgz:5054.got - 2010.04.14 03:39:34.
