data_PCOD8168245
_publ_section_title
;
Structure prediction by ZEFSAII (Michael W. Deem and Ramdas Pophale) SiO2 
 PCOD8168245
Probable space group: P M A 2
;
_chemical_formula_sum "Si O2"
_cell_formula_units_Z 20
_cell_length_a 8.716398
_cell_length_b 14.383625
_cell_length_c 7.686777
_cell_angle_alpha 90.000000
_cell_angle_beta 90.000000
_cell_angle_gamma 90.000000
_cell_volume 963.717369
_symmetry_space_group_name_H-M "P M A 2"
_symmetry_group_IT_number 28
_symmetry_cell_setting 'orthorhombic'
loop_
_space_group_symop_operation_xyz
x,y,z
-x,-y,z
1/2-x,y,z
1/2+x,-y,z
loop_
_atom_site_type_symbol
_atom_site_label
_atom_site_fract_x
_atom_site_fract_y
_atom_site_fract_z
Si Si1 0.070387 0.899275 0.437220
Si Si2 0.072734 0.408127 0.616941
Si Si3 0.423586 0.208615 0.742008
Si Si4 0.927955 0.781025 0.130812
Si Si5 0.068802 0.595849 0.242164
O O1 0.250000 0.907225 0.407281
O O2 0.039823 0.841775 0.612826
O O3 0.998843 0.850465 0.269927
O O4 0.000000 0.000000 0.460703
O O5 0.250000 0.427332 0.573906
O O6 0.050448 0.319840 0.741144
O O7 0.000000 0.500000 0.707348
O O8 0.984437 0.387491 0.438884
O O9 0.250000 0.185544 0.681380
O O10 0.451052 0.174402 0.939296
O O11 0.750000 0.766132 0.175091
O O12 0.010371 0.681706 0.128761
O O13 0.250000 0.591065 0.232903
O O14 0.000000 0.500000 0.166505
#
# Coordination Sequence:
#
# PCOD8168245 Si02
#       5
#     4   4   4   4   4
#     4  12  26  45  70  95 124 163 206 260 320 378
#     4  10  19  34  58  88 125 167 210 256 307 365
#     4  10  23  42  66  94 128 168 208 259 314 371
#     4  11  23  42  66  95 130 167 210 259 313 374
#     4  11  21  35  58  90 126 171 215 258 310 366
#
# _framework density 20.752970999999999
#
# number of rings (size 3 to 8) (size 9 to 14) (size 15 to 20)
#    0.000    1.200    2.000    6.000    0.000    4.000 
#    0.000    2.000    0.000    0.000    0.000    0.000 
#    0.000    0.000    0.000    0.000    0.000    0.000 
#
# Total GULP energy -248066.581569 kJ/mol
# GULP energy per Si atom -12403.329078 kJ/mol
# Density = 2.070574 g / cm^3
# Si number density = 20.752971 Si / 1000 Ang^3
#
#
#
# Elastic Constant Matrix: (Units=GPa)
#
#
# Indices 1 2 3 4 5 6 
#
# 1 169.5929 47.5864 46.8068 0.0000 0.0000 0.0000
# 2 47.5864 106.7505 40.0215 0.0000 0.0000 0.0000
# 3 46.8068 40.0215 97.1117 0.0000 0.0000 0.0000
# 4 0.0000 0.0000 0.0000 6.2489 0.0000 0.0000
# 5 0.0000 0.0000 0.0000 0.0000 22.6723 0.0000
# 6 0.0000 0.0000 0.0000 0.0000 0.0000 40.1831
#
#
#
# Elastic Compliance Matrix: (Units=1/GPa)
#
#
# Indices 1 2 3 4 5 6 
#
# 1 0.007238 -0.002269 -0.002553 0.000000 0.000000 0.000000
# 2 -0.002269 0.011791 -0.003766 0.000000 0.000000 0.000000
# 3 -0.002553 -0.003766 0.013080 0.000000 0.000000 0.000000
# 4 0.000000 0.000000 0.000000 0.160028 0.000000 0.000000
# 5 0.000000 0.000000 0.000000 0.000000 0.044107 0.000000
# 6 0.000000 0.000000 0.000000 0.000000 0.000000 0.024886
#
#
# Mechanical properties :
#
#
# Convention : Reuss Voigt Hill
#
# Bulk Modulus (GPa) = 66.96780 71.36492 69.16636
# Shear Modulus (GPa) = 17.65019 29.75689 23.70354
#
# Velocity S-wave (km/s) = 2.91948 3.79074 3.38328
# Velocity P-wave (km/s) = 6.61087 7.32271 6.97588
#
# Compressibility (1/GPa) = 0.01493255
#
# Stress axis : x y z
#
# Youngs Moduli (GPa) = 138.16134 84.81129 76.45263
#
# Poissons Ratio (x) = 0.19245 0.19522
# Poissons Ratio (y) = 0.31351 0.28788
# Poissons Ratio (z) = 0.35279 0.31936
#
# Static dielectric constant tensor:
#      x y z
#    x 3.845340 0.000000 0.000000 
#    y 0.000000 4.028310 0.000000 
#    z 0.000000 0.000000 3.591560 
# 
# 
# High freq. dielectric constant tensor:
#      x y z
#    x 1.824050 0.000000 0.000000 
#    y 0.000000 1.814840 0.000000 
#    z 0.000000 0.000000 1.805600 
# 
# From -- ./inp_files/2369.got.cif
#   From: 2010.03.12/outbox.cif.g09.slc.cpg/sg28_2_cif.got.tgz:2369.got - 2010.04.14 03:39:34.
