data_PCOD8168385
_publ_section_title
;
Structure prediction by ZEFSAII (Michael W. Deem and Ramdas Pophale) SiO2 
 PCOD8168385
Probable space group: P M A 2
;
_chemical_formula_sum "Si O2"
_cell_formula_units_Z 28
_cell_length_a 8.882738
_cell_length_b 9.101435
_cell_length_c 17.673933
_cell_angle_alpha 90.000000
_cell_angle_beta 90.000000
_cell_angle_gamma 90.000000
_cell_volume 1428.860823
_symmetry_space_group_name_H-M "P M A 2"
_symmetry_group_IT_number 28
_symmetry_cell_setting 'orthorhombic'
loop_
_space_group_symop_operation_xyz
x,y,z
-x,-y,z
1/2-x,y,z
1/2+x,-y,z
loop_
_atom_site_type_symbol
_atom_site_label
_atom_site_fract_x
_atom_site_fract_y
_atom_site_fract_z
Si Si1 0.572358 0.655052 0.935410
Si Si2 0.071474 0.846426 0.059878
Si Si3 0.073480 0.157636 0.789572
Si Si4 0.075514 0.851498 0.231634
Si Si5 0.427712 0.156931 0.500821
Si Si6 0.072708 0.657691 0.370006
Si Si7 0.573733 0.657436 0.648115
O O1 0.500000 0.500000 0.915018
O O2 0.750000 0.637692 0.946636
O O3 0.530834 0.764191 0.867664
O O4 0.498456 0.714758 0.012008
O O5 0.250000 0.853227 0.048296
O O6 0.023991 0.813544 0.146470
O O7 0.000000 0.000000 0.032642
O O8 0.250000 0.136190 0.780586
O O9 0.009486 0.253554 0.720025
O O10 0.000000 0.000000 0.788125
O O11 0.250000 0.885945 0.233594
O O12 0.034779 0.714939 0.285590
O O13 0.000000 0.000000 0.262083
O O14 0.250000 0.141034 0.488538
O O15 0.501544 0.227268 0.427307
O O16 0.468260 0.256538 0.572357
O O17 0.500000 0.000000 0.515984
O O18 0.250000 0.645970 0.384638
O O19 0.000000 0.500000 0.381983
O O20 0.500000 0.500000 0.644353
O O21 0.750000 0.634218 0.656901
#
# Coordination Sequence:
#
# PCOD8168385 Si02
#       7
#     4   4   4   4   4   4   4
#     4  11  23  38  57  83 114 149 189 233 284 337
#     4  10  20  37  59  84 114 148 188 232 280 334
#     4  10  22  39  59  84 113 147 188 231 277 331
#     4   9  20  37  58  83 111 146 187 231 279 334
#     4  11  23  39  60  86 115 149 190 233 280 334
#     4  11  23  39  58  83 115 150 189 233 283 335
#     4  10  22  39  59  85 116 149 186 229 278 331
#
# _framework density 19.596029999999999
#
# number of rings (size 3 to 8) (size 9 to 14) (size 15 to 20)
#    0.000    1.714    0.000    3.857    0.000    8.571 
#    0.000    1.429    0.000    0.000    0.000    0.000 
#    0.000    0.000    0.000    0.000    0.000    0.000 
#
# Total GULP energy -347338.965238 kJ/mol
# GULP energy per Si atom -12404.963044 kJ/mol
# Density = 1.955143 g / cm^3
# Si number density = 19.596030 Si / 1000 Ang^3
#
#
#
# Elastic Constant Matrix: (Units=GPa)
#
#
# Indices 1 2 3 4 5 6 
#
# 1 76.2540 63.4801 54.1589 0.0000 0.0000 0.0000
# 2 63.4801 162.5847 64.5822 0.0000 0.0000 0.0000
# 3 54.1589 64.5822 113.1907 0.0000 0.0000 0.0000
# 4 0.0000 0.0000 0.0000 -308.7194 0.0000 0.0000
# 5 0.0000 0.0000 0.0000 0.0000 22.5072 0.0000
# 6 0.0000 0.0000 0.0000 0.0000 0.0000 40.2487
#
#
#
# Elastic Compliance Matrix: (Units=1/GPa)
#
#
# Indices 1 2 3 4 5 6 
#
# 1 0.023867 -0.006184 -0.007891 0.000000 0.000000 0.000000
# 2 -0.006184 0.009555 -0.002493 0.000000 0.000000 0.000000
# 3 -0.007891 -0.002493 0.014033 0.000000 0.000000 0.000000
# 4 0.000000 0.000000 0.000000 -0.003239 0.000000 0.000000
# 5 0.000000 0.000000 0.000000 0.000000 0.044430 0.000000
# 6 0.000000 0.000000 0.000000 0.000000 0.000000 0.024846
#
#
# Mechanical properties :
#
#
# Convention : Reuss Voigt Hill
#
# Bulk Modulus (GPa) = 69.84032 79.60798 74.72415
# Shear Modulus (GPa) = 33.02473 -37.87216 -2.42372
#
# Velocity S-wave (km/s) = 4.10967 -4.40095 -1.11334
# Velocity P-wave (km/s) = 7.63129 3.85852 6.04668
#
# Compressibility (1/GPa) = 0.01431838
#
# Stress axis : x y z
#
# Youngs Moduli (GPa) = 41.89886 104.65205 71.26112
#
# Poissons Ratio (x) = 0.64718 0.56235
# Poissons Ratio (y) = 0.25911 0.17766
# Poissons Ratio (z) = 0.33064 0.26090
#
# Static dielectric constant tensor:
#      x y z
#    x 3.603130 0.000000 0.000000 
#    y 0.000000 25.136440 0.000000 
#    z 0.000000 0.000000 3.885880 
# 
# 
# High freq. dielectric constant tensor:
#      x y z
#    x 1.767980 0.000000 0.000000 
#    y 0.000000 1.771680 0.000000 
#    z 0.000000 0.000000 1.779400 
# 
# From -- ./inp_files/6824.got.cif
#   From: 2010.03.12/outbox.cif.g09.slc.cpg/sg28_4_cif.got.tgz:6824.got - 2010.04.14 03:39:34.
