data_PCOD8168276
_publ_section_title
;
Structure prediction by ZEFSAII (Michael W. Deem and Ramdas Pophale) SiO2 
 PCOD8168276
Probable space group: P M A 2
;
_chemical_formula_sum "Si O2"
_cell_formula_units_Z 32
_cell_length_a 8.503521
_cell_length_b 14.063350
_cell_length_c 13.987892
_cell_angle_alpha 90.000000
_cell_angle_beta 90.000000
_cell_angle_gamma 90.000000
_cell_volume 1672.783917
_symmetry_space_group_name_H-M "P M A 2"
_symmetry_group_IT_number 28
_symmetry_cell_setting 'orthorhombic'
loop_
_space_group_symop_operation_xyz
x,y,z
-x,-y,z
1/2-x,y,z
1/2+x,-y,z
loop_
_atom_site_type_symbol
_atom_site_label
_atom_site_fract_x
_atom_site_fract_y
_atom_site_fract_z
Si Si1 0.435931 0.600961 0.857660
Si Si2 0.570649 0.736684 0.223310
Si Si3 0.562828 0.895270 0.366769
Si Si4 0.435616 0.895794 0.572234
Si Si5 0.425160 0.601009 0.362010
Si Si6 0.930486 0.741115 0.707480
Si Si7 0.565790 0.400069 0.073981
Si Si8 0.925563 0.398303 0.571509
O O1 0.500000 0.500000 0.814525
O O2 0.250000 0.598189 0.851916
O O3 0.495803 0.695603 0.803430
O O4 0.498324 0.611090 0.966171
O O5 0.750000 0.752173 0.193362
O O6 0.502570 0.831504 0.276065
O O7 0.554278 0.656382 0.302597
O O8 0.480288 0.696758 0.130269
O O9 0.750000 0.893751 0.370008
O O10 0.502713 0.857730 0.470266
O O11 0.500000 0.000000 0.346278
O O12 0.250000 0.898200 0.562548
O O13 0.481320 0.833388 0.665140
O O14 0.500000 0.000000 0.593278
O O15 0.500000 0.500000 0.374428
O O16 0.250000 0.599562 0.313492
O O17 0.408685 0.646878 0.466599
O O18 0.750000 0.767282 0.726435
O O19 0.946937 0.661537 0.627624
O O20 0.500000 0.500000 0.118713
O O21 0.750000 0.409783 0.074893
O O22 0.750000 0.398126 0.619611
O O23 0.000000 0.500000 0.566777
#
# Coordination Sequence:
#
# PCOD8168276 Si02
#       8
#     4   4   4   4   4   4   4   4
#     4  10  21  38  58  82 110 143 182 226 274 326
#     4  11  22  34  52  77 106 138 176 220 267 319
#     4  10  21  37  57  82 111 145 182 224 271 321
#     4  11  22  38  59  83 112 145 182 226 272 324
#     4  10  20  32  47  68  99 137 174 211 255 307
#     4  12  23  35  54  79 107 141 179 222 269 321
#     4  10  21  37  58  81 109 143 181 225 272 323
#     4  10  20  33  48  70 102 140 177 216 260 313
#
# _framework density 19.129785999999999
#
# number of rings (size 3 to 8) (size 9 to 14) (size 15 to 20)
#    0.000    1.500    0.000    6.750    0.000    7.000 
#    0.000    0.000    0.000    0.750    0.000    1.750 
#    0.000    0.000    0.000    0.000    0.000    0.000 
#
# Total GULP energy -396505.116801 kJ/mol
# GULP energy per Si atom -12390.784900 kJ/mol
# Density = 1.908625 g / cm^3
# Si number density = 19.129786 Si / 1000 Ang^3
#
#
#
# Elastic Constant Matrix: (Units=GPa)
#
#
# Indices 1 2 3 4 5 6 
#
# 1 90.4816 26.3975 25.8562 0.0000 0.0000 0.0000
# 2 26.3975 95.8059 55.4084 0.0000 0.0000 0.0000
# 3 25.8562 55.4084 94.9879 0.0000 0.0000 0.0000
# 4 0.0000 0.0000 0.0000 35.7416 0.0000 0.0000
# 5 0.0000 0.0000 0.0000 0.0000 32.1162 0.0000
# 6 0.0000 0.0000 0.0000 0.0000 0.0000 30.2241
#
#
#
# Elastic Compliance Matrix: (Units=1/GPa)
#
#
# Indices 1 2 3 4 5 6 
#
# 1 0.012281 -0.002189 -0.002066 0.000000 0.000000 0.000000
# 2 -0.002189 0.016142 -0.008820 0.000000 0.000000 0.000000
# 3 -0.002066 -0.008820 0.016235 0.000000 0.000000 0.000000
# 4 0.000000 0.000000 0.000000 0.027979 0.000000 0.000000
# 5 0.000000 0.000000 0.000000 0.000000 0.031137 0.000000
# 6 0.000000 0.000000 0.000000 0.000000 0.000000 0.033086
#
#
# Mechanical properties :
#
#
# Convention : Reuss Voigt Hill
#
# Bulk Modulus (GPa) = 54.03153 55.17775 54.60464
# Shear Modulus (GPa) = 29.55448 31.19057 30.37253
#
# Velocity S-wave (km/s) = 3.93484 4.04229 3.98893
# Velocity P-wave (km/s) = 6.99643 7.11992 7.05845
#
# Compressibility (1/GPa) = 0.01850771
#
# Stress axis : x y z
#
# Youngs Moduli (GPa) = 81.42667 61.95071 61.59529
#
# Poissons Ratio (x) = 0.13560 0.12727
# Poissons Ratio (y) = 0.17823 0.54327
# Poissons Ratio (z) = 0.16824 0.54641
#
# Static dielectric constant tensor:
#      x y z
#    x 3.785910 0.000000 0.000000 
#    y 0.000000 3.666280 0.000000 
#    z 0.000000 0.000000 3.749210 
# 
# 
# High freq. dielectric constant tensor:
#      x y z
#    x 1.757910 0.000000 0.000000 
#    y 0.000000 1.730280 0.000000 
#    z 0.000000 0.000000 1.734800 
# 
# From -- ./inp_files/6446.got.cif
#   From: 2010.03.12/outbox.cif.g09.slc.cpg/sg28_4_cif.got.tgz:6446.got - 2010.04.14 03:39:34.
