data_PCOD8168500
_publ_section_title
;
Structure prediction by ZEFSAII (Michael W. Deem and Ramdas Pophale) SiO2 
 PCOD8168500
Probable space group: P M A 2
;
_chemical_formula_sum "Si O2"
_cell_formula_units_Z 32
_cell_length_a 8.455272
_cell_length_b 15.390972
_cell_length_c 11.817704
_cell_angle_alpha 90.000000
_cell_angle_beta 90.000000
_cell_angle_gamma 90.000000
_cell_volume 1537.895192
_symmetry_space_group_name_H-M "P M A 2"
_symmetry_group_IT_number 28
_symmetry_cell_setting 'orthorhombic'
loop_
_space_group_symop_operation_xyz
x,y,z
-x,-y,z
1/2-x,y,z
1/2+x,-y,z
loop_
_atom_site_type_symbol
_atom_site_label
_atom_site_fract_x
_atom_site_fract_y
_atom_site_fract_z
Si Si1 0.566780 0.334596 0.063940
Si Si2 0.934769 0.590636 0.288443
Si Si3 0.435837 0.742881 0.694579
Si Si4 0.933013 0.256919 0.431778
Si Si5 0.932739 0.090709 0.827344
Si Si6 0.568222 0.853392 0.057022
Si Si7 0.564939 0.590891 0.838294
Si Si8 0.064149 0.092358 0.306660
O O1 0.750000 0.307544 0.064158
O O2 0.528443 0.391996 0.172847
O O3 0.460812 0.248871 0.066016
O O4 0.529250 0.389400 0.952911
O O5 0.750000 0.584417 0.262259
O O6 0.000000 0.500000 0.338913
O O7 0.963341 0.666338 0.378962
O O8 0.250000 0.730278 0.719107
O O9 0.474057 0.750731 0.563083
O O10 0.504158 0.828823 0.756617
O O11 0.531287 0.661735 0.742725
O O12 0.750000 0.278694 0.410871
O O13 0.973010 0.165674 0.375217
O O14 0.750000 0.087794 0.803153
O O15 0.000000 0.000000 0.781890
O O16 0.963734 0.102409 0.960445
O O17 0.750000 0.869142 0.025471
O O18 0.522347 0.898124 0.174656
O O19 0.500000 0.500000 0.790406
O O20 0.750000 0.586252 0.864327
O O21 0.250000 0.101257 0.329011
O O22 0.000000 0.000000 0.349810
#
# Coordination Sequence:
#
# PCOD8168500 Si02
#       8
#     4   4   4   4   4   4   4   4
#     4  12  23  39  65  96 132 169 206 256 317 380
#     4  12  25  43  66  96 130 167 213 261 316 382
#     4  10  24  45  66  92 126 167 216 266 317 375
#     4  11  24  44  68  93 126 168 215 268 321 377
#     4  11  23  40  64  93 129 168 210 263 315 377
#     4  11  22  38  63  96 130 166 208 257 314 381
#     4  12  25  42  67  96 130 169 211 260 315 378
#     4  11  24  41  64  94 131 168 213 264 316 381
#
# _framework density 20.807659000000001
#
# number of rings (size 3 to 8) (size 9 to 14) (size 15 to 20)
#    0.000    0.750    2.500    5.625    0.000    5.000 
#    0.000    1.250    0.000    0.000    0.000    0.000 
#    0.000    0.000    0.000    0.000    0.000    0.000 
#
# Total GULP energy -397056.136493 kJ/mol
# GULP energy per Si atom -12408.004265 kJ/mol
# Density = 2.076030 g / cm^3
# Si number density = 20.807659 Si / 1000 Ang^3
#
#
#
# Elastic Constant Matrix: (Units=GPa)
#
#
# Indices 1 2 3 4 5 6 
#
# 1 66.0233 19.9090 30.7513 0.0000 0.0000 0.0000
# 2 19.9090 151.6159 35.2096 0.0000 0.0000 0.0000
# 3 30.7513 35.2096 98.2467 0.0000 0.0000 0.0000
# 4 0.0000 0.0000 0.0000 -3.2727 0.0000 0.0000
# 5 0.0000 0.0000 0.0000 0.0000 22.9982 0.0000
# 6 0.0000 0.0000 0.0000 0.0000 0.0000 37.0465
#
#
#
# Elastic Compliance Matrix: (Units=1/GPa)
#
#
# Indices 1 2 3 4 5 6 
#
# 1 0.017912 -0.001145 -0.005196 0.000000 0.000000 0.000000
# 2 -0.001145 0.007268 -0.002246 0.000000 0.000000 0.000000
# 3 -0.005196 -0.002246 0.012610 0.000000 0.000000 0.000000
# 4 0.000000 0.000000 0.000000 -0.305554 0.000000 0.000000
# 5 0.000000 0.000000 0.000000 0.000000 0.043482 0.000000
# 6 0.000000 0.000000 0.000000 0.000000 0.000000 0.026993
#
#
# Mechanical properties :
#
#
# Convention : Reuss Voigt Hill
#
# Bulk Modulus (GPa) = 48.50996 54.18063 51.34529
# Shear Modulus (GPa) = -28.86096 26.68878 -1.08609
#
# Velocity S-wave (km/s) = -3.72833 3.58528 -0.72326
# Velocity P-wave (km/s) = 2.19776 6.57528 4.90227
#
# Compressibility (1/GPa) = 0.02061432
#
# Stress axis : x y z
#
# Youngs Moduli (GPa) = 55.82973 137.59668 79.30398
#
# Poissons Ratio (x) = 0.15760 0.41205
# Poissons Ratio (y) = 0.06395 0.17812
# Poissons Ratio (z) = 0.29008 0.30905
#
# Static dielectric constant tensor:
#      x y z
#    x 3.779780 0.000000 0.000000 
#    y 0.000000 4.004950 0.000000 
#    z 0.000000 0.000000 3.696770 
# 
# 
# High freq. dielectric constant tensor:
#      x y z
#    x 1.822740 0.000000 0.000000 
#    y 0.000000 1.831850 0.000000 
#    z 0.000000 0.000000 1.808040 
# 
# From -- ./inp_files/5091.got.cif
#   From: 2010.03.12/outbox.cif.g09.slc.cpg/sg28_3_cif.got.tgz:5091.got - 2010.04.14 03:39:34.
