data_PCOD8168456
_publ_section_title
;
Structure prediction by ZEFSAII (Michael W. Deem and Ramdas Pophale) SiO2 
 PCOD8168456
Probable space group: P M A 2
;
_chemical_formula_sum "Si O2"
_cell_formula_units_Z 32
_cell_length_a 8.518522
_cell_length_b 14.628796
_cell_length_c 12.367344
_cell_angle_alpha 90.000000
_cell_angle_beta 90.000000
_cell_angle_gamma 90.000000
_cell_volume 1541.165484
_symmetry_space_group_name_H-M "P M A 2"
_symmetry_group_IT_number 28
_symmetry_cell_setting 'orthorhombic'
loop_
_space_group_symop_operation_xyz
x,y,z
-x,-y,z
1/2-x,y,z
1/2+x,-y,z
loop_
_atom_site_type_symbol
_atom_site_label
_atom_site_fract_x
_atom_site_fract_y
_atom_site_fract_z
Si Si1 0.065737 0.648197 0.305700
Si Si2 0.435612 0.408256 0.526516
Si Si3 0.431380 0.911134 0.179116
Si Si4 0.569569 0.831784 0.377332
Si Si5 0.564159 0.102542 0.798956
Si Si6 0.065370 0.406990 0.079916
Si Si7 0.433248 0.780298 0.595335
Si Si8 0.067172 0.772369 0.994937
O O1 0.250000 0.672439 0.306233
O O2 0.022689 0.588696 0.410468
O O3 0.962765 0.739127 0.312437
O O4 0.022317 0.598319 0.195046
O O5 0.500000 0.500000 0.586800
O O6 0.250000 0.411228 0.510975
O O7 0.478832 0.317514 0.594575
O O8 0.250000 0.923897 0.201210
O O9 0.520605 0.910417 0.294266
O O10 0.463847 0.821471 0.108910
O O11 0.500000 0.000000 0.116796
O O12 0.750000 0.839711 0.411008
O O13 0.466499 0.836291 0.485836
O O14 0.750000 0.095042 0.802289
O O15 0.505204 0.156443 0.692801
O O16 0.500000 0.000000 0.801793
O O17 0.502011 0.162008 0.900376
O O18 0.250000 0.411718 0.098249
O O19 0.000000 0.500000 0.025025
O O20 0.024492 0.323424 0.999405
O O21 0.250000 0.760021 0.606774
O O22 0.250000 0.751772 0.976452
#
# Coordination Sequence:
#
# PCOD8168456 Si02
#       8
#     4   4   4   4   4   4   4   4
#     4  11  20  34  55  83 121 163 204 248 296 354
#     4  11  21  35  56  86 122 162 206 250 300 361
#     4  11  22  36  58  86 121 159 198 244 303 367
#     4  11  21  35  56  85 122 161 203 246 302 363
#     4  10  23  43  69  95 120 155 202 255 307 364
#     4  12  24  38  59  88 122 163 206 249 300 359
#     4  10  21  39  61  88 122 159 203 253 306 358
#     4  10  22  42  64  89 122 158 199 252 307 359
#
# _framework density 20.763506
#
# number of rings (size 3 to 8) (size 9 to 14) (size 15 to 20)
#    0.000    1.250    1.250    7.500    0.000    2.500 
#    0.000    1.875    0.000    0.000    0.000    0.000 
#    0.000    0.000    0.000    0.000    0.000    0.000 
#
# Total GULP energy -396797.541324 kJ/mol
# GULP energy per Si atom -12399.923166 kJ/mol
# Density = 2.071625 g / cm^3
# Si number density = 20.763506 Si / 1000 Ang^3
#
#
#
# Elastic Constant Matrix: (Units=GPa)
#
#
# Indices 1 2 3 4 5 6 
#
# 1 89.2032 39.8868 26.6820 0.0000 0.0000 0.0000
# 2 39.8868 143.8898 53.0826 0.0000 0.0000 0.0000
# 3 26.6820 53.0826 97.6888 0.0000 0.0000 0.0000
# 4 0.0000 0.0000 0.0000 352.9817 0.0000 0.0000
# 5 0.0000 0.0000 0.0000 0.0000 19.5229 0.0000
# 6 0.0000 0.0000 0.0000 0.0000 0.0000 38.1705
#
#
#
# Elastic Compliance Matrix: (Units=1/GPa)
#
#
# Indices 1 2 3 4 5 6 
#
# 1 0.013104 -0.002892 -0.002008 0.000000 0.000000 0.000000
# 2 -0.002892 0.009330 -0.004280 0.000000 0.000000 0.000000
# 3 -0.002008 -0.004280 0.013111 0.000000 0.000000 0.000000
# 4 0.000000 0.000000 0.000000 0.002833 0.000000 0.000000
# 5 0.000000 0.000000 0.000000 0.000000 0.051222 0.000000
# 6 0.000000 0.000000 0.000000 0.000000 0.000000 0.026198
#
#
# Mechanical properties :
#
#
# Convention : Reuss Voigt Hill
#
# Bulk Modulus (GPa) = 58.18793 63.34272 60.76532
# Shear Modulus (GPa) = 35.74335 96.21038 65.97687
#
# Velocity S-wave (km/s) = 4.15354 6.81446 5.64308
# Velocity P-wave (km/s) = 7.14755 9.61711 8.47279
#
# Compressibility (1/GPa) = 0.01718570
#
# Stress axis : x y z
#
# Youngs Moduli (GPa) = 76.31282 107.17690 76.27331
#
# Poissons Ratio (x) = 0.30993 0.15314
# Poissons Ratio (y) = 0.22068 0.32646
# Poissons Ratio (z) = 0.15322 0.45873
#
# Static dielectric constant tensor:
#      x y z
#    x 3.704640 0.000000 0.000000 
#    y 0.000000 -0.830260 0.000000 
#    z 0.000000 0.000000 3.712730 
# 
# 
# High freq. dielectric constant tensor:
#      x y z
#    x 1.816350 0.000000 0.000000 
#    y 0.000000 1.827480 0.000000 
#    z 0.000000 0.000000 1.787530 
# 
# From -- ./inp_files/5081.got.cif
#   From: 2010.03.12/outbox.cif.g09.slc.cpg/sg28_3_cif.got.tgz:5081.got - 2010.04.14 03:39:34.
