data_PCOD8168958
_publ_section_title
;
Structure prediction by ZEFSAII (Michael W. Deem and Ramdas Pophale) SiO2 
 PCOD8168958
Probable space group: P C A 21
;
_chemical_formula_sum "Si O2"
_cell_formula_units_Z 32
_cell_length_a 13.539484
_cell_length_b 5.230579
_cell_length_c 19.039068
_cell_angle_alpha 90.000000
_cell_angle_beta 90.000000
_cell_angle_gamma 90.000000
_cell_volume 1348.334243
_symmetry_space_group_name_H-M "P C A 21"
_symmetry_group_IT_number 29
_symmetry_cell_setting 'orthorhombic'
loop_
_space_group_symop_operation_xyz
x,y,z
-x,-y,1/2+z
1/2-x,y,1/2+z
1/2+x,-y,z
loop_
_atom_site_type_symbol
_atom_site_label
_atom_site_fract_x
_atom_site_fract_y
_atom_site_fract_z
Si Si1 0.353854 0.548357 0.315020
Si Si2 0.162509 0.424462 0.660472
Si Si3 0.154514 0.498008 0.081959
Si Si4 0.773623 0.449420 0.949269
Si Si5 0.477354 0.047359 0.328606
Si Si6 0.103197 0.043218 0.459857
Si Si7 0.028496 0.795209 0.585669
Si Si8 0.543742 0.150893 0.184938
O O1 0.304117 0.491805 0.239748
O O2 0.270626 0.594702 0.372563
O O3 0.416742 0.306161 0.343752
O O4 0.412158 0.811747 0.301175
O O5 0.259064 0.318184 0.617927
O O6 0.129396 0.665697 0.612027
O O7 0.068568 0.241375 0.667022
O O8 0.053278 0.385015 0.049315
O O9 0.129037 0.692971 0.145728
O O10 0.197402 0.622736 0.010879
O O11 0.861472 0.249306 0.954631
O O12 0.813688 0.739459 0.957246
O O13 0.527009 0.924850 0.396845
O O14 0.558411 0.127706 0.268822
O O15 0.049819 0.042678 0.536059
O O16 0.960314 0.868284 0.652989
#
# Coordination Sequence:
#
# PCOD8168958 Si02
#       8
#     4   4   4   4   4   4   4   4
#     4  11  24  45  71  98 141 183 236 293 358 425
#     4  10  22  45  65 100 141 179 230 302 351 419
#     4  11  25  41  70 103 138 184 242 290 357 438
#     4  12  27  45  68 107 139 188 238 296 359 424
#     4  11  24  46  70  99 140 188 234 292 357 433
#     4  12  27  44  73  98 149 185 239 296 359 431
#     4  11  23  43  69  99 136 192 228 298 357 421
#     4  10  24  41  70 100 138 185 239 285 370 417
#
# _framework density 23.732984999999999
#
# number of rings (size 3 to 8) (size 9 to 14) (size 15 to 20)
#    0.000    1.000    2.500    3.000    7.000    2.000 
#    0.000    0.000    0.000    0.000    0.000    0.000 
#    0.000    0.000    0.000    0.000    0.000    0.000 
#
# Total GULP energy -396426.673232 kJ/mol
# GULP energy per Si atom -12388.333539 kJ/mol
# Density = 2.367897 g / cm^3
# Si number density = 23.732985 Si / 1000 Ang^3
#
#
#
# Elastic Constant Matrix: (Units=GPa)
#
#
# Indices 1 2 3 4 5 6 
#
# 1 73.2084 4.3442 33.8047 0.0000 0.0000 0.0000
# 2 4.3442 81.3316 0.3666 0.0000 0.0000 0.0000
# 3 33.8047 0.3666 125.5793 0.0000 0.0000 0.0000
# 4 0.0000 0.0000 0.0000 35.2244 0.0000 0.0000
# 5 0.0000 0.0000 0.0000 0.0000 35.1688 0.0000
# 6 0.0000 0.0000 0.0000 0.0000 0.0000 30.4151
#
#
#
# Elastic Compliance Matrix: (Units=1/GPa)
#
#
# Indices 1 2 3 4 5 6 
#
# 1 0.015653 -0.000817 -0.004211 0.000000 0.000000 0.000000
# 2 -0.000817 0.012338 0.000184 0.000000 0.000000 0.000000
# 3 -0.004211 0.000184 0.009096 0.000000 0.000000 0.000000
# 4 0.000000 0.000000 0.000000 0.028389 0.000000 0.000000
# 5 0.000000 0.000000 0.000000 0.000000 0.028434 0.000000
# 6 0.000000 0.000000 0.000000 0.000000 0.000000 0.032878
#
#
# Mechanical properties :
#
#
# Convention : Reuss Voigt Hill
#
# Bulk Modulus (GPa) = 36.49851 39.68336 38.09094
# Shear Modulus (GPa) = 34.33818 36.26858 35.30338
#
# Velocity S-wave (km/s) = 3.80788 3.91345 3.86103
# Velocity P-wave (km/s) = 5.89453 6.09731 5.99678
#
# Compressibility (1/GPa) = 0.02739838
#
# Stress axis : x y z
#
# Youngs Moduli (GPa) = 63.88691 81.04939 109.93652
#
# Poissons Ratio (x) = 0.06622 0.46296
# Poissons Ratio (y) = 0.05220 -0.02022
# Poissons Ratio (z) = 0.26904 -0.01491
#
# Static dielectric constant tensor:
#      x y z
#    x 4.098940 0.000000 0.000000 
#    y 0.000000 4.086770 0.000000 
#    z 0.000000 0.000000 4.602390 
# 
# 
# High freq. dielectric constant tensor:
#      x y z
#    x 1.931240 0.000000 0.000000 
#    y 0.000000 1.929850 0.000000 
#    z 0.000000 0.000000 1.965900 
# 
# From -- ./inp_files/5573.got.cif
#   From: 2010.03.12/outbox.cif.g09.slc.cpg/sg29_3_cif.got.tgz:5573.got - 2010.04.14 03:43:10.
