data_PCOD8168722
_publ_section_title
;
Structure prediction by ZEFSAII (Michael W. Deem and Ramdas Pophale) SiO2 
 PCOD8168722
Probable space group: P C A 21
;
_chemical_formula_sum "Si O2"
_cell_formula_units_Z 28
_cell_length_a 8.875143
_cell_length_b 9.142595
_cell_length_c 17.162562
_cell_angle_alpha 90.000000
_cell_angle_beta 90.000000
_cell_angle_gamma 90.000000
_cell_volume 1392.601826
_symmetry_space_group_name_H-M "P C A 21"
_symmetry_group_IT_number 29
_symmetry_cell_setting 'orthorhombic'
loop_
_space_group_symop_operation_xyz
x,y,z
-x,-y,1/2+z
1/2-x,y,1/2+z
1/2+x,-y,z
loop_
_atom_site_type_symbol
_atom_site_label
_atom_site_fract_x
_atom_site_fract_y
_atom_site_fract_z
Si Si1 0.142621 0.302234 0.572100
Si Si2 0.448200 0.291433 0.381008
Si Si3 0.118673 0.515269 0.005763
Si Si4 0.492639 0.093474 0.803618
Si Si5 0.229732 0.772529 0.909147
Si Si6 0.717172 0.923842 0.448166
Si Si7 0.691593 0.822370 0.740209
O O1 0.292196 0.397027 0.557170
O O2 0.124864 0.164719 0.513269
O O3 0.140619 0.231194 0.656440
O O4 0.004055 0.412303 0.561985
O O5 0.454380 0.440397 0.429812
O O6 0.617025 0.244824 0.360156
O O7 0.369473 0.164196 0.431174
O O8 0.351849 0.307054 0.301092
O O9 0.222838 0.639656 0.969440
O O10 0.599351 0.217581 0.842914
O O11 0.382186 0.042965 0.872172
O O12 0.373929 0.154279 0.738910
O O13 0.596869 0.966816 0.766538
O O14 0.229720 0.912175 0.968736
#
# Coordination Sequence:
#
# PCOD8168722 Si02
#       7
#     4   4   4   4   4   4   4
#     4  11  25  45  63  96 145 172 216 286 342 400
#     4  10  21  40  66  93 130 172 223 273 321 410
#     4  11  24  43  65  95 128 183 228 264 334 414
#     4  11  20  38  68 101 123 169 224 273 324 398
#     4  12  19  39  73  95 123 165 236 273 315 390
#     4  10  20  38  69  98 122 169 226 275 319 394
#     4  11  23  43  64 100 145 164 217 286 347 388
#
# _framework density 20.106251
#
# number of rings (size 3 to 8) (size 9 to 14) (size 15 to 20)
#    0.000    1.143    7.143    0.000    0.000    1.143 
#    7.714    1.429    0.000    0.000    0.000    0.000 
#    0.000    0.000    0.000    0.000    0.000    0.000 
#
# Total GULP energy -346920.338422 kJ/mol
# GULP energy per Si atom -12390.012087 kJ/mol
# Density = 2.006049 g / cm^3
# Si number density = 20.106251 Si / 1000 Ang^3
#
#
#
# Elastic Constant Matrix: (Units=GPa)
#
#
# Indices 1 2 3 4 5 6 
#
# 1 113.6673 26.5650 24.3761 0.0000 0.0000 0.0000
# 2 26.5650 94.9462 43.0397 0.0000 0.0000 0.0000
# 3 24.3761 43.0397 96.5535 0.0000 0.0000 0.0000
# 4 0.0000 0.0000 0.0000 34.8439 0.0000 0.0000
# 5 0.0000 0.0000 0.0000 0.0000 26.1052 0.0000
# 6 0.0000 0.0000 0.0000 0.0000 0.0000 31.1661
#
#
#
# Elastic Compliance Matrix: (Units=1/GPa)
#
#
# Indices 1 2 3 4 5 6 
#
# 1 0.009591 -0.001988 -0.001536 0.000000 0.000000 0.000000
# 2 -0.001988 0.013611 -0.005566 0.000000 0.000000 0.000000
# 3 -0.001536 -0.005566 0.013226 0.000000 0.000000 0.000000
# 4 0.000000 0.000000 0.000000 0.028699 0.000000 0.000000
# 5 0.000000 0.000000 0.000000 0.000000 0.038306 0.000000
# 6 0.000000 0.000000 0.000000 0.000000 0.000000 0.032086
#
#
# Mechanical properties :
#
#
# Convention : Reuss Voigt Hill
#
# Bulk Modulus (GPa) = 54.79161 54.79206 54.79183
# Shear Modulus (GPa) = 31.29278 32.50212 31.89745
#
# Velocity S-wave (km/s) = 3.94937 4.02496 3.98734
# Velocity P-wave (km/s) = 6.93591 6.99362 6.96483
#
# Compressibility (1/GPa) = 0.01825097
#
# Stress axis : x y z
#
# Youngs Moduli (GPa) = 104.26008 73.46837 75.61131
#
# Poissons Ratio (x) = 0.14602 0.11610
# Poissons Ratio (y) = 0.20722 0.42082
# Poissons Ratio (z) = 0.16009 0.40890
#
# Static dielectric constant tensor:
#      x y z
#    x 3.946170 0.000000 0.000000 
#    y 0.000000 3.809020 0.000000 
#    z 0.000000 0.000000 3.428080 
# 
# 
# High freq. dielectric constant tensor:
#      x y z
#    x 1.804060 0.000000 0.000000 
#    y 0.000000 1.787110 0.000000 
#    z 0.000000 0.000000 1.747710 
# 
# From -- ./inp_files/4975.got.cif
#   From: 2010.03.12/outbox.cif.g09.slc.cpg/sg29_3_cif.got.tgz:4975.got - 2010.04.14 03:43:10.
