data_PCOD8168013
_publ_section_title
;
Structure prediction by ZEFSAII (Michael W. Deem and Ramdas Pophale) SiO2 
 PCOD8168013
Probable space group: P M A 2
;
_chemical_formula_sum "Si O2"
_cell_formula_units_Z 32
_cell_length_a 9.390502
_cell_length_b 16.086194
_cell_length_c 10.945784
_cell_angle_alpha 90.000000
_cell_angle_beta 90.000000
_cell_angle_gamma 90.000000
_cell_volume 1653.442076
_symmetry_space_group_name_H-M "P M A 2"
_symmetry_group_IT_number 28
_symmetry_cell_setting 'orthorhombic'
loop_
_space_group_symop_operation_xyz
x,y,z
-x,-y,z
1/2-x,y,z
1/2+x,-y,z
loop_
_atom_site_type_symbol
_atom_site_label
_atom_site_fract_x
_atom_site_fract_y
_atom_site_fract_z
Si Si1 0.412191 0.579425 0.937000
Si Si2 0.083944 0.915242 0.127282
Si Si3 0.906491 0.183915 0.360761
Si Si4 0.916297 0.419919 0.652551
Si Si5 0.406644 0.171364 0.736262
Si Si6 0.415794 0.762533 0.949186
Si Si7 0.405435 0.930436 0.585892
Si Si8 0.407419 0.287690 0.510746
O O1 0.500000 0.500000 0.988448
O O2 0.250000 0.552898 0.956286
O O3 0.446743 0.596136 0.794964
O O4 0.444200 0.668725 0.003751
O O5 0.250000 0.936953 0.117019
O O6 0.041441 0.884617 0.262957
O O7 0.043413 0.836966 0.041002
O O8 0.000000 0.000000 0.093534
O O9 0.750000 0.218840 0.318377
O O10 0.885550 0.144622 0.493481
O O11 0.025164 0.255467 0.381347
O O12 0.750000 0.429871 0.625655
O O13 0.000000 0.500000 0.607577
O O14 0.977896 0.348135 0.569028
O O15 0.250000 0.144699 0.785938
O O16 0.483645 0.231251 0.831896
O O17 0.510900 0.093396 0.711093
O O18 0.384619 0.213969 0.605975
O O19 0.250000 0.768113 0.909575
O O20 0.250000 0.965165 0.623530
O O21 0.500000 0.000000 0.518491
O O22 0.250000 0.326838 0.484035
#
# Coordination Sequence:
#
# PCOD8168013 Si02
#       8
#     4   4   4   4   4   4   4   4
#     4   9  18  31  51  78 109 144 181 219 266 321
#     4  10  22  39  59  80 105 139 186 235 281 331
#     4   9  19  35  54  75  98 132 173 219 272 323
#     4  10  18  29  48  76 111 146 178 215 264 323
#     4  10  20  32  48  72 102 134 170 209 257 317
#     4  10  20  36  55  77 108 146 182 223 276 331
#     4  10  19  31  49  71  98 128 164 209 262 318
#     4  10  19  31  50  77 106 137 173 217 264 318
#
# _framework density 19.353566000000001
#
# number of rings (size 3 to 8) (size 9 to 14) (size 15 to 20)
#    0.000    2.250    1.250    1.875    0.000    4.000 
#    0.000    1.250    0.000    0.750    0.000    1.750 
#    0.000    0.000    0.000    0.000    0.000    0.000 
#
# Total GULP energy -396456.359963 kJ/mol
# GULP energy per Si atom -12389.261249 kJ/mol
# Density = 1.930952 g / cm^3
# Si number density = 19.353566 Si / 1000 Ang^3
#
#
#
# Elastic Constant Matrix: (Units=GPa)
#
#
# Indices 1 2 3 4 5 6 
#
# 1 131.5300 57.1130 29.5265 0.0000 0.0000 0.0000
# 2 57.1130 112.8897 30.1915 0.0000 0.0000 0.0000
# 3 29.5265 30.1915 37.6831 0.0000 0.0000 0.0000
# 4 0.0000 0.0000 0.0000 25.6993 0.0000 0.0000
# 5 0.0000 0.0000 0.0000 0.0000 14.5869 0.0000
# 6 0.0000 0.0000 0.0000 0.0000 0.0000 37.2052
#
#
#
# Elastic Compliance Matrix: (Units=1/GPa)
#
#
# Indices 1 2 3 4 5 6 
#
# 1 0.010441 -0.003938 -0.005026 0.000000 0.000000 0.000000
# 2 -0.003938 0.012759 -0.007137 0.000000 0.000000 0.000000
# 3 -0.005026 -0.007137 0.036193 0.000000 0.000000 0.000000
# 4 0.000000 0.000000 0.000000 0.038912 0.000000 0.000000
# 5 0.000000 0.000000 0.000000 0.000000 0.068555 0.000000
# 6 0.000000 0.000000 0.000000 0.000000 0.000000 0.026878
#
#
# Mechanical properties :
#
#
# Convention : Reuss Voigt Hill
#
# Bulk Modulus (GPa) = 36.77601 57.30720 47.04161
# Shear Modulus (GPa) = 21.27626 26.51640 23.89633
#
# Velocity S-wave (km/s) = 3.31924 3.70551 3.51768
# Velocity P-wave (km/s) = 5.80803 6.92695 6.39202
#
# Compressibility (1/GPa) = 0.02719164
#
# Stress axis : x y z
#
# Youngs Moduli (GPa) = 95.77532 78.37385 27.62953
#
# Poissons Ratio (x) = 0.30865 0.13886
# Poissons Ratio (y) = 0.37719 0.19719
# Poissons Ratio (z) = 0.48135 0.55935
#
# Static dielectric constant tensor:
#      x y z
#    x 3.967280 0.000000 0.000000 
#    y 0.000000 3.686870 0.000000 
#    z 0.000000 0.000000 3.144930 
# 
# 
# High freq. dielectric constant tensor:
#      x y z
#    x 1.767770 0.000000 0.000000 
#    y 0.000000 1.747170 0.000000 
#    z 0.000000 0.000000 1.705530 
# 
# From -- ./inp_files/4995.got.cif
#   From: 2010.03.12/outbox.cif.g09.slc.cpg/sg28_3_cif.got.tgz:4995.got - 2010.04.14 03:39:34.
