data_PCOD8168124
_publ_section_title
;
Structure prediction by ZEFSAII (Michael W. Deem and Ramdas Pophale) SiO2 
 PCOD8168124
Probable space group: P M A 2
;
_chemical_formula_sum "Si O2"
_cell_formula_units_Z 28
_cell_length_a 8.885082
_cell_length_b 9.387329
_cell_length_c 17.954541
_cell_angle_alpha 90.000000
_cell_angle_beta 90.000000
_cell_angle_gamma 90.000000
_cell_volume 1497.537775
_symmetry_space_group_name_H-M "P M A 2"
_symmetry_group_IT_number 28
_symmetry_cell_setting 'orthorhombic'
loop_
_space_group_symop_operation_xyz
x,y,z
-x,-y,z
1/2-x,y,z
1/2+x,-y,z
loop_
_atom_site_type_symbol
_atom_site_label
_atom_site_fract_x
_atom_site_fract_y
_atom_site_fract_z
Si Si1 0.071827 0.845687 0.583090
Si Si2 0.574482 0.846852 0.275442
Si Si3 0.925613 0.355195 0.713779
Si Si4 0.071781 0.650119 0.883489
Si Si5 0.074179 0.153336 0.439492
Si Si6 0.573472 0.653069 0.142659
Si Si7 0.072102 0.153031 0.002497
O O1 0.250000 0.855345 0.577137
O O2 0.018326 0.765917 0.657482
O O3 0.007205 0.765380 0.508550
O O4 0.000000 0.000000 0.588326
O O5 0.750000 0.872631 0.261790
O O6 0.545472 0.778452 0.357789
O O7 0.510312 0.734323 0.215724
O O8 0.500000 0.000000 0.264152
O O9 0.750000 0.378345 0.707406
O O10 0.971317 0.315916 0.798020
O O11 0.000000 0.500000 0.687090
O O12 0.250000 0.642403 0.896659
O O13 0.000000 0.500000 0.908797
O O14 0.000164 0.778926 0.929072
O O15 0.250000 0.140717 0.457188
O O16 0.000000 0.000000 0.435450
O O17 0.500000 0.500000 0.134805
O O18 0.750000 0.629635 0.148955
O O19 0.530028 0.746827 0.071497
O O20 0.250000 0.136893 0.991622
O O21 0.000000 0.000000 0.017236
#
# Coordination Sequence:
#
# PCOD8168124 Si02
#       7
#     4   4   4   4   4   4   4
#     4  10  19  32  50  75 104 134 172 214 257 305
#     4   9  18  33  53  77 103 132 170 214 257 304
#     4   9  20  36  54  76 103 137 175 213 255 307
#     4  10  20  37  58  80 107 139 176 216 261 313
#     4   9  16  28  48  73 101 133 169 210 257 305
#     4  10  22  38  55  77 106 139 174 211 254 306
#     4  11  23  38  57  82 109 138 174 216 262 310
#
# _framework density 18.697358000000001
#
# number of rings (size 3 to 8) (size 9 to 14) (size 15 to 20)
#    0.000    2.286    0.000    3.429    0.000    5.714 
#    0.000    2.143    0.000    3.429    0.000    0.000 
#    0.000    0.000    0.000    0.000    0.000    0.000 
#
# Total GULP energy -347111.844247 kJ/mol
# GULP energy per Si atom -12396.851580 kJ/mol
# Density = 1.865480 g / cm^3
# Si number density = 18.697358 Si / 1000 Ang^3
#
#
#
# Elastic Constant Matrix: (Units=GPa)
#
#
# Indices 1 2 3 4 5 6 
#
# 1 73.6640 48.0206 54.8913 0.0000 0.0000 0.0000
# 2 48.0206 116.8493 76.6439 0.0000 0.0000 0.0000
# 3 54.8913 76.6439 144.6731 0.0000 0.0000 0.0000
# 4 0.0000 0.0000 0.0000 31.8408 0.0000 0.0000
# 5 0.0000 0.0000 0.0000 0.0000 28.8182 0.0000
# 6 0.0000 0.0000 0.0000 0.0000 0.0000 29.8479
#
#
#
# Elastic Compliance Matrix: (Units=1/GPa)
#
#
# Indices 1 2 3 4 5 6 
#
# 1 0.020776 -0.005161 -0.005149 0.000000 0.000000 0.000000
# 2 -0.005161 0.014398 -0.005669 0.000000 0.000000 0.000000
# 3 -0.005149 -0.005669 0.011869 0.000000 0.000000 0.000000
# 4 0.000000 0.000000 0.000000 0.031406 0.000000 0.000000
# 5 0.000000 0.000000 0.000000 0.000000 0.034700 0.000000
# 6 0.000000 0.000000 0.000000 0.000000 0.000000 0.033503
#
#
# Mechanical properties :
#
#
# Convention : Reuss Voigt Hill
#
# Bulk Modulus (GPa) = 66.29169 77.14421 71.71795
# Shear Modulus (GPa) = 27.22737 28.47675 27.85206
#
# Velocity S-wave (km/s) = 3.82018 3.90684 3.86375
# Velocity P-wave (km/s) = 7.41555 7.85495 7.63841
#
# Compressibility (1/GPa) = 0.01508485
#
# Stress axis : x y z
#
# Youngs Moduli (GPa) = 48.13214 69.45575 84.25309
#
# Poissons Ratio (x) = 0.35847 0.43378
# Poissons Ratio (y) = 0.24842 0.47765
# Poissons Ratio (z) = 0.24781 0.39376
#
# Static dielectric constant tensor:
#      x y z
#    x 3.477200 0.000000 0.000000 
#    y 0.000000 3.161210 0.000000 
#    z 0.000000 0.000000 4.248570 
# 
# 
# High freq. dielectric constant tensor:
#      x y z
#    x 1.731860 0.000000 0.000000 
#    y 0.000000 1.700780 0.000000 
#    z 0.000000 0.000000 1.749010 
# 
# From -- ./inp_files/6750.got.cif
#   From: 2010.03.12/outbox.cif.g09.slc.cpg/sg28_4_cif.got.tgz:6750.got - 2010.04.14 03:39:34.
