data_PCOD8168153
_publ_section_title
;
Structure prediction by ZEFSAII (Michael W. Deem and Ramdas Pophale) SiO2 
 PCOD8168153
Probable space group: P M A 2
;
_chemical_formula_sum "Si O2"
_cell_formula_units_Z 32
_cell_length_a 8.968900
_cell_length_b 16.560081
_cell_length_c 10.941951
_cell_angle_alpha 90.000000
_cell_angle_beta 90.000000
_cell_angle_gamma 90.000000
_cell_volume 1625.161046
_symmetry_space_group_name_H-M "P M A 2"
_symmetry_group_IT_number 28
_symmetry_cell_setting 'orthorhombic'
loop_
_space_group_symop_operation_xyz
x,y,z
-x,-y,z
1/2-x,y,z
1/2+x,-y,z
loop_
_atom_site_type_symbol
_atom_site_label
_atom_site_fract_x
_atom_site_fract_y
_atom_site_fract_z
Si Si1 0.073698 0.213932 0.784640
Si Si2 0.418417 0.424768 0.934579
Si Si3 0.922682 0.263727 0.009772
Si Si4 0.429261 0.415481 0.406626
Si Si5 0.582082 0.623674 0.672798
Si Si6 0.584924 0.079211 0.372607
Si Si7 0.583915 0.075851 0.659564
Si Si8 0.075319 0.745609 0.291906
O O1 0.250000 0.218959 0.803407
O O2 0.006181 0.294701 0.722770
O O3 0.999024 0.199201 0.917792
O O4 0.026585 0.147571 0.689232
O O5 0.500000 0.500000 0.996914
O O6 0.250000 0.419885 0.981820
O O7 0.503022 0.348393 0.983110
O O8 0.423993 0.437544 0.787112
O O9 0.750000 0.268879 0.978737
O O10 0.952517 0.240867 0.148824
O O11 0.500000 0.500000 0.354636
O O12 0.250000 0.420356 0.393606
O O13 0.489657 0.409782 0.547577
O O14 0.487045 0.334233 0.338032
O O15 0.750000 0.645398 0.635814
O O16 0.750000 0.078510 0.313447
O O17 0.596120 0.066558 0.515909
O O18 0.514595 0.168949 0.348295
O O19 0.500000 0.000000 0.317159
O O20 0.750000 0.085854 0.716088
O O21 0.500000 0.000000 0.718916
O O22 0.250000 0.732560 0.322957
#
# Coordination Sequence:
#
# PCOD8168153 Si02
#       8
#     4   4   4   4   4   4   4   4
#     4  10  19  34  55  79 108 138 174 219 268 322
#     4  10  19  33  53  77 105 135 174 222 272 324
#     4  10  21  37  55  74 101 139 182 224 267 316
#     4  11  22  36  55  80 111 146 184 225 274 331
#     4   8  17  32  51  77 106 136 170 215 269 325
#     4   9  19  36  59  87 115 143 178 223 274 329
#     4  10  19  32  53  82 113 141 171 209 261 322
#     4  10  22  40  58  78 108 146 188 233 275 319
#
# _framework density 19.690356999999999
#
# number of rings (size 3 to 8) (size 9 to 14) (size 15 to 20)
#    0.000    2.250    0.000    3.750    0.000    2.500 
#    0.000    6.875    0.000    1.500    0.000    0.000 
#    0.000    0.000    0.000    0.000    0.000    0.000 
#
# Total GULP energy -396435.610899 kJ/mol
# GULP energy per Si atom -12388.612841 kJ/mol
# Density = 1.964554 g / cm^3
# Si number density = 19.690357 Si / 1000 Ang^3
#
#
#
# Elastic Constant Matrix: (Units=GPa)
#
#
# Indices 1 2 3 4 5 6 
#
# 1 94.6755 48.8422 32.3561 0.0000 0.0000 0.0000
# 2 48.8422 125.8868 15.0326 0.0000 0.0000 0.0000
# 3 32.3561 15.0326 37.2219 0.0000 0.0000 0.0000
# 4 0.0000 0.0000 0.0000 13.8714 0.0000 0.0000
# 5 0.0000 0.0000 0.0000 0.0000 23.8156 0.0000
# 6 0.0000 0.0000 0.0000 0.0000 0.0000 35.6765
#
#
#
# Elastic Compliance Matrix: (Units=1/GPa)
#
#
# Indices 1 2 3 4 5 6 
#
# 1 0.017900 -0.005344 -0.013401 0.000000 0.000000 0.000000
# 2 -0.005344 0.009942 0.000631 0.000000 0.000000 0.000000
# 3 -0.013401 0.000631 0.038261 0.000000 0.000000 0.000000
# 4 0.000000 0.000000 0.000000 0.072091 0.000000 0.000000
# 5 0.000000 0.000000 0.000000 0.000000 0.041989 0.000000
# 6 0.000000 0.000000 0.000000 0.000000 0.000000 0.028030
#
#
# Mechanical properties :
#
#
# Convention : Reuss Voigt Hill
#
# Bulk Modulus (GPa) = 33.47620 50.02731 41.75176
# Shear Modulus (GPa) = 19.65418 25.44293 22.54856
#
# Velocity S-wave (km/s) = 3.16280 3.59855 3.38769
# Velocity P-wave (km/s) = 5.51144 6.53669 6.04583
#
# Compressibility (1/GPa) = 0.02987197
#
# Stress axis : x y z
#
# Youngs Moduli (GPa) = 55.86739 100.58425 26.13656
#
# Poissons Ratio (x) = 0.53757 0.35026
# Poissons Ratio (y) = 0.29858 -0.01648
# Poissons Ratio (z) = 0.74869 -0.06343
#
# Static dielectric constant tensor:
#      x y z
#    x 4.055460 0.000000 0.000000 
#    y 0.000000 3.644350 0.000000 
#    z 0.000000 0.000000 3.594130 
# 
# 
# High freq. dielectric constant tensor:
#      x y z
#    x 1.764800 0.000000 0.000000 
#    y 0.000000 1.770430 0.000000 
#    z 0.000000 0.000000 1.749290 
# 
# From -- ./inp_files/5083.got.cif
#   From: 2010.03.12/outbox.cif.g09.slc.cpg/sg28_3_cif.got.tgz:5083.got - 2010.04.14 03:39:34.
