data_PCOD8168066
_publ_section_title
;
Structure prediction by ZEFSAII (Michael W. Deem and Ramdas Pophale) SiO2 
 PCOD8168066
Probable space group: P M A 2
;
_chemical_formula_sum "Si O2"
_cell_formula_units_Z 16
_cell_length_a 8.706723
_cell_length_b 13.421595
_cell_length_c 7.482271
_cell_angle_alpha 90.000000
_cell_angle_beta 90.000000
_cell_angle_gamma 90.000000
_cell_volume 874.364047
_symmetry_space_group_name_H-M "P M A 2"
_symmetry_group_IT_number 28
_symmetry_cell_setting 'orthorhombic'
loop_
_space_group_symop_operation_xyz
x,y,z
-x,-y,z
1/2-x,y,z
1/2+x,-y,z
loop_
_atom_site_type_symbol
_atom_site_label
_atom_site_fract_x
_atom_site_fract_y
_atom_site_fract_z
Si Si1 0.431930 0.107621 0.594200
Si Si2 0.075516 0.712691 0.438916
Si Si3 0.569579 0.604626 0.121002
Si Si4 0.075607 0.740772 0.828919
O O1 0.250000 0.102820 0.602732
O O2 0.487377 0.180355 0.432079
O O3 0.499460 0.151746 0.781480
O O4 0.500000 0.000000 0.556608
O O5 0.250000 0.726977 0.371593
O O6 0.072805 0.674607 0.645832
O O7 0.990729 0.631953 0.317622
O O8 0.500000 0.500000 0.058709
O O9 0.750000 0.593873 0.127196
O O10 0.522674 0.689410 0.981970
O O11 0.250000 0.756433 0.895879
#
# Coordination Sequence:
#
# PCOD8168066 Si02
#       4
#     4   4   4   4
#     4  10  18  34  59  86 115 150 188 228 282 336
#     4   9  20  38  59  83 115 149 188 235 281 334
#     4  12  24  38  59  84 115 152 190 234 282 336
#     4   9  20  38  59  83 115 149 188 235 281 334
#
# _framework density 18.299015000000001
#
# number of rings (size 3 to 8) (size 9 to 14) (size 15 to 20)
#    1.500    0.500    0.000    5.250    0.000    1.000 
#    0.000    1.250    0.000    0.000    0.000    0.000 
#    0.000    0.000    0.000    0.000    0.000    0.000 
#
# Total GULP energy -198280.561435 kJ/mol
# GULP energy per Si atom -12392.535090 kJ/mol
# Density = 1.825737 g / cm^3
# Si number density = 18.299015 Si / 1000 Ang^3
#
#
#
# Elastic Constant Matrix: (Units=GPa)
#
#
# Indices 1 2 3 4 5 6 
#
# 1 176.4790 33.3973 24.9950 0.0000 0.0000 0.0000
# 2 33.3973 66.0871 5.6642 0.0000 0.0000 0.0000
# 3 24.9950 5.6642 48.2007 0.0000 0.0000 0.0000
# 4 0.0000 0.0000 0.0000 27.9330 0.0000 0.0000
# 5 0.0000 0.0000 0.0000 0.0000 26.3165 0.0000
# 6 0.0000 0.0000 0.0000 0.0000 0.0000 36.1055
#
#
#
# Elastic Compliance Matrix: (Units=1/GPa)
#
#
# Indices 1 2 3 4 5 6 
#
# 1 0.006696 -0.003118 -0.003106 0.000000 0.000000 0.000000
# 2 -0.003118 0.016737 -0.000350 0.000000 0.000000 0.000000
# 3 -0.003106 -0.000350 0.022398 0.000000 0.000000 0.000000
# 4 0.000000 0.000000 0.000000 0.035800 0.000000 0.000000
# 5 0.000000 0.000000 0.000000 0.000000 0.037999 0.000000
# 6 0.000000 0.000000 0.000000 0.000000 0.000000 0.027697
#
#
# Mechanical properties :
#
#
# Convention : Reuss Voigt Hill
#
# Bulk Modulus (GPa) = 30.59603 46.54221 38.56912
# Shear Modulus (GPa) = 29.17665 33.18503 31.18084
#
# Velocity S-wave (km/s) = 3.99737 4.26313 4.13239
# Velocity P-wave (km/s) = 6.16941 7.05137 6.62508
#
# Compressibility (1/GPa) = 0.03268398
#
# Stress axis : x y z
#
# Youngs Moduli (GPa) = 149.33555 59.74736 44.64607
#
# Poissons Ratio (x) = 0.18628 0.13867
# Poissons Ratio (y) = 0.46560 0.01563
# Poissons Ratio (z) = 0.46385 0.02092
#
# Static dielectric constant tensor:
#      x y z
#    x 3.517810 0.000000 0.000000 
#    y 0.000000 3.304610 0.000000 
#    z 0.000000 0.000000 3.168820 
# 
# 
# High freq. dielectric constant tensor:
#      x y z
#    x 1.732700 0.000000 0.000000 
#    y 0.000000 1.691750 0.000000 
#    z 0.000000 0.000000 1.689470 
# 
# From -- ./inp_files/2194.got.cif
#   From: 2010.03.12/outbox.cif.g09.slc.cpg/sg28_2_cif.got.tgz:2194.got - 2010.04.14 03:39:34.
