data_PCOD8168723
_publ_section_title
;
Structure prediction by ZEFSAII (Michael W. Deem and Ramdas Pophale) SiO2 
 PCOD8168723
Probable space group: P C A 21
;
_chemical_formula_sum "Si O2"
_cell_formula_units_Z 32
_cell_length_a 15.165763
_cell_length_b 10.660736
_cell_length_c 8.441623
_cell_angle_alpha 90.000000
_cell_angle_beta 90.000000
_cell_angle_gamma 90.000000
_cell_volume 1364.826374
_symmetry_space_group_name_H-M "P C A 21"
_symmetry_group_IT_number 29
_symmetry_cell_setting 'orthorhombic'
loop_
_space_group_symop_operation_xyz
x,y,z
-x,-y,1/2+z
1/2-x,y,1/2+z
1/2+x,-y,z
loop_
_atom_site_type_symbol
_atom_site_label
_atom_site_fract_x
_atom_site_fract_y
_atom_site_fract_z
Si Si1 0.212204 0.934208 0.532060
Si Si2 0.874660 0.987313 0.332517
Si Si3 0.557869 0.502904 0.983847
Si Si4 0.159693 0.271530 0.351391
Si Si5 0.031359 0.777106 0.959127
Si Si6 0.157517 0.797407 0.238998
Si Si7 0.385802 0.538425 0.828912
Si Si8 0.846502 0.750301 0.480651
O O1 0.155688 0.022357 0.649369
O O2 0.294633 0.003461 0.456679
O O3 0.148539 0.889234 0.389909
O O4 0.253818 0.822096 0.638255
O O5 0.937700 0.109069 0.345629
O O6 0.911940 0.851034 0.390549
O O7 0.569207 0.361839 0.907380
O O8 0.460853 0.559785 0.959245
O O9 0.628295 0.608165 0.925831
O O10 0.560725 0.491195 0.170636
O O11 0.174704 0.420470 0.371885
O O12 0.247549 0.213188 0.424260
O O13 0.074751 0.226261 0.452799
O O14 0.145864 0.231732 0.169232
O O15 0.067531 0.807518 0.136299
O O16 0.174972 0.659523 0.309784
#
# Coordination Sequence:
#
# PCOD8168723 Si02
#       8
#     4   4   4   4   4   4   4   4
#     4   9  19  34  57  90 122 161 210 263 315 379
#     4  10  20  39  62  87 124 164 208 260 314 375
#     4   9  20  38  59  84 117 157 209 258 316 376
#     4  10  23  40  60  90 130 168 210 263 323 381
#     4   9  20  42  63  87 125 166 209 267 317 375
#     4   9  18  33  59  89 122 161 211 263 319 376
#     4   9  19  36  58  86 120 161 207 265 320 377
#     4  11  23  40  62  91 126 170 212 261 320 381
#
# _framework density 23.446206
#
# number of rings (size 3 to 8) (size 9 to 14) (size 15 to 20)
#    0.000    2.500    0.000    0.750    0.000   11.000 
#    0.000    8.750    0.000    0.000    0.000    0.000 
#    0.000    0.000    0.000    0.000    0.000    0.000 
#
# Total GULP energy -396444.936920 kJ/mol
# GULP energy per Si atom -12388.904279 kJ/mol
# Density = 2.339284 g / cm^3
# Si number density = 23.446206 Si / 1000 Ang^3
#
#
#
# Elastic Constant Matrix: (Units=GPa)
#
#
# Indices 1 2 3 4 5 6 
#
# 1 58.1835 38.2087 20.4115 0.0000 0.0000 0.0000
# 2 38.2087 113.3629 27.2071 0.0000 0.0000 0.0000
# 3 20.4115 27.2071 74.2931 0.0000 0.0000 0.0000
# 4 0.0000 0.0000 0.0000 32.2666 0.0000 0.0000
# 5 0.0000 0.0000 0.0000 0.0000 33.6083 0.0000
# 6 0.0000 0.0000 0.0000 0.0000 0.0000 17.1708
#
#
#
# Elastic Compliance Matrix: (Units=1/GPa)
#
#
# Indices 1 2 3 4 5 6 
#
# 1 0.023020 -0.006842 -0.003819 0.000000 0.000000 0.000000
# 2 -0.006842 0.011705 -0.002407 0.000000 0.000000 0.000000
# 3 -0.003819 -0.002407 0.015391 0.000000 0.000000 0.000000
# 4 0.000000 0.000000 0.000000 0.030992 0.000000 0.000000
# 5 0.000000 0.000000 0.000000 0.000000 0.029755 0.000000
# 6 0.000000 0.000000 0.000000 0.000000 0.000000 0.058238
#
#
# Mechanical properties :
#
#
# Convention : Reuss Voigt Hill
#
# Bulk Modulus (GPa) = 41.70117 46.38825 44.04471
# Shear Modulus (GPa) = 24.60276 27.27664 25.93970
#
# Velocity S-wave (km/s) = 3.24285 3.41452 3.32979
# Velocity P-wave (km/s) = 5.64322 5.94754 5.79738
#
# Compressibility (1/GPa) = 0.02398014
#
# Stress axis : x y z
#
# Youngs Moduli (GPa) = 43.44051 85.43351 64.97410
#
# Poissons Ratio (x) = 0.58456 0.24813
# Poissons Ratio (y) = 0.29723 0.15637
# Poissons Ratio (z) = 0.16589 0.20561
#
# Static dielectric constant tensor:
#      x y z
#    x 3.816430 0.000000 0.000000 
#    y 0.000000 4.705410 0.000000 
#    z 0.000000 0.000000 4.175990 
# 
# 
# High freq. dielectric constant tensor:
#      x y z
#    x 1.894800 0.000000 0.000000 
#    y 0.000000 1.948300 0.000000 
#    z 0.000000 0.000000 1.922350 
# 
# From -- ./inp_files/1851.got.cif
#   From: 2010.03.12/outbox.cif.g09.slc.cpg/sg29_1_cif.got.tgz:1851.got - 2010.04.14 03:43:10.
