data_PCOD8168126
_publ_section_title
;
Structure prediction by ZEFSAII (Michael W. Deem and Ramdas Pophale) SiO2 
 PCOD8168126
Probable space group: P M A 2
;
_chemical_formula_sum "Si O2"
_cell_formula_units_Z 32
_cell_length_a 8.956245
_cell_length_b 17.765000
_cell_length_c 11.463772
_cell_angle_alpha 90.000000
_cell_angle_beta 90.000000
_cell_angle_gamma 90.000000
_cell_volume 1823.974309
_symmetry_space_group_name_H-M "P M A 2"
_symmetry_group_IT_number 28
_symmetry_cell_setting 'orthorhombic'
loop_
_space_group_symop_operation_xyz
x,y,z
-x,-y,z
1/2-x,y,z
1/2+x,-y,z
loop_
_atom_site_type_symbol
_atom_site_label
_atom_site_fract_x
_atom_site_fract_y
_atom_site_fract_z
Si Si1 0.087235 0.198828 0.689430
Si Si2 0.074591 0.282873 0.471006
Si Si3 0.572016 0.422874 0.582051
Si Si4 0.070965 0.922774 0.125157
Si Si5 0.417062 0.360743 0.803466
Si Si6 0.583041 0.299960 0.007604
Si Si7 0.586952 0.139700 0.887466
Si Si8 0.575159 0.775950 0.214012
O O1 0.250000 0.163399 0.672234
O O2 0.018245 0.218124 0.562064
O O3 0.095110 0.275416 0.761795
O O4 0.998825 0.136411 0.764244
O O5 0.250000 0.299216 0.494876
O O6 0.043414 0.254865 0.342115
O O7 0.981791 0.358430 0.493256
O O8 0.500000 0.500000 0.535547
O O9 0.750000 0.427450 0.581818
O O10 0.514537 0.408804 0.713309
O O11 0.250000 0.923370 0.133691
O O12 0.008818 0.855463 0.204349
O O13 0.015552 0.910676 0.990972
O O14 0.000000 0.000000 0.172109
O O15 0.250000 0.395257 0.813927
O O16 0.498026 0.362566 0.929706
O O17 0.750000 0.328547 0.038922
O O18 0.489967 0.285721 0.125211
O O19 0.595770 0.224169 0.933938
O O20 0.750000 0.108079 0.859351
O O21 0.750000 0.787421 0.189021
#
# Coordination Sequence:
#
# PCOD8168126 Si02
#       8
#     4   4   4   4   4   4   4   4
#     4   8  14  25  43  66  91 118 149 189 232 277
#     4   9  19  34  50  72 101 133 173 214 250 298
#     4  11  21  33  51  74 101 132 166 208 258 308
#     4  10  20  33  49  71  99 128 163 208 257 311
#     4   9  16  28  46  69  96 124 156 193 239 292
#     4   9  16  27  44  69  98 124 156 197 240 287
#     4   8  15  26  41  64  92 118 146 186 234 286
#     4  10  19  32  51  73 100 135 173 213 256 301
#
# _framework density 17.544104999999998
#
# number of rings (size 3 to 8) (size 9 to 14) (size 15 to 20)
#    0.000    2.750    0.000    4.125    0.000    7.500 
#    0.000    0.000    0.000    1.500    0.000    3.500 
#    0.000    0.000    0.000    0.000    0.000    0.000 
#
# Total GULP energy -396607.068935 kJ/mol
# GULP energy per Si atom -12393.970904 kJ/mol
# Density = 1.750417 g / cm^3
# Si number density = 17.544105 Si / 1000 Ang^3
#
#
#
# Elastic Constant Matrix: (Units=GPa)
#
#
# Indices 1 2 3 4 5 6 
#
# 1 124.7867 43.7907 58.9763 0.0000 0.0000 0.0000
# 2 43.7907 59.9547 39.5338 0.0000 0.0000 0.0000
# 3 58.9763 39.5338 118.4995 0.0000 0.0000 0.0000
# 4 0.0000 0.0000 0.0000 13.3441 0.0000 0.0000
# 5 0.0000 0.0000 0.0000 0.0000 26.6248 0.0000
# 6 0.0000 0.0000 0.0000 0.0000 0.0000 18.7734
#
#
#
# Elastic Compliance Matrix: (Units=1/GPa)
#
#
# Indices 1 2 3 4 5 6 
#
# 1 0.012048 -0.006213 -0.003924 0.000000 0.000000 0.000000
# 2 -0.006213 0.024587 -0.005111 0.000000 0.000000 0.000000
# 3 -0.003924 -0.005111 0.012097 0.000000 0.000000 0.000000
# 4 0.000000 0.000000 0.000000 0.074939 0.000000 0.000000
# 5 0.000000 0.000000 0.000000 0.000000 0.037559 0.000000
# 6 0.000000 0.000000 0.000000 0.000000 0.000000 0.053267
#
#
# Mechanical properties :
#
#
# Convention : Reuss Voigt Hill
#
# Bulk Modulus (GPa) = 54.83132 65.31584 60.07358
# Shear Modulus (GPa) = 19.91474 22.47782 21.19628
#
# Velocity S-wave (km/s) = 3.37282 3.58329 3.47965
# Velocity P-wave (km/s) = 6.81829 7.37769 7.10350
#
# Compressibility (1/GPa) = 0.01823775
#
# Stress axis : x y z
#
# Youngs Moduli (GPa) = 82.99952 40.67189 82.66775
#
# Poissons Ratio (x) = 0.25269 0.32436
# Poissons Ratio (y) = 0.51566 0.42249
# Poissons Ratio (z) = 0.32566 0.20786
#
# Static dielectric constant tensor:
#      x y z
#    x 3.499050 0.000000 0.000000 
#    y 0.000000 2.950410 0.000000 
#    z 0.000000 0.000000 3.259650 
# 
# 
# High freq. dielectric constant tensor:
#      x y z
#    x 1.689640 0.000000 0.000000 
#    y 0.000000 1.635320 0.000000 
#    z 0.000000 0.000000 1.666920 
# 
# From -- ./inp_files/5205.got.cif
#   From: 2010.03.12/outbox.cif.g09.slc.cpg/sg28_3_cif.got.tgz:5205.got - 2010.04.14 03:39:34.
