data_PCOD8168120
_publ_section_title
;
Structure prediction by ZEFSAII (Michael W. Deem and Ramdas Pophale) SiO2 
 PCOD8168120
Probable space group: P M A 2
;
_chemical_formula_sum "Si O2"
_cell_formula_units_Z 32
_cell_length_a 9.025817
_cell_length_b 20.712607
_cell_length_c 9.605332
_cell_angle_alpha 90.000000
_cell_angle_beta 90.000000
_cell_angle_gamma 90.000000
_cell_volume 1795.699531
_symmetry_space_group_name_H-M "P M A 2"
_symmetry_group_IT_number 28
_symmetry_cell_setting 'orthorhombic'
loop_
_space_group_symop_operation_xyz
x,y,z
-x,-y,z
1/2-x,y,z
1/2+x,-y,z
loop_
_atom_site_type_symbol
_atom_site_label
_atom_site_fract_x
_atom_site_fract_y
_atom_site_fract_z
Si Si1 0.915772 0.937498 0.742640
Si Si2 0.081675 0.063220 0.411083
Si Si3 0.087979 0.439999 0.241208
Si Si4 0.916167 0.562159 0.911282
Si Si5 0.572378 0.701481 0.224127
Si Si6 0.576057 0.192791 0.411907
Si Si7 0.079811 0.810642 0.734812
Si Si8 0.575186 0.307126 0.932510
O O1 0.750000 0.939614 0.801198
O O2 0.918642 0.939424 0.576770
O O3 0.989630 0.871344 0.795451
O O4 0.000000 0.000000 0.803301
O O5 0.250000 0.066423 0.354364
O O6 0.989158 0.124851 0.358659
O O7 0.000000 0.000000 0.350445
O O8 0.250000 0.445165 0.307089
O O9 0.020325 0.369694 0.276989
O O10 0.000000 0.500000 0.307674
O O11 0.094248 0.446315 0.075831
O O12 0.750000 0.566868 0.848586
O O13 0.000000 0.500000 0.846409
O O14 0.007646 0.626384 0.873891
O O15 0.750000 0.704634 0.210203
O O16 0.512128 0.751422 0.334855
O O17 0.501187 0.715814 0.074633
O O18 0.750000 0.195746 0.377337
O O19 0.542574 0.202649 0.574242
O O20 0.250000 0.829580 0.752849
O O21 0.037757 0.746889 0.818894
O O22 0.750000 0.316000 0.956584
#
# Coordination Sequence:
#
# PCOD8168120 Si02
#       8
#     4   4   4   4   4   4   4   4
#     4   9  16  26  44  68  94 123 157 196 238 279
#     4   9  16  27  44  68  95 123 156 197 238 279
#     4   8  15  26  42  64  90 117 149 190 233 273
#     4   9  16  27  44  68  95 123 157 199 240 281
#     4  10  20  33  48  71 100 128 160 199 240 288
#     4  10  19  32  50  72  97 128 162 198 240 286
#     4   9  19  33  49  71  99 127 160 199 239 285
#     4  10  19  32  50  72  98 129 161 198 242 287
#
# _framework density 17.820353000000001
#
# number of rings (size 3 to 8) (size 9 to 14) (size 15 to 20)
#    0.000    2.750    0.000    3.000    0.000    8.000 
#    0.000    0.000    0.000    1.500    0.000    3.500 
#    0.000    0.000    0.000    0.000    0.000    0.000 
#
# Total GULP energy -396707.766017 kJ/mol
# GULP energy per Si atom -12397.117688 kJ/mol
# Density = 1.777979 g / cm^3
# Si number density = 17.820353 Si / 1000 Ang^3
#
#
#
# Elastic Constant Matrix: (Units=GPa)
#
#
# Indices 1 2 3 4 5 6 
#
# 1 129.1140 87.1013 32.2624 0.0000 0.0000 0.0000
# 2 87.1013 176.6168 45.6827 0.0000 0.0000 0.0000
# 3 32.2624 45.6827 31.4539 0.0000 0.0000 0.0000
# 4 0.0000 0.0000 0.0000 21.6614 0.0000 0.0000
# 5 0.0000 0.0000 0.0000 0.0000 12.4281 0.0000
# 6 0.0000 0.0000 0.0000 0.0000 0.0000 40.0782
#
#
#
# Elastic Compliance Matrix: (Units=1/GPa)
#
#
# Indices 1 2 3 4 5 6 
#
# 1 0.012295 -0.004487 -0.006094 0.000000 0.000000 0.000000
# 2 -0.004487 0.010706 -0.010947 0.000000 0.000000 0.000000
# 3 -0.006094 -0.010947 0.053942 0.000000 0.000000 0.000000
# 4 0.000000 0.000000 0.000000 0.046165 0.000000 0.000000
# 5 0.000000 0.000000 0.000000 0.000000 0.080463 0.000000
# 6 0.000000 0.000000 0.000000 0.000000 0.000000 0.024951
#
#
# Mechanical properties :
#
#
# Convention : Reuss Voigt Hill
#
# Bulk Modulus (GPa) = 29.50966 74.14194 51.82580
# Shear Modulus (GPa) = 17.67568 26.30942 21.99255
#
# Velocity S-wave (km/s) = 3.15283 3.84652 3.51682
# Velocity P-wave (km/s) = 5.46345 7.83729 6.75546
#
# Compressibility (1/GPa) = 0.03388721
#
# Stress axis : x y z
#
# Youngs Moduli (GPa) = 81.33448 93.40170 18.53837
#
# Poissons Ratio (x) = 0.41912 0.11297
# Poissons Ratio (y) = 0.36497 0.20294
# Poissons Ratio (z) = 0.49564 1.02248
#
# Static dielectric constant tensor:
#      x y z
#    x 3.550630 0.000000 0.000000 
#    y 0.000000 3.556750 0.000000 
#    z 0.000000 0.000000 2.748050 
# 
# 
# High freq. dielectric constant tensor:
#      x y z
#    x 1.705620 0.000000 0.000000 
#    y 0.000000 1.708870 0.000000 
#    z 0.000000 0.000000 1.621920 
# 
# From -- ./inp_files/5209.got.cif
#   From: 2010.03.12/outbox.cif.g09.slc.cpg/sg28_3_cif.got.tgz:5209.got - 2010.04.14 03:39:34.
