data_PCOD8168952
_publ_section_title
;
Structure prediction by ZEFSAII (Michael W. Deem and Ramdas Pophale) SiO2 
 PCOD8168952
Probable space group: P C A 21
;
_chemical_formula_sum "Si O2"
_cell_formula_units_Z 20
_cell_length_a 18.169967
_cell_length_b 6.846370
_cell_length_c 6.537304
_cell_angle_alpha 90.000000
_cell_angle_beta 90.000000
_cell_angle_gamma 90.000000
_cell_volume 813.229615
_symmetry_space_group_name_H-M "P C A 21"
_symmetry_group_IT_number 29
_symmetry_cell_setting 'orthorhombic'
loop_
_space_group_symop_operation_xyz
x,y,z
-x,-y,1/2+z
1/2-x,y,1/2+z
1/2+x,-y,z
loop_
_atom_site_type_symbol
_atom_site_label
_atom_site_fract_x
_atom_site_fract_y
_atom_site_fract_z
Si Si1 0.405711 0.093236 0.942850
Si Si2 0.354383 0.387228 0.254745
Si Si3 0.078941 0.662960 0.353632
Si Si4 0.463736 0.653221 0.401452
Si Si5 0.314017 0.358504 0.711259
O O1 0.479693 0.176937 0.828969
O O2 0.332437 0.147297 0.810390
O O3 0.409054 0.863134 0.978169
O O4 0.398516 0.202953 0.161843
O O5 0.400529 0.594821 0.228550
O O6 0.355582 0.362616 0.497607
O O7 0.271428 0.397006 0.170133
O O8 0.007392 0.551089 0.438281
O O9 0.072528 0.720807 0.114096
O O10 0.149934 0.516109 0.371625
#
# Coordination Sequence:
#
# PCOD8168952 Si02
#       5
#     4   4   4   4   4
#     4  11  23  45  67 102 138 180 242 288 342 424
#     4  11  21  45  70  97 141 187 224 299 350 423
#     4  10  23  44  67 102 133 182 236 284 350 413
#     4  10  22  44  67  96 141 184 230 293 351 410
#     4  10  23  44  67  95 143 181 234 284 361 408
#
# _framework density 24.593301
#
# number of rings (size 3 to 8) (size 9 to 14) (size 15 to 20)
#    0.000    1.600    4.000    0.000    0.000    4.800 
#   10.800    2.000    0.000    0.000    0.000    0.000 
#    0.000    0.000    0.000    0.000    0.000    0.000 
#
# Total GULP energy -247938.790516 kJ/mol
# GULP energy per Si atom -12396.939526 kJ/mol
# Density = 2.453733 g / cm^3
# Si number density = 24.593301 Si / 1000 Ang^3
#
#
#
# Elastic Constant Matrix: (Units=GPa)
#
#
# Indices 1 2 3 4 5 6 
#
# 1 119.0808 46.3468 10.3122 0.0000 0.0000 0.0000
# 2 46.3468 164.0008 26.1317 0.0000 0.0000 0.0000
# 3 10.3122 26.1317 33.4231 0.0000 0.0000 0.0000
# 4 0.0000 0.0000 0.0000 35.7854 0.0000 0.0000
# 5 0.0000 0.0000 0.0000 0.0000 48.8221 0.0000
# 6 0.0000 0.0000 0.0000 0.0000 0.0000 17.0973
#
#
#
# Elastic Compliance Matrix: (Units=1/GPa)
#
#
# Indices 1 2 3 4 5 6 
#
# 1 0.009462 -0.002523 -0.000947 0.000000 0.000000 0.000000
# 2 -0.002523 0.007638 -0.005193 0.000000 0.000000 0.000000
# 3 -0.000947 -0.005193 0.034272 0.000000 0.000000 0.000000
# 4 0.000000 0.000000 0.000000 0.027944 0.000000 0.000000
# 5 0.000000 0.000000 0.000000 0.000000 0.020483 0.000000
# 6 0.000000 0.000000 0.000000 0.000000 0.000000 0.058489
#
#
# Mechanical properties :
#
#
# Convention : Reuss Voigt Hill
#
# Bulk Modulus (GPa) = 29.37240 53.56511 41.46876
# Shear Modulus (GPa) = 26.74347 35.92191 31.33269
#
# Velocity S-wave (km/s) = 3.30120 3.82598 3.57323
# Velocity P-wave (km/s) = 5.14779 6.43002 5.82429
#
# Compressibility (1/GPa) = 0.03404556
#
# Stress axis : x y z
#
# Youngs Moduli (GPa) = 105.69024 130.92360 29.17847
#
# Poissons Ratio (x) = 0.33032 0.02762
# Poissons Ratio (y) = 0.26666 0.15153
# Poissons Ratio (z) = 0.10005 0.67993
#
# Static dielectric constant tensor:
#      x y z
#    x 4.499760 0.000000 0.000000 
#    y 0.000000 3.948660 0.000000 
#    z 0.000000 0.000000 4.642280 
# 
# 
# High freq. dielectric constant tensor:
#      x y z
#    x 1.978500 0.000000 0.000000 
#    y 0.000000 1.941640 0.000000 
#    z 0.000000 0.000000 2.014850 
# 
# From -- ./inp_files/1974.got.cif
#   From: 2010.03.12/outbox.cif.g09.slc.cpg/sg29_1_cif.got.tgz:1974.got - 2010.04.14 03:43:10.
