data_PCOD8168652
_publ_section_title
;
Structure prediction by ZEFSAII (Michael W. Deem and Ramdas Pophale) SiO2 
 PCOD8168652
Probable space group: P C A 21
;
_chemical_formula_sum "Si O2"
_cell_formula_units_Z 28
_cell_length_a 17.131161
_cell_length_b 6.303640
_cell_length_c 11.597079
_cell_angle_alpha 90.000000
_cell_angle_beta 90.000000
_cell_angle_gamma 90.000000
_cell_volume 1252.353157
_symmetry_space_group_name_H-M "P C A 21"
_symmetry_group_IT_number 29
_symmetry_cell_setting 'orthorhombic'
loop_
_space_group_symop_operation_xyz
x,y,z
-x,-y,1/2+z
1/2-x,y,1/2+z
1/2+x,-y,z
loop_
_atom_site_type_symbol
_atom_site_label
_atom_site_fract_x
_atom_site_fract_y
_atom_site_fract_z
Si Si1 0.630895 0.180839 0.404530
Si Si2 0.634092 0.294018 0.989831
Si Si3 0.347948 0.428813 0.059359
Si Si4 0.801138 0.576390 0.302970
Si Si5 0.374073 0.476729 0.726740
Si Si6 0.534500 0.791600 0.401941
Si Si7 0.768848 0.908728 0.462938
O O1 0.658619 0.334031 0.508730
O O2 0.609154 0.302045 0.288685
O O3 0.553340 0.039144 0.424162
O O4 0.701545 0.018624 0.388010
O O5 0.692737 0.384099 0.893142
O O6 0.556701 0.242013 0.918423
O O7 0.677128 0.076537 0.034695
O O8 0.618873 0.468659 0.090501
O O9 0.359305 0.454221 0.196075
O O10 0.425641 0.334957 0.005988
O O11 0.271845 0.277003 0.040005
O O12 0.712329 0.595073 0.260600
O O13 0.824204 0.793298 0.369069
O O14 0.434930 0.299217 0.776660
#
# Coordination Sequence:
#
# PCOD8168652 Si02
#       7
#     4   4   4   4   4   4   4
#     4  10  19  45  67  95 133 184 228 281 357 414
#     4  12  28  42  71 111 139 186 237 292 358 424
#     4  10  23  42  72  93 139 182 230 294 349 417
#     4  12  23  42  71 105 134 183 233 297 344 424
#     4  11  23  44  71  98 145 185 232 295 350 417
#     4  10  25  47  66 102 140 189 230 291 366 416
#     4  11  21  40  66 108 132 175 238 280 352 422
#
# _framework density 22.357913
#
# number of rings (size 3 to 8) (size 9 to 14) (size 15 to 20)
#    0.000    1.143    5.714    1.714    4.000    5.714 
#    2.571    0.000    0.000    0.000    0.000    0.000 
#    0.000    0.000    0.000    0.000    0.000    0.000 
#
# Total GULP energy -346893.544125 kJ/mol
# GULP energy per Si atom -12389.055147 kJ/mol
# Density = 2.230703 g / cm^3
# Si number density = 22.357913 Si / 1000 Ang^3
#
#
#
# Elastic Constant Matrix: (Units=GPa)
#
#
# Indices 1 2 3 4 5 6 
#
# 1 76.3306 21.3520 12.0829 0.0000 0.0000 0.0000
# 2 21.3520 116.7000 37.8346 0.0000 0.0000 0.0000
# 3 12.0829 37.8346 112.1388 0.0000 0.0000 0.0000
# 4 0.0000 0.0000 0.0000 22.6153 0.0000 0.0000
# 5 0.0000 0.0000 0.0000 0.0000 24.7315 0.0000
# 6 0.0000 0.0000 0.0000 0.0000 0.0000 17.9443
#
#
#
# Elastic Compliance Matrix: (Units=1/GPa)
#
#
# Indices 1 2 3 4 5 6 
#
# 1 0.013859 -0.002303 -0.000716 0.000000 0.000000 0.000000
# 2 -0.002303 0.010004 -0.003127 0.000000 0.000000 0.000000
# 3 -0.000716 -0.003127 0.010050 0.000000 0.000000 0.000000
# 4 0.000000 0.000000 0.000000 0.044218 0.000000 0.000000
# 5 0.000000 0.000000 0.000000 0.000000 0.040434 0.000000
# 6 0.000000 0.000000 0.000000 0.000000 0.000000 0.055728
#
#
# Mechanical properties :
#
#
# Convention : Reuss Voigt Hill
#
# Bulk Modulus (GPa) = 46.25520 49.74540 48.00030
# Shear Modulus (GPa) = 25.80078 28.65155 27.22616
#
# Velocity S-wave (km/s) = 3.40073 3.58368 3.49340
# Velocity P-wave (km/s) = 6.01277 6.27866 6.14715
#
# Compressibility (1/GPa) = 0.02161919
#
# Stress axis : x y z
#
# Youngs Moduli (GPa) = 72.15732 99.95734 99.50499
#
# Poissons Ratio (x) = 0.23025 0.07125
# Poissons Ratio (y) = 0.16621 0.31117
# Poissons Ratio (z) = 0.05167 0.31258
#
# Static dielectric constant tensor:
#      x y z
#    x 3.759350 0.000000 0.000000 
#    y 0.000000 4.364570 0.000000 
#    z 0.000000 0.000000 4.017390 
# 
# 
# High freq. dielectric constant tensor:
#      x y z
#    x 1.862510 0.000000 0.000000 
#    y 0.000000 1.895960 0.000000 
#    z 0.000000 0.000000 1.863840 
# 
# From -- ./inp_files/3590.got.cif
#   From: 2010.03.12/outbox.cif.g09.slc.cpg/sg29_2_cif.got.tgz:3590.got - 2010.04.14 03:43:10.
