data_PCOD8168708
_publ_section_title
;
Structure prediction by ZEFSAII (Michael W. Deem and Ramdas Pophale) SiO2 
 PCOD8168708
Probable space group: P C A 21
;
_chemical_formula_sum "Si O2"
_cell_formula_units_Z 28
_cell_length_a 15.838759
_cell_length_b 16.823036
_cell_length_c 5.083269
_cell_angle_alpha 90.000000
_cell_angle_beta 90.000000
_cell_angle_gamma 90.000000
_cell_volume 1354.467590
_symmetry_space_group_name_H-M "P C A 21"
_symmetry_group_IT_number 29
_symmetry_cell_setting 'orthorhombic'
loop_
_space_group_symop_operation_xyz
x,y,z
-x,-y,1/2+z
1/2-x,y,1/2+z
1/2+x,-y,z
loop_
_atom_site_type_symbol
_atom_site_label
_atom_site_fract_x
_atom_site_fract_y
_atom_site_fract_z
Si Si1 0.809640 0.570546 0.197870
Si Si2 0.292956 0.766402 0.265860
Si Si3 0.711662 0.051659 0.830295
Si Si4 0.009989 0.773944 0.814839
Si Si5 0.977637 0.045010 0.328160
Si Si6 0.541263 0.468575 0.557840
Si Si7 0.537922 0.682646 0.833233
O O1 0.751489 0.574683 0.451487
O O2 0.875399 0.643235 0.231523
O O3 0.864474 0.489486 0.161226
O O4 0.256703 0.723705 0.526637
O O5 0.261656 0.857342 0.279712
O O6 0.393313 0.760343 0.228245
O O7 0.730094 0.009132 0.551634
O O8 0.617237 0.045903 0.933365
O O9 0.984941 0.866422 0.833532
O O10 0.948464 0.737634 0.590618
O O11 0.998620 0.734695 0.097997
O O12 0.026057 0.988531 0.531768
O O13 0.482470 0.469812 0.821124
O O14 0.531590 0.382692 0.423707
#
# Coordination Sequence:
#
# PCOD8168708 Si02
#       7
#     4   4   4   4   4   4   4
#     4  11  22  39  64  91 119 161 205 242 284 346
#     4   9  17  31  50  76 107 141 183 230 282 352
#     4   9  17  31  53  76 101 135 180 232 291 354
#     4  11  22  37  59  86 119 162 200 246 309 361
#     4  11  22  37  59  85 115 153 205 258 302 362
#     4  10  20  38  61  87 117 151 193 241 290 349
#     4  11  22  39  62  87 120 159 200 245 298 358
#
# _framework density 20.672328
#
# number of rings (size 3 to 8) (size 9 to 14) (size 15 to 20)
#    0.000    1.714    0.000    6.857    0.000    4.571 
#    0.000    4.286    0.000   17.143    0.000    0.000 
#    0.000    0.000    0.000    0.000    0.000    0.000 
#
# Total GULP energy -346969.237349 kJ/mol
# GULP energy per Si atom -12391.758477 kJ/mol
# Density = 2.062528 g / cm^3
# Si number density = 20.672328 Si / 1000 Ang^3
#
#
#
# Elastic Constant Matrix: (Units=GPa)
#
#
# Indices 1 2 3 4 5 6 
#
# 1 78.8165 38.4230 48.0014 0.0000 0.0000 0.0000
# 2 38.4230 103.6177 46.4352 0.0000 0.0000 0.0000
# 3 48.0014 46.4352 175.6349 0.0000 0.0000 0.0000
# 4 0.0000 0.0000 0.0000 32.2103 0.0000 0.0000
# 5 0.0000 0.0000 0.0000 0.0000 42.6135 0.0000
# 6 0.0000 0.0000 0.0000 0.0000 0.0000 20.0276
#
#
#
# Elastic Compliance Matrix: (Units=1/GPa)
#
#
# Indices 1 2 3 4 5 6 
#
# 1 0.017109 -0.004820 -0.003402 0.000000 0.000000 0.000000
# 2 -0.004820 0.012306 -0.001936 0.000000 0.000000 0.000000
# 3 -0.003402 -0.001936 0.007135 0.000000 0.000000 0.000000
# 4 0.000000 0.000000 0.000000 0.031046 0.000000 0.000000
# 5 0.000000 0.000000 0.000000 0.000000 0.023467 0.000000
# 6 0.000000 0.000000 0.000000 0.000000 0.000000 0.049931
#
#
# Mechanical properties :
#
#
# Convention : Reuss Voigt Hill
#
# Bulk Modulus (GPa) = 61.59659 69.30983 65.45321
# Shear Modulus (GPa) = 29.99024 33.98425 31.98725
#
# Velocity S-wave (km/s) = 3.81299 4.05896 3.93790
# Velocity P-wave (km/s) = 7.01759 7.45436 7.23927
#
# Compressibility (1/GPa) = 0.01623467
#
# Stress axis : x y z
#
# Youngs Moduli (GPa) = 58.44844 81.26222 140.15012
#
# Poissons Ratio (x) = 0.39168 0.47674
# Poissons Ratio (y) = 0.28172 0.27136
# Poissons Ratio (z) = 0.19882 0.15734
#
# Static dielectric constant tensor:
#      x y z
#    x 3.582340 0.000000 0.000000 
#    y 0.000000 3.550640 0.000000 
#    z 0.000000 0.000000 4.230970 
# 
# 
# High freq. dielectric constant tensor:
#      x y z
#    x 1.794180 0.000000 0.000000 
#    y 0.000000 1.773440 0.000000 
#    z 0.000000 0.000000 1.844420 
# 
# From -- ./inp_files/245.got.cif
#   From: 2010.03.12/outbox.cif.g09.slc.cpg/sg29_1_cif.got.tgz:245.got - 2010.04.14 03:43:10.
