data_PCOD8168580
_publ_section_title
;
Structure prediction by ZEFSAII (Michael W. Deem and Ramdas Pophale) SiO2 
 PCOD8168580
Probable space group: P C A 21
;
_chemical_formula_sum "Si O2"
_cell_formula_units_Z 24
_cell_length_a 21.903280
_cell_length_b 10.183583
_cell_length_c 5.312450
_cell_angle_alpha 90.000000
_cell_angle_beta 90.000000
_cell_angle_gamma 90.000000
_cell_volume 1184.962531
_symmetry_space_group_name_H-M "P C A 21"
_symmetry_group_IT_number 29
_symmetry_cell_setting 'orthorhombic'
loop_
_space_group_symop_operation_xyz
x,y,z
-x,-y,1/2+z
1/2-x,y,1/2+z
1/2+x,-y,z
loop_
_atom_site_type_symbol
_atom_site_label
_atom_site_fract_x
_atom_site_fract_y
_atom_site_fract_z
Si Si1 0.412341 0.514169 0.202900
Si Si2 0.994478 0.687881 0.982675
Si Si3 0.011975 0.923212 0.678225
Si Si4 0.721387 0.475726 0.833065
Si Si5 0.727999 0.184334 0.281032
Si Si6 0.593280 0.239675 0.371622
O O1 0.466971 0.566110 0.376008
O O2 0.432985 0.371629 0.101340
O O3 0.350778 0.498688 0.363361
O O4 0.398304 0.613650 0.975579
O O5 0.036587 0.766715 0.180169
O O6 0.974114 0.793331 0.768898
O O7 0.078450 0.866468 0.592899
O O8 0.980478 0.985082 0.427420
O O9 0.746707 0.541655 0.576502
O O10 0.735640 0.320776 0.827267
O O11 0.742751 0.107533 0.542430
O O12 0.655898 0.200628 0.235813
#
# Coordination Sequence:
#
# PCOD8168580 Si02
#       6
#     4   4   4   4   4   4
#     4  11  21  32  55  91 130 154 188 239 317 372
#     4  11  22  35  58  91 124 164 189 250 306 380
#     4  11  24  43  59  81 115 158 216 248 297 355
#     4  10  19  33  50  75 122 158 194 226 279 377
#     4  10  19  31  51  81 118 152 191 230 298 365
#     4  11  21  36  59  85 127 156 192 255 301 371
#
# _framework density 20.253803000000001
#
# number of rings (size 3 to 8) (size 9 to 14) (size 15 to 20)
#    0.000    1.333    6.667    2.000    2.333    0.000 
#    0.000    0.000    0.000    0.000    0.000    7.000 
#    0.000    0.000    0.000    0.000    0.000    0.000 
#
# Total GULP energy -297385.635742 kJ/mol
# GULP energy per Si atom -12391.068156 kJ/mol
# Density = 2.020770 g / cm^3
# Si number density = 20.253803 Si / 1000 Ang^3
#
#
#
# Elastic Constant Matrix: (Units=GPa)
#
#
# Indices 1 2 3 4 5 6 
#
# 1 73.2009 35.9236 19.8149 0.0000 0.0000 0.0000
# 2 35.9236 65.3607 30.0134 0.0000 0.0000 0.0000
# 3 19.8149 30.0134 136.1418 0.0000 0.0000 0.0000
# 4 0.0000 0.0000 0.0000 28.0564 0.0000 0.0000
# 5 0.0000 0.0000 0.0000 0.0000 27.6844 0.0000
# 6 0.0000 0.0000 0.0000 0.0000 0.0000 10.8601
#
#
#
# Elastic Compliance Matrix: (Units=1/GPa)
#
#
# Indices 1 2 3 4 5 6 
#
# 1 0.018738 -0.010066 -0.000508 0.000000 0.000000 0.000000
# 2 -0.010066 0.022430 -0.003480 0.000000 0.000000 0.000000
# 3 -0.000508 -0.003480 0.008186 0.000000 0.000000 0.000000
# 4 0.000000 0.000000 0.000000 0.035643 0.000000 0.000000
# 5 0.000000 0.000000 0.000000 0.000000 0.036121 0.000000
# 6 0.000000 0.000000 0.000000 0.000000 0.000000 0.092080
#
#
# Mechanical properties :
#
#
# Convention : Reuss Voigt Hill
#
# Bulk Modulus (GPa) = 47.06481 49.57858 48.32169
# Shear Modulus (GPa) = 20.12975 25.91694 23.02334
#
# Velocity S-wave (km/s) = 3.15600 3.58104 3.37522
# Velocity P-wave (km/s) = 6.04718 6.45215 6.25295
#
# Compressibility (1/GPa) = 0.02124730
#
# Stress axis : x y z
#
# Youngs Moduli (GPa) = 53.36645 44.58333 122.15366
#
# Poissons Ratio (x) = 0.44876 0.06209
# Poissons Ratio (y) = 0.53717 0.42507
# Poissons Ratio (z) = 0.02712 0.15514
#
# Static dielectric constant tensor:
#      x y z
#    x 3.481960 0.000000 0.000000 
#    y 0.000000 3.298050 0.000000 
#    z 0.000000 0.000000 4.839390 
# 
# 
# High freq. dielectric constant tensor:
#      x y z
#    x 1.771150 0.000000 0.000000 
#    y 0.000000 1.725180 0.000000 
#    z 0.000000 0.000000 1.823030 
# 
# From -- ./inp_files/511.got.cif
#   From: 2010.03.12/outbox.cif.g09.slc.cpg/sg29_1_cif.got.tgz:511.got - 2010.04.14 03:43:10.
