data_PCOD8168279
_publ_section_title
;
Structure prediction by ZEFSAII (Michael W. Deem and Ramdas Pophale) SiO2 
 PCOD8168279
Probable space group: P M A 2
;
_chemical_formula_sum "Si O2"
_cell_formula_units_Z 24
_cell_length_a 9.366580
_cell_length_b 16.205089
_cell_length_c 9.039189
_cell_angle_alpha 90.000000
_cell_angle_beta 90.000000
_cell_angle_gamma 90.000000
_cell_volume 1372.024715
_symmetry_space_group_name_H-M "P M A 2"
_symmetry_group_IT_number 28
_symmetry_cell_setting 'orthorhombic'
loop_
_space_group_symop_operation_xyz
x,y,z
-x,-y,z
1/2-x,y,z
1/2+x,-y,z
loop_
_atom_site_type_symbol
_atom_site_label
_atom_site_fract_x
_atom_site_fract_y
_atom_site_fract_z
Si Si1 0.592674 0.840451 0.516110
Si Si2 0.415445 0.757190 0.095973
Si Si3 0.582225 0.581399 0.614968
Si Si4 0.916924 0.741840 0.796209
Si Si5 0.408017 0.325833 0.331534
Si Si6 0.584679 0.078351 0.280296
O O1 0.750000 0.882503 0.514444
O O2 0.548449 0.816594 0.682980
O O3 0.601712 0.757225 0.423959
O O4 0.477320 0.901543 0.443728
O O5 0.250000 0.736735 0.076769
O O6 0.482627 0.684152 0.195945
O O7 0.440558 0.845891 0.170067
O O8 0.489788 0.759070 0.938803
O O9 0.500000 0.500000 0.666073
O O10 0.750000 0.565428 0.624846
O O11 0.537242 0.654585 0.725653
O O12 0.539184 0.603579 0.445378
O O13 0.750000 0.741405 0.837321
O O14 0.250000 0.347010 0.268736
O O15 0.750000 0.056264 0.296882
O O16 0.500000 0.000000 0.214172
#
# Coordination Sequence:
#
# PCOD8168279 Si02
#       6
#     4   4   4   4   4   4
#     4   8  15  30  51  71  91 121 160 196 234 283
#     4  10  20  32  49  75 101 127 164 205 242 284
#     4   9  18  32  51  75  99 126 163 204 246 292
#     4   9  18  33  52  73  99 132 165 196 240 298
#     4   8  15  30  50  69  92 124 160 195 235 288
#     4  10  20  33  50  73  99 126 160 202 245 289
#
# _framework density 17.492397
#
# number of rings (size 3 to 8) (size 9 to 14) (size 15 to 20)
#    0.000    3.000    0.000    3.000    0.000    4.000 
#    0.000    5.000    0.000    2.000    0.000    0.000 
#    0.000    0.000    0.000    0.000    0.000    0.000 
#
# Total GULP energy -297507.655028 kJ/mol
# GULP energy per Si atom -12396.152293 kJ/mol
# Density = 1.745258 g / cm^3
# Si number density = 17.492397 Si / 1000 Ang^3
#
#
#
# Elastic Constant Matrix: (Units=GPa)
#
#
# Indices 1 2 3 4 5 6 
#
# 1 112.3417 46.4846 71.5300 0.0000 0.0000 0.0000
# 2 46.4846 65.2253 28.6645 0.0000 0.0000 0.0000
# 3 71.5300 28.6645 118.6611 0.0000 0.0000 0.0000
# 4 0.0000 0.0000 0.0000 15.8169 0.0000 0.0000
# 5 0.0000 0.0000 0.0000 0.0000 28.6807 0.0000
# 6 0.0000 0.0000 0.0000 0.0000 0.0000 28.3038
#
#
#
# Elastic Compliance Matrix: (Units=1/GPa)
#
#
# Indices 1 2 3 4 5 6 
#
# 1 0.018318 -0.009176 -0.008825 0.000000 0.000000 0.000000
# 2 -0.009176 0.021749 0.000278 0.000000 0.000000 0.000000
# 3 -0.008825 0.000278 0.013680 0.000000 0.000000 0.000000
# 4 0.000000 0.000000 0.000000 0.063223 0.000000 0.000000
# 5 0.000000 0.000000 0.000000 0.000000 0.034867 0.000000
# 6 0.000000 0.000000 0.000000 0.000000 0.000000 0.035331
#
#
# Mechanical properties :
#
#
# Convention : Reuss Voigt Hill
#
# Bulk Modulus (GPa) = 54.64704 65.50957 60.07830
# Shear Modulus (GPa) = 21.86125 24.53022 23.19573
#
# Velocity S-wave (km/s) = 3.53903 3.74884 3.64544
# Velocity P-wave (km/s) = 6.92877 7.50133 7.22073
#
# Compressibility (1/GPa) = 0.01829925
#
# Stress axis : x y z
#
# Youngs Moduli (GPa) = 54.59259 45.97909 73.09767
#
# Poissons Ratio (x) = 0.42190 0.64511
# Poissons Ratio (y) = 0.50094 -0.02029
# Poissons Ratio (z) = 0.48180 -0.01276
#
# Static dielectric constant tensor:
#      x y z
#    x 3.336790 0.000000 0.000000 
#    y 0.000000 3.168040 0.000000 
#    z 0.000000 0.000000 3.232680 
# 
# 
# High freq. dielectric constant tensor:
#      x y z
#    x 1.678290 0.000000 0.000000 
#    y 0.000000 1.656660 0.000000 
#    z 0.000000 0.000000 1.665880 
# 
# From -- ./inp_files/2550.got.cif
#   From: 2010.03.12/outbox.cif.g09.slc.cpg/sg28_2_cif.got.tgz:2550.got - 2010.04.14 03:39:34.
