data_PCOD8168798
_publ_section_title
;
Structure prediction by ZEFSAII (Michael W. Deem and Ramdas Pophale) SiO2 
 PCOD8168798
Probable space group: P C A 21
;
_chemical_formula_sum "Si O2"
_cell_formula_units_Z 28
_cell_length_a 25.216463
_cell_length_b 5.942221
_cell_length_c 8.844953
_cell_angle_alpha 90.000000
_cell_angle_beta 90.000000
_cell_angle_gamma 90.000000
_cell_volume 1325.343643
_symmetry_space_group_name_H-M "P C A 21"
_symmetry_group_IT_number 29
_symmetry_cell_setting 'orthorhombic'
loop_
_space_group_symop_operation_xyz
x,y,z
-x,-y,1/2+z
1/2-x,y,1/2+z
1/2+x,-y,z
loop_
_atom_site_type_symbol
_atom_site_label
_atom_site_fract_x
_atom_site_fract_y
_atom_site_fract_z
Si Si1 0.906398 0.615514 0.589880
Si Si2 0.206698 0.304227 0.187784
Si Si3 0.293106 0.697281 0.176587
Si Si4 0.906187 0.384973 0.274161
Si Si5 0.463197 0.999762 0.431694
Si Si6 0.500117 0.683023 0.681674
Si Si7 0.750814 0.999128 0.432258
O O1 0.853075 0.606362 0.688321
O O2 0.893348 0.500073 0.432142
O O3 0.948826 0.476138 0.687171
O O4 0.927305 0.867198 0.554255
O O5 0.249705 0.501496 0.181720
O O6 0.213192 0.171633 0.343508
O O7 0.211715 0.137468 0.045640
O O8 0.352713 0.605932 0.176377
O O9 0.288189 0.863597 0.318991
O O10 0.287007 0.830935 0.021104
O O11 0.927203 0.133322 0.309390
O O12 0.948429 0.524767 0.176458
O O13 0.500053 0.830123 0.527810
O O14 0.499969 0.169405 0.335339
#
# Coordination Sequence:
#
# PCOD8168798 Si02
#       7
#     4   4   4   4   4   4   4
#     4  10  21  39  64  88 118 163 204 246 304 359
#     4  11  22  42  63  90 126 159 202 252 299 361
#     4  11  22  42  63  90 126 159 202 252 299 361
#     4  10  21  39  64  88 118 163 204 246 304 359
#     4  10  21  42  63  86 122 160 200 254 302 360
#     4  10  22  40  64  92 118 160 208 246 304 362
#     4  10  23  38  63  94 120 162 204 242 308 362
#
# _framework density 21.126594000000001
#
# number of rings (size 3 to 8) (size 9 to 14) (size 15 to 20)
#    0.000    1.714    0.000    4.286    0.000    6.857 
#    0.000   27.143    0.000    0.000    0.000    0.000 
#    0.000    0.000    0.000    0.000    0.000    0.000 
#
# Total GULP energy -347297.438957 kJ/mol
# GULP energy per Si atom -12403.479963 kJ/mol
# Density = 2.107851 g / cm^3
# Si number density = 21.126594 Si / 1000 Ang^3
#
#
#
# Elastic Constant Matrix: (Units=GPa)
#
#
# Indices 1 2 3 4 5 6 
#
# 1 177.7350 70.8174 53.2722 0.0000 0.0000 0.0000
# 2 70.8174 126.7277 36.5980 0.0000 0.0000 0.0000
# 3 53.2722 36.5980 81.4177 0.0000 0.0000 0.0000
# 4 0.0000 0.0000 0.0000 24.1154 0.0000 0.0000
# 5 0.0000 0.0000 0.0000 0.0000 31.8021 0.0000
# 6 0.0000 0.0000 0.0000 0.0000 0.0000 25.4440
#
#
#
# Elastic Compliance Matrix: (Units=1/GPa)
#
#
# Indices 1 2 3 4 5 6 
#
# 1 0.008133 -0.003457 -0.003768 0.000000 0.000000 0.000000
# 2 -0.003457 0.010537 -0.002475 0.000000 0.000000 0.000000
# 3 -0.003768 -0.002475 0.015860 0.000000 0.000000 0.000000
# 4 0.000000 0.000000 0.000000 0.041467 0.000000 0.000000
# 5 0.000000 0.000000 0.000000 0.000000 0.031444 0.000000
# 6 0.000000 0.000000 0.000000 0.000000 0.000000 0.039302
#
#
# Mechanical properties :
#
#
# Convention : Reuss Voigt Hill
#
# Bulk Modulus (GPa) = 66.08581 78.58396 72.33488
# Shear Modulus (GPa) = 29.20793 31.28514 30.24654
#
# Velocity S-wave (km/s) = 3.72226 3.85235 3.78786
# Velocity P-wave (km/s) = 7.05850 7.55413 7.31051
#
# Compressibility (1/GPa) = 0.01513184
#
# Stress axis : x y z
#
# Youngs Moduli (GPa) = 122.95695 94.90062 63.05178
#
# Poissons Ratio (x) = 0.32805 0.23755
# Poissons Ratio (y) = 0.42503 0.15604
# Poissons Ratio (z) = 0.46325 0.23487
#
# Static dielectric constant tensor:
#      x y z
#    x 3.616170 0.000000 0.000000 
#    y 0.000000 4.188400 0.000000 
#    z 0.000000 0.000000 4.225040 
# 
# 
# High freq. dielectric constant tensor:
#      x y z
#    x 1.817330 0.000000 0.000000 
#    y 0.000000 1.847650 0.000000 
#    z 0.000000 0.000000 1.825360 
# 
# From -- ./inp_files/2417.got.cif
#   From: 2010.03.12/outbox.cif.g09.slc.cpg/sg29_2_cif.got.tgz:2417.got - 2010.04.14 03:43:10.
