data_PCOD8168045
_publ_section_title
;
Structure prediction by ZEFSAII (Michael W. Deem and Ramdas Pophale) SiO2 
 PCOD8168045
Probable space group: P M A 2
;
_chemical_formula_sum "Si O2"
_cell_formula_units_Z 32
_cell_length_a 8.685269
_cell_length_b 14.033755
_cell_length_c 12.886439
_cell_angle_alpha 90.000000
_cell_angle_beta 90.000000
_cell_angle_gamma 90.000000
_cell_volume 1570.688582
_symmetry_space_group_name_H-M "P M A 2"
_symmetry_group_IT_number 28
_symmetry_cell_setting 'orthorhombic'
loop_
_space_group_symop_operation_xyz
x,y,z
-x,-y,z
1/2-x,y,z
1/2+x,-y,z
loop_
_atom_site_type_symbol
_atom_site_label
_atom_site_fract_x
_atom_site_fract_y
_atom_site_fract_z
Si Si1 0.931774 0.104252 0.179230
Si Si2 0.427401 0.397589 0.076191
Si Si3 0.929806 0.604399 0.844445
Si Si4 0.930211 0.604465 0.467023
Si Si5 0.426045 0.709955 0.656247
Si Si6 0.572276 0.101053 0.759463
Si Si7 0.932755 0.894782 0.967371
Si Si8 0.432910 0.278561 0.268692
O O1 0.750000 0.095649 0.174828
O O2 0.986741 0.174570 0.271358
O O3 0.000000 0.000000 0.199979
O O4 0.996039 0.150627 0.071570
O O5 0.500000 0.500000 0.085833
O O6 0.250000 0.412229 0.100173
O O7 0.452250 0.353378 0.961075
O O8 0.495723 0.329346 0.164492
O O9 0.750000 0.601344 0.814097
O O10 0.000000 0.500000 0.839367
O O11 0.024686 0.668738 0.766568
O O12 0.750000 0.590872 0.459484
O O13 0.992589 0.659557 0.365873
O O14 0.000000 0.500000 0.476577
O O15 0.968328 0.668233 0.566452
O O16 0.250000 0.681634 0.633414
O O17 0.445055 0.824792 0.663991
O O18 0.750000 0.084004 0.788566
O O19 0.487339 0.151016 0.858624
O O20 0.500000 0.000000 0.725646
O O21 0.750000 0.891179 0.976960
O O22 0.000000 0.000000 0.960122
O O23 0.250000 0.264809 0.271221
#
# Coordination Sequence:
#
# PCOD8168045 Si02
#       8
#     4   4   4   4   4   4   4   4
#     4  11  22  37  58  86 121 162 204 249 297 352
#     4   9  19  35  56  84 118 152 188 235 295 359
#     4  10  20  35  56  84 117 154 192 236 298 361
#     4  11  24  43  68  92 120 155 200 252 303 360
#     4  11  24  40  60  86 119 155 202 252 299 359
#     4  10  21  37  57  85 119 157 200 248 298 356
#     4  10  18  31  53  80 116 158 198 242 289 347
#     4  10  22  40  61  89 120 155 200 248 301 358
#
# _framework density 20.37323
#
# number of rings (size 3 to 8) (size 9 to 14) (size 15 to 20)
#    0.000    1.750    0.000    6.000    1.750    4.000 
#    0.000    0.625    0.000    1.500    0.000    0.000 
#    0.000    0.000    0.000    0.000    0.000    0.000 
#
# Total GULP energy -396752.800511 kJ/mol
# GULP energy per Si atom -12398.525016 kJ/mol
# Density = 2.032686 g / cm^3
# Si number density = 20.373230 Si / 1000 Ang^3
#
#
#
# Elastic Constant Matrix: (Units=GPa)
#
#
# Indices 1 2 3 4 5 6 
#
# 1 95.8885 32.8908 30.6121 0.0000 0.0000 0.0000
# 2 32.8908 90.9812 61.1186 0.0000 0.0000 0.0000
# 3 30.6121 61.1186 105.1065 0.0000 0.0000 0.0000
# 4 0.0000 0.0000 0.0000 34.2614 0.0000 0.0000
# 5 0.0000 0.0000 0.0000 0.0000 -109.0580 0.0000
# 6 0.0000 0.0000 0.0000 0.0000 0.0000 27.1571
#
#
#
# Elastic Compliance Matrix: (Units=1/GPa)
#
#
# Indices 1 2 3 4 5 6 
#
# 1 0.012068 -0.003285 -0.001605 0.000000 0.000000 0.000000
# 2 -0.003285 0.018931 -0.010052 0.000000 0.000000 0.000000
# 3 -0.001605 -0.010052 0.015827 0.000000 0.000000 0.000000
# 4 0.000000 0.000000 0.000000 0.029187 0.000000 0.000000
# 5 0.000000 0.000000 0.000000 0.000000 -0.009169 0.000000
# 6 0.000000 0.000000 0.000000 0.000000 0.000000 0.036823
#
#
# Mechanical properties :
#
#
# Convention : Reuss Voigt Hill
#
# Bulk Modulus (GPa) = 59.02021 60.13546 59.57783
# Shear Modulus (GPa) = 35.92056 1.62907 18.77481
#
# Velocity S-wave (km/s) = 4.20351 0.89518 3.03899
# Velocity P-wave (km/s) = 7.25202 5.53619 6.45140
#
# Compressibility (1/GPa) = 0.01694335
#
# Stress axis : x y z
#
# Youngs Moduli (GPa) = 82.86551 52.82296 63.18515
#
# Poissons Ratio (x) = 0.17350 0.10139
# Poissons Ratio (y) = 0.27218 0.63512
# Poissons Ratio (z) = 0.13298 0.53096
#
# Static dielectric constant tensor:
#      x y z
#    x 4.472360 0.000000 0.000000 
#    y 0.000000 3.676570 0.000000 
#    z 0.000000 0.000000 3.900150 
# 
# 
# High freq. dielectric constant tensor:
#      x y z
#    x 1.801910 0.000000 0.000000 
#    y 0.000000 1.803100 0.000000 
#    z 0.000000 0.000000 1.783250 
# 
# From -- ./inp_files/4997.got.cif
#   From: 2010.03.12/outbox.cif.g09.slc.cpg/sg28_3_cif.got.tgz:4997.got - 2010.04.14 03:39:34.
