data_PCOD8168992
_publ_section_title
;
Structure prediction by ZEFSAII (Michael W. Deem and Ramdas Pophale) SiO2 
 PCOD8168992
Probable space group: P C A 21
;
_chemical_formula_sum "Si O2"
_cell_formula_units_Z 28
_cell_length_a 14.008478
_cell_length_b 10.103890
_cell_length_c 9.322518
_cell_angle_alpha 90.000000
_cell_angle_beta 90.000000
_cell_angle_gamma 90.000000
_cell_volume 1319.510324
_symmetry_space_group_name_H-M "P C A 21"
_symmetry_group_IT_number 29
_symmetry_cell_setting 'orthorhombic'
loop_
_space_group_symop_operation_xyz
x,y,z
-x,-y,1/2+z
1/2-x,y,1/2+z
1/2+x,-y,z
loop_
_atom_site_type_symbol
_atom_site_label
_atom_site_fract_x
_atom_site_fract_y
_atom_site_fract_z
Si Si1 0.198367 0.065131 0.740900
Si Si2 0.450767 0.868056 0.112642
Si Si3 0.925251 0.529088 0.471946
Si Si4 0.710228 0.328651 0.104246
Si Si5 0.906281 0.421098 0.167356
Si Si6 0.686827 0.166397 0.375911
Si Si7 0.345912 0.190561 0.533847
O O1 0.249022 0.153978 0.618288
O O2 0.163644 0.158453 0.867146
O O3 0.103941 0.992388 0.681202
O O4 0.276662 0.965005 0.801123
O O5 0.425619 0.734786 0.203098
O O6 0.417009 0.853468 0.946654
O O7 0.565030 0.888608 0.106672
O O8 0.878561 0.395529 0.528883
O O9 0.929545 0.517591 0.299995
O O10 0.866326 0.652852 0.535260
O O11 0.032770 0.534378 0.530078
O O12 0.795968 0.434539 0.121854
O O13 0.678197 0.283189 0.261499
O O14 0.741893 0.203844 0.006905
#
# Coordination Sequence:
#
# PCOD8168992 Si02
#       7
#     4   4   4   4   4   4   4
#     4  12  22  45  66  93 135 172 214 273 328 388
#     4  10  23  44  67  97 127 166 235 266 314 399
#     4  11  25  43  63  97 135 165 214 267 336 386
#     4  11  21  39  69  91 123 164 215 274 312 381
#     4  10  23  42  65  95 126 169 218 270 312 388
#     4  11  20  40  70  94 118 166 227 261 319 375
#     4  11  28  41  64  99 136 176 213 271 337 397
#
# _framework density 21.219992000000001
#
# number of rings (size 3 to 8) (size 9 to 14) (size 15 to 20)
#    0.000    1.143    5.714    0.000   10.000    0.000 
#    2.571    1.429    0.000    0.000    0.000    0.000 
#    0.000    0.000    0.000    0.000    0.000    0.000 
#
# Total GULP energy -347211.806280 kJ/mol
# GULP energy per Si atom -12400.421653 kJ/mol
# Density = 2.117169 g / cm^3
# Si number density = 21.219992 Si / 1000 Ang^3
#
#
#
# Elastic Constant Matrix: (Units=GPa)
#
#
# Indices 1 2 3 4 5 6 
#
# 1 54.6337 8.6460 11.3826 0.0000 0.0000 0.0000
# 2 8.6460 40.6967 18.5743 0.0000 0.0000 0.0000
# 3 11.3826 18.5743 102.8039 0.0000 0.0000 0.0000
# 4 0.0000 0.0000 0.0000 38.2573 0.0000 0.0000
# 5 0.0000 0.0000 0.0000 0.0000 32.9439 0.0000
# 6 0.0000 0.0000 0.0000 0.0000 0.0000 28.0630
#
#
#
# Elastic Compliance Matrix: (Units=1/GPa)
#
#
# Indices 1 2 3 4 5 6 
#
# 1 0.019153 -0.003380 -0.001510 0.000000 0.000000 0.000000
# 2 -0.003380 0.027377 -0.004572 0.000000 0.000000 0.000000
# 3 -0.001510 -0.004572 0.010721 0.000000 0.000000 0.000000
# 4 0.000000 0.000000 0.000000 0.026139 0.000000 0.000000
# 5 0.000000 0.000000 0.000000 0.000000 0.030355 0.000000
# 6 0.000000 0.000000 0.000000 0.000000 0.000000 0.035634
#
#
# Mechanical properties :
#
#
# Convention : Reuss Voigt Hill
#
# Bulk Modulus (GPa) = 26.09163 30.59335 28.34249
# Shear Modulus (GPa) = 27.61245 30.48825 29.05035
#
# Velocity S-wave (km/s) = 3.61119 3.79459 3.70403
# Velocity P-wave (km/s) = 5.45070 5.80061 5.62837
#
# Compressibility (1/GPa) = 0.03832647
#
# Stress axis : x y z
#
# Youngs Moduli (GPa) = 52.21064 36.52725 93.27901
#
# Poissons Ratio (x) = 0.12346 0.14085
# Poissons Ratio (y) = 0.17647 0.42648
# Poissons Ratio (z) = 0.07884 0.16701
#
# Static dielectric constant tensor:
#      x y z
#    x 3.812420 0.000000 0.000000 
#    y 0.000000 3.699300 0.000000 
#    z 0.000000 0.000000 3.952430 
# 
# 
# High freq. dielectric constant tensor:
#      x y z
#    x 1.828670 0.000000 0.000000 
#    y 0.000000 1.817320 0.000000 
#    z 0.000000 0.000000 1.838750 
# 
# From -- ./inp_files/1805.got.cif
#   From: 2010.03.12/outbox.cif.g09.slc.cpg/sg29_1_cif.got.tgz:1805.got - 2010.04.14 03:43:10.
