data_PCOD8168186
_publ_section_title
;
Structure prediction by ZEFSAII (Michael W. Deem and Ramdas Pophale) SiO2 
 PCOD8168186
Probable space group: P M A 2
;
_chemical_formula_sum "Si O2"
_cell_formula_units_Z 32
_cell_length_a 9.123842
_cell_length_b 14.615300
_cell_length_c 12.362219
_cell_angle_alpha 90.000000
_cell_angle_beta 90.000000
_cell_angle_gamma 90.000000
_cell_volume 1648.473322
_symmetry_space_group_name_H-M "P M A 2"
_symmetry_group_IT_number 28
_symmetry_cell_setting 'orthorhombic'
loop_
_space_group_symop_operation_xyz
x,y,z
-x,-y,z
1/2-x,y,z
1/2+x,-y,z
loop_
_atom_site_type_symbol
_atom_site_label
_atom_site_fract_x
_atom_site_fract_y
_atom_site_fract_z
Si Si1 0.415794 0.848203 0.667750
Si Si2 0.419486 0.584614 0.789789
Si Si3 0.077656 0.597541 0.174198
Si Si4 0.085905 0.912735 0.433578
Si Si5 0.421651 0.910064 0.903850
Si Si6 0.578221 0.289847 0.388981
Si Si7 0.080747 0.718466 0.979919
Si Si8 0.576449 0.671312 0.601136
O O1 0.250000 0.806542 0.678404
O O2 0.422806 0.914553 0.564253
O O3 0.457316 0.902260 0.776206
O O4 0.533405 0.769078 0.650091
O O5 0.500000 0.500000 0.849843
O O6 0.250000 0.561981 0.771092
O O7 0.441133 0.674046 0.862569
O O8 0.502137 0.594973 0.675855
O O9 0.250000 0.578994 0.159823
O O10 0.043756 0.659056 0.278254
O O11 0.000000 0.500000 0.183351
O O12 0.009634 0.655549 0.073625
O O13 0.250000 0.925913 0.392371
O O14 0.025566 0.816486 0.385115
O O15 0.000000 0.000000 0.386718
O O16 0.250000 0.920241 0.923525
O O17 0.483686 0.821365 0.969371
O O18 0.500000 0.000000 0.950457
O O19 0.750000 0.292359 0.419771
O O20 0.486877 0.342047 0.480888
O O21 0.250000 0.726566 0.010364
O O22 0.750000 0.659289 0.599952
#
# Coordination Sequence:
#
# PCOD8168186 Si02
#       8
#     4   4   4   4   4   4   4   4
#     4   9  17  32  51  73 110 155 190 225 275 328
#     4  11  21  36  56  81 114 148 183 225 281 342
#     4  10  21  40  65  87 106 140 188 236 285 340
#     4   9  17  29  48  75 107 146 187 223 269 323
#     4  10  19  33  53  80 114 154 191 227 275 331
#     4   9  20  38  57  78 111 150 186 229 284 339
#     4   9  19  37  60  82 112 149 184 228 284 338
#     4  11  21  33  53  82 114 148 187 229 278 333
#
# _framework density 19.411899999999999
#
# number of rings (size 3 to 8) (size 9 to 14) (size 15 to 20)
#    0.000    2.250    1.250    3.000    0.000    3.500 
#    0.000    3.125    0.000    0.000    0.000    0.000 
#    0.000    0.000    0.000    0.000    0.000    0.000 
#
# Total GULP energy -396685.503246 kJ/mol
# GULP energy per Si atom -12396.421976 kJ/mol
# Density = 1.936772 g / cm^3
# Si number density = 19.411900 Si / 1000 Ang^3
#
#
#
# Elastic Constant Matrix: (Units=GPa)
#
#
# Indices 1 2 3 4 5 6 
#
# 1 80.8358 46.9639 40.5278 0.0000 0.0000 0.0000
# 2 46.9639 141.9540 54.4541 0.0000 0.0000 0.0000
# 3 40.5278 54.4541 93.9688 0.0000 0.0000 0.0000
# 4 0.0000 0.0000 0.0000 23.9362 0.0000 0.0000
# 5 0.0000 0.0000 0.0000 0.0000 15.3278 0.0000
# 6 0.0000 0.0000 0.0000 0.0000 0.0000 35.2873
#
#
#
# Elastic Compliance Matrix: (Units=1/GPa)
#
#
# Indices 1 2 3 4 5 6 
#
# 1 0.017134 -0.003644 -0.005278 0.000000 0.000000 0.000000
# 2 -0.003644 0.009833 -0.004127 0.000000 0.000000 0.000000
# 3 -0.005278 -0.004127 0.015310 0.000000 0.000000 0.000000
# 4 0.000000 0.000000 0.000000 0.041778 0.000000 0.000000
# 5 0.000000 0.000000 0.000000 0.000000 0.065241 0.000000
# 6 0.000000 0.000000 0.000000 0.000000 0.000000 0.028339
#
#
# Mechanical properties :
#
#
# Convention : Reuss Voigt Hill
#
# Bulk Modulus (GPa) = 61.80693 66.73888 64.27291
# Shear Modulus (GPa) = 23.90919 26.56444 25.23681
#
# Velocity S-wave (km/s) = 3.51333 3.70329 3.60956
# Velocity P-wave (km/s) = 6.95463 7.26229 7.11012
#
# Compressibility (1/GPa) = 0.01617941
#
# Stress axis : x y z
#
# Youngs Moduli (GPa) = 58.36342 101.69779 65.31870
#
# Poissons Ratio (x) = 0.37058 0.34476
# Poissons Ratio (y) = 0.21267 0.26954
# Poissons Ratio (z) = 0.30805 0.41967
#
# Static dielectric constant tensor:
#      x y z
#    x 3.330740 0.000000 0.000000 
#    y 0.000000 3.604340 0.000000 
#    z 0.000000 0.000000 3.467670 
# 
# 
# High freq. dielectric constant tensor:
#      x y z
#    x 1.732750 0.000000 0.000000 
#    y 0.000000 1.763010 0.000000 
#    z 0.000000 0.000000 1.738990 
# 
# From -- ./inp_files/4975.got.cif
#   From: 2010.03.12/outbox.cif.g09.slc.cpg/sg28_3_cif.got.tgz:4975.got - 2010.04.14 03:39:34.
