data_PCOD8168435
_publ_section_title
;
Structure prediction by ZEFSAII (Michael W. Deem and Ramdas Pophale) SiO2 
 PCOD8168435
Probable space group: P M A 2
;
_chemical_formula_sum "Si O2"
_cell_formula_units_Z 32
_cell_length_a 8.753383
_cell_length_b 15.464147
_cell_length_c 11.930444
_cell_angle_alpha 90.000000
_cell_angle_beta 90.000000
_cell_angle_gamma 90.000000
_cell_volume 1614.947867
_symmetry_space_group_name_H-M "P M A 2"
_symmetry_group_IT_number 28
_symmetry_cell_setting 'orthorhombic'
loop_
_space_group_symop_operation_xyz
x,y,z
-x,-y,z
1/2-x,y,z
1/2+x,-y,z
loop_
_atom_site_type_symbol
_atom_site_label
_atom_site_fract_x
_atom_site_fract_y
_atom_site_fract_z
Si Si1 0.569952 0.590628 0.125000
Si Si2 0.430201 0.745914 0.988328
Si Si3 0.569704 0.410941 0.592285
Si Si4 0.931370 0.088259 0.592137
Si Si5 0.569751 0.852766 0.363988
Si Si6 0.071198 0.347701 0.368615
Si Si7 0.568612 0.249740 0.734205
Si Si8 0.930814 0.088723 0.132839
O O1 0.500000 0.500000 0.085476
O O2 0.750000 0.586012 0.114698
O O3 0.518790 0.610615 0.251759
O O4 0.511425 0.665252 0.044488
O O5 0.250000 0.730784 0.993978
O O6 0.490644 0.751735 0.861213
O O7 0.477953 0.834215 0.049590
O O8 0.500000 0.500000 0.637973
O O9 0.750000 0.416662 0.599245
O O10 0.522306 0.396046 0.464213
O O11 0.504880 0.334400 0.670723
O O12 0.750000 0.084107 0.592068
O O13 0.994092 0.165610 0.669850
O O14 0.990424 0.099721 0.466602
O O15 0.000000 0.000000 0.642342
O O16 0.750000 0.867274 0.369538
O O17 0.525219 0.752374 0.366471
O O18 0.505442 0.895441 0.252687
O O19 0.250000 0.360450 0.391141
O O20 0.750000 0.249662 0.730660
O O21 0.750000 0.081087 0.145200
O O22 0.000000 0.000000 0.082816
#
# Coordination Sequence:
#
# PCOD8168435 Si02
#       8
#     4   4   4   4   4   4   4   4
#     4  11  23  40  61  90 122 156 194 242 295 352
#     4  10  22  42  64  86 115 156 202 248 295 346
#     4  11  22  38  61  88 119 155 194 239 290 348
#     4  11  22  39  61  89 121 156 196 240 293 352
#     4  11  21  37  61  89 122 154 192 242 293 352
#     4  10  21  37  60  89 121 153 190 238 293 351
#     4   9  21  41  62  84 116 155 198 244 292 345
#     4  11  23  38  61  89 120 157 196 241 295 354
#
# _framework density 19.814882000000001
#
# number of rings (size 3 to 8) (size 9 to 14) (size 15 to 20)
#    0.000    1.500    2.500    2.625    0.000    4.000 
#    0.000    3.750    0.000    0.000    0.000    0.000 
#    0.000    0.000    0.000    0.000    0.000    0.000 
#
# Total GULP energy -396971.274141 kJ/mol
# GULP energy per Si atom -12405.352317 kJ/mol
# Density = 1.976978 g / cm^3
# Si number density = 19.814882 Si / 1000 Ang^3
#
#
#
# Elastic Constant Matrix: (Units=GPa)
#
#
# Indices 1 2 3 4 5 6 
#
# 1 62.0409 51.2752 37.6312 0.0000 0.0000 0.0000
# 2 51.2752 185.3157 76.3578 0.0000 0.0000 0.0000
# 3 37.6312 76.3578 147.9305 0.0000 0.0000 0.0000
# 4 0.0000 0.0000 0.0000 35.3507 0.0000 0.0000
# 5 0.0000 0.0000 0.0000 0.0000 0.7986 0.0000
# 6 0.0000 0.0000 0.0000 0.0000 0.0000 35.2493
#
#
#
# Elastic Compliance Matrix: (Units=1/GPa)
#
#
# Indices 1 2 3 4 5 6 
#
# 1 0.021971 -0.004796 -0.003113 0.000000 0.000000 0.000000
# 2 -0.004796 0.007901 -0.002858 0.000000 0.000000 0.000000
# 3 -0.003113 -0.002858 0.009027 0.000000 0.000000 0.000000
# 4 0.000000 0.000000 0.000000 0.028288 0.000000 0.000000
# 5 0.000000 0.000000 0.000000 0.000000 1.252220 0.000000
# 6 0.000000 0.000000 0.000000 0.000000 0.000000 0.028369
#
#
# Mechanical properties :
#
#
# Convention : Reuss Voigt Hill
#
# Bulk Modulus (GPa) = 57.59223 80.64617 69.11920
# Shear Modulus (GPa) = 3.63610 29.61458 16.62534
#
# Velocity S-wave (km/s) = 1.35610 3.87015 2.89975
# Velocity P-wave (km/s) = 5.61963 7.79480 6.79482
#
# Compressibility (1/GPa) = 0.01736345
#
# Stress axis : x y z
#
# Youngs Moduli (GPa) = 45.51486 126.56655 110.77622
#
# Poissons Ratio (x) = 0.60706 0.34488
# Poissons Ratio (y) = 0.21830 0.31662
# Poissons Ratio (z) = 0.14170 0.36175
#
# Static dielectric constant tensor:
#      x y z
#    x 3.483360 0.000000 0.000000 
#    y 0.000000 3.877250 0.000000 
#    z 0.000000 0.000000 3.654370 
# 
# 
# High freq. dielectric constant tensor:
#      x y z
#    x 1.765370 0.000000 0.000000 
#    y 0.000000 1.794230 0.000000 
#    z 0.000000 0.000000 1.769340 
# 
# From -- ./inp_files/5023.got.cif
#   From: 2010.03.12/outbox.cif.g09.slc.cpg/sg28_3_cif.got.tgz:5023.got - 2010.04.14 03:39:34.
