data_PCOD8168530
_publ_section_title
;
Structure prediction by ZEFSAII (Michael W. Deem and Ramdas Pophale) SiO2 
 PCOD8168530
Probable space group: P C A 21
;
_chemical_formula_sum "Si O2"
_cell_formula_units_Z 24
_cell_length_a 27.342333
_cell_length_b 8.651988
_cell_length_c 5.211270
_cell_angle_alpha 90.000000
_cell_angle_beta 90.000000
_cell_angle_gamma 90.000000
_cell_volume 1232.806886
_symmetry_space_group_name_H-M "P C A 21"
_symmetry_group_IT_number 29
_symmetry_cell_setting 'orthorhombic'
loop_
_space_group_symop_operation_xyz
x,y,z
-x,-y,1/2+z
1/2-x,y,1/2+z
1/2+x,-y,z
loop_
_atom_site_type_symbol
_atom_site_label
_atom_site_fract_x
_atom_site_fract_y
_atom_site_fract_z
Si Si1 0.119150 0.578406 0.100520
Si Si2 0.617545 0.221696 0.599389
Si Si3 0.016463 0.914952 0.652268
Si Si4 0.727621 0.153603 0.594979
Si Si5 0.230045 0.500931 0.102828
Si Si6 0.021089 0.424604 0.154176
O O1 0.111153 0.708408 0.316022
O O2 0.172209 0.505000 0.135142
O O3 0.079593 0.443479 0.138104
O O4 0.112829 0.647553 0.816675
O O5 0.575308 0.095352 0.639644
O O6 0.669570 0.137721 0.624572
O O7 0.992241 0.750580 0.592362
O O8 0.998272 0.033275 0.436961
O O9 0.746111 0.070286 0.335387
O O10 0.744750 0.331159 0.568046
O O11 0.254445 0.411509 0.343014
O O12 0.003637 0.466987 0.439941
#
# Coordination Sequence:
#
# PCOD8168530 Si02
#       6
#     4   4   4   4   4   4
#     4  12  19  32  56  87 117 146 185 250 303 339
#     4  12  20  33  57  83 117 154 191 239 301 349
#     4  12  26  43  59  83 123 167 206 248 303 362
#     4  10  16  27  47  80 120 137 178 238 304 337
#     4  10  16  27  45  80 123 137 170 231 313 343
#     4  12  23  40  62  89 116 153 206 254 294 348
#
# _framework density 19.467769000000001
#
# number of rings (size 3 to 8) (size 9 to 14) (size 15 to 20)
#    0.000    0.667   10.000    2.000    0.000    0.000 
#    0.000    0.000    0.000    0.000    0.000    7.000 
#    0.000    0.000    0.000    0.000    0.000    0.000 
#
# Total GULP energy -297568.482650 kJ/mol
# GULP energy per Si atom -12398.686777 kJ/mol
# Density = 1.942346 g / cm^3
# Si number density = 19.467769 Si / 1000 Ang^3
#
#
#
# Elastic Constant Matrix: (Units=GPa)
#
#
# Indices 1 2 3 4 5 6 
#
# 1 161.2250 26.8257 11.5065 0.0000 0.0000 0.0000
# 2 26.8257 32.0273 4.6516 0.0000 0.0000 0.0000
# 3 11.5065 4.6516 122.9073 0.0000 0.0000 0.0000
# 4 0.0000 0.0000 0.0000 17.8945 0.0000 0.0000
# 5 0.0000 0.0000 0.0000 0.0000 33.5667 0.0000
# 6 0.0000 0.0000 0.0000 0.0000 0.0000 17.8357
#
#
#
# Elastic Compliance Matrix: (Units=1/GPa)
#
#
# Indices 1 2 3 4 5 6 
#
# 1 0.007232 -0.005992 -0.000450 0.000000 0.000000 0.000000
# 2 -0.005992 0.036360 -0.000815 0.000000 0.000000 0.000000
# 3 -0.000450 -0.000815 0.008209 0.000000 0.000000 0.000000
# 4 0.000000 0.000000 0.000000 0.055883 0.000000 0.000000
# 5 0.000000 0.000000 0.000000 0.000000 0.029791 0.000000
# 6 0.000000 0.000000 0.000000 0.000000 0.000000 0.056067
#
#
# Mechanical properties :
#
#
# Convention : Reuss Voigt Hill
#
# Bulk Modulus (GPa) = 26.81906 44.68079 35.74993
# Shear Modulus (GPa) = 22.67717 32.07111 27.37414
#
# Velocity S-wave (km/s) = 3.41670 4.06321 3.75390
# Velocity P-wave (km/s) = 5.41952 6.70924 6.09857
#
# Compressibility (1/GPa) = 0.03728691
#
# Stress axis : x y z
#
# Youngs Moduli (GPa) = 138.28233 27.50252 121.81426
#
# Poissons Ratio (x) = 0.16479 0.05485
# Poissons Ratio (y) = 0.82854 0.09930
# Poissons Ratio (z) = 0.06226 0.02242
#
# Static dielectric constant tensor:
#      x y z
#    x 3.877480 0.000000 0.000000 
#    y 0.000000 2.944170 0.000000 
#    z 0.000000 0.000000 5.051020 
# 
# 
# High freq. dielectric constant tensor:
#      x y z
#    x 1.780080 0.000000 0.000000 
#    y 0.000000 1.674880 0.000000 
#    z 0.000000 0.000000 1.798150 
# 
# From -- ./inp_files/652.got.cif
#   From: 2010.03.12/outbox.cif.g09.slc.cpg/sg29_1_cif.got.tgz:652.got - 2010.04.14 03:43:10.
