data_PCOD8168979
_publ_section_title
;
Structure prediction by ZEFSAII (Michael W. Deem and Ramdas Pophale) SiO2 
 PCOD8168979
Probable space group: P C A 21
;
_chemical_formula_sum "Si O2"
_cell_formula_units_Z 28
_cell_length_a 12.952550
_cell_length_b 18.618466
_cell_length_c 5.167462
_cell_angle_alpha 90.000000
_cell_angle_beta 90.000000
_cell_angle_gamma 90.000000
_cell_volume 1246.167627
_symmetry_space_group_name_H-M "P C A 21"
_symmetry_group_IT_number 29
_symmetry_cell_setting 'orthorhombic'
loop_
_space_group_symop_operation_xyz
x,y,z
-x,-y,1/2+z
1/2-x,y,1/2+z
1/2+x,-y,z
loop_
_atom_site_type_symbol
_atom_site_label
_atom_site_fract_x
_atom_site_fract_y
_atom_site_fract_z
Si Si1 0.499946 0.132235 0.991350
Si Si2 0.000030 0.546563 0.492507
Si Si3 0.322329 0.660762 0.019752
Si Si4 0.500081 0.774701 0.992021
Si Si5 0.709817 0.920953 0.633079
Si Si6 0.709934 0.079444 0.132637
Si Si7 0.322308 0.339300 0.519651
O O1 0.499893 0.161795 0.701389
O O2 0.405711 0.078276 0.032417
O O3 0.594383 0.078436 0.032203
O O4 0.499876 0.196509 0.198184
O O5 0.895373 0.591309 0.530647
O O6 0.000043 0.483127 0.701177
O O7 0.104716 0.591303 0.530391
O O8 0.255029 0.660990 0.760396
O O9 0.395892 0.729808 0.031084
O O10 0.604265 0.729811 0.031191
O O11 0.721362 0.880834 0.910732
O O12 0.749781 0.000252 0.709391
O O13 0.778623 0.119637 0.910211
O O14 0.255206 0.339133 0.259974
#
# Coordination Sequence:
#
# PCOD8168979 Si02
#       7
#     4   4   4   4   4   4   4
#     4  12  24  41  65  91 123 162 206 262 320 378
#     4  11  24  41  64 100 135 168 219 258 302 378
#     4  11  24  43  66  92 131 173 209 265 318 357
#     4  11  26  42  63  95 124 162 217 264 310 378
#     4  10  23  40  61  89 120 156 199 248 312 383
#     4  10  23  40  61  89 120 156 199 248 312 383
#     4  11  24  43  66  92 131 173 209 265 318 357
#
# _framework density 22.468886999999999
#
# number of rings (size 3 to 8) (size 9 to 14) (size 15 to 20)
#    0.000    1.143    0.000    5.143    0.000   19.429 
#    0.000    0.000    0.000    0.000    0.000    0.000 
#    0.000    0.000    0.000    0.000    0.000    0.000 
#
# Total GULP energy -347118.750426 kJ/mol
# GULP energy per Si atom -12397.098230 kJ/mol
# Density = 2.241775 g / cm^3
# Si number density = 22.468887 Si / 1000 Ang^3
#
#
#
# Elastic Constant Matrix: (Units=GPa)
#
#
# Indices 1 2 3 4 5 6 
#
# 1 121.1544 30.4517 16.9375 0.0000 0.0000 0.0000
# 2 30.4517 65.5353 3.1973 0.0000 0.0000 0.0000
# 3 16.9375 3.1973 144.5106 0.0000 0.0000 0.0000
# 4 0.0000 0.0000 0.0000 32.8493 0.0000 0.0000
# 5 0.0000 0.0000 0.0000 0.0000 46.1829 0.0000
# 6 0.0000 0.0000 0.0000 0.0000 0.0000 21.9184
#
#
#
# Elastic Compliance Matrix: (Units=1/GPa)
#
#
# Indices 1 2 3 4 5 6 
#
# 1 0.009492 -0.004361 -0.001016 0.000000 0.000000 0.000000
# 2 -0.004361 0.017279 0.000129 0.000000 0.000000 0.000000
# 3 -0.001016 0.000129 0.007036 0.000000 0.000000 0.000000
# 4 0.000000 0.000000 0.000000 0.030442 0.000000 0.000000
# 5 0.000000 0.000000 0.000000 0.000000 0.021653 0.000000
# 6 0.000000 0.000000 0.000000 0.000000 0.000000 0.045624
#
#
# Mechanical properties :
#
#
# Convention : Reuss Voigt Hill
#
# Bulk Modulus (GPa) = 42.89847 48.04145 45.46996
# Shear Modulus (GPa) = 33.37942 38.89771 36.13856
#
# Velocity S-wave (km/s) = 3.85851 4.16526 4.01482
# Velocity P-wave (km/s) = 6.24377 6.67535 6.46316
#
# Compressibility (1/GPa) = 0.02331085
#
# Stress axis : x y z
#
# Youngs Moduli (GPa) = 105.35078 57.87347 142.12331
#
# Poissons Ratio (x) = 0.25239 0.14440
# Poissons Ratio (y) = 0.45944 -0.01831
# Poissons Ratio (z) = 0.10704 -0.00746
#
# Static dielectric constant tensor:
#      x y z
#    x 4.283570 0.000000 0.000000 
#    y 0.000000 3.994020 0.000000 
#    z 0.000000 0.000000 4.638860 
# 
# 
# High freq. dielectric constant tensor:
#      x y z
#    x 1.907270 0.000000 0.000000 
#    y 0.000000 1.864730 0.000000 
#    z 0.000000 0.000000 1.922480 
# 
# From -- ./inp_files/106.got.cif
#   From: 2010.03.12/outbox.cif.g09.slc.cpg/sg29_1_cif.got.tgz:106.got - 2010.04.14 03:43:10.
