data_PCOD8168341
_publ_section_title
;
Structure prediction by ZEFSAII (Michael W. Deem and Ramdas Pophale) SiO2 
 PCOD8168341
Probable space group: P M A 2
;
_chemical_formula_sum "Si O2"
_cell_formula_units_Z 28
_cell_length_a 8.621994
_cell_length_b 9.332427
_cell_length_c 18.047784
_cell_angle_alpha 90.000000
_cell_angle_beta 90.000000
_cell_angle_gamma 90.000000
_cell_volume 1452.199231
_symmetry_space_group_name_H-M "P M A 2"
_symmetry_group_IT_number 28
_symmetry_cell_setting 'orthorhombic'
loop_
_space_group_symop_operation_xyz
x,y,z
-x,-y,z
1/2-x,y,z
1/2+x,-y,z
loop_
_atom_site_type_symbol
_atom_site_label
_atom_site_fract_x
_atom_site_fract_y
_atom_site_fract_z
Si Si1 0.566713 0.654480 0.468860
Si Si2 0.566914 0.342426 0.036884
Si Si3 0.070068 0.158047 0.908657
Si Si4 0.429275 0.154973 0.744661
Si Si5 0.067028 0.840818 0.598494
Si Si6 0.066829 0.842524 0.174896
Si Si7 0.933860 0.345113 0.312516
O O1 0.500000 0.500000 0.489385
O O2 0.750000 0.644733 0.463847
O O3 0.516391 0.763578 0.531462
O O4 0.500882 0.709652 0.390579
O O5 0.500000 0.500000 0.043622
O O6 0.750000 0.353483 0.038752
O O7 0.503644 0.248758 0.105591
O O8 0.515286 0.269467 0.961025
O O9 0.250000 0.147151 0.929933
O O10 0.049658 0.225514 0.825764
O O11 0.000000 0.000000 0.917706
O O12 0.250000 0.144805 0.721583
O O13 0.521161 0.234578 0.677433
O O14 0.500000 0.000000 0.754858
O O15 0.250000 0.838286 0.586398
O O16 0.000000 0.000000 0.601479
O O17 0.250000 0.852580 0.172164
O O18 0.011220 0.766875 0.250467
O O19 0.000000 0.000000 0.170673
O O20 0.750000 0.356661 0.318162
O O21 0.000000 0.500000 0.291332
#
# Coordination Sequence:
#
# PCOD8168341 Si02
#       7
#     4   4   4   4   4   4   4
#     4  11  22  38  58  82 112 148 187 228 277 331
#     4  11  23  39  58  82 112 148 187 228 277 331
#     4  10  20  35  57  84 113 146 185 230 277 328
#     4   9  17  31  52  79 110 144 183 227 277 329
#     4  11  21  35  56  83 113 147 187 231 278 328
#     4  10  23  39  58  84 113 144 181 226 274 326
#     4  10  20  37  58  82 110 143 184 226 273 329
#
# _framework density 19.281099999999999
#
# number of rings (size 3 to 8) (size 9 to 14) (size 15 to 20)
#    0.000    1.714    0.000    6.857    0.000    5.714 
#    0.000    2.143    0.000    3.429    0.000    0.000 
#    0.000    0.000    0.000    0.000    0.000    0.000 
#
# Total GULP energy -347171.341576 kJ/mol
# GULP energy per Si atom -12398.976485 kJ/mol
# Density = 1.923722 g / cm^3
# Si number density = 19.281100 Si / 1000 Ang^3
#
#
#
# Elastic Constant Matrix: (Units=GPa)
#
#
# Indices 1 2 3 4 5 6 
#
# 1 99.5516 33.0294 45.8883 0.0000 0.0000 0.0000
# 2 33.0294 105.2122 76.2247 0.0000 0.0000 0.0000
# 3 45.8883 76.2247 154.6738 0.0000 0.0000 0.0000
# 4 0.0000 0.0000 0.0000 15.2099 0.0000 0.0000
# 5 0.0000 0.0000 0.0000 0.0000 24.5129 0.0000
# 6 0.0000 0.0000 0.0000 0.0000 0.0000 33.5967
#
#
#
# Elastic Compliance Matrix: (Units=1/GPa)
#
#
# Indices 1 2 3 4 5 6 
#
# 1 0.011858 -0.001826 -0.002618 0.000000 0.000000 0.000000
# 2 -0.001826 0.015064 -0.006882 0.000000 0.000000 0.000000
# 3 -0.002618 -0.006882 0.010633 0.000000 0.000000 0.000000
# 4 0.000000 0.000000 0.000000 0.065747 0.000000 0.000000
# 5 0.000000 0.000000 0.000000 0.000000 0.040795 0.000000
# 6 0.000000 0.000000 0.000000 0.000000 0.000000 0.029765
#
#
# Mechanical properties :
#
#
# Convention : Reuss Voigt Hill
#
# Bulk Modulus (GPa) = 67.09956 74.41362 70.75659
# Shear Modulus (GPa) = 24.81635 28.28356 26.54995
#
# Velocity S-wave (km/s) = 3.59148 3.83418 3.71481
# Velocity P-wave (km/s) = 7.21627 7.63407 7.42811
#
# Compressibility (1/GPa) = 0.01490323
#
# Stress axis : x y z
#
# Youngs Moduli (GPa) = 84.33394 66.38563 94.04318
#
# Poissons Ratio (x) = 0.12120 0.24622
# Poissons Ratio (y) = 0.15396 0.64719
# Poissons Ratio (z) = 0.22080 0.45685
#
# Static dielectric constant tensor:
#      x y z
#    x 3.667260 0.000000 0.000000 
#    y 0.000000 3.403500 0.000000 
#    z 0.000000 0.000000 4.146350 
# 
# 
# High freq. dielectric constant tensor:
#      x y z
#    x 1.766060 0.000000 0.000000 
#    y 0.000000 1.725620 0.000000 
#    z 0.000000 0.000000 1.775180 
# 
# From -- ./inp_files/6848.got.cif
#   From: 2010.03.12/outbox.cif.g09.slc.cpg/sg28_4_cif.got.tgz:6848.got - 2010.04.14 03:39:34.
