data_PCOD8168763
_publ_section_title
;
Structure prediction by ZEFSAII (Michael W. Deem and Ramdas Pophale) SiO2 
 PCOD8168763
Probable space group: P C A 21
;
_chemical_formula_sum "Si O2"
_cell_formula_units_Z 28
_cell_length_a 16.157468
_cell_length_b 16.759651
_cell_length_c 5.049981
_cell_angle_alpha 90.000000
_cell_angle_beta 90.000000
_cell_angle_gamma 90.000000
_cell_volume 1367.502155
_symmetry_space_group_name_H-M "P C A 21"
_symmetry_group_IT_number 29
_symmetry_cell_setting 'orthorhombic'
loop_
_space_group_symop_operation_xyz
x,y,z
-x,-y,1/2+z
1/2-x,y,1/2+z
1/2+x,-y,z
loop_
_atom_site_type_symbol
_atom_site_label
_atom_site_fract_x
_atom_site_fract_y
_atom_site_fract_z
Si Si1 0.695184 0.380061 0.452710
Si Si2 0.555152 0.500000 0.605765
Si Si3 0.698650 0.803034 0.746188
Si Si4 0.304818 0.380059 0.258796
Si Si5 0.698649 0.196964 0.465296
Si Si6 0.597887 0.047526 0.357348
Si Si7 0.902111 0.952484 0.353896
O O1 0.763440 0.402321 0.673312
O O2 0.611131 0.427450 0.502505
O O3 0.668074 0.287802 0.445250
O O4 0.500003 0.528555 0.355758
O O5 0.611127 0.572551 0.709041
O O6 0.724561 0.819174 0.443710
O O7 0.668068 0.712199 0.766262
O O8 0.625143 0.860729 0.837394
O O9 0.263429 0.402321 0.538171
O O10 0.724566 0.180817 0.767765
O O11 0.625132 0.139280 0.374099
O O12 0.499999 0.047509 0.355642
O O13 0.634399 0.999972 0.605553
O O14 0.633735 0.000040 0.105553
#
# Coordination Sequence:
#
# PCOD8168763 Si02
#       7
#     4   4   4   4   4   4   4
#     4  10  21  40  61  82 115 155 189 229 290 349
#     4  12  24  38  60  92 118 146 194 242 286 340
#     4  10  21  36  57  83 107 141 189 232 272 326
#     4  10  21  40  61  82 115 155 189 229 290 349
#     4  10  21  36  57  83 107 141 189 232 272 326
#     4  10  21  36  53  77 111 148 181 221 280 336
#     4  10  21  36  53  77 111 148 181 221 280 336
#
# _framework density 20.475289
#
# number of rings (size 3 to 8) (size 9 to 14) (size 15 to 20)
#    0.000    1.714    0.000    4.286    0.000    4.571 
#    0.000    4.286    0.000    0.000    0.000    0.000 
#    0.000    0.000    0.000    0.000    0.000    0.000 
#
# Total GULP energy -347237.067639 kJ/mol
# GULP energy per Si atom -12401.323844 kJ/mol
# Density = 2.042869 g / cm^3
# Si number density = 20.475289 Si / 1000 Ang^3
#
#
#
# Elastic Constant Matrix: (Units=GPa)
#
#
# Indices 1 2 3 4 5 6 
#
# 1 59.4680 55.1042 29.1207 0.0000 0.0000 0.0000
# 2 55.1042 124.3378 49.4972 0.0000 0.0000 0.0000
# 3 29.1207 49.4972 128.7790 0.0000 0.0000 0.0000
# 4 0.0000 0.0000 0.0000 31.5481 0.0000 0.0000
# 5 0.0000 0.0000 0.0000 0.0000 18.0564 0.0000
# 6 0.0000 0.0000 0.0000 0.0000 0.0000 21.8439
#
#
#
# Elastic Compliance Matrix: (Units=1/GPa)
#
#
# Indices 1 2 3 4 5 6 
#
# 1 0.028924 -0.012060 -0.001905 0.000000 0.000000 0.000000
# 2 -0.012060 0.014524 -0.002855 0.000000 0.000000 0.000000
# 3 -0.001905 -0.002855 0.009293 0.000000 0.000000 0.000000
# 4 0.000000 0.000000 0.000000 0.031698 0.000000 0.000000
# 5 0.000000 0.000000 0.000000 0.000000 0.055382 0.000000
# 6 0.000000 0.000000 0.000000 0.000000 0.000000 0.045779
#
#
# Mechanical properties :
#
#
# Convention : Reuss Voigt Hill
#
# Bulk Modulus (GPa) = 52.35508 64.44765 58.40136
# Shear Modulus (GPa) = 22.16233 26.21388 24.18811
#
# Velocity S-wave (km/s) = 3.29355 3.58197 3.44078
# Velocity P-wave (km/s) = 6.33156 6.97506 6.66109
#
# Compressibility (1/GPa) = 0.01910034
#
# Stress axis : x y z
#
# Youngs Moduli (GPa) = 34.57364 68.85130 107.60212
#
# Poissons Ratio (x) = 0.83035 0.20500
# Poissons Ratio (y) = 0.41696 0.30724
# Poissons Ratio (z) = 0.06587 0.19659
#
# Static dielectric constant tensor:
#      x y z
#    x 3.354510 0.000000 0.000000 
#    y 0.000000 3.831060 0.000000 
#    z 0.000000 0.000000 4.176330 
# 
# 
# High freq. dielectric constant tensor:
#      x y z
#    x 1.776790 0.000000 0.000000 
#    y 0.000000 1.810370 0.000000 
#    z 0.000000 0.000000 1.825270 
# 
# From -- ./inp_files/250.got.cif
#   From: 2010.03.12/outbox.cif.g09.slc.cpg/sg29_1_cif.got.tgz:250.got - 2010.04.14 03:43:10.
