data_PCOD8168309
_publ_section_title
;
Structure prediction by ZEFSAII (Michael W. Deem and Ramdas Pophale) SiO2 
 PCOD8168309
Probable space group: P M A 2
;
_chemical_formula_sum "Si O2"
_cell_formula_units_Z 28
_cell_length_a 8.731882
_cell_length_b 9.424134
_cell_length_c 17.698323
_cell_angle_alpha 90.000000
_cell_angle_beta 90.000000
_cell_angle_gamma 90.000000
_cell_volume 1456.402540
_symmetry_space_group_name_H-M "P M A 2"
_symmetry_group_IT_number 28
_symmetry_cell_setting 'orthorhombic'
loop_
_space_group_symop_operation_xyz
x,y,z
-x,-y,z
1/2-x,y,z
1/2+x,-y,z
loop_
_atom_site_type_symbol
_atom_site_label
_atom_site_fract_x
_atom_site_fract_y
_atom_site_fract_z
Si Si1 0.568944 0.653972 0.500000
Si Si2 0.430517 0.156004 0.360120
Si Si3 0.071156 0.844464 0.044868
Si Si4 0.428621 0.851865 0.619809
Si Si5 0.926928 0.152858 0.211713
Si Si6 0.428870 0.851815 0.795600
Si Si7 0.068841 0.345414 0.916458
O O1 0.500000 0.500000 0.489203
O O2 0.750000 0.643117 0.505180
O O3 0.513693 0.748175 0.429442
O O4 0.506383 0.722069 0.576818
O O5 0.250000 0.143487 0.357935
O O6 0.489172 0.230956 0.281965
O O7 0.500000 0.000000 0.369954
O O8 0.250000 0.853454 0.023287
O O9 0.050370 0.776411 0.129157
O O10 0.000000 0.000000 0.039139
O O11 0.982310 0.743358 0.988658
O O12 0.250000 0.855918 0.601711
O O13 0.462805 0.827279 0.707731
O O14 0.500000 0.000000 0.591788
O O15 0.750000 0.138941 0.232700
O O16 0.000000 0.000000 0.205338
O O17 0.250000 0.854354 0.814026
O O18 0.508321 0.724205 0.839564
O O19 0.500000 0.000000 0.823648
O O20 0.250000 0.354804 0.913432
O O21 0.000000 0.500000 0.924033
#
# Coordination Sequence:
#
# PCOD8168309 Si02
#       7
#     4   4   4   4   4   4   4
#     4  11  24  39  56  80 112 150 189 230 278 331
#     4  10  20  34  55  82 110 143 183 228 277 328
#     4  10  20  36  58  85 114 146 186 230 277 328
#     4  10  21  38  62  88 114 145 183 228 275 326
#     4   9  17  30  53  82 110 141 179 226 275 323
#     4  10  21  39  62  88 115 145 183 227 275 326
#     4  12  25  40  58  81 112 150 188 229 277 330
#
# _framework density 19.225453000000002
#
# number of rings (size 3 to 8) (size 9 to 14) (size 15 to 20)
#    0.000    1.714    0.000    5.571    0.000    7.429 
#    0.000    0.714    0.000    1.714    0.000    0.000 
#    0.000    0.000    0.000    0.000    0.000    0.000 
#
# Total GULP energy -347215.161069 kJ/mol
# GULP energy per Si atom -12400.541467 kJ/mol
# Density = 1.918170 g / cm^3
# Si number density = 19.225453 Si / 1000 Ang^3
#
#
#
# Elastic Constant Matrix: (Units=GPa)
#
#
# Indices 1 2 3 4 5 6 
#
# 1 122.9506 52.2279 57.8120 0.0000 0.0000 0.0000
# 2 52.2279 115.2580 63.6806 0.0000 0.0000 0.0000
# 3 57.8120 63.6806 115.5735 0.0000 0.0000 0.0000
# 4 0.0000 0.0000 0.0000 9.5401 0.0000 0.0000
# 5 0.0000 0.0000 0.0000 0.0000 33.3941 0.0000
# 6 0.0000 0.0000 0.0000 0.0000 0.0000 33.7482
#
#
#
# Elastic Compliance Matrix: (Units=1/GPa)
#
#
# Indices 1 2 3 4 5 6 
#
# 1 0.011254 -0.002860 -0.004054 0.000000 0.000000 0.000000
# 2 -0.002860 0.013200 -0.005843 0.000000 0.000000 0.000000
# 3 -0.004054 -0.005843 0.013900 0.000000 0.000000 0.000000
# 4 0.000000 0.000000 0.000000 0.104820 0.000000 0.000000
# 5 0.000000 0.000000 0.000000 0.000000 0.029945 0.000000
# 6 0.000000 0.000000 0.000000 0.000000 0.000000 0.029631
#
#
# Mechanical properties :
#
#
# Convention : Reuss Voigt Hill
#
# Bulk Modulus (GPa) = 77.87405 77.91367 77.89386
# Shear Modulus (GPa) = 21.50125 27.34059 24.42092
#
# Velocity S-wave (km/s) = 3.34784 3.77517 3.56791
# Velocity P-wave (km/s) = 7.45236 7.72119 7.58797
#
# Compressibility (1/GPa) = 0.01284125
#
# Stress axis : x y z
#
# Youngs Moduli (GPa) = 88.85444 75.75592 71.94483
#
# Poissons Ratio (x) = 0.21667 0.29165
# Poissons Ratio (y) = 0.25413 0.42035
# Poissons Ratio (z) = 0.36019 0.44262
#
# Static dielectric constant tensor:
#      x y z
#    x 3.686610 0.000000 0.000000 
#    y 0.000000 3.322750 0.000000 
#    z 0.000000 0.000000 4.056560 
# 
# 
# High freq. dielectric constant tensor:
#      x y z
#    x 1.768270 0.000000 0.000000 
#    y 0.000000 1.722090 0.000000 
#    z 0.000000 0.000000 1.769600 
# 
# From -- ./inp_files/6723.got.cif
#   From: 2010.03.12/outbox.cif.g09.slc.cpg/sg28_4_cif.got.tgz:6723.got - 2010.04.14 03:39:34.
