data_PCOD8168434
_publ_section_title
;
Structure prediction by ZEFSAII (Michael W. Deem and Ramdas Pophale) SiO2 
 PCOD8168434
Probable space group: P M A 2
;
_chemical_formula_sum "Si O2"
_cell_formula_units_Z 20
_cell_length_a 8.944867
_cell_length_b 14.937859
_cell_length_c 7.401014
_cell_angle_alpha 90.000000
_cell_angle_beta 90.000000
_cell_angle_gamma 90.000000
_cell_volume 988.902487
_symmetry_space_group_name_H-M "P M A 2"
_symmetry_group_IT_number 28
_symmetry_cell_setting 'orthorhombic'
loop_
_space_group_symop_operation_xyz
x,y,z
-x,-y,z
1/2-x,y,z
1/2+x,-y,z
loop_
_atom_site_type_symbol
_atom_site_label
_atom_site_fract_x
_atom_site_fract_y
_atom_site_fract_z
Si Si1 0.423290 0.779082 0.886280
Si Si2 0.076256 0.217554 0.503921
Si Si3 0.576083 0.583660 0.511779
Si Si4 0.077750 0.582751 0.898697
Si Si5 0.926182 0.095974 0.213067
O O1 0.250000 0.789385 0.829205
O O2 0.525127 0.791186 0.710962
O O3 0.447564 0.681549 0.982410
O O4 0.473125 0.852447 0.031338
O O5 0.250000 0.191868 0.494711
O O6 0.050234 0.318275 0.424348
O O7 0.982414 0.148539 0.387460
O O8 0.500000 0.500000 0.401260
O O9 0.750000 0.563498 0.535487
O O10 0.495388 0.586894 0.702942
O O11 0.250000 0.558493 0.882352
O O12 0.000000 0.500000 0.008755
O O13 0.750000 0.085619 0.229009
O O14 0.000000 0.000000 0.205401
#
# Coordination Sequence:
#
# PCOD8168434 Si02
#       5
#     4   4   4   4   4
#     4   9  20  38  59  83 113 151 189 228 279 335
#     4  10  21  37  59  87 117 150 188 231 280 334
#     4   9  16  27  47  77 111 147 185 223 267 320
#     4   9  15  26  47  76 109 144 182 221 267 323
#     4  11  24  42  62  83 110 144 186 237 289 340
#
# _framework density 20.224442
#
# number of rings (size 3 to 8) (size 9 to 14) (size 15 to 20)
#    0.000    2.400    0.000    3.600    0.000    5.600 
#    0.000    3.000    0.000    4.800    0.000    0.000 
#    0.000    0.000    0.000    0.000    0.000    0.000 
#
# Total GULP energy -247823.534032 kJ/mol
# GULP energy per Si atom -12391.176702 kJ/mol
# Density = 2.017841 g / cm^3
# Si number density = 20.224442 Si / 1000 Ang^3
#
#
#
# Elastic Constant Matrix: (Units=GPa)
#
#
# Indices 1 2 3 4 5 6 
#
# 1 124.0418 79.5414 40.5163 0.0000 0.0000 0.0000
# 2 79.5414 191.3621 57.0839 0.0000 0.0000 0.0000
# 3 40.5163 57.0839 64.1013 0.0000 0.0000 0.0000
# 4 0.0000 0.0000 0.0000 43.8066 0.0000 0.0000
# 5 0.0000 0.0000 0.0000 0.0000 13.6766 0.0000
# 6 0.0000 0.0000 0.0000 0.0000 0.0000 74.2678
#
#
#
# Elastic Compliance Matrix: (Units=1/GPa)
#
#
# Indices 1 2 3 4 5 6 
#
# 1 0.011766 -0.003639 -0.004196 0.000000 0.000000 0.000000
# 2 -0.003639 0.008241 -0.005039 0.000000 0.000000 0.000000
# 3 -0.004196 -0.005039 0.022740 0.000000 0.000000 0.000000
# 4 0.000000 0.000000 0.000000 0.022828 0.000000 0.000000
# 5 0.000000 0.000000 0.000000 0.000000 0.073118 0.000000
# 6 0.000000 0.000000 0.000000 0.000000 0.000000 0.013465
#
#
# Mechanical properties :
#
#
# Convention : Reuss Voigt Hill
#
# Bulk Modulus (GPa) = 58.82788 81.53205 70.17996
# Shear Modulus (GPa) = 27.23715 39.84110 33.53912
#
# Velocity S-wave (km/s) = 3.67378 4.44322 4.07670
# Velocity P-wave (km/s) = 6.86631 8.16848 7.54554
#
# Compressibility (1/GPa) = 0.01699874
#
# Stress axis : x y z
#
# Youngs Moduli (GPa) = 84.99182 121.33839 43.97486
#
# Poissons Ratio (x) = 0.44153 0.18453
# Poissons Ratio (y) = 0.30927 0.22160
# Poissons Ratio (z) = 0.35666 0.61145
#
# Static dielectric constant tensor:
#      x y z
#    x 3.797190 0.000000 0.000000 
#    y 0.000000 4.700280 0.000000 
#    z 0.000000 0.000000 3.179600 
# 
# 
# High freq. dielectric constant tensor:
#      x y z
#    x 1.801960 0.000000 0.000000 
#    y 0.000000 1.811260 0.000000 
#    z 0.000000 0.000000 1.749520 
# 
# From -- ./inp_files/2376.got.cif
#   From: 2010.03.12/outbox.cif.g09.slc.cpg/sg28_2_cif.got.tgz:2376.got - 2010.04.14 03:39:34.
