data_PCOD8168055
_publ_section_title
;
Structure prediction by ZEFSAII (Michael W. Deem and Ramdas Pophale) SiO2 
 PCOD8168055
Probable space group: P M A 2
;
_chemical_formula_sum "Si O2"
_cell_formula_units_Z 32
_cell_length_a 8.803086
_cell_length_b 14.676005
_cell_length_c 12.306841
_cell_angle_alpha 90.000000
_cell_angle_beta 90.000000
_cell_angle_gamma 90.000000
_cell_volume 1589.971667
_symmetry_space_group_name_H-M "P M A 2"
_symmetry_group_IT_number 28
_symmetry_cell_setting 'orthorhombic'
loop_
_space_group_symop_operation_xyz
x,y,z
-x,-y,z
1/2-x,y,z
1/2+x,-y,z
loop_
_atom_site_type_symbol
_atom_site_label
_atom_site_fract_x
_atom_site_fract_y
_atom_site_fract_z
Si Si1 0.922655 0.414621 0.064310
Si Si2 0.070522 0.908106 0.168950
Si Si3 0.570471 0.909786 0.706773
Si Si4 0.070494 0.400028 0.440204
Si Si5 0.073944 0.321083 0.882347
Si Si6 0.928016 0.136084 0.927506
Si Si7 0.073834 0.287060 0.642084
Si Si8 0.076314 0.717871 0.257399
O O1 0.750000 0.436665 0.034096
O O2 0.934648 0.325863 0.138444
O O3 0.000000 0.500000 0.127186
O O4 0.022584 0.406601 0.953956
O O5 0.250000 0.913328 0.172361
O O6 0.018246 0.821849 0.242381
O O7 0.015303 0.900062 0.044240
O O8 0.000000 0.000000 0.220032
O O9 0.750000 0.913714 0.698271
O O10 0.523725 0.913005 0.833354
O O11 0.507039 0.816634 0.650525
O O12 0.500000 0.000000 0.649289
O O13 0.250000 0.412705 0.447806
O O14 0.001328 0.347522 0.545831
O O15 0.000000 0.500000 0.429296
O O16 0.031611 0.336801 0.338126
O O17 0.250000 0.294640 0.901285
O O18 0.045385 0.340297 0.754889
O O19 0.962172 0.242710 0.923686
O O20 0.750000 0.118940 0.908718
O O21 0.250000 0.276431 0.616362
O O22 0.250000 0.713653 0.299939
#
# Coordination Sequence:
#
# PCOD8168055 Si02
#       8
#     4   4   4   4   4   4   4   4
#     4  11  22  37  56  82 117 152 189 236 291 352
#     4  10  21  36  55  82 117 154 192 235 283 338
#     4  10  19  33  53  82 117 157 197 240 285 342
#     4  11  23  42  66  89 111 145 193 245 298 353
#     4  10  19  34  56  83 117 155 191 234 287 345
#     4  10  18  32  52  79 116 159 197 237 282 335
#     4   8  19  38  58  82 116 150 189 238 288 343
#     4  10  22  42  61  83 117 151 191 244 291 341
#
# _framework density 20.126144
#
# number of rings (size 3 to 8) (size 9 to 14) (size 15 to 20)
#    0.000    2.000    1.250    3.375    0.000    5.000 
#    0.000    9.375    0.000    3.000    0.000    0.000 
#    0.000    0.000    0.000    0.000    0.000    0.000 
#
# Total GULP energy -396677.929827 kJ/mol
# GULP energy per Si atom -12396.185307 kJ/mol
# Density = 2.008034 g / cm^3
# Si number density = 20.126144 Si / 1000 Ang^3
#
#
#
# Elastic Constant Matrix: (Units=GPa)
#
#
# Indices 1 2 3 4 5 6 
#
# 1 62.2529 36.1872 33.2676 0.0000 0.0000 0.0000
# 2 36.1872 144.9457 53.6341 0.0000 0.0000 0.0000
# 3 33.2676 53.6341 88.9877 0.0000 0.0000 0.0000
# 4 0.0000 0.0000 0.0000 23.4317 0.0000 0.0000
# 5 0.0000 0.0000 0.0000 0.0000 18.6277 0.0000
# 6 0.0000 0.0000 0.0000 0.0000 0.0000 35.0753
#
#
#
# Elastic Compliance Matrix: (Units=1/GPa)
#
#
# Indices 1 2 3 4 5 6 
#
# 1 0.021051 -0.003016 -0.006052 0.000000 0.000000 0.000000
# 2 -0.003016 0.009312 -0.004485 0.000000 0.000000 0.000000
# 3 -0.006052 -0.004485 0.016203 0.000000 0.000000 0.000000
# 4 0.000000 0.000000 0.000000 0.042677 0.000000 0.000000
# 5 0.000000 0.000000 0.000000 0.000000 0.053683 0.000000
# 6 0.000000 0.000000 0.000000 0.000000 0.000000 0.028510
#
#
# Mechanical properties :
#
#
# Convention : Reuss Voigt Hill
#
# Bulk Modulus (GPa) = 51.38745 60.26267 55.82506
# Shear Modulus (GPa) = 24.38689 26.96677 25.67683
#
# Velocity S-wave (km/s) = 3.48473 3.66442 3.57570
# Velocity P-wave (km/s) = 6.46368 6.92181 6.69667
#
# Compressibility (1/GPa) = 0.01946001
#
# Stress axis : x y z
#
# Youngs Moduli (GPa) = 47.50392 107.39280 61.71729
#
# Poissons Ratio (x) = 0.32392 0.37350
# Poissons Ratio (y) = 0.14328 0.27678
# Poissons Ratio (z) = 0.28749 0.48162
#
# Static dielectric constant tensor:
#      x y z
#    x 3.488570 0.000000 0.000000 
#    y 0.000000 4.006210 0.000000 
#    z 0.000000 0.000000 3.543470 
# 
# 
# High freq. dielectric constant tensor:
#      x y z
#    x 1.774540 0.000000 0.000000 
#    y 0.000000 1.800090 0.000000 
#    z 0.000000 0.000000 1.762000 
# 
# From -- ./inp_files/5034.got.cif
#   From: 2010.03.12/outbox.cif.g09.slc.cpg/sg28_3_cif.got.tgz:5034.got - 2010.04.14 03:39:34.
