data_PCOD8168232
_publ_section_title
;
Structure prediction by ZEFSAII (Michael W. Deem and Ramdas Pophale) SiO2 
 PCOD8168232
Probable space group: P M A 2
;
_chemical_formula_sum "Si O2"
_cell_formula_units_Z 28
_cell_length_a 8.696009
_cell_length_b 9.041636
_cell_length_c 18.246742
_cell_angle_alpha 90.000000
_cell_angle_beta 90.000000
_cell_angle_gamma 90.000000
_cell_volume 1434.671038
_symmetry_space_group_name_H-M "P M A 2"
_symmetry_group_IT_number 28
_symmetry_cell_setting 'orthorhombic'
loop_
_space_group_symop_operation_xyz
x,y,z
-x,-y,z
1/2-x,y,z
1/2+x,-y,z
loop_
_atom_site_type_symbol
_atom_site_label
_atom_site_fract_x
_atom_site_fract_y
_atom_site_fract_z
Si Si1 0.568967 0.337266 0.600980
Si Si2 0.427348 0.342908 0.323973
Si Si3 0.931926 0.664026 0.062781
Si Si4 0.568329 0.663350 0.747094
Si Si5 0.927144 0.842545 0.470332
Si Si6 0.071363 0.341261 0.903228
Si Si7 0.931564 0.160054 0.194354
O O1 0.500000 0.500000 0.590404
O O2 0.750000 0.351599 0.602880
O O3 0.510195 0.259095 0.676723
O O4 0.519993 0.234988 0.534575
O O5 0.500000 0.500000 0.341729
O O6 0.250000 0.358994 0.300607
O O7 0.446536 0.247639 0.396307
O O8 0.520338 0.270941 0.257974
O O9 0.750000 0.655316 0.076379
O O10 0.000000 0.500000 0.073868
O O11 0.007456 0.779360 0.117497
O O12 0.972282 0.732287 0.981441
O O13 0.500000 0.500000 0.749955
O O14 0.750000 0.658246 0.733752
O O15 0.526558 0.742385 0.826233
O O16 0.750000 0.857260 0.493585
O O17 0.000000 0.000000 0.454688
O O18 0.250000 0.369832 0.901178
O O19 0.000000 0.500000 0.902618
O O20 0.750000 0.147023 0.191199
O O21 0.000000 0.000000 0.211051
#
# Coordination Sequence:
#
# PCOD8168232 Si02
#       7
#     4   4   4   4   4   4   4
#     4  11  21  34  54  81 113 149 189 233 280 329
#     4  11  24  42  65  91 117 146 182 225 272 323
#     4  10  19  34  55  82 114 148 188 232 279 329
#     4   9  15  26  45  73 107 142 182 229 280 329
#     4  11  24  41  61  85 114 148 185 226 275 330
#     4   8  15  26  45  73 106 142 180 227 278 327
#     4  12  25  41  60  83 113 149 187 228 277 331
#
# _framework density 19.516667999999999
#
# number of rings (size 3 to 8) (size 9 to 14) (size 15 to 20)
#    0.000    1.714    0.000    6.429    0.000    5.714 
#    0.000    0.000    0.000    0.857    0.000    4.000 
#    0.000    0.000    0.000    0.000    0.000    0.000 
#
# Total GULP energy -346983.980487 kJ/mol
# GULP energy per Si atom -12392.285017 kJ/mol
# Density = 1.947225 g / cm^3
# Si number density = 19.516668 Si / 1000 Ang^3
#
#
#
# Elastic Constant Matrix: (Units=GPa)
#
#
# Indices 1 2 3 4 5 6 
#
# 1 136.7089 39.3430 59.5492 0.0000 0.0000 0.0000
# 2 39.3430 76.9844 29.5488 0.0000 0.0000 0.0000
# 3 59.5492 29.5488 130.5173 0.0000 0.0000 0.0000
# 4 0.0000 0.0000 0.0000 -13.7292 0.0000 0.0000
# 5 0.0000 0.0000 0.0000 0.0000 1.3554 0.0000
# 6 0.0000 0.0000 0.0000 0.0000 0.0000 26.0701
#
#
#
# Elastic Compliance Matrix: (Units=1/GPa)
#
#
# Indices 1 2 3 4 5 6 
#
# 1 0.009998 -0.003678 -0.003729 0.000000 0.000000 0.000000
# 2 -0.003678 0.015579 -0.001849 0.000000 0.000000 0.000000
# 3 -0.003729 -0.001849 0.009782 0.000000 0.000000 0.000000
# 4 0.000000 0.000000 0.000000 -0.072837 0.000000 0.000000
# 5 0.000000 0.000000 0.000000 0.000000 0.737799 0.000000
# 6 0.000000 0.000000 0.000000 0.000000 0.000000 0.038358
#
#
# Mechanical properties :
#
#
# Convention : Reuss Voigt Hill
#
# Bulk Modulus (GPa) = 59.35849 66.78804 63.07327
# Shear Modulus (GPa) = 6.55476 17.12390 11.83933
#
# Velocity S-wave (km/s) = 1.83462 2.96530 2.46565
# Velocity P-wave (km/s) = 5.91338 6.78376 6.36347
#
# Compressibility (1/GPa) = 0.01684679
#
# Stress axis : x y z
#
# Youngs Moduli (GPa) = 100.02499 64.18905 102.23221
#
# Poissons Ratio (x) = 0.23609 0.38119
# Poissons Ratio (y) = 0.36790 0.18902
# Poissons Ratio (z) = 0.37296 0.11868
#
# Static dielectric constant tensor:
#      x y z
#    x 3.753230 0.000000 0.000000 
#    y 0.000000 3.208950 0.000000 
#    z 0.000000 0.000000 4.505810 
# 
# 
# High freq. dielectric constant tensor:
#      x y z
#    x 1.778070 0.000000 0.000000 
#    y 0.000000 1.716430 0.000000 
#    z 0.000000 0.000000 1.794930 
# 
# From -- ./inp_files/6778.got.cif
#   From: 2010.03.12/outbox.cif.g09.slc.cpg/sg28_4_cif.got.tgz:6778.got - 2010.04.14 03:39:34.
