data_PCOD8168315
_publ_section_title
;
Structure prediction by ZEFSAII (Michael W. Deem and Ramdas Pophale) SiO2 
 PCOD8168315
Probable space group: P M A 2
;
_chemical_formula_sum "Si O2"
_cell_formula_units_Z 24
_cell_length_a 8.623192
_cell_length_b 9.037728
_cell_length_c 15.487384
_cell_angle_alpha 90.000000
_cell_angle_beta 90.000000
_cell_angle_gamma 90.000000
_cell_volume 1206.994773
_symmetry_space_group_name_H-M "P M A 2"
_symmetry_group_IT_number 28
_symmetry_cell_setting 'orthorhombic'
loop_
_space_group_symop_operation_xyz
x,y,z
-x,-y,z
1/2-x,y,z
1/2+x,-y,z
loop_
_atom_site_type_symbol
_atom_site_label
_atom_site_fract_x
_atom_site_fract_y
_atom_site_fract_z
Si Si1 0.933365 0.837898 0.930130
Si Si2 0.570836 0.339270 0.584608
Si Si3 0.067974 0.336918 0.414560
Si Si4 0.565741 0.838289 0.246304
Si Si5 0.933768 0.338674 0.087469
Si Si6 0.431494 0.664147 0.776003
O O1 0.750000 0.844901 0.938698
O O2 0.981287 0.780959 0.835968
O O3 0.000000 0.000000 0.948075
O O4 0.000840 0.722100 0.997998
O O5 0.500000 0.500000 0.589810
O O6 0.750000 0.350919 0.562247
O O7 0.489452 0.256101 0.503567
O O8 0.543047 0.269061 0.679253
O O9 0.250000 0.347150 0.416475
O O10 0.010876 0.245920 0.332175
O O11 0.000000 0.500000 0.407244
O O12 0.750000 0.837892 0.234059
O O13 0.486237 0.766277 0.164124
O O14 0.500000 0.000000 0.255714
O O15 0.750000 0.345650 0.082345
O O16 0.000000 0.500000 0.105515
O O17 0.500000 0.500000 0.787367
O O18 0.250000 0.656636 0.799168
#
# Coordination Sequence:
#
# PCOD8168315 Si02
#       6
#     4   4   4   4   4   4
#     4  12  25  42  62  86 118 155 192 236 288 345
#     4   9  17  30  53  82 114 149 190 238 287 336
#     4  10  20  34  56  84 115 150 193 240 288 340
#     4  11  24  41  60  86 118 155 194 237 289 345
#     4  12  25  43  66  91 118 150 190 237 284 339
#     4  10  20  36  58  87 118 153 196 242 289 341
#
# _framework density 19.884096
#
# number of rings (size 3 to 8) (size 9 to 14) (size 15 to 20)
#    0.000    1.333    0.000    7.500    0.000    6.000 
#    0.000    0.833    0.000    2.000    0.000    0.000 
#    0.000    0.000    0.000    0.000    0.000    0.000 
#
# Total GULP energy -297589.201120 kJ/mol
# GULP energy per Si atom -12399.550047 kJ/mol
# Density = 1.983884 g / cm^3
# Si number density = 19.884096 Si / 1000 Ang^3
#
#
#
# Elastic Constant Matrix: (Units=GPa)
#
#
# Indices 1 2 3 4 5 6 
#
# 1 124.4375 26.1267 43.9378 0.0000 0.0000 0.0000
# 2 26.1267 67.2601 26.5414 0.0000 0.0000 0.0000
# 3 43.9378 26.5414 131.7892 0.0000 0.0000 0.0000
# 4 0.0000 0.0000 0.0000 18.1519 0.0000 0.0000
# 5 0.0000 0.0000 0.0000 0.0000 46.3192 0.0000
# 6 0.0000 0.0000 0.0000 0.0000 0.0000 33.0369
#
#
#
# Elastic Compliance Matrix: (Units=1/GPa)
#
#
# Indices 1 2 3 4 5 6 
#
# 1 0.009527 -0.002659 -0.002641 0.000000 0.000000 0.000000
# 2 -0.002659 0.016893 -0.002516 0.000000 0.000000 0.000000
# 3 -0.002641 -0.002516 0.008975 0.000000 0.000000 0.000000
# 4 0.000000 0.000000 0.000000 0.055091 0.000000 0.000000
# 5 0.000000 0.000000 0.000000 0.000000 0.021589 0.000000
# 6 0.000000 0.000000 0.000000 0.000000 0.000000 0.030269
#
#
# Mechanical properties :
#
#
# Convention : Reuss Voigt Hill
#
# Bulk Modulus (GPa) = 50.59546 57.41095 54.00320
# Shear Modulus (GPa) = 30.38359 34.62699 32.50529
#
# Velocity S-wave (km/s) = 3.91325 4.17759 4.04758
# Velocity P-wave (km/s) = 6.77632 7.22531 7.00441
#
# Compressibility (1/GPa) = 0.01976462
#
# Stress axis : x y z
#
# Youngs Moduli (GPa) = 104.96730 59.19574 111.42112
#
# Poissons Ratio (x) = 0.15737 0.29424
# Poissons Ratio (y) = 0.27906 0.28031
# Poissons Ratio (z) = 0.27719 0.14892
#
# Static dielectric constant tensor:
#      x y z
#    x 3.818680 0.000000 0.000000 
#    y 0.000000 3.144320 0.000000 
#    z 0.000000 0.000000 4.432730 
# 
# 
# High freq. dielectric constant tensor:
#      x y z
#    x 1.796400 0.000000 0.000000 
#    y 0.000000 1.751970 0.000000 
#    z 0.000000 0.000000 1.803890 
# 
# From -- ./inp_files/6095.got.cif
#   From: 2010.03.12/outbox.cif.g09.slc.cpg/sg28_4_cif.got.tgz:6095.got - 2010.04.14 03:39:34.
