data_PCOD8168718
_publ_section_title
;
Structure prediction by ZEFSAII (Michael W. Deem and Ramdas Pophale) SiO2 
 PCOD8168718
Probable space group: P C A 21
;
_chemical_formula_sum "Si O2"
_cell_formula_units_Z 24
_cell_length_a 9.728112
_cell_length_b 8.335828
_cell_length_c 14.996372
_cell_angle_alpha 90.000000
_cell_angle_beta 90.000000
_cell_angle_gamma 90.000000
_cell_volume 1216.083825
_symmetry_space_group_name_H-M "P C A 21"
_symmetry_group_IT_number 29
_symmetry_cell_setting 'orthorhombic'
loop_
_space_group_symop_operation_xyz
x,y,z
-x,-y,1/2+z
1/2-x,y,1/2+z
1/2+x,-y,z
loop_
_atom_site_type_symbol
_atom_site_label
_atom_site_fract_x
_atom_site_fract_y
_atom_site_fract_z
Si Si1 0.903675 0.126362 0.460500
Si Si2 0.155677 0.322514 0.497777
Si Si3 0.995141 0.909588 0.620585
Si Si4 0.704868 0.843118 0.681180
Si Si5 0.388348 0.191987 0.372360
Si Si6 0.875439 0.308252 0.980213
O O1 0.751266 0.193502 0.460292
O O2 0.011930 0.271607 0.452139
O O3 0.919443 0.999151 0.379656
O O4 0.932257 0.036370 0.552288
O O5 0.163506 0.275310 0.601414
O O6 0.274712 0.230780 0.446289
O O7 0.175868 0.511832 0.491561
O O8 0.046913 0.750115 0.569722
O O9 0.869654 0.867223 0.686806
O O10 0.123616 0.988001 0.672411
O O11 0.660024 0.760439 0.773754
O O12 0.524345 0.294237 0.394888
#
# Coordination Sequence:
#
# PCOD8168718 Si02
#       6
#     4   4   4   4   4   4
#     4  10  20  38  64  86 118 164 208 253 307 366
#     4  11  23  42  63  91 129 165 201 262 320 367
#     4  10  20  40  62  91 119 160 209 255 303 366
#     4  11  23  40  66  95 122 164 216 253 307 368
#     4  11  23  41  63  92 123 163 218 256 302 371
#     4  11  21  41  64  87 127 166 204 257 319 366
#
# _framework density 19.735482000000001
#
# number of rings (size 3 to 8) (size 9 to 14) (size 15 to 20)
#    0.000    1.333    5.000    3.000    4.667    0.000 
#    3.000    1.667    0.000    0.000    0.000    0.000 
#    0.000    0.000    0.000    0.000    0.000    0.000 
#
# Total GULP energy -297630.660862 kJ/mol
# GULP energy per Si atom -12401.277536 kJ/mol
# Density = 1.969056 g / cm^3
# Si number density = 19.735482 Si / 1000 Ang^3
#
#
#
# Elastic Constant Matrix: (Units=GPa)
#
#
# Indices 1 2 3 4 5 6 
#
# 1 91.7468 5.5514 7.3966 0.0000 0.0000 0.0000
# 2 5.5514 82.5118 17.8639 0.0000 0.0000 0.0000
# 3 7.3966 17.8639 82.7441 0.0000 0.0000 0.0000
# 4 0.0000 0.0000 0.0000 11.4227 0.0000 0.0000
# 5 0.0000 0.0000 0.0000 0.0000 13.6918 0.0000
# 6 0.0000 0.0000 0.0000 0.0000 0.0000 25.8701
#
#
#
# Elastic Compliance Matrix: (Units=1/GPa)
#
#
# Indices 1 2 3 4 5 6 
#
# 1 0.011003 -0.000553 -0.000864 0.000000 0.000000 0.000000
# 2 -0.000553 0.012742 -0.002701 0.000000 0.000000 0.000000
# 3 -0.000864 -0.002701 0.012746 0.000000 0.000000 0.000000
# 4 0.000000 0.000000 0.000000 0.087545 0.000000 0.000000
# 5 0.000000 0.000000 0.000000 0.000000 0.073036 0.000000
# 6 0.000000 0.000000 0.000000 0.000000 0.000000 0.038655
#
#
# Mechanical properties :
#
#
# Convention : Reuss Voigt Hill
#
# Bulk Modulus (GPa) = 35.39469 35.40294 35.39881
# Shear Modulus (GPa) = 19.73314 25.27632 22.50473
#
# Velocity S-wave (km/s) = 3.16552 3.58265 3.38052
# Velocity P-wave (km/s) = 5.59769 5.92381 5.76306
#
# Compressibility (1/GPa) = 0.02825283
#
# Stress axis : x y z
#
# Youngs Moduli (GPa) = 90.88684 78.48346 78.45656
#
# Poissons Ratio (x) = 0.04342 0.06780
# Poissons Ratio (y) = 0.05028 0.21194
# Poissons Ratio (z) = 0.07854 0.21201
#
# Static dielectric constant tensor:
#      x y z
#    x 3.911490 0.000000 0.000000 
#    y 0.000000 3.448280 0.000000 
#    z 0.000000 0.000000 3.390830 
# 
# 
# High freq. dielectric constant tensor:
#      x y z
#    x 1.791930 0.000000 0.000000 
#    y 0.000000 1.753820 0.000000 
#    z 0.000000 0.000000 1.748010 
# 
# From -- ./inp_files/4182.got.cif
#   From: 2010.03.12/outbox.cif.g09.slc.cpg/sg29_3_cif.got.tgz:4182.got - 2010.04.14 03:43:10.
