data_PCOD8168734
_publ_section_title
;
Structure prediction by ZEFSAII (Michael W. Deem and Ramdas Pophale) SiO2 
 PCOD8168734
Probable space group: P C A 21
;
_chemical_formula_sum "Si O2"
_cell_formula_units_Z 32
_cell_length_a 14.145824
_cell_length_b 11.629869
_cell_length_c 9.149072
_cell_angle_alpha 90.000000
_cell_angle_beta 90.000000
_cell_angle_gamma 90.000000
_cell_volume 1505.151163
_symmetry_space_group_name_H-M "P C A 21"
_symmetry_group_IT_number 29
_symmetry_cell_setting 'orthorhombic'
loop_
_space_group_symop_operation_xyz
x,y,z
-x,-y,1/2+z
1/2-x,y,1/2+z
1/2+x,-y,z
loop_
_atom_site_type_symbol
_atom_site_label
_atom_site_fract_x
_atom_site_fract_y
_atom_site_fract_z
Si Si1 0.361485 0.968932 0.903210
Si Si2 0.941071 0.605938 0.932778
Si Si3 0.462102 0.744988 0.986068
Si Si4 0.695775 0.091070 0.703661
Si Si5 0.753566 0.484098 0.830310
Si Si6 0.730411 0.328299 0.576773
Si Si7 0.440998 0.422861 0.272161
Si Si8 0.493284 0.164742 0.783595
O O1 0.403050 0.840761 0.898880
O O2 0.264778 0.976025 0.811163
O O3 0.436934 0.051509 0.828767
O O4 0.338615 0.996217 0.074547
O O5 0.836130 0.560266 0.899628
O O6 0.012936 0.539253 0.829279
O O7 0.955262 0.739002 0.893713
O O8 0.965823 0.592948 0.102777
O O9 0.524364 0.684922 0.865228
O O10 0.385097 0.657755 0.060777
O O11 0.527494 0.799184 0.114492
O O12 0.751949 0.197435 0.624438
O O13 0.605828 0.138805 0.795254
O O14 0.779192 0.424247 0.678258
O O15 0.669821 0.572976 0.803149
O O16 0.724922 0.369468 0.923590
#
# Coordination Sequence:
#
# PCOD8168734 Si02
#       8
#     4   4   4   4   4   4   4   4
#     4  10  23  45  70  99 130 172 227 284 332 403
#     4  12  27  43  64 101 136 182 220 274 346 401
#     4  10  23  44  69  99 132 177 230 279 338 400
#     4  10  23  43  71 102 126 177 231 277 339 392
#     4  12  23  40  61  97 135 175 214 268 337 402
#     4  10  20  40  64  93 132 165 221 272 320 398
#     4  12  25  42  67  98 137 177 226 275 337 406
#     4  10  24  47  66  95 142 175 223 285 337 410
#
# _framework density 21.260321000000001
#
# number of rings (size 3 to 8) (size 9 to 14) (size 15 to 20)
#    0.000    1.500    2.500    3.750    3.500    5.000 
#    6.750    0.000    0.000    0.000    0.000    0.000 
#    0.000    0.000    0.000    0.000    0.000    0.000 
#
# Total GULP energy -396598.521467 kJ/mol
# GULP energy per Si atom -12393.703796 kJ/mol
# Density = 2.121193 g / cm^3
# Si number density = 21.260321 Si / 1000 Ang^3
#
#
#
# Elastic Constant Matrix: (Units=GPa)
#
#
# Indices 1 2 3 4 5 6 
#
# 1 23.9319 17.0411 35.6298 0.0000 0.0000 0.0000
# 2 17.0411 59.5069 32.5170 0.0000 0.0000 0.0000
# 3 35.6298 32.5170 117.4396 0.0000 0.0000 0.0000
# 4 0.0000 0.0000 0.0000 14.3682 0.0000 0.0000
# 5 0.0000 0.0000 0.0000 0.0000 31.3830 0.0000
# 6 0.0000 0.0000 0.0000 0.0000 0.0000 22.8111
#
#
#
# Elastic Compliance Matrix: (Units=1/GPa)
#
#
# Indices 1 2 3 4 5 6 
#
# 1 0.082626 -0.011740 -0.021817 0.000000 0.000000 0.000000
# 2 -0.011740 0.021469 -0.002383 0.000000 0.000000 0.000000
# 3 -0.021817 -0.002383 0.015794 0.000000 0.000000 0.000000
# 4 0.000000 0.000000 0.000000 0.069598 0.000000 0.000000
# 5 0.000000 0.000000 0.000000 0.000000 0.031864 0.000000
# 6 0.000000 0.000000 0.000000 0.000000 0.000000 0.043838
#
#
# Mechanical properties :
#
#
# Convention : Reuss Voigt Hill
#
# Bulk Modulus (GPa) = 20.82934 41.25050 31.03992
# Shear Modulus (GPa) = 14.16140 21.42515 17.79327
#
# Velocity S-wave (km/s) = 2.58368 3.17796 2.89610
# Velocity P-wave (km/s) = 4.32656 5.73677 5.08083
#
# Compressibility (1/GPa) = 0.04800919
#
# Stress axis : x y z
#
# Youngs Moduli (GPa) = 12.10267 46.57944 63.31602
#
# Poissons Ratio (x) = 0.54685 1.38138
# Poissons Ratio (y) = 0.14209 0.15085
# Poissons Ratio (z) = 0.26405 0.11098
#
# Static dielectric constant tensor:
#      x y z
#    x 3.741170 0.000000 0.000000 
#    y 0.000000 3.701010 0.000000 
#    z 0.000000 0.000000 4.036580 
# 
# 
# High freq. dielectric constant tensor:
#      x y z
#    x 1.821010 0.000000 0.000000 
#    y 0.000000 1.817580 0.000000 
#    z 0.000000 0.000000 1.850760 
# 
# From -- ./inp_files/1860.got.cif
#   From: 2010.03.12/outbox.cif.g09.slc.cpg/sg29_1_cif.got.tgz:1860.got - 2010.04.14 03:43:10.
