data_PCOD8168150
_publ_section_title
;
Structure prediction by ZEFSAII (Michael W. Deem and Ramdas Pophale) SiO2 
 PCOD8168150
Probable space group: P M A 2
;
_chemical_formula_sum "Si O2"
_cell_formula_units_Z 32
_cell_length_a 9.294942
_cell_length_b 16.462225
_cell_length_c 11.008360
_cell_angle_alpha 90.000000
_cell_angle_beta 90.000000
_cell_angle_gamma 90.000000
_cell_volume 1684.448901
_symmetry_space_group_name_H-M "P M A 2"
_symmetry_group_IT_number 28
_symmetry_cell_setting 'orthorhombic'
loop_
_space_group_symop_operation_xyz
x,y,z
-x,-y,z
1/2-x,y,z
1/2+x,-y,z
loop_
_atom_site_type_symbol
_atom_site_label
_atom_site_fract_x
_atom_site_fract_y
_atom_site_fract_z
Si Si1 0.919963 0.250190 0.738430
Si Si2 0.914496 0.075462 0.141080
Si Si3 0.417723 0.582086 0.877522
Si Si4 0.911501 0.362051 0.144602
Si Si5 0.410340 0.574263 0.401535
Si Si6 0.589082 0.782800 0.242923
Si Si7 0.587561 0.720714 0.502031
Si Si8 0.585068 0.079073 0.857334
O O1 0.750000 0.251437 0.710533
O O2 0.964160 0.334334 0.807715
O O3 0.962940 0.168083 0.810618
O O4 0.013835 0.238826 0.617843
O O5 0.750000 0.062574 0.173427
O O6 0.970822 0.152670 0.210113
O O7 0.943257 0.085442 0.999465
O O8 0.000000 0.000000 0.195120
O O9 0.500000 0.500000 0.831891
O O10 0.250000 0.565849 0.856019
O O11 0.453684 0.593944 0.019748
O O12 0.750000 0.322559 0.131526
O O13 0.908286 0.426057 0.254926
O O14 0.035743 0.298980 0.178206
O O15 0.500000 0.500000 0.451866
O O16 0.250000 0.568403 0.453996
O O17 0.483591 0.650246 0.461220
O O18 0.750000 0.801590 0.193357
O O19 0.593466 0.781800 0.388790
O O20 0.750000 0.691186 0.533037
O O21 0.750000 0.062511 0.824737
O O22 0.500000 0.000000 0.804089
#
# Coordination Sequence:
#
# PCOD8168150 Si02
#       8
#     4   4   4   4   4   4   4   4
#     4  10  21  38  57  77 107 147 186 225 272 323
#     4  10  19  33  55  83 114 142 169 207 259 319
#     4  10  21  36  54  79 111 145 182 223 270 326
#     4   9  18  33  53  77 106 139 173 214 269 327
#     4  10  19  32  53  78 104 136 174 218 269 322
#     4  10  20  34  53  78 106 137 176 220 266 318
#     4  10  22  38  54  74 102 137 181 227 265 310
#     4   9  19  36  59  86 113 141 176 220 270 325
#
# _framework density 18.997311
#
# number of rings (size 3 to 8) (size 9 to 14) (size 15 to 20)
#    0.000    2.250    0.000    2.625    0.000    6.500 
#    0.000    3.125    0.000    1.500    0.000    0.000 
#    0.000    0.000    0.000    0.000    0.000    0.000 
#
# Total GULP energy -396580.789503 kJ/mol
# GULP energy per Si atom -12393.149672 kJ/mol
# Density = 1.895407 g / cm^3
# Si number density = 18.997311 Si / 1000 Ang^3
#
#
#
# Elastic Constant Matrix: (Units=GPa)
#
#
# Indices 1 2 3 4 5 6 
#
# 1 118.1118 56.8999 46.9652 0.0000 0.0000 0.0000
# 2 56.8999 117.3764 27.9729 0.0000 0.0000 0.0000
# 3 46.9652 27.9729 37.1972 0.0000 0.0000 0.0000
# 4 0.0000 0.0000 0.0000 13.5656 0.0000 0.0000
# 5 0.0000 0.0000 0.0000 0.0000 32.6062 0.0000
# 6 0.0000 0.0000 0.0000 0.0000 0.0000 38.6557
#
#
#
# Elastic Compliance Matrix: (Units=1/GPa)
#
#
# Indices 1 2 3 4 5 6 
#
# 1 0.018526 -0.004150 -0.020270 0.000000 0.000000 0.000000
# 2 -0.004150 0.011310 -0.003265 0.000000 0.000000 0.000000
# 3 -0.020270 -0.003265 0.054932 0.000000 0.000000 0.000000
# 4 0.000000 0.000000 0.000000 0.073716 0.000000 0.000000
# 5 0.000000 0.000000 0.000000 0.000000 0.030669 0.000000
# 6 0.000000 0.000000 0.000000 0.000000 0.000000 0.025869
#
#
# Mechanical properties :
#
#
# Convention : Reuss Voigt Hill
#
# Bulk Modulus (GPa) = 34.01676 59.59571 46.80623
# Shear Modulus (GPa) = 17.84503 26.35534 22.10018
#
# Velocity S-wave (km/s) = 3.06820 3.72871 3.41447
# Velocity P-wave (km/s) = 5.52239 7.06940 6.34323
#
# Compressibility (1/GPa) = 0.02939727
#
# Stress axis : x y z
#
# Youngs Moduli (GPa) = 53.97895 88.42119 18.20437
#
# Poissons Ratio (x) = 0.36695 0.36900
# Poissons Ratio (y) = 0.22401 0.05944
# Poissons Ratio (z) = 1.09414 0.28871
#
# Static dielectric constant tensor:
#      x y z
#    x 3.588820 0.000000 0.000000 
#    y 0.000000 4.959240 0.000000 
#    z 0.000000 0.000000 3.536690 
# 
# 
# High freq. dielectric constant tensor:
#      x y z
#    x 1.748520 0.000000 0.000000 
#    y 0.000000 1.733430 0.000000 
#    z 0.000000 0.000000 1.724370 
# 
# From -- ./inp_files/5072.got.cif
#   From: 2010.03.12/outbox.cif.g09.slc.cpg/sg28_3_cif.got.tgz:5072.got - 2010.04.14 03:39:34.
