data_PCOD8168914
_publ_section_title
;
Structure prediction by ZEFSAII (Michael W. Deem and Ramdas Pophale) SiO2 
 PCOD8168914
Probable space group: P C A 21
;
_chemical_formula_sum "Si O2"
_cell_formula_units_Z 32
_cell_length_a 11.257836
_cell_length_b 10.956751
_cell_length_c 12.432745
_cell_angle_alpha 90.000000
_cell_angle_beta 90.000000
_cell_angle_gamma 90.000000
_cell_volume 1533.570466
_symmetry_space_group_name_H-M "P C A 21"
_symmetry_group_IT_number 29
_symmetry_cell_setting 'orthorhombic'
loop_
_space_group_symop_operation_xyz
x,y,z
-x,-y,1/2+z
1/2-x,y,1/2+z
1/2+x,-y,z
loop_
_atom_site_type_symbol
_atom_site_label
_atom_site_fract_x
_atom_site_fract_y
_atom_site_fract_z
Si Si1 0.874117 0.360355 0.864510
Si Si2 0.786589 0.781570 0.391251
Si Si3 0.584692 0.633338 0.293843
Si Si4 0.363572 0.775559 0.357281
Si Si5 0.289586 0.967177 0.960131
Si Si6 0.435866 0.925067 0.154692
Si Si7 0.540119 0.700881 0.056515
Si Si8 0.979551 0.132860 0.792670
O O1 0.902305 0.497179 0.834037
O O2 0.734024 0.332101 0.862703
O O3 0.934576 0.271983 0.773495
O O4 0.926419 0.339192 0.985140
O O5 0.709689 0.701920 0.308388
O O6 0.841697 0.691598 0.482599
O O7 0.885370 0.857670 0.328599
O O8 0.710482 0.888918 0.441867
O O9 0.489228 0.704975 0.369724
O O10 0.550256 0.624836 0.167330
O O11 0.330011 0.883865 0.442506
O O12 0.371168 0.846077 0.245327
O O13 0.394002 0.915424 0.885791
O O14 0.323837 0.962488 0.084257
O O15 0.528093 0.843003 0.087933
O O16 0.516634 0.039896 0.192835
#
# Coordination Sequence:
#
# PCOD8168914 Si02
#       8
#     4   4   4   4   4   4   4   4
#     4  10  23  48  65  95 139 179 226 286 326 409
#     4  11  23  40  67  98 134 172 222 287 332 397
#     4  11  26  45  70  95 135 184 233 277 336 411
#     4  10  22  42  67  98 129 177 226 281 345 397
#     4  11  21  40  64 100 137 169 218 286 340 411
#     4  11  20  40  69  97 134 173 216 278 351 403
#     4  10  23  46  69  96 134 180 220 280 347 388
#     4  10  22  41  67  97 134 174 221 275 343 402
#
# _framework density 20.866337999999999
#
# number of rings (size 3 to 8) (size 9 to 14) (size 15 to 20)
#    0.000    1.500    5.000    1.500    5.250    2.000 
#    9.000    0.000    0.000    0.000    0.000    0.000 
#    0.000    0.000    0.000    0.000    0.000    0.000 
#
# Total GULP energy -396448.717272 kJ/mol
# GULP energy per Si atom -12389.022415 kJ/mol
# Density = 2.081885 g / cm^3
# Si number density = 20.866338 Si / 1000 Ang^3
#
#
#
# Elastic Constant Matrix: (Units=GPa)
#
#
# Indices 1 2 3 4 5 6 
#
# 1 83.3919 18.6043 15.1018 0.0000 0.0000 0.0000
# 2 18.6043 102.7525 13.6909 0.0000 0.0000 0.0000
# 3 15.1018 13.6909 40.6666 0.0000 0.0000 0.0000
# 4 0.0000 0.0000 0.0000 33.5448 0.0000 0.0000
# 5 0.0000 0.0000 0.0000 0.0000 26.9925 0.0000
# 6 0.0000 0.0000 0.0000 0.0000 0.0000 25.4017
#
#
#
# Elastic Compliance Matrix: (Units=1/GPa)
#
#
# Indices 1 2 3 4 5 6 
#
# 1 0.013172 -0.001814 -0.004280 0.000000 0.000000 0.000000
# 2 -0.001814 0.010439 -0.002841 0.000000 0.000000 0.000000
# 3 -0.004280 -0.002841 0.027136 0.000000 0.000000 0.000000
# 4 0.000000 0.000000 0.000000 0.029811 0.000000 0.000000
# 5 0.000000 0.000000 0.000000 0.000000 0.037047 0.000000
# 6 0.000000 0.000000 0.000000 0.000000 0.000000 0.039367
#
#
# Mechanical properties :
#
#
# Convention : Reuss Voigt Hill
#
# Bulk Modulus (GPa) = 30.41767 35.73386 33.07577
# Shear Modulus (GPa) = 26.91034 29.14873 28.02953
#
# Velocity S-wave (km/s) = 3.59507 3.74160 3.66907
# Velocity P-wave (km/s) = 5.64285 5.98568 5.81679
#
# Compressibility (1/GPa) = 0.03287563
#
# Stress axis : x y z
#
# Youngs Moduli (GPa) = 75.92122 95.79326 36.85126
#
# Poissons Ratio (x) = 0.17382 0.15774
# Poissons Ratio (y) = 0.13776 0.10468
# Poissons Ratio (z) = 0.32498 0.27211
#
# Static dielectric constant tensor:
#      x y z
#    x 3.878510 0.000000 0.000000 
#    y 0.000000 3.911970 0.000000 
#    z 0.000000 0.000000 3.791260 
# 
# 
# High freq. dielectric constant tensor:
#      x y z
#    x 1.820260 0.000000 0.000000 
#    y 0.000000 1.819860 0.000000 
#    z 0.000000 0.000000 1.798850 
# 
# From -- ./inp_files/3204.got.cif
#   From: 2010.03.12/outbox.cif.g09.slc.cpg/sg29_2_cif.got.tgz:3204.got - 2010.04.14 03:43:10.
