data_PCOD8168576
_publ_section_title
;
Structure prediction by ZEFSAII (Michael W. Deem and Ramdas Pophale) SiO2 
 PCOD8168576
Probable space group: P C A 21
;
_chemical_formula_sum "Si O2"
_cell_formula_units_Z 28
_cell_length_a 8.684717
_cell_length_b 14.524103
_cell_length_c 12.050423
_cell_angle_alpha 90.000000
_cell_angle_beta 90.000000
_cell_angle_gamma 90.000000
_cell_volume 1520.012933
_symmetry_space_group_name_H-M "P C A 21"
_symmetry_group_IT_number 29
_symmetry_cell_setting 'orthorhombic'
loop_
_space_group_symop_operation_xyz
x,y,z
-x,-y,1/2+z
1/2-x,y,1/2+z
1/2+x,-y,z
loop_
_atom_site_type_symbol
_atom_site_label
_atom_site_fract_x
_atom_site_fract_y
_atom_site_fract_z
Si Si1 0.307410 0.570228 0.693750
Si Si2 0.040503 0.098086 0.717364
Si Si3 0.296081 0.000260 0.850051
Si Si4 0.692173 0.570503 0.506035
Si Si5 0.499198 0.725546 0.599764
Si Si6 0.958415 0.097740 0.482716
Si Si7 0.067932 0.499736 0.849935
O O1 0.250156 0.499518 0.600155
O O2 0.348307 0.667011 0.636020
O O3 0.178204 0.576698 0.790902
O O4 0.468576 0.541908 0.750512
O O5 0.899555 0.080490 0.799703
O O6 0.056252 0.208948 0.701387
O O7 0.000622 0.050140 0.599921
O O8 0.196394 0.052321 0.758661
O O9 0.197622 0.948829 0.942742
O O10 0.402084 0.080402 0.899048
O O11 0.650323 0.667419 0.563066
O O12 0.821368 0.577056 0.408866
O O13 0.531385 0.541243 0.449452
O O14 0.441834 0.791425 0.498573
#
# Coordination Sequence:
#
# PCOD8168576 Si02
#       7
#     4   4   4   4   4   4   4
#     4  11  20  40  57  83 116 155 194 246 289 338
#     4   9  21  36  61  87 115 147 193 241 285 358
#     4  10  18  40  66  82 116 160 180 232 320 346
#     4  11  20  40  57  83 116 155 194 246 289 338
#     4  10  22  36  58  86 126 140 204 252 272 344
#     4   9  21  36  61  87 115 147 193 241 285 358
#     4  10  22  34  66  74 104 170 196 226 298 352
#
# _framework density 18.420897
#
# number of rings (size 3 to 8) (size 9 to 14) (size 15 to 20)
#    0.857    1.143    2.857    0.857    0.000    2.286 
#    0.000    0.000   12.571    0.000    0.000    0.000 
#    0.000    0.000    0.000    0.000    0.000    0.000 
#
# Total GULP energy -346893.287712 kJ/mol
# GULP energy per Si atom -12389.045990 kJ/mol
# Density = 1.837897 g / cm^3
# Si number density = 18.420897 Si / 1000 Ang^3
#
#
#
# Elastic Constant Matrix: (Units=GPa)
#
#
# Indices 1 2 3 4 5 6 
#
# 1 118.5716 49.8662 53.3085 0.0000 0.0000 0.0000
# 2 49.8662 121.9435 47.7708 0.0000 0.0000 0.0000
# 3 53.3085 47.7708 100.4875 0.0000 0.0000 0.0000
# 4 0.0000 0.0000 0.0000 29.6917 0.0000 0.0000
# 5 0.0000 0.0000 0.0000 0.0000 37.2822 0.0000
# 6 0.0000 0.0000 0.0000 0.0000 0.0000 -39.2989
#
#
#
# Elastic Compliance Matrix: (Units=1/GPa)
#
#
# Indices 1 2 3 4 5 6 
#
# 1 0.011872 -0.002934 -0.004903 0.000000 0.000000 0.000000
# 2 -0.002934 0.010802 -0.003579 0.000000 0.000000 0.000000
# 3 -0.004903 -0.003579 0.014254 0.000000 0.000000 0.000000
# 4 0.000000 0.000000 0.000000 0.033679 0.000000 0.000000
# 5 0.000000 0.000000 0.000000 0.000000 0.026822 0.000000
# 6 0.000000 0.000000 0.000000 0.000000 0.000000 -0.025446
#
#
# Mechanical properties :
#
#
# Convention : Reuss Voigt Hill
#
# Bulk Modulus (GPa) = 70.94147 71.43261 71.18704
# Shear Modulus (GPa) = 50.24346 18.20548 34.22447
#
# Velocity S-wave (km/s) = 5.22824 3.14714 4.31503
# Velocity P-wave (km/s) = 8.66262 7.21583 7.97211
#
# Compressibility (1/GPa) = 0.01409613
#
# Stress axis : x y z
#
# Youngs Moduli (GPa) = 84.23091 92.57289 70.15548
#
# Poissons Ratio (x) = 0.27161 0.34400
# Poissons Ratio (y) = 0.24713 0.25107
# Poissons Ratio (z) = 0.41301 0.33130
#
# Static dielectric constant tensor:
#      x y z
#    x 3.452650 0.000000 0.000000 
#    y 0.000000 3.107290 0.000000 
#    z 0.000000 0.000000 5.055070 
# 
# 
# High freq. dielectric constant tensor:
#      x y z
#    x 1.722370 0.000000 0.000000 
#    y 0.000000 1.683200 0.000000 
#    z 0.000000 0.000000 1.730530 
# 
# From -- ./inp_files/2898.got.cif
#   From: 2010.03.12/outbox.cif.g09.slc.cpg/sg29_2_cif.got.tgz:2898.got - 2010.04.14 03:43:10.
