data_PCOD8168783
_publ_section_title
;
Structure prediction by ZEFSAII (Michael W. Deem and Ramdas Pophale) SiO2 
 PCOD8168783
Probable space group: P C A 21
;
_chemical_formula_sum "Si O2"
_cell_formula_units_Z 24
_cell_length_a 13.844407
_cell_length_b 8.688218
_cell_length_c 9.354799
_cell_angle_alpha 90.000000
_cell_angle_beta 90.000000
_cell_angle_gamma 90.000000
_cell_volume 1125.225403
_symmetry_space_group_name_H-M "P C A 21"
_symmetry_group_IT_number 29
_symmetry_cell_setting 'orthorhombic'
loop_
_space_group_symop_operation_xyz
x,y,z
-x,-y,1/2+z
1/2-x,y,1/2+z
1/2+x,-y,z
loop_
_atom_site_type_symbol
_atom_site_label
_atom_site_fract_x
_atom_site_fract_y
_atom_site_fract_z
Si Si1 0.270428 0.847372 0.286880
Si Si2 0.236849 0.197035 0.346008
Si Si3 0.538874 0.885155 0.450862
Si Si4 0.357355 0.716909 0.562059
Si Si5 0.534502 0.168225 0.649919
Si Si6 0.143292 0.355153 0.080081
O O1 0.281875 0.787488 0.447992
O O2 0.171550 0.783620 0.217765
O O3 0.357461 0.779639 0.189560
O O4 0.270981 0.032198 0.286212
O O5 0.146985 0.181983 0.455975
O O6 0.209740 0.304232 0.212545
O O7 0.323800 0.272787 0.434053
O O8 0.466814 0.765479 0.527060
O O9 0.511340 0.915888 0.286896
O O10 0.534431 0.051350 0.519977
O O11 0.348478 0.535441 0.559792
O O12 0.468990 0.314460 0.608015
#
# Coordination Sequence:
#
# PCOD8168783 Si02
#       6
#     4   4   4   4   4   4
#     4  11  22  41  65  89 119 163 213 256 303 370
#     4  11  22  41  65  89 119 163 213 256 303 370
#     4  10  21  38  60  87 117 155 206 256 305 368
#     4  11  23  39  60  90 126 160 200 256 318 374
#     4  10  21  38  60  87 117 155 206 256 305 368
#     4  11  23  39  60  90 126 160 200 256 318 374
#
# _framework density 21.329058
#
# number of rings (size 3 to 8) (size 9 to 14) (size 15 to 20)
#    0.000    1.333    0.000    8.000    0.000    1.333 
#    0.000   18.333    0.000    0.000    0.000    0.000 
#    0.000    0.000    0.000    0.000    0.000    0.000 
#
# Total GULP energy -297679.013859 kJ/mol
# GULP energy per Si atom -12403.292244 kJ/mol
# Density = 2.128051 g / cm^3
# Si number density = 21.329058 Si / 1000 Ang^3
#
#
#
# Elastic Constant Matrix: (Units=GPa)
#
#
# Indices 1 2 3 4 5 6 
#
# 1 84.6161 6.6680 11.3339 0.0000 0.0000 0.0000
# 2 6.6680 90.1676 8.1122 0.0000 0.0000 0.0000
# 3 11.3339 8.1122 39.4668 0.0000 0.0000 0.0000
# 4 0.0000 0.0000 0.0000 32.5847 0.0000 0.0000
# 5 0.0000 0.0000 0.0000 0.0000 37.7691 0.0000
# 6 0.0000 0.0000 0.0000 0.0000 0.0000 20.6672
#
#
#
# Elastic Compliance Matrix: (Units=1/GPa)
#
#
# Indices 1 2 3 4 5 6 
#
# 1 0.012323 -0.000604 -0.003415 0.000000 0.000000 0.000000
# 2 -0.000604 0.011329 -0.002155 0.000000 0.000000 0.000000
# 3 -0.003415 -0.002155 0.026761 0.000000 0.000000 0.000000
# 4 0.000000 0.000000 0.000000 0.030689 0.000000 0.000000
# 5 0.000000 0.000000 0.000000 0.000000 0.026477 0.000000
# 6 0.000000 0.000000 0.000000 0.000000 0.000000 0.048386
#
#
# Mechanical properties :
#
#
# Convention : Reuss Voigt Hill
#
# Bulk Modulus (GPa) = 26.27048 29.60876 27.93962
# Shear Modulus (GPa) = 27.62404 30.74661 29.18533
#
# Velocity S-wave (km/s) = 3.60270 3.80088 3.70312
# Velocity P-wave (km/s) = 5.44513 5.75971 5.60463
#
# Compressibility (1/GPa) = 0.03806553
#
# Stress axis : x y z
#
# Youngs Moduli (GPa) = 81.14857 88.26881 37.36728
#
# Poissons Ratio (x) = 0.05332 0.12760
# Poissons Ratio (y) = 0.04902 0.08053
# Poissons Ratio (z) = 0.27710 0.19023
#
# Static dielectric constant tensor:
#      x y z
#    x 4.192230 0.000000 0.000000 
#    y 0.000000 3.543100 0.000000 
#    z 0.000000 0.000000 3.978790 
# 
# 
# High freq. dielectric constant tensor:
#      x y z
#    x 1.844690 0.000000 0.000000 
#    y 0.000000 1.820310 0.000000 
#    z 0.000000 0.000000 1.849790 
# 
# From -- ./inp_files/1674.got.cif
#   From: 2010.03.12/outbox.cif.g09.slc.cpg/sg29_1_cif.got.tgz:1674.got - 2010.04.14 03:43:10.
