data_PCOD8168749
_publ_section_title
;
Structure prediction by ZEFSAII (Michael W. Deem and Ramdas Pophale) SiO2 
 PCOD8168749
Probable space group: P C A 21
;
_chemical_formula_sum "Si O2"
_cell_formula_units_Z 28
_cell_length_a 11.449102
_cell_length_b 12.376008
_cell_length_c 8.581051
_cell_angle_alpha 90.000000
_cell_angle_beta 90.000000
_cell_angle_gamma 90.000000
_cell_volume 1215.884967
_symmetry_space_group_name_H-M "P C A 21"
_symmetry_group_IT_number 29
_symmetry_cell_setting 'orthorhombic'
loop_
_space_group_symop_operation_xyz
x,y,z
-x,-y,1/2+z
1/2-x,y,1/2+z
1/2+x,-y,z
loop_
_atom_site_type_symbol
_atom_site_label
_atom_site_fract_x
_atom_site_fract_y
_atom_site_fract_z
Si Si1 0.851476 0.701575 0.071810
Si Si2 0.907293 0.472551 0.003373
Si Si3 0.691679 0.219228 0.036156
Si Si4 0.762021 0.371194 0.271259
Si Si5 0.053620 0.876657 0.578583
Si Si6 0.603220 0.695332 0.932738
Si Si7 0.982754 0.898591 0.934035
O O1 0.864475 0.720081 0.255114
O O2 0.931595 0.600077 0.017772
O O3 0.717368 0.674438 0.036021
O O4 0.888905 0.806122 0.973210
O O5 0.805525 0.457925 0.875343
O O6 0.024777 0.412025 0.952613
O O7 0.861697 0.428511 0.169507
O O8 0.675613 0.278091 0.871257
O O9 0.599268 0.122101 0.038385
O O10 0.663868 0.309011 0.167723
O O11 0.822171 0.180912 0.069843
O O12 0.960039 0.801433 0.495483
O O13 0.012837 0.901434 0.752638
O O14 0.068594 0.986867 0.482810
#
# Coordination Sequence:
#
# PCOD8168749 Si02
#       7
#     4   4   4   4   4   4   4
#     4  12  29  47  76 109 154 202 245 308 380 444
#     4  11  24  46  75 110 150 192 246 302 372 442
#     4  11  22  45  73 106 140 184 247 303 370 439
#     4  10  20  41  74 105 138 185 239 294 357 442
#     4  12  27  48  75 106 145 196 249 315 376 446
#     4  12  26  51  72 108 156 195 253 309 374 445
#     4  12  28  46  75 106 147 194 253 309 377 448
#
# _framework density 23.028494999999999
#
# number of rings (size 3 to 8) (size 9 to 14) (size 15 to 20)
#    0.000    0.571    4.286    3.429    4.000    6.857 
#    0.000    0.000    0.000    0.000    0.000    0.000 
#    0.000    0.000    0.000    0.000    0.000    0.000 
#
# Total GULP energy -347308.766043 kJ/mol
# GULP energy per Si atom -12403.884502 kJ/mol
# Density = 2.297608 g / cm^3
# Si number density = 23.028495 Si / 1000 Ang^3
#
#
#
# Elastic Constant Matrix: (Units=GPa)
#
#
# Indices 1 2 3 4 5 6 
#
# 1 102.4631 22.5779 30.6094 0.0000 0.0000 0.0000
# 2 22.5779 134.7656 25.6040 0.0000 0.0000 0.0000
# 3 30.6094 25.6040 94.7350 0.0000 0.0000 0.0000
# 4 0.0000 0.0000 0.0000 32.7246 0.0000 0.0000
# 5 0.0000 0.0000 0.0000 0.0000 30.4687 0.0000
# 6 0.0000 0.0000 0.0000 0.0000 0.0000 8.7165
#
#
#
# Elastic Compliance Matrix: (Units=1/GPa)
#
#
# Indices 1 2 3 4 5 6 
#
# 1 0.010992 -0.001230 -0.003219 0.000000 0.000000 0.000000
# 2 -0.001230 0.007960 -0.001754 0.000000 0.000000 0.000000
# 3 -0.003219 -0.001754 0.012070 0.000000 0.000000 0.000000
# 4 0.000000 0.000000 0.000000 0.030558 0.000000 0.000000
# 5 0.000000 0.000000 0.000000 0.000000 0.032821 0.000000
# 6 0.000000 0.000000 0.000000 0.000000 0.000000 0.114725
#
#
# Mechanical properties :
#
#
# Convention : Reuss Voigt Hill
#
# Bulk Modulus (GPa) = 53.71803 54.39405 54.05604
# Shear Modulus (GPa) = 21.95522 31.26014 26.60768
#
# Velocity S-wave (km/s) = 3.09106 3.68836 3.40284
# Velocity P-wave (km/s) = 6.00974 6.46609 6.24208
#
# Compressibility (1/GPa) = 0.01861572
#
# Stress axis : x y z
#
# Youngs Moduli (GPa) = 90.97236 125.63509 82.85058
#
# Poissons Ratio (x) = 0.15453 0.26672
# Poissons Ratio (y) = 0.11189 0.14530
# Poissons Ratio (z) = 0.29286 0.22034
#
# Static dielectric constant tensor:
#      x y z
#    x 4.037590 0.000000 0.000000 
#    y 0.000000 4.284210 0.000000 
#    z 0.000000 0.000000 4.427540 
# 
# 
# High freq. dielectric constant tensor:
#      x y z
#    x 1.907030 0.000000 0.000000 
#    y 0.000000 1.916440 0.000000 
#    z 0.000000 0.000000 1.931710 
# 
# From -- ./inp_files/1495.got.cif
#   From: 2010.03.12/outbox.cif.g09.slc.cpg/sg29_1_cif.got.tgz:1495.got - 2010.04.14 03:43:10.
