data_PCOD8168555
_publ_section_title
;
Structure prediction by ZEFSAII (Michael W. Deem and Ramdas Pophale) SiO2 
 PCOD8168555
Probable space group: P C A 21
;
_chemical_formula_sum "Si O2"
_cell_formula_units_Z 32
_cell_length_a 18.634411
_cell_length_b 9.831583
_cell_length_c 8.256330
_cell_angle_alpha 90.000000
_cell_angle_beta 90.000000
_cell_angle_gamma 90.000000
_cell_volume 1512.607199
_symmetry_space_group_name_H-M "P C A 21"
_symmetry_group_IT_number 29
_symmetry_cell_setting 'orthorhombic'
loop_
_space_group_symop_operation_xyz
x,y,z
-x,-y,1/2+z
1/2-x,y,1/2+z
1/2+x,-y,z
loop_
_atom_site_type_symbol
_atom_site_label
_atom_site_fract_x
_atom_site_fract_y
_atom_site_fract_z
Si Si1 0.034898 0.401796 0.757060
Si Si2 0.224436 0.845414 0.246920
Si Si3 0.578589 0.387896 0.000593
Si Si4 0.200782 0.528656 0.189363
Si Si5 0.411291 0.911074 0.568885
Si Si6 0.854883 0.186473 0.062740
Si Si7 0.155633 0.493162 0.538728
Si Si8 0.502010 0.129338 0.396190
O O1 0.093834 0.397420 0.613328
O O2 0.038076 0.275079 0.880951
O O3 0.957640 0.399674 0.676010
O O4 0.037238 0.543452 0.853263
O O5 0.210935 0.687362 0.217439
O O6 0.170528 0.933263 0.131188
O O7 0.202219 0.869952 0.430862
O O8 0.310858 0.870220 0.220737
O O9 0.651300 0.475054 0.027737
O O10 0.586657 0.228122 0.962796
O O11 0.167095 0.458289 0.349286
O O12 0.273980 0.454360 0.141657
O O13 0.464791 0.907904 0.722645
O O14 0.438873 0.027860 0.449030
O O15 0.864001 0.348882 0.064005
O O16 0.934281 0.126926 0.032077
#
# Coordination Sequence:
#
# PCOD8168555 Si02
#       8
#     4   4   4   4   4   4   4   4
#     4  11  21  34  54  81 112 144 179 228 281 334
#     4   8  16  30  51  77 105 133 179 233 268 309
#     4  10  20  35  54  80 108 141 184 230 275 328
#     4   9  17  31  52  80 109 140 183 229 272 325
#     4   9  20  36  53  76 108 144 182 226 272 330
#     4   9  17  31  52  81 107 136 180 231 276 323
#     4  10  18  31  52  79 110 143 180 228 279 327
#     4  10  21  36  54  80 113 145 181 225 279 338
#
# _framework density 21.155526999999999
#
# number of rings (size 3 to 8) (size 9 to 14) (size 15 to 20)
#    0.000    2.500    0.000    4.500    0.000    6.000 
#    0.000    0.000    0.000   13.500    0.000    0.000 
#    0.000    0.000    0.000    0.000    0.000    0.000 
#
# Total GULP energy -396470.138568 kJ/mol
# GULP energy per Si atom -12389.691830 kJ/mol
# Density = 2.110738 g / cm^3
# Si number density = 21.155527 Si / 1000 Ang^3
#
#
#
# Elastic Constant Matrix: (Units=GPa)
#
#
# Indices 1 2 3 4 5 6 
#
# 1 84.5639 32.9873 15.0775 0.0000 0.0000 0.0000
# 2 32.9873 52.4651 27.3440 0.0000 0.0000 0.0000
# 3 15.0775 27.3440 41.4272 0.0000 0.0000 0.0000
# 4 0.0000 0.0000 0.0000 30.2995 0.0000 0.0000
# 5 0.0000 0.0000 0.0000 0.0000 32.5708 0.0000
# 6 0.0000 0.0000 0.0000 0.0000 0.0000 19.8970
#
#
#
# Elastic Compliance Matrix: (Units=1/GPa)
#
#
# Indices 1 2 3 4 5 6 
#
# 1 0.015709 -0.010514 0.001223 0.000000 0.000000 0.000000
# 2 -0.010514 0.036093 -0.019996 0.000000 0.000000 0.000000
# 3 0.001223 -0.019996 0.036892 0.000000 0.000000 0.000000
# 4 0.000000 0.000000 0.000000 0.033004 0.000000 0.000000
# 5 0.000000 0.000000 0.000000 0.000000 0.030702 0.000000
# 6 0.000000 0.000000 0.000000 0.000000 0.000000 0.050259
#
#
# Mechanical properties :
#
#
# Convention : Reuss Voigt Hill
#
# Bulk Modulus (GPa) = 33.20257 36.58598 34.89427
# Shear Modulus (GPa) = 18.43156 23.42330 20.92743
#
# Velocity S-wave (km/s) = 2.95488 3.33106 3.14860
# Velocity P-wave (km/s) = 5.23167 5.66798 5.45419
#
# Compressibility (1/GPa) = 0.03011815
#
# Stress axis : x y z
#
# Youngs Moduli (GPa) = 63.65869 27.70645 27.10590
#
# Poissons Ratio (x) = 0.29131 -0.03314
# Poissons Ratio (y) = 0.66931 0.54202
# Poissons Ratio (z) = -0.07782 0.55403
#
# Static dielectric constant tensor:
#      x y z
#    x 4.080230 0.000000 0.000000 
#    y 0.000000 3.291470 0.000000 
#    z 0.000000 0.000000 3.949820 
# 
# 
# High freq. dielectric constant tensor:
#      x y z
#    x 1.841230 0.000000 0.000000 
#    y 0.000000 1.760690 0.000000 
#    z 0.000000 0.000000 1.839590 
# 
# From -- ./inp_files/2342.got.cif
#   From: 2010.03.12/outbox.cif.g09.slc.cpg/sg29_2_cif.got.tgz:2342.got - 2010.04.14 03:43:10.
