data_PCOD8168439
_publ_section_title
;
Structure prediction by ZEFSAII (Michael W. Deem and Ramdas Pophale) SiO2 
 PCOD8168439
Probable space group: P M A 2
;
_chemical_formula_sum "Si O2"
_cell_formula_units_Z 24
_cell_length_a 18.453108
_cell_length_b 5.483359
_cell_length_c 10.254269
_cell_angle_alpha 90.000000
_cell_angle_beta 90.000000
_cell_angle_gamma 90.000000
_cell_volume 1037.578371
_symmetry_space_group_name_H-M "P M A 2"
_symmetry_group_IT_number 28
_symmetry_cell_setting 'orthorhombic'
loop_
_space_group_symop_operation_xyz
x,y,z
-x,-y,z
1/2-x,y,z
1/2+x,-y,z
loop_
_atom_site_type_symbol
_atom_site_label
_atom_site_fract_x
_atom_site_fract_y
_atom_site_fract_z
Si Si1 0.836639 0.694452 0.741750
Si Si2 0.069735 0.351698 0.274187
Si Si3 0.426243 0.086255 0.531402
Si Si4 0.829726 0.970493 0.137238
Si Si5 0.829436 0.264524 0.397550
Si Si6 0.666069 0.199300 0.876309
O O1 0.750000 0.688385 0.718117
O O2 0.881906 0.699842 0.606162
O O3 0.865654 0.454509 0.819916
O O4 0.862046 0.945997 0.812394
O O5 0.044965 0.169800 0.388678
O O6 0.132851 0.501136 0.341570
O O7 0.000000 0.500000 0.224429
O O8 0.105439 0.227174 0.145758
O O9 0.500000 0.000000 0.605582
O O10 0.372436 0.855082 0.517869
O O11 0.750000 0.858336 0.096483
O O12 0.822227 0.072973 0.281179
O O13 0.851195 0.177423 0.031390
O O14 0.750000 0.337395 0.450589
O O15 0.750000 0.217866 0.848667
#
# Coordination Sequence:
#
# PCOD8168439 Si02
#       6
#     4   4   4   4   4   4
#     4  10  22  39  65  96 129 173 226 278 332 398
#     4  11  22  37  62  93 130 175 219 274 348 411
#     4  11  23  40  60  90 133 176 219 275 344 411
#     4   9  20  37  62  95 130 167 218 280 340 408
#     4  10  21  37  62  94 125 165 219 274 335 407
#     4   9  20  39  64  96 129 167 218 280 337 391
#
# _framework density 23.130784999999999
#
# number of rings (size 3 to 8) (size 9 to 14) (size 15 to 20)
#    0.000    2.000    1.667    1.000    4.667    2.000 
#    0.000    0.000    3.667    1.000    0.000    0.000 
#    0.000    0.000    0.000    0.167    0.000    0.000 
#
# Total GULP energy -297395.644157 kJ/mol
# GULP energy per Si atom -12391.485173 kJ/mol
# Density = 2.307814 g / cm^3
# Si number density = 23.130785 Si / 1000 Ang^3
#
#
#
# Elastic Constant Matrix: (Units=GPa)
#
#
# Indices 1 2 3 4 5 6 
#
# 1 141.2284 53.8716 39.4410 0.0000 0.0000 0.0000
# 2 53.8716 139.6930 38.2408 0.0000 0.0000 0.0000
# 3 39.4410 38.2408 78.2230 0.0000 0.0000 0.0000
# 4 0.0000 0.0000 0.0000 39.2242 0.0000 0.0000
# 5 0.0000 0.0000 0.0000 0.0000 11.5131 0.0000
# 6 0.0000 0.0000 0.0000 0.0000 0.0000 32.9867
#
#
#
# Elastic Compliance Matrix: (Units=1/GPa)
#
#
# Indices 1 2 3 4 5 6 
#
# 1 0.008972 -0.002565 -0.003270 0.000000 0.000000 0.000000
# 2 -0.002565 0.008998 -0.003105 0.000000 0.000000 0.000000
# 3 -0.003270 -0.003105 0.015951 0.000000 0.000000 0.000000
# 4 0.000000 0.000000 0.000000 0.025494 0.000000 0.000000
# 5 0.000000 0.000000 0.000000 0.000000 0.086858 0.000000
# 6 0.000000 0.000000 0.000000 0.000000 0.000000 0.030315
#
#
# Mechanical properties :
#
#
# Convention : Reuss Voigt Hill
#
# Bulk Modulus (GPa) = 62.34350 69.13902 65.74126
# Shear Modulus (GPa) = 25.02296 31.91751 28.47024
#
# Velocity S-wave (km/s) = 3.29265 3.71869 3.51214
# Velocity P-wave (km/s) = 6.43945 6.95655 6.70299
#
# Compressibility (1/GPa) = 0.01604017
#
# Stress axis : x y z
#
# Youngs Moduli (GPa) = 111.45335 111.13778 62.69221
#
# Poissons Ratio (x) = 0.28506 0.20501
# Poissons Ratio (y) = 0.28587 0.19469
# Poissons Ratio (z) = 0.36446 0.34514
#
# Static dielectric constant tensor:
#      x y z
#    x 4.155120 0.000000 0.000000 
#    y 0.000000 4.359330 0.000000 
#    z 0.000000 0.000000 4.100270 
# 
# 
# High freq. dielectric constant tensor:
#      x y z
#    x 1.899480 0.000000 0.000000 
#    y 0.000000 1.915910 0.000000 
#    z 0.000000 0.000000 1.895320 
# 
# From -- ./inp_files/5682.got.cif
#   From: 2010.03.12/outbox.cif.g09.slc.cpg/sg28_3_cif.got.tgz:5682.got - 2010.04.14 03:39:34.
