data_PCOD8168529
_publ_section_title
;
Structure prediction by ZEFSAII (Michael W. Deem and Ramdas Pophale) SiO2 
 PCOD8168529
Probable space group: P C A 21
;
_chemical_formula_sum "Si O2"
_cell_formula_units_Z 28
_cell_length_a 31.122534
_cell_length_b 9.083125
_cell_length_c 5.048410
_cell_angle_alpha 90.000000
_cell_angle_beta 90.000000
_cell_angle_gamma 90.000000
_cell_volume 1427.134350
_symmetry_space_group_name_H-M "P C A 21"
_symmetry_group_IT_number 29
_symmetry_cell_setting 'orthorhombic'
loop_
_space_group_symop_operation_xyz
x,y,z
-x,-y,1/2+z
1/2-x,y,1/2+z
1/2+x,-y,z
loop_
_atom_site_type_symbol
_atom_site_label
_atom_site_fract_x
_atom_site_fract_y
_atom_site_fract_z
Si Si1 0.222807 0.829504 0.305280
Si Si2 0.865407 0.675426 0.819732
Si Si3 0.999999 0.401516 0.050097
Si Si4 0.413859 0.326644 0.325133
Si Si5 0.913857 0.326667 0.275080
Si Si6 0.634594 0.324607 0.280479
Si Si7 0.722807 0.829539 0.294878
O O1 0.239858 0.789953 0.596427
O O2 0.181999 0.733209 0.224649
O O3 0.209550 0.999982 0.300081
O O4 0.881786 0.741309 0.542191
O O5 0.864136 0.500017 0.800108
O O6 0.818001 0.733248 0.875531
O O7 0.899088 0.736837 0.041623
O O8 0.018001 0.500000 0.300095
O O9 0.962812 0.297744 0.175866
O O10 0.037185 0.297732 0.924337
O O11 0.408631 0.499988 0.300105
O O12 0.899088 0.263191 0.558597
O O13 0.881782 0.258721 0.058027
O O14 0.760144 0.789990 0.503725
#
# Coordination Sequence:
#
# PCOD8168529 Si02
#       7
#     4   4   4   4   4   4   4
#     4  10  21  36  52  70  94 126 165 203 240 290
#     4  10  19  31  48  72 100 125 157 199 242 283
#     4  10  16  26  44  68 102 136 160 188 236 286
#     4   9  17  28  44  70 101 129 156 193 236 282
#     4   9  17  28  44  70 101 129 156 193 236 282
#     4  10  19  31  48  72 100 125 157 199 242 283
#     4  10  21  36  52  70  94 126 165 203 240 290
#
# _framework density 19.619736
#
# number of rings (size 3 to 8) (size 9 to 14) (size 15 to 20)
#    0.000    2.286    0.000    6.000    0.000    1.143 
#    0.000    0.000    0.000    0.000    0.000    4.000 
#    0.000    9.143    0.000    0.000    0.000    0.000 
#
# Total GULP energy -346928.501835 kJ/mol
# GULP energy per Si atom -12390.303637 kJ/mol
# Density = 1.957508 g / cm^3
# Si number density = 19.619736 Si / 1000 Ang^3
#
#
#
# Elastic Constant Matrix: (Units=GPa)
#
#
# Indices 1 2 3 4 5 6 
#
# 1 130.9699 27.9129 45.5141 0.0000 0.0000 0.0000
# 2 27.9129 17.3737 24.7254 0.0000 0.0000 0.0000
# 3 45.5141 24.7254 125.4839 0.0000 0.0000 0.0000
# 4 0.0000 0.0000 0.0000 12.7848 0.0000 0.0000
# 5 0.0000 0.0000 0.0000 0.0000 31.6366 0.0000
# 6 0.0000 0.0000 0.0000 0.0000 0.0000 -1.4194
#
#
#
# Elastic Compliance Matrix: (Units=1/GPa)
#
#
# Indices 1 2 3 4 5 6 
#
# 1 0.011661 -0.017671 -0.000748 0.000000 0.000000 0.000000
# 2 -0.017671 0.106767 -0.014628 0.000000 0.000000 0.000000
# 3 -0.000748 -0.014628 0.011123 0.000000 0.000000 0.000000
# 4 0.000000 0.000000 0.000000 0.078218 0.000000 0.000000
# 5 0.000000 0.000000 0.000000 0.000000 0.031609 0.000000
# 6 0.000000 0.000000 0.000000 0.000000 0.000000 -0.704533
#
#
# Mechanical properties :
#
#
# Convention : Reuss Voigt Hill
#
# Bulk Modulus (GPa) = 15.75869 52.23695 33.99782
# Shear Modulus (GPa) = -13.23068 20.31208 3.54070
#
# Velocity S-wave (km/s) = -2.59965 3.22108 1.34483
# Velocity P-wave (km/s) = 0.98053 6.36524 4.44718
#
# Compressibility (1/GPa) = 0.06345706
#
# Stress axis : x y z
#
# Youngs Moduli (GPa) = 85.75336 9.36622 89.90667
#
# Poissons Ratio (x) = 0.16551 0.06723
# Poissons Ratio (y) = 1.51536 1.31514
# Poissons Ratio (z) = 0.06412 0.13701
#
# Static dielectric constant tensor:
#      x y z
#    x 3.676420 0.000000 0.000000 
#    y 0.000000 2.928150 0.000000 
#    z 0.000000 0.000000 4.252720 
# 
# 
# High freq. dielectric constant tensor:
#      x y z
#    x 1.772730 0.000000 0.000000 
#    y 0.000000 1.682320 0.000000 
#    z 0.000000 0.000000 1.797050 
# 
# From -- ./inp_files/786.got.cif
#   From: 2010.03.12/outbox.cif.g09.slc.cpg/sg29_1_cif.got.tgz:786.got - 2010.04.14 03:43:10.
