data_PCOD8168660
_publ_section_title
;
Structure prediction by ZEFSAII (Michael W. Deem and Ramdas Pophale) SiO2 
 PCOD8168660
Probable space group: P C A 21
;
_chemical_formula_sum "Si O2"
_cell_formula_units_Z 32
_cell_length_a 9.011312
_cell_length_b 20.621206
_cell_length_c 8.725242
_cell_angle_alpha 90.000000
_cell_angle_beta 90.000000
_cell_angle_gamma 90.000000
_cell_volume 1621.360426
_symmetry_space_group_name_H-M "P C A 21"
_symmetry_group_IT_number 29
_symmetry_cell_setting 'orthorhombic'
loop_
_space_group_symop_operation_xyz
x,y,z
-x,-y,1/2+z
1/2-x,y,1/2+z
1/2+x,-y,z
loop_
_atom_site_type_symbol
_atom_site_label
_atom_site_fract_x
_atom_site_fract_y
_atom_site_fract_z
Si Si1 0.125677 0.824391 0.551710
Si Si2 0.933786 0.439924 0.167522
Si Si3 0.877227 0.937727 0.210566
Si Si4 0.561330 0.950147 0.065173
Si Si5 0.558276 0.187426 0.200385
Si Si6 0.623128 0.453613 0.017473
Si Si7 0.402516 0.699754 0.214862
Si Si8 0.585553 0.313789 0.067568
O O1 0.298902 0.827943 0.594877
O O2 0.116354 0.812834 0.372166
O O3 0.037640 0.765093 0.634789
O O4 0.046747 0.890445 0.601511
O O5 0.796360 0.446038 0.052187
O O6 0.888073 0.463504 0.336137
O O7 0.994617 0.365445 0.171770
O O8 0.065761 0.483957 0.106062
O O9 0.705679 0.943625 0.169789
O O10 0.894144 0.954876 0.388312
O O11 0.929833 0.864818 0.174091
O O12 0.976202 0.984635 0.107551
O O13 0.488166 0.258433 0.154873
O O14 0.530017 0.388716 0.070077
O O15 0.396426 0.710948 0.395264
O O16 0.238225 0.686316 0.158006
#
# Coordination Sequence:
#
# PCOD8168660 Si02
#       8
#     4   4   4   4   4   4   4   4
#     4  10  20  34  55  82 108 138 176 218 265 316
#     4  10  20  34  53  78 107 141 181 224 270 320
#     4  11  24  40  59  83 111 144 181 221 266 316
#     4  11  24  40  59  83 111 144 181 221 266 316
#     4  10  20  34  55  82 108 138 176 218 265 316
#     4  10  20  34  53  78 107 141 181 224 270 320
#     4   9  17  30  51  77 104 137 176 217 263 316
#     4   9  17  30  51  77 104 137 176 217 263 316
#
# _framework density 19.736512000000001
#
# number of rings (size 3 to 8) (size 9 to 14) (size 15 to 20)
#    0.000    2.000    0.000    5.250    0.000    9.000 
#    0.000    1.250    0.000    3.000    0.000    0.000 
#    0.000    0.000    0.000    0.000    0.000    0.000 
#
# Total GULP energy -396639.101500 kJ/mol
# GULP energy per Si atom -12394.971922 kJ/mol
# Density = 1.969159 g / cm^3
# Si number density = 19.736512 Si / 1000 Ang^3
#
#
#
# Elastic Constant Matrix: (Units=GPa)
#
#
# Indices 1 2 3 4 5 6 
#
# 1 32.2884 -0.5669 -5.8887 0.0000 0.0000 0.0000
# 2 -0.5669 90.5995 16.5201 0.0000 0.0000 0.0000
# 3 -5.8887 16.5201 65.8235 0.0000 0.0000 0.0000
# 4 0.0000 0.0000 0.0000 34.9981 0.0000 0.0000
# 5 0.0000 0.0000 0.0000 0.0000 24.8896 0.0000
# 6 0.0000 0.0000 0.0000 0.0000 0.0000 27.1772
#
#
#
# Elastic Compliance Matrix: (Units=1/GPa)
#
#
# Indices 1 2 3 4 5 6 
#
# 1 0.031494 -0.000332 0.002901 0.000000 0.000000 0.000000
# 2 -0.000332 0.011570 -0.002934 0.000000 0.000000 0.000000
# 3 0.002901 -0.002934 0.016188 0.000000 0.000000 0.000000
# 4 0.000000 0.000000 0.000000 0.028573 0.000000 0.000000
# 5 0.000000 0.000000 0.000000 0.000000 0.040177 0.000000
# 6 0.000000 0.000000 0.000000 0.000000 0.000000 0.036796
#
#
# Mechanical properties :
#
#
# Convention : Reuss Voigt Hill
#
# Bulk Modulus (GPa) = 17.08727 23.20451 20.14589
# Shear Modulus (GPa) = 27.02186 29.32278 28.17232
#
# Velocity S-wave (km/s) = 3.70419 3.85868 3.78222
# Velocity P-wave (km/s) = 5.19338 5.62452 5.41324
#
# Compressibility (1/GPa) = 0.05852310
#
# Stress axis : x y z
#
# Youngs Moduli (GPa) = 31.75200 86.42719 61.77446
#
# Poissons Ratio (x) = 0.02868 -0.17920
# Poissons Ratio (y) = 0.01054 0.18122
# Poissons Ratio (z) = -0.09211 0.25354
#
# Static dielectric constant tensor:
#      x y z
#    x 3.178380 0.000000 0.000000 
#    y 0.000000 4.413890 0.000000 
#    z 0.000000 0.000000 3.707610 
# 
# 
# High freq. dielectric constant tensor:
#      x y z
#    x 1.719560 0.000000 0.000000 
#    y 0.000000 1.795680 0.000000 
#    z 0.000000 0.000000 1.788120 
# 
# From -- ./inp_files/1272.got.cif
#   From: 2010.03.12/outbox.cif.g09.slc.cpg/sg29_1_cif.got.tgz:1272.got - 2010.04.14 03:43:10.
