data_PCOD8168806
_publ_section_title
;
Structure prediction by ZEFSAII (Michael W. Deem and Ramdas Pophale) SiO2 
 PCOD8168806
Probable space group: P C A 21
;
_chemical_formula_sum "Si O2"
_cell_formula_units_Z 32
_cell_length_a 14.877650
_cell_length_b 10.958144
_cell_length_c 8.679621
_cell_angle_alpha 90.000000
_cell_angle_beta 90.000000
_cell_angle_gamma 90.000000
_cell_volume 1415.051033
_symmetry_space_group_name_H-M "P C A 21"
_symmetry_group_IT_number 29
_symmetry_cell_setting 'orthorhombic'
loop_
_space_group_symop_operation_xyz
x,y,z
-x,-y,1/2+z
1/2-x,y,1/2+z
1/2+x,-y,z
loop_
_atom_site_type_symbol
_atom_site_label
_atom_site_fract_x
_atom_site_fract_y
_atom_site_fract_z
Si Si1 0.134470 0.765946 0.485920
Si Si2 0.185953 0.316954 0.280140
Si Si3 0.780422 0.841247 0.049430
Si Si4 0.311943 0.498839 0.440412
Si Si5 0.233669 0.660264 0.212349
Si Si6 0.430292 0.998415 0.157154
Si Si7 0.949387 0.682012 0.535426
Si Si8 0.100829 0.044363 0.993047
O O1 0.159151 0.739252 0.306528
O O2 0.223065 0.748077 0.587114
O O3 0.101430 0.901195 0.527600
O O4 0.056931 0.667537 0.530621
O O5 0.190593 0.191592 0.376318
O O6 0.244634 0.285156 0.126689
O O7 0.221501 0.429025 0.382186
O O8 0.084949 0.335006 0.212786
O O9 0.870860 0.881144 0.135185
O O10 0.705598 0.950807 0.045527
O O11 0.313003 0.616000 0.328497
O O12 0.305941 0.541930 0.619616
O O13 0.401411 0.417476 0.424186
O O14 0.414907 0.964556 0.336863
O O15 0.537093 0.017140 0.124552
O O16 0.925964 0.814484 0.465037
#
# Coordination Sequence:
#
# PCOD8168806 Si02
#       8
#     4   4   4   4   4   4   4   4
#     4  10  25  43  58  85 129 171 215 259 300 382
#     4  11  19  36  65  96 123 155 197 271 332 381
#     4  11  21  36  61  91 126 160 210 253 333 384
#     4  11  18  38  68  88 123 157 198 269 321 369
#     4  10  23  41  61  88 123 169 215 246 318 385
#     4  11  24  40  62  86 130 169 213 264 310 384
#     4  10  21  39  66  93 127 152 210 270 321 375
#     4  10  23  39  59  95 123 167 214 262 317 390
#
# _framework density 22.614025999999999
#
# number of rings (size 3 to 8) (size 9 to 14) (size 15 to 20)
#    0.000    1.500    5.000    0.000    7.000    1.000 
#    2.250    0.000    5.500    0.000    0.000    0.000 
#    0.000    0.000    0.000    0.000    0.000    0.000 
#
# Total GULP energy -396461.618488 kJ/mol
# GULP energy per Si atom -12389.425578 kJ/mol
# Density = 2.256256 g / cm^3
# Si number density = 22.614026 Si / 1000 Ang^3
#
#
#
# Elastic Constant Matrix: (Units=GPa)
#
#
# Indices 1 2 3 4 5 6 
#
# 1 65.2844 3.1382 14.9085 0.0000 0.0000 0.0000
# 2 3.1382 35.1862 14.1746 0.0000 0.0000 0.0000
# 3 14.9085 14.1746 99.8609 0.0000 0.0000 0.0000
# 4 0.0000 0.0000 0.0000 41.6068 0.0000 0.0000
# 5 0.0000 0.0000 0.0000 0.0000 35.8638 0.0000
# 6 0.0000 0.0000 0.0000 0.0000 0.0000 26.7126
#
#
#
# Elastic Compliance Matrix: (Units=1/GPa)
#
#
# Indices 1 2 3 4 5 6 
#
# 1 0.015866 -0.000489 -0.002299 0.000000 0.000000 0.000000
# 2 -0.000489 0.030159 -0.004208 0.000000 0.000000 0.000000
# 3 -0.002299 -0.004208 0.010954 0.000000 0.000000 0.000000
# 4 0.000000 0.000000 0.000000 0.024035 0.000000 0.000000
# 5 0.000000 0.000000 0.000000 0.000000 0.027883 0.000000
# 6 0.000000 0.000000 0.000000 0.000000 0.000000 0.037435
#
#
# Mechanical properties :
#
#
# Convention : Reuss Voigt Hill
#
# Bulk Modulus (GPa) = 23.26254 29.41936 26.34095
# Shear Modulus (GPa) = 28.62801 32.04400 30.33601
#
# Velocity S-wave (km/s) = 3.56187 3.76839 3.66658
# Velocity P-wave (km/s) = 5.21775 5.65437 5.44044
#
# Compressibility (1/GPa) = 0.04298757
#
# Stress axis : x y z
#
# Youngs Moduli (GPa) = 63.02717 33.15765 91.28683
#
# Poissons Ratio (x) = 0.01621 0.20990
# Poissons Ratio (y) = 0.03081 0.38413
# Poissons Ratio (z) = 0.14492 0.13952
#
# Static dielectric constant tensor:
#      x y z
#    x 4.265360 0.000000 0.000000 
#    y 0.000000 3.740310 0.000000 
#    z 0.000000 0.000000 4.222110 
# 
# 
# High freq. dielectric constant tensor:
#      x y z
#    x 1.874280 0.000000 0.000000 
#    y 0.000000 1.868150 0.000000 
#    z 0.000000 0.000000 1.899050 
# 
# From -- ./inp_files/1884.got.cif
#   From: 2010.03.12/outbox.cif.g09.slc.cpg/sg29_1_cif.got.tgz:1884.got - 2010.04.14 03:43:10.
