data_PCOD8168106
_publ_section_title
;
Structure prediction by ZEFSAII (Michael W. Deem and Ramdas Pophale) SiO2 
 PCOD8168106
Probable space group: P M A 2
;
_chemical_formula_sum "Si O2"
_cell_formula_units_Z 28
_cell_length_a 8.889307
_cell_length_b 9.383808
_cell_length_c 17.985883
_cell_angle_alpha 90.000000
_cell_angle_beta 90.000000
_cell_angle_gamma 90.000000
_cell_volume 1500.302325
_symmetry_space_group_name_H-M "P M A 2"
_symmetry_group_IT_number 28
_symmetry_cell_setting 'orthorhombic'
loop_
_space_group_symop_operation_xyz
x,y,z
-x,-y,z
1/2-x,y,z
1/2+x,-y,z
loop_
_atom_site_type_symbol
_atom_site_label
_atom_site_fract_x
_atom_site_fract_y
_atom_site_fract_z
Si Si1 0.428192 0.654640 0.021080
Si Si2 0.571965 0.154176 0.590131
Si Si3 0.072681 0.851133 0.320127
Si Si4 0.573359 0.146962 0.153010
Si Si5 0.423752 0.348143 0.878439
Si Si6 0.926532 0.347400 0.450943
Si Si7 0.074667 0.345160 0.713182
O O1 0.500000 0.500000 0.026249
O O2 0.250000 0.645614 0.016283
O O3 0.482780 0.735716 0.094798
O O4 0.491799 0.734193 0.946301
O O5 0.750000 0.138324 0.598397
O O6 0.525866 0.247460 0.519053
O O7 0.506472 0.230243 0.662420
O O8 0.500000 0.000000 0.580494
O O9 0.250000 0.871374 0.327240
O O10 0.023514 0.808378 0.236391
O O11 0.015798 0.726798 0.374956
O O12 0.000000 0.000000 0.344435
O O13 0.750000 0.126072 0.148925
O O14 0.500000 0.000000 0.128782
O O15 0.500000 0.500000 0.872675
O O16 0.250000 0.364280 0.899968
O O17 0.443355 0.279971 0.796695
O O18 0.750000 0.371182 0.448684
O O19 0.000000 0.500000 0.460936
O O20 0.250000 0.360590 0.692072
O O21 0.000000 0.500000 0.703436
#
# Coordination Sequence:
#
# PCOD8168106 Si02
#       7
#     4   4   4   4   4   4   4
#     4  10  19  31  49  75 104 135 172 214 258 304
#     4  11  23  38  56  79 107 140 176 215 261 312
#     4   9  18  35  55  76 103 135 172 212 255 304
#     4   9  19  34  52  74 102 136 173 212 255 305
#     4   9  17  30  50  75 102 134 171 211 257 307
#     4  10  22  37  55  80 108 137 171 212 256 304
#     4  10  20  35  56  81 107 137 175 218 263 312
#
# _framework density 18.662904999999999
#
# number of rings (size 3 to 8) (size 9 to 14) (size 15 to 20)
#    0.000    2.286    0.000    3.429    0.000    6.286 
#    0.000    0.714    0.000    1.714    0.000    0.000 
#    0.000    0.000    0.000    0.000    0.000    0.000 
#
# Total GULP energy -347103.895747 kJ/mol
# GULP energy per Si atom -12396.567705 kJ/mol
# Density = 1.862043 g / cm^3
# Si number density = 18.662905 Si / 1000 Ang^3
#
#
#
# Elastic Constant Matrix: (Units=GPa)
#
#
# Indices 1 2 3 4 5 6 
#
# 1 74.8758 48.9597 58.3556 0.0000 0.0000 0.0000
# 2 48.9597 120.4961 83.8793 0.0000 0.0000 0.0000
# 3 58.3556 83.8793 155.8712 0.0000 0.0000 0.0000
# 4 0.0000 0.0000 0.0000 -83.2987 0.0000 0.0000
# 5 0.0000 0.0000 0.0000 0.0000 24.1032 0.0000
# 6 0.0000 0.0000 0.0000 0.0000 0.0000 31.8798
#
#
#
# Elastic Compliance Matrix: (Units=1/GPa)
#
#
# Indices 1 2 3 4 5 6 
#
# 1 0.020434 -0.004761 -0.005088 0.000000 0.000000 0.000000
# 2 -0.004761 0.014379 -0.005956 0.000000 0.000000 0.000000
# 3 -0.005088 -0.005956 0.011525 0.000000 0.000000 0.000000
# 4 0.000000 0.000000 0.000000 -0.012005 0.000000 0.000000
# 5 0.000000 0.000000 0.000000 0.000000 0.041488 0.000000
# 6 0.000000 0.000000 0.000000 0.000000 0.000000 0.031368
#
#
# Mechanical properties :
#
#
# Convention : Reuss Voigt Hill
#
# Bulk Modulus (GPa) = 67.89092 81.51469 74.70281
# Shear Modulus (GPa) = 34.79267 5.20676 19.99972
#
# Velocity S-wave (km/s) = 4.32240 1.67211 3.27713
# Velocity P-wave (km/s) = 7.83373 6.89204 7.37792
#
# Compressibility (1/GPa) = 0.01472951
#
# Stress axis : x y z
#
# Youngs Moduli (GPa) = 48.93818 69.54525 86.76482
#
# Poissons Ratio (x) = 0.33108 0.44148
# Poissons Ratio (y) = 0.23298 0.51673
# Poissons Ratio (z) = 0.24901 0.41418
#
# Static dielectric constant tensor:
#      x y z
#    x 3.477000 0.000000 0.000000 
#    y 0.000000 3.144000 0.000000 
#    z 0.000000 0.000000 4.231400 
# 
# 
# High freq. dielectric constant tensor:
#      x y z
#    x 1.730900 0.000000 0.000000 
#    y 0.000000 1.698930 0.000000 
#    z 0.000000 0.000000 1.747930 
# 
# From -- ./inp_files/6784.got.cif
#   From: 2010.03.12/outbox.cif.g09.slc.cpg/sg28_4_cif.got.tgz:6784.got - 2010.04.14 03:39:34.
