data_PCOD8168803
_publ_section_title
;
Structure prediction by ZEFSAII (Michael W. Deem and Ramdas Pophale) SiO2 
 PCOD8168803
Probable space group: P C A 21
;
_chemical_formula_sum "Si O2"
_cell_formula_units_Z 20
_cell_length_a 13.082665
_cell_length_b 12.366778
_cell_length_c 5.206397
_cell_angle_alpha 90.000000
_cell_angle_beta 90.000000
_cell_angle_gamma 90.000000
_cell_volume 842.345125
_symmetry_space_group_name_H-M "P C A 21"
_symmetry_group_IT_number 29
_symmetry_cell_setting 'orthorhombic'
loop_
_space_group_symop_operation_xyz
x,y,z
-x,-y,1/2+z
1/2-x,y,1/2+z
1/2+x,-y,z
loop_
_atom_site_type_symbol
_atom_site_label
_atom_site_fract_x
_atom_site_fract_y
_atom_site_fract_z
Si Si1 0.320606 0.250000 0.779000
Si Si2 0.509668 0.568870 0.275141
Si Si3 0.207177 0.629899 0.890837
Si Si4 0.009668 0.068870 0.275139
Si Si5 0.707177 0.129899 0.890835
O O1 0.244267 0.250000 0.539202
O O2 0.389923 0.357415 0.769178
O O3 0.389923 0.142585 0.769178
O O4 0.516060 0.475528 0.490662
O O5 0.413179 0.640845 0.355802
O O6 0.263134 0.567366 0.654392
O O7 0.255417 0.750000 0.918696
O O8 0.913179 0.140845 0.355799
O O9 0.016059 0.975528 0.490660
O O10 0.763134 0.067366 0.654391
#
# Coordination Sequence:
#
# PCOD8168803 Si02
#       5
#     4   4   4   4   4
#     4  12  28  50  72 104 152 198 238 296 368 438
#     4  12  26  44  71 103 139 185 239 290 350 433
#     4  10  21  39  65  93 125 163 213 278 341 394
#     4  12  26  44  71 103 139 185 239 290 350 433
#     4  10  21  39  65  93 125 163 213 278 341 394
#
# _framework density 23.743238000000002
#
# number of rings (size 3 to 8) (size 9 to 14) (size 15 to 20)
#    0.000    0.800    2.000    4.800    0.000    9.600 
#    0.000    0.000    0.000    0.000    0.000    0.000 
#    0.000    0.000    0.000    0.000    0.000    0.000 
#
# Total GULP energy -247899.571332 kJ/mol
# GULP energy per Si atom -12394.978567 kJ/mol
# Density = 2.368920 g / cm^3
# Si number density = 23.743238 Si / 1000 Ang^3
#
#
#
# Elastic Constant Matrix: (Units=GPa)
#
#
# Indices 1 2 3 4 5 6 
#
# 1 110.8416 31.2225 28.3229 0.0000 0.0000 0.0000
# 2 31.2225 80.7389 26.3844 0.0000 0.0000 0.0000
# 3 28.3229 26.3844 173.0113 0.0000 0.0000 0.0000
# 4 0.0000 0.0000 0.0000 24.2192 0.0000 0.0000
# 5 0.0000 0.0000 0.0000 0.0000 53.3334 0.0000
# 6 0.0000 0.0000 0.0000 0.0000 0.0000 31.4181
#
#
#
# Elastic Compliance Matrix: (Units=1/GPa)
#
#
# Indices 1 2 3 4 5 6 
#
# 1 0.010334 -0.003624 -0.001139 0.000000 0.000000 0.000000
# 2 -0.003624 0.014306 -0.001588 0.000000 0.000000 0.000000
# 3 -0.001139 -0.001588 0.006209 0.000000 0.000000 0.000000
# 4 0.000000 0.000000 0.000000 0.041290 0.000000 0.000000
# 5 0.000000 0.000000 0.000000 0.000000 0.018750 0.000000
# 6 0.000000 0.000000 0.000000 0.000000 0.000000 0.031829
#
#
# Mechanical properties :
#
#
# Convention : Reuss Voigt Hill
#
# Bulk Modulus (GPa) = 55.10948 59.60571 57.35760
# Shear Modulus (GPa) = 35.34362 40.37161 37.85761
#
# Velocity S-wave (km/s) = 3.86239 4.12799 3.99740
# Velocity P-wave (km/s) = 6.56900 6.91948 6.74652
#
# Compressibility (1/GPa) = 0.01814570
#
# Stress axis : x y z
#
# Youngs Moduli (GPa) = 96.77038 69.90030 161.06493
#
# Poissons Ratio (x) = 0.25331 0.18346
# Poissons Ratio (y) = 0.35069 0.25584
# Poissons Ratio (z) = 0.11023 0.11103
#
# Static dielectric constant tensor:
#      x y z
#    x 4.281990 0.000000 0.000000 
#    y 0.000000 3.897000 0.000000 
#    z 0.000000 0.000000 4.923080 
# 
# 
# High freq. dielectric constant tensor:
#      x y z
#    x 1.954370 0.000000 0.000000 
#    y 0.000000 1.915900 0.000000 
#    z 0.000000 0.000000 1.972560 
# 
# From -- ./inp_files/72.got.cif
#   From: 2010.03.12/outbox.cif.g09.slc.cpg/sg29_1_cif.got.tgz:72.got - 2010.04.14 03:43:10.
