data_PCOD8168281
_publ_section_title
;
Structure prediction by ZEFSAII (Michael W. Deem and Ramdas Pophale) SiO2 
 PCOD8168281
Probable space group: P M A 2
;
_chemical_formula_sum "Si O2"
_cell_formula_units_Z 24
_cell_length_a 9.025294
_cell_length_b 13.974987
_cell_length_c 10.320445
_cell_angle_alpha 90.000000
_cell_angle_beta 90.000000
_cell_angle_gamma 90.000000
_cell_volume 1301.700868
_symmetry_space_group_name_H-M "P M A 2"
_symmetry_group_IT_number 28
_symmetry_cell_setting 'orthorhombic'
loop_
_space_group_symop_operation_xyz
x,y,z
-x,-y,z
1/2-x,y,z
1/2+x,-y,z
loop_
_atom_site_type_symbol
_atom_site_label
_atom_site_fract_x
_atom_site_fract_y
_atom_site_fract_z
Si Si1 0.075528 0.279896 0.958130
Si Si2 0.575914 0.098503 0.560050
Si Si3 0.923451 0.600729 0.710166
Si Si4 0.924119 0.602555 0.210144
Si Si5 0.075891 0.901469 0.858849
Si Si6 0.424451 0.279845 0.461866
O O1 0.250000 0.258438 0.955855
O O2 0.024452 0.343036 0.836840
O O3 0.989005 0.180024 0.952160
O O4 0.026228 0.336385 0.086017
O O5 0.750000 0.089184 0.538223
O O6 0.536862 0.122541 0.709450
O O7 0.511010 0.179927 0.466581
O O8 0.500000 0.000000 0.517829
O O9 0.750000 0.583119 0.710386
O O10 0.974875 0.658612 0.584734
O O11 0.000000 0.500000 0.708347
O O12 0.750000 0.584259 0.210315
O O13 0.974477 0.662227 0.335314
O O14 0.000000 0.500000 0.208876
O O15 0.250000 0.910762 0.880696
O O16 0.000000 0.000000 0.901084
O O17 0.250000 0.258347 0.462551
#
# Coordination Sequence:
#
# PCOD8168281 Si02
#       6
#     4   4   4   4   4   4
#     4  10  20  36  55  79 110 145 183 225 273 323
#     4  10  20  34  56  85 113 143 179 224 276 329
#     4  10  20  32  51  76 105 138 177 226 272 316
#     4  10  22  38  57  80 111 150 187 226 274 326
#     4  10  20  34  56  85 113 143 179 224 276 329
#     4  10  20  36  55  79 110 145 183 225 273 323
#
# _framework density 18.437415999999999
#
# number of rings (size 3 to 8) (size 9 to 14) (size 15 to 20)
#    0.000    2.000    1.667    2.000    0.000    4.000 
#    0.000    0.833    0.000    0.000    0.000    0.000 
#    0.000    0.000    0.000    0.000    0.000    0.000 
#
# Total GULP energy -297709.472130 kJ/mol
# GULP energy per Si atom -12404.561339 kJ/mol
# Density = 1.839545 g / cm^3
# Si number density = 18.437416 Si / 1000 Ang^3
#
#
#
# Elastic Constant Matrix: (Units=GPa)
#
#
# Indices 1 2 3 4 5 6 
#
# 1 62.3579 65.0462 33.1316 0.0000 0.0000 0.0000
# 2 65.0462 117.1501 4.5914 0.0000 0.0000 0.0000
# 3 33.1316 4.5914 47.7661 0.0000 0.0000 0.0000
# 4 0.0000 0.0000 0.0000 30.0201 0.0000 0.0000
# 5 0.0000 0.0000 0.0000 0.0000 11.4828 0.0000
# 6 0.0000 0.0000 0.0000 0.0000 0.0000 44.2512
#
#
#
# Elastic Compliance Matrix: (Units=1/GPa)
#
#
# Indices 1 2 3 4 5 6 
#
# 1 0.151808 -0.080466 -0.097563 0.000000 0.000000 0.000000
# 2 -0.080466 0.051219 0.050890 0.000000 0.000000 0.000000
# 3 -0.097563 0.050890 0.083715 0.000000 0.000000 0.000000
# 4 0.000000 0.000000 0.000000 0.033311 0.000000 0.000000
# 5 0.000000 0.000000 0.000000 0.000000 0.087087 0.000000
# 6 0.000000 0.000000 0.000000 0.000000 0.000000 0.022598
#
#
# Mechanical properties :
#
#
# Convention : Reuss Voigt Hill
#
# Bulk Modulus (GPa) = 30.80282 48.09029 39.44655
# Shear Modulus (GPa) = 7.19592 25.45114 16.32353
#
# Velocity S-wave (km/s) = 1.97772 3.71941 2.97871
# Velocity P-wave (km/s) = 4.68595 6.67720 5.76815
#
# Compressibility (1/GPa) = 0.03246456
#
# Stress axis : x y z
#
# Youngs Moduli (GPa) = 6.58728 19.52391 11.94523
#
# Poissons Ratio (x) = 1.57101 1.16541
# Poissons Ratio (y) = 0.53005 -0.60789
# Poissons Ratio (z) = 0.64267 -0.99356
#
# Static dielectric constant tensor:
#      x y z
#    x 3.212290 0.000000 0.000000 
#    y 0.000000 3.385550 0.000000 
#    z 0.000000 0.000000 7.365110 
# 
# 
# High freq. dielectric constant tensor:
#      x y z
#    x 1.712140 0.000000 0.000000 
#    y 0.000000 1.728690 0.000000 
#    z 0.000000 0.000000 1.704290 
# 
# From -- ./inp_files/2446.got.cif
#   From: 2010.03.12/outbox.cif.g09.slc.cpg/sg28_2_cif.got.tgz:2446.got - 2010.04.14 03:39:34.
