data_PCOD8168208
_publ_section_title
;
Structure prediction by ZEFSAII (Michael W. Deem and Ramdas Pophale) SiO2 
 PCOD8168208
Probable space group: P M A 2
;
_chemical_formula_sum "Si O2"
_cell_formula_units_Z 32
_cell_length_a 15.782691
_cell_length_b 9.215806
_cell_length_c 11.683021
_cell_angle_alpha 90.000000
_cell_angle_beta 90.000000
_cell_angle_gamma 90.000000
_cell_volume 1699.297956
_symmetry_space_group_name_H-M "P M A 2"
_symmetry_group_IT_number 28
_symmetry_cell_setting 'orthorhombic'
loop_
_space_group_symop_operation_xyz
x,y,z
-x,-y,z
1/2-x,y,z
1/2+x,-y,z
loop_
_atom_site_type_symbol
_atom_site_label
_atom_site_fract_x
_atom_site_fract_y
_atom_site_fract_z
Si Si1 0.659343 0.147022 0.194900
Si Si2 0.458503 0.231486 0.959219
Si Si3 0.625919 0.051291 0.955783
Si Si4 0.509439 0.664595 0.713118
Si Si5 0.156919 0.850621 0.710384
Si Si6 0.501377 0.665020 0.199703
Si Si7 0.920490 0.907850 0.353156
Si Si8 0.652538 0.848520 0.591480
O O1 0.750000 0.199097 0.245673
O O2 0.595369 0.281089 0.197902
O O3 0.627168 0.008056 0.263137
O O4 0.678778 0.094880 0.066334
O O5 0.534182 0.119478 0.971612
O O6 0.467686 0.331835 0.847664
O O7 0.377351 0.125119 0.946098
O O8 0.454649 0.328635 0.073961
O O9 0.669033 0.116770 0.843929
O O10 0.500000 0.500000 0.673066
O O11 0.418957 0.739023 0.685932
O O12 0.586344 0.733183 0.641826
O O13 0.250000 0.793173 0.667509
O O14 0.131155 0.997257 0.646763
O O15 0.500000 0.500000 0.242496
O O16 0.553167 0.760590 0.289556
O O17 0.859405 0.862186 0.455728
O O18 0.000000 0.000000 0.401456
O O19 0.750000 0.801369 0.616395
#
# Coordination Sequence:
#
# PCOD8168208 Si02
#       8
#     4   4   4   4   4   4   4   4
#     4  10  19  33  55  82 110 140 183 236 278 325
#     4   9  16  31  54  82 111 146 181 219 269 330
#     4   9  15  29  55  81 109 138 182 229 274 319
#     4  11  22  36  58  84 118 154 183 222 283 345
#     4  10  20  35  58  84 110 145 189 236 279 331
#     4  10  20  35  57  82 114 151 184 217 275 346
#     4  10  20  36  58  81 105 144 190 235 281 331
#     4  11  23  39  59  82 109 143 192 245 284 328
#
# _framework density 18.831305
#
# number of rings (size 3 to 8) (size 9 to 14) (size 15 to 20)
#    0.000    2.000    2.500    2.250    0.000    1.000 
#    0.000    1.250    0.000    1.500    0.000    0.000 
#    0.000    0.000    0.000    0.000    0.000    0.000 
#
# Total GULP energy -396641.666772 kJ/mol
# GULP energy per Si atom -12395.052087 kJ/mol
# Density = 1.878844 g / cm^3
# Si number density = 18.831305 Si / 1000 Ang^3
#
#
#
# Elastic Constant Matrix: (Units=GPa)
#
#
# Indices 1 2 3 4 5 6 
#
# 1 116.9334 63.7679 27.1651 0.0000 0.0000 0.0000
# 2 63.7679 133.4630 40.9715 0.0000 0.0000 0.0000
# 3 27.1651 40.9715 88.1411 0.0000 0.0000 0.0000
# 4 0.0000 0.0000 0.0000 25.6340 0.0000 0.0000
# 5 0.0000 0.0000 0.0000 0.0000 7.6524 0.0000
# 6 0.0000 0.0000 0.0000 0.0000 0.0000 14.0802
#
#
#
# Elastic Compliance Matrix: (Units=1/GPa)
#
#
# Indices 1 2 3 4 5 6 
#
# 1 0.011668 -0.005215 -0.001172 0.000000 0.000000 0.000000
# 2 -0.005215 0.011071 -0.003539 0.000000 0.000000 0.000000
# 3 -0.001172 -0.003539 0.013352 0.000000 0.000000 0.000000
# 4 0.000000 0.000000 0.000000 0.039011 0.000000 0.000000
# 5 0.000000 0.000000 0.000000 0.000000 0.130678 0.000000
# 6 0.000000 0.000000 0.000000 0.000000 0.000000 0.071022
#
#
# Mechanical properties :
#
#
# Convention : Reuss Voigt Hill
#
# Bulk Modulus (GPa) = 61.58112 66.92739 64.25425
# Shear Modulus (GPa) = 16.55267 23.24886 19.90076
#
# Velocity S-wave (km/s) = 2.96801 3.51748 3.25436
# Velocity P-wave (km/s) = 6.67217 7.21904 6.95099
#
# Compressibility (1/GPa) = 0.01623874
#
# Stress axis : x y z
#
# Youngs Moduli (GPa) = 85.70325 90.32680 74.89725
#
# Poissons Ratio (x) = 0.47108 0.08777
# Poissons Ratio (y) = 0.44696 0.26505
# Poissons Ratio (z) = 0.10043 0.31966
#
# Static dielectric constant tensor:
#      x y z
#    x 3.430620 0.000000 0.000000 
#    y 0.000000 3.049740 0.000000 
#    z 0.000000 0.000000 3.493830 
# 
# 
# High freq. dielectric constant tensor:
#      x y z
#    x 1.732370 0.000000 0.000000 
#    y 0.000000 1.707580 0.000000 
#    z 0.000000 0.000000 1.733430 
# 
# From -- ./inp_files/5562.got.cif
#   From: 2010.03.12/outbox.cif.g09.slc.cpg/sg28_3_cif.got.tgz:5562.got - 2010.04.14 03:39:34.
