data_PCOD8168619
_publ_section_title
;
Structure prediction by ZEFSAII (Michael W. Deem and Ramdas Pophale) SiO2 
 PCOD8168619
Probable space group: P C A 21
;
_chemical_formula_sum "Si O2"
_cell_formula_units_Z 28
_cell_length_a 27.774647
_cell_length_b 5.157589
_cell_length_c 9.722281
_cell_angle_alpha 90.000000
_cell_angle_beta 90.000000
_cell_angle_gamma 90.000000
_cell_volume 1392.718832
_symmetry_space_group_name_H-M "P C A 21"
_symmetry_group_IT_number 29
_symmetry_cell_setting 'orthorhombic'
loop_
_space_group_symop_operation_xyz
x,y,z
-x,-y,1/2+z
1/2-x,y,1/2+z
1/2+x,-y,z
loop_
_atom_site_type_symbol
_atom_site_label
_atom_site_fract_x
_atom_site_fract_y
_atom_site_fract_z
Si Si1 0.465326 0.490501 0.858010
Si Si2 0.884729 0.998116 0.573153
Si Si3 0.781956 0.208647 0.502957
Si Si4 0.193378 0.044366 0.413999
Si Si5 0.907309 0.002306 0.888397
Si Si6 0.443694 0.497069 0.540985
Si Si7 0.226245 0.563221 0.279030
O O1 0.446811 0.217276 0.918036
O O2 0.468269 0.479103 0.692118
O O3 0.430089 0.716785 0.911760
O O4 0.517462 0.541799 0.921084
O O5 0.831858 0.057029 0.513485
O O6 0.919979 0.223517 0.521504
O O7 0.885527 0.972519 0.736295
O O8 0.903338 0.722827 0.515417
O O9 0.770623 0.432378 0.614515
O O10 0.776709 0.361974 0.356542
O O11 0.737813 0.999164 0.519568
O O12 0.140084 0.053173 0.484795
O O13 0.203668 0.293186 0.321638
O O14 0.188761 0.792994 0.314348
#
# Coordination Sequence:
#
# PCOD8168619 Si02
#       7
#     4   4   4   4   4   4   4
#     4  10  21  38  60  84 111 145 188 243 281 342
#     4  10  20  34  62  84 110 150 194 230 274 349
#     4  10  23  38  58  87 121 154 195 239 283 346
#     4  10  22  36  58  89 113 156 191 245 272 347
#     4  10  19  36  62  83 108 153 196 225 279 345
#     4  10  22  37  59  85 110 146 190 235 292 333
#     4  10  23  33  61  78 125 146 196 233 289 324
#
# _framework density 20.104561
#
# number of rings (size 3 to 8) (size 9 to 14) (size 15 to 20)
#    0.857    1.143    1.429    1.714    8.000    0.000 
#    0.000    2.857    0.000    0.000    0.000    0.000 
#    0.000    0.000    0.000    0.000    0.000    0.000 
#
# Total GULP energy -346896.145331 kJ/mol
# GULP energy per Si atom -12389.148048 kJ/mol
# Density = 2.005880 g / cm^3
# Si number density = 20.104561 Si / 1000 Ang^3
#
#
#
# Elastic Constant Matrix: (Units=GPa)
#
#
# Indices 1 2 3 4 5 6 
#
# 1 109.1972 15.6373 33.7968 0.0000 0.0000 0.0000
# 2 15.6373 113.5058 11.8264 0.0000 0.0000 0.0000
# 3 33.7968 11.8264 45.4314 0.0000 0.0000 0.0000
# 4 0.0000 0.0000 0.0000 14.9491 0.0000 0.0000
# 5 0.0000 0.0000 0.0000 0.0000 23.4354 0.0000
# 6 0.0000 0.0000 0.0000 0.0000 0.0000 18.4395
#
#
#
# Elastic Compliance Matrix: (Units=1/GPa)
#
#
# Indices 1 2 3 4 5 6 
#
# 1 0.011957 -0.000741 -0.008702 0.000000 0.000000 0.000000
# 2 -0.000741 0.009102 -0.001818 0.000000 0.000000 0.000000
# 3 -0.008702 -0.001818 0.028958 0.000000 0.000000 0.000000
# 4 0.000000 0.000000 0.000000 0.066894 0.000000 0.000000
# 5 0.000000 0.000000 0.000000 0.000000 0.042671 0.000000
# 6 0.000000 0.000000 0.000000 0.000000 0.000000 0.054231
#
#
# Mechanical properties :
#
#
# Convention : Reuss Voigt Hill
#
# Bulk Modulus (GPa) = 36.37072 43.40615 39.88844
# Shear Modulus (GPa) = 20.36661 25.15639 22.76150
#
# Velocity S-wave (km/s) = 3.18627 3.54118 3.36840
# Velocity P-wave (km/s) = 5.62730 6.19330 5.91707
#
# Compressibility (1/GPa) = 0.02749465
#
# Stress axis : x y z
#
# Youngs Moduli (GPa) = 83.63184 109.87070 34.53247
#
# Poissons Ratio (x) = 0.08137 0.30051
# Poissons Ratio (y) = 0.06194 0.06279
# Poissons Ratio (z) = 0.72779 0.19978
#
# Static dielectric constant tensor:
#      x y z
#    x 3.921910 0.000000 0.000000 
#    y 0.000000 3.809500 0.000000 
#    z 0.000000 0.000000 3.352190 
# 
# 
# High freq. dielectric constant tensor:
#      x y z
#    x 1.787900 0.000000 0.000000 
#    y 0.000000 1.804110 0.000000 
#    z 0.000000 0.000000 1.738690 
# 
# From -- ./inp_files/3929.got.cif
#   From: 2010.03.12/outbox.cif.g09.slc.cpg/sg29_2_cif.got.tgz:3929.got - 2010.04.14 03:43:10.
