data_PCOD8168520
_publ_section_title
;
Structure prediction by ZEFSAII (Michael W. Deem and Ramdas Pophale) SiO2 
 PCOD8168520
Probable space group: P M A 2
;
_chemical_formula_sum "Si O2"
_cell_formula_units_Z 16
_cell_length_a 9.604550
_cell_length_b 8.626008
_cell_length_c 8.023087
_cell_angle_alpha 90.000000
_cell_angle_beta 90.000000
_cell_angle_gamma 90.000000
_cell_volume 664.704134
_symmetry_space_group_name_H-M "P M A 2"
_symmetry_group_IT_number 28
_symmetry_cell_setting 'orthorhombic'
loop_
_space_group_symop_operation_xyz
x,y,z
-x,-y,z
1/2-x,y,z
1/2+x,-y,z
loop_
_atom_site_type_symbol
_atom_site_label
_atom_site_fract_x
_atom_site_fract_y
_atom_site_fract_z
Si Si1 0.500000 0.000000 0.431950
Si Si2 0.250000 0.040470 0.642348
Si Si3 0.250000 0.587940 0.019205
Si Si4 0.250000 0.675215 0.659926
Si Si5 0.500144 0.729491 0.217122
Si Si6 0.750000 0.769589 0.986365
Si Si7 0.000000 0.500000 0.483076
O O1 0.610850 0.906962 0.546553
O O2 0.573791 0.127485 0.312735
O O3 0.250000 0.855188 0.617899
O O4 0.250000 0.119258 0.824546
O O5 0.250000 0.693003 0.857897
O O6 0.250000 0.413206 0.947055
O O7 0.386666 0.623309 0.125731
O O8 0.386289 0.585222 0.596827
O O9 0.574034 0.624183 0.359367
O O10 0.612105 0.804829 0.092410
#
# Coordination Sequence:
#
# PCOD8168520 Si02
#       7
#     2   2   2   2   4   2   2
#     4  12  28  50  78 108 156 202 256 316 386 452
#     4  12  30  50  72 116 160 199 253 314 391 462
#     4  12  28  47  74 112 152 197 255 317 383 449
#     4  12  30  47  78 114 154 200 254 322 386 455
#     4  12  26  49  78 109 147 201 257 316 376 454
#     4  12  28  46  76 112 152 198 252 315 388 458
#     4  12  24  52  80 108 150 204 260 318 374 454
#
# _framework density 24.070857
#
# number of rings (size 3 to 8) (size 9 to 14) (size 15 to 20)
#    0.000    0.000    5.000    3.000   14.000    0.000 
#    0.000    0.000    0.000    0.000    0.000    0.000 
#    0.000    0.000    0.000    0.000    0.000    0.000 
#
# Total GULP energy -198293.220614 kJ/mol
# GULP energy per Si atom -12393.326288 kJ/mol
# Density = 2.401607 g / cm^3
# Si number density = 24.070857 Si / 1000 Ang^3
#
#
#
# Elastic Constant Matrix: (Units=GPa)
#
#
# Indices 1 2 3 4 5 6 
#
# 1 144.5617 33.3586 63.6913 0.0000 0.0000 0.0000
# 2 33.3586 123.3774 60.5285 0.0000 0.0000 0.0000
# 3 63.6913 60.5285 138.3504 0.0000 0.0000 0.0000
# 4 0.0000 0.0000 0.0000 64.3839 0.0000 0.0000
# 5 0.0000 0.0000 0.0000 0.0000 31.9895 0.0000
# 6 0.0000 0.0000 0.0000 0.0000 0.0000 29.5500
#
#
#
# Elastic Compliance Matrix: (Units=1/GPa)
#
#
# Indices 1 2 3 4 5 6 
#
# 1 0.008701 -0.000493 -0.003790 0.000000 0.000000 0.000000
# 2 -0.000493 0.010348 -0.004300 0.000000 0.000000 0.000000
# 3 -0.003790 -0.004300 0.010854 0.000000 0.000000 0.000000
# 4 0.000000 0.000000 0.000000 0.015532 0.000000 0.000000
# 5 0.000000 0.000000 0.000000 0.000000 0.031260 0.000000
# 6 0.000000 0.000000 0.000000 0.000000 0.000000 0.033841
#
#
# Mechanical properties :
#
#
# Convention : Reuss Voigt Hill
#
# Bulk Modulus (GPa) = 78.51384 80.16068 79.33726
# Shear Modulus (GPa) = 37.89347 41.76540 39.82943
#
# Velocity S-wave (km/s) = 3.97198 4.16997 4.07218
# Velocity P-wave (km/s) = 7.32967 7.52058 7.42574
#
# Compressibility (1/GPa) = 0.01273661
#
# Stress axis : x y z
#
# Youngs Moduli (GPa) = 114.92916 96.63420 92.13118
#
# Poissons Ratio (x) = 0.04767 0.34916
# Poissons Ratio (y) = 0.05670 0.39619
# Poissons Ratio (z) = 0.43556 0.41556
#
# Static dielectric constant tensor:
#      x y z
#    x 3.904940 0.000000 0.000000 
#    y 0.000000 4.479050 0.000000 
#    z 0.000000 0.000000 4.485710 
# 
# 
# High freq. dielectric constant tensor:
#      x y z
#    x 1.942560 0.000000 0.000000 
#    y 0.000000 1.974010 0.000000 
#    z 0.000000 0.000000 1.970730 
# 
# From -- ./inp_files/2132.got.cif
#   From: 2010.03.12/outbox.cif.g09.slc.cpg/sg28_2_cif.got.tgz:2132.got - 2010.04.14 03:39:34.
