data_PCOD8168330
_publ_section_title
;
Structure prediction by ZEFSAII (Michael W. Deem and Ramdas Pophale) SiO2 
 PCOD8168330
Probable space group: P M A 2
;
_chemical_formula_sum "Si O2"
_cell_formula_units_Z 32
_cell_length_a 9.032395
_cell_length_b 14.305408
_cell_length_c 12.596530
_cell_angle_alpha 90.000000
_cell_angle_beta 90.000000
_cell_angle_gamma 90.000000
_cell_volume 1627.624040
_symmetry_space_group_name_H-M "P M A 2"
_symmetry_group_IT_number 28
_symmetry_cell_setting 'orthorhombic'
loop_
_space_group_symop_operation_xyz
x,y,z
-x,-y,z
1/2-x,y,z
1/2+x,-y,z
loop_
_atom_site_type_symbol
_atom_site_label
_atom_site_fract_x
_atom_site_fract_y
_atom_site_fract_z
Si Si1 0.924271 0.398673 0.477300
Si Si2 0.921212 0.404163 0.939082
Si Si3 0.075613 0.095598 0.834076
Si Si4 0.919214 0.405874 0.707291
Si Si5 0.921607 0.208992 0.009088
Si Si6 0.079566 0.093104 0.594983
Si Si7 0.574330 0.100716 0.222202
Si Si8 0.423772 0.222814 0.401706
O O1 0.750000 0.407873 0.450183
O O2 0.946574 0.351717 0.595976
O O3 0.000000 0.500000 0.463084
O O4 0.003055 0.325701 0.397814
O O5 0.750000 0.429554 0.938957
O O6 0.972931 0.365252 0.821251
O O7 0.000000 0.500000 0.973122
O O8 0.954868 0.320318 0.021460
O O9 0.250000 0.084301 0.845261
O O10 0.026497 0.121141 0.713694
O O11 0.000000 0.000000 0.871300
O O12 0.020273 0.175757 0.911484
O O13 0.750000 0.431269 0.719553
O O14 0.000000 0.500000 0.683800
O O15 0.750000 0.192482 0.980435
O O16 0.966446 0.157131 0.116150
O O17 0.250000 0.066065 0.597466
O O18 0.047711 0.178760 0.517318
O O19 0.000000 0.000000 0.553087
O O20 0.750000 0.090159 0.237980
O O21 0.504964 0.156941 0.318538
O O22 0.500000 0.000000 0.214408
O O23 0.250000 0.229875 0.374930
#
# Coordination Sequence:
#
# PCOD8168330 Si02
#       8
#     4   4   4   4   4   4   4   4
#     4  10  20  35  56  85 119 158 198 242 291 345
#     4   9  18  34  54  81 116 153 193 235 282 336
#     4  10  20  35  55  82 115 149 185 230 287 352
#     4   8  15  28  48  75 109 149 189 227 274 329
#     4  10  22  38  59  85 116 152 194 241 290 347
#     4   9  20  36  54  81 115 148 184 231 289 351
#     4  11  24  43  64  87 114 149 194 247 299 351
#     4  11  23  39  60  86 116 152 197 245 294 351
#
# _framework density 19.660558999999999
#
# number of rings (size 3 to 8) (size 9 to 14) (size 15 to 20)
#    0.000    2.250    0.000    2.250    1.750    5.500 
#    0.000    0.625    0.000    1.500    0.000    0.000 
#    0.000    0.000    0.000    0.000    0.000    0.000 
#
# Total GULP energy -396528.550211 kJ/mol
# GULP energy per Si atom -12391.517194 kJ/mol
# Density = 1.961581 g / cm^3
# Si number density = 19.660559 Si / 1000 Ang^3
#
#
#
# Elastic Constant Matrix: (Units=GPa)
#
#
# Indices 1 2 3 4 5 6 
#
# 1 84.0258 61.1362 48.2424 0.0000 0.0000 0.0000
# 2 61.1362 134.3810 60.0781 0.0000 0.0000 0.0000
# 3 48.2424 60.0781 78.7493 0.0000 0.0000 0.0000
# 4 0.0000 0.0000 0.0000 31.8618 0.0000 0.0000
# 5 0.0000 0.0000 0.0000 0.0000 23.9604 0.0000
# 6 0.0000 0.0000 0.0000 0.0000 0.0000 34.7191
#
#
#
# Elastic Compliance Matrix: (Units=1/GPa)
#
#
# Indices 1 2 3 4 5 6 
#
# 1 0.020927 -0.005750 -0.008433 0.000000 0.000000 0.000000
# 2 -0.005750 0.012874 -0.006299 0.000000 0.000000 0.000000
# 3 -0.008433 -0.006299 0.022670 0.000000 0.000000 0.000000
# 4 0.000000 0.000000 0.000000 0.031386 0.000000 0.000000
# 5 0.000000 0.000000 0.000000 0.000000 0.041736 0.000000
# 6 0.000000 0.000000 0.000000 0.000000 0.000000 0.028803
#
#
# Mechanical properties :
#
#
# Convention : Reuss Voigt Hill
#
# Bulk Modulus (GPa) = 64.48958 70.67440 67.58199
# Shear Modulus (GPa) = 24.44678 26.62155 25.53417
#
# Velocity S-wave (km/s) = 3.53007 3.68375 3.60773
# Velocity P-wave (km/s) = 7.03477 7.35654 7.19745
#
# Compressibility (1/GPa) = 0.01550638
#
# Stress axis : x y z
#
# Youngs Moduli (GPa) = 47.78592 77.67855 44.11178
#
# Poissons Ratio (x) = 0.44669 0.37199
# Poissons Ratio (y) = 0.27479 0.27784
# Poissons Ratio (z) = 0.40297 0.48926
#
# Static dielectric constant tensor:
#      x y z
#    x 3.609400 0.000000 0.000000 
#    y 0.000000 3.479990 0.000000 
#    z 0.000000 0.000000 3.695660 
# 
# 
# High freq. dielectric constant tensor:
#      x y z
#    x 1.770520 0.000000 0.000000 
#    y 0.000000 1.762470 0.000000 
#    z 0.000000 0.000000 1.756950 
# 
# From -- ./inp_files/5096.got.cif
#   From: 2010.03.12/outbox.cif.g09.slc.cpg/sg28_3_cif.got.tgz:5096.got - 2010.04.14 03:39:34.
