data_PCOD8168503
_publ_section_title
;
Structure prediction by ZEFSAII (Michael W. Deem and Ramdas Pophale) SiO2 
 PCOD8168503
Probable space group: P M A 2
;
_chemical_formula_sum "Si O2"
_cell_formula_units_Z 20
_cell_length_a 17.267455
_cell_length_b 8.817327
_cell_length_c 5.248802
_cell_angle_alpha 90.000000
_cell_angle_beta 90.000000
_cell_angle_gamma 90.000000
_cell_volume 799.144786
_symmetry_space_group_name_H-M "P M A 2"
_symmetry_group_IT_number 28
_symmetry_cell_setting 'orthorhombic'
loop_
_space_group_symop_operation_xyz
x,y,z
-x,-y,z
1/2-x,y,z
1/2+x,-y,z
loop_
_atom_site_type_symbol
_atom_site_label
_atom_site_fract_x
_atom_site_fract_y
_atom_site_fract_z
Si Si1 0.160394 0.161904 0.949320
Si Si2 0.883437 0.174778 0.931763
Si Si3 0.338658 0.647718 0.433833
Si Si4 0.437463 0.394148 0.619757
Si Si5 0.978227 0.841139 0.258909
O O1 0.250000 0.201764 0.988855
O O2 0.121291 0.293368 0.781222
O O3 0.114647 0.164867 0.217293
O O4 0.149811 0.989867 0.848256
O O5 0.851795 0.232673 0.206170
O O6 0.976648 0.170934 0.985177
O O7 0.858814 0.286061 0.711497
O O8 0.250000 0.598848 0.430810
O O9 0.387794 0.492526 0.416045
O O10 0.500000 0.500000 0.776541
O O11 0.498182 0.290988 0.456339
O O12 0.000000 0.000000 0.392635
#
# Coordination Sequence:
#
# PCOD8168503 Si02
#       5
#     4   4   4   4   4
#     4  11  26  46  75 111 152 201 262 327 390 466
#     4  11  26  51  79 112 153 206 260 315 390 471
#     4  12  26  47  77 114 157 200 252 322 397 462
#     4  12  26  45  74 107 156 205 260 322 393 466
#     4  10  25  46  76 107 148 205 260 316 377 475
#
# _framework density 25.026754
#
# number of rings (size 3 to 8) (size 9 to 14) (size 15 to 20)
#    0.000    0.800    2.000    3.600    8.400    3.200 
#    0.000    0.000    0.000    0.000    0.000    0.000 
#    0.000    0.000    0.000    0.000    0.000    0.000 
#
# Total GULP energy -247824.534108 kJ/mol
# GULP energy per Si atom -12391.226705 kJ/mol
# Density = 2.496979 g / cm^3
# Si number density = 25.026754 Si / 1000 Ang^3
#
#
#
# Elastic Constant Matrix: (Units=GPa)
#
#
# Indices 1 2 3 4 5 6 
#
# 1 176.5593 64.3213 33.3394 0.0000 0.0000 0.0000
# 2 64.3213 162.3376 44.2366 0.0000 0.0000 0.0000
# 3 33.3394 44.2366 91.0176 0.0000 0.0000 0.0000
# 4 0.0000 0.0000 0.0000 36.2327 0.0000 0.0000
# 5 0.0000 0.0000 0.0000 0.0000 20.4516 0.0000
# 6 0.0000 0.0000 0.0000 0.0000 0.0000 27.1865
#
#
#
# Elastic Compliance Matrix: (Units=1/GPa)
#
#
# Indices 1 2 3 4 5 6 
#
# 1 0.006761 -0.002310 -0.001354 0.000000 0.000000 0.000000
# 2 -0.002310 0.007890 -0.002988 0.000000 0.000000 0.000000
# 3 -0.001354 -0.002988 0.012935 0.000000 0.000000 0.000000
# 4 0.000000 0.000000 0.000000 0.027599 0.000000 0.000000
# 5 0.000000 0.000000 0.000000 0.000000 0.048896 0.000000
# 6 0.000000 0.000000 0.000000 0.000000 0.000000 0.036783
#
#
# Mechanical properties :
#
#
# Convention : Reuss Voigt Hill
#
# Bulk Modulus (GPa) = 70.02091 79.30102 74.66096
# Shear Modulus (GPa) = 31.46065 35.97532 33.71798
#
# Velocity S-wave (km/s) = 3.54938 3.79552 3.67451
# Velocity P-wave (km/s) = 6.69602 7.13885 6.92098
#
# Compressibility (1/GPa) = 0.01428145
#
# Stress axis : x y z
#
# Youngs Moduli (GPa) = 147.90774 126.74974 77.30832
#
# Poissons Ratio (x) = 0.29278 0.10466
# Poissons Ratio (y) = 0.34165 0.23103
# Poissons Ratio (z) = 0.20024 0.37878
#
# Static dielectric constant tensor:
#      x y z
#    x 4.998640 0.000000 0.000000 
#    y 0.000000 4.955320 0.000000 
#    z 0.000000 0.000000 4.027970 
# 
# 
# High freq. dielectric constant tensor:
#      x y z
#    x 2.016250 0.000000 0.000000 
#    y 0.000000 2.023030 0.000000 
#    z 0.000000 0.000000 1.967940 
# 
# From -- ./inp_files/1040.got.cif
#   From: 2010.03.12/outbox.cif.g09.slc.cpg/sg28_1_cif.got.tgz:1040.got - 2010.04.14 03:39:34.
