data_PCOD8168654
_publ_section_title
;
Structure prediction by ZEFSAII (Michael W. Deem and Ramdas Pophale) SiO2 
 PCOD8168654
Probable space group: P C A 21
;
_chemical_formula_sum "Si O2"
_cell_formula_units_Z 28
_cell_length_a 17.122454
_cell_length_b 9.085562
_cell_length_c 8.381470
_cell_angle_alpha 90.000000
_cell_angle_beta 90.000000
_cell_angle_gamma 90.000000
_cell_volume 1303.881128
_symmetry_space_group_name_H-M "P C A 21"
_symmetry_group_IT_number 29
_symmetry_cell_setting 'orthorhombic'
loop_
_space_group_symop_operation_xyz
x,y,z
-x,-y,1/2+z
1/2-x,y,1/2+z
1/2+x,-y,z
loop_
_atom_site_type_symbol
_atom_site_label
_atom_site_fract_x
_atom_site_fract_y
_atom_site_fract_z
Si Si1 0.670982 0.253290 0.193790
Si Si2 0.855325 0.608632 0.189346
Si Si3 0.715821 0.740179 0.392506
Si Si4 0.678935 0.924486 0.106686
Si Si5 0.936090 0.059391 0.385161
Si Si6 0.827779 0.317100 0.343257
Si Si7 0.502064 0.188908 0.188118
O O1 0.734581 0.322135 0.310374
O O2 0.583022 0.249306 0.266159
O O3 0.700733 0.089011 0.157830
O O4 0.666129 0.350249 0.031800
O O5 0.787181 0.658426 0.308550
O O6 0.871101 0.438807 0.234064
O O7 0.933304 0.699352 0.227001
O O8 0.833277 0.626211 0.001975
O O9 0.661865 0.818440 0.258632
O O10 0.746143 0.866442 0.511127
O O11 0.603033 0.931165 0.994127
O O12 0.986979 0.975460 0.254982
O O13 0.869057 0.160472 0.302446
O O14 0.988052 0.166653 0.497300
#
# Coordination Sequence:
#
# PCOD8168654 Si02
#       7
#     4   4   4   4   4   4   4
#     4  10  22  39  66  88 125 162 218 262 319 379
#     4  11  22  39  63  91 133 167 214 258 325 391
#     4  10  20  32  61  92 124 164 213 260 309 387
#     4   9  17  34  56  92 116 159 208 268 306 361
#     4  10  22  41  61  91 128 162 219 271 324 381
#     4  10  22  41  62  89 125 170 211 258 314 404
#     4  10  23  40  63  95 125 166 211 281 327 373
#
# _framework density 21.474349
#
# number of rings (size 3 to 8) (size 9 to 14) (size 15 to 20)
#    0.000    2.286    1.429    2.571    6.000    1.143 
#    0.000    8.571    0.000    0.000    0.000    0.000 
#    0.000    0.000    0.000    0.000    0.000    0.000 
#
# Total GULP energy -347046.967655 kJ/mol
# GULP energy per Si atom -12394.534559 kJ/mol
# Density = 2.142547 g / cm^3
# Si number density = 21.474349 Si / 1000 Ang^3
#
#
#
# Elastic Constant Matrix: (Units=GPa)
#
#
# Indices 1 2 3 4 5 6 
#
# 1 108.4066 53.6902 36.1659 0.0000 0.0000 0.0000
# 2 53.6902 89.4262 50.6644 0.0000 0.0000 0.0000
# 3 36.1659 50.6644 84.1142 0.0000 0.0000 0.0000
# 4 0.0000 0.0000 0.0000 35.9225 0.0000 0.0000
# 5 0.0000 0.0000 0.0000 0.0000 33.6522 0.0000
# 6 0.0000 0.0000 0.0000 0.0000 0.0000 23.9831
#
#
#
# Elastic Compliance Matrix: (Units=1/GPa)
#
#
# Indices 1 2 3 4 5 6 
#
# 1 0.013232 -0.007167 -0.001373 0.000000 0.000000 0.000000
# 2 -0.007167 0.020857 -0.009481 0.000000 0.000000 0.000000
# 3 -0.001373 -0.009481 0.018190 0.000000 0.000000 0.000000
# 4 0.000000 0.000000 0.000000 0.027838 0.000000 0.000000
# 5 0.000000 0.000000 0.000000 0.000000 0.029716 0.000000
# 6 0.000000 0.000000 0.000000 0.000000 0.000000 0.041696
#
#
# Mechanical properties :
#
#
# Convention : Reuss Voigt Hill
#
# Bulk Modulus (GPa) = 61.58633 62.55422 62.07027
# Shear Modulus (GPa) = 25.90931 28.13997 27.02464
#
# Velocity S-wave (km/s) = 3.47727 3.62387 3.55133
# Velocity P-wave (km/s) = 6.69800 6.83395 6.76632
#
# Compressibility (1/GPa) = 0.01623737
#
# Stress axis : x y z
#
# Youngs Moduli (GPa) = 75.57557 47.94618 54.97653
#
# Poissons Ratio (x) = 0.34361 0.07546
# Poissons Ratio (y) = 0.54162 0.52125
# Poissons Ratio (z) = 0.10373 0.45459
#
# Static dielectric constant tensor:
#      x y z
#    x 3.799340 0.000000 0.000000 
#    y 0.000000 3.772280 0.000000 
#    z 0.000000 0.000000 3.949760 
# 
# 
# High freq. dielectric constant tensor:
#      x y z
#    x 1.832980 0.000000 0.000000 
#    y 0.000000 1.830470 0.000000 
#    z 0.000000 0.000000 1.837140 
# 
# From -- ./inp_files/2114.got.cif
#   From: 2010.03.12/outbox.cif.g09.slc.cpg/sg29_2_cif.got.tgz:2114.got - 2010.04.14 03:43:10.
