data_PCOD8168485
_publ_section_title
;
Structure prediction by ZEFSAII (Michael W. Deem and Ramdas Pophale) SiO2 
 PCOD8168485
Probable space group: P M A 2
;
_chemical_formula_sum "Si O2"
_cell_formula_units_Z 32
_cell_length_a 13.809190
_cell_length_b 9.501832
_cell_length_c 11.874268
_cell_angle_alpha 90.000000
_cell_angle_beta 90.000000
_cell_angle_gamma 90.000000
_cell_volume 1558.053618
_symmetry_space_group_name_H-M "P M A 2"
_symmetry_group_IT_number 28
_symmetry_cell_setting 'orthorhombic'
loop_
_space_group_symop_operation_xyz
x,y,z
-x,-y,z
1/2-x,y,z
1/2+x,-y,z
loop_
_atom_site_type_symbol
_atom_site_label
_atom_site_fract_x
_atom_site_fract_y
_atom_site_fract_z
Si Si1 0.027731 0.648833 0.772630
Si Si2 0.643638 0.860758 0.768902
Si Si3 0.140426 0.669189 0.547608
Si Si4 0.364616 0.876802 0.912147
Si Si5 0.856602 0.867089 0.315335
Si Si6 0.972882 0.346763 0.317060
Si Si7 0.614340 0.008363 0.544478
Si Si8 0.864903 0.124668 0.168130
O O1 0.079584 0.612940 0.653973
O O2 0.098128 0.735960 0.852879
O O3 0.000000 0.500000 0.829513
O O4 0.927379 0.730517 0.759228
O O5 0.750000 0.811845 0.812826
O O6 0.658836 0.920446 0.644952
O O7 0.598412 0.981127 0.850339
O O8 0.250000 0.605056 0.545656
O O9 0.083625 0.629709 0.433879
O O10 0.150212 0.834811 0.560723
O O11 0.250000 0.872464 0.904764
O O12 0.401688 0.877897 0.040095
O O13 0.750000 0.811276 0.278233
O O14 0.842672 0.952607 0.429390
O O15 0.927500 0.737262 0.335437
O O16 0.899221 0.977165 0.223755
O O17 0.907784 0.261617 0.229114
O O18 0.000000 0.500000 0.267320
O O19 0.500000 0.000000 0.544492
O O20 0.750000 0.137307 0.177701
#
# Coordination Sequence:
#
# PCOD8168485 Si02
#       8
#     4   4   4   4   4   4   4   4
#     4  12  25  40  60  90 128 164 198 241 300 367
#     4  11  22  38  62  90 119 156 203 254 300 351
#     4  12  23  39  62  89 122 161 203 247 299 358
#     4  10  22  42  67  91 116 154 205 256 303 352
#     4  11  22  38  62  90 119 156 203 254 300 351
#     4  12  25  40  60  90 128 164 198 241 300 367
#     4  12  18  35  64  90 119 150 200 257 305 349
#     4  10  22  42  67  91 116 154 205 256 303 352
#
# _framework density 20.538446
#
# number of rings (size 3 to 8) (size 9 to 14) (size 15 to 20)
#    0.000    0.750    5.000    3.000    0.000    4.500 
#    0.000    0.000    0.000    3.000    0.000    0.000 
#    0.000    0.000    0.000    0.000    0.000    0.000 
#
# Total GULP energy -396841.097702 kJ/mol
# GULP energy per Si atom -12401.284303 kJ/mol
# Density = 2.049170 g / cm^3
# Si number density = 20.538446 Si / 1000 Ang^3
#
#
#
# Elastic Constant Matrix: (Units=GPa)
#
#
# Indices 1 2 3 4 5 6 
#
# 1 110.0238 34.1044 27.0253 0.0000 0.0000 0.0000
# 2 34.1044 102.6587 23.7431 0.0000 0.0000 0.0000
# 3 27.0253 23.7431 122.6838 0.0000 0.0000 0.0000
# 4 0.0000 0.0000 0.0000 12.0127 0.0000 0.0000
# 5 0.0000 0.0000 0.0000 0.0000 35.6495 0.0000
# 6 0.0000 0.0000 0.0000 0.0000 0.0000 8.8911
#
#
#
# Elastic Compliance Matrix: (Units=1/GPa)
#
#
# Indices 1 2 3 4 5 6 
#
# 1 0.010464 -0.003081 -0.001709 0.000000 0.000000 0.000000
# 2 -0.003081 0.011105 -0.001470 0.000000 0.000000 0.000000
# 3 -0.001709 -0.001470 0.008812 0.000000 0.000000 0.000000
# 4 0.000000 0.000000 0.000000 0.083245 0.000000 0.000000
# 5 0.000000 0.000000 0.000000 0.000000 0.028051 0.000000
# 6 0.000000 0.000000 0.000000 0.000000 0.000000 0.112472
#
#
# Mechanical properties :
#
#
# Convention : Reuss Voigt Hill
#
# Bulk Modulus (GPa) = 55.99059 56.12354 56.05707
# Shear Modulus (GPa) = 18.34044 28.01024 23.17534
#
# Velocity S-wave (km/s) = 2.99152 3.69697 3.36279
# Velocity P-wave (km/s) = 6.26521 6.75343 6.51389
#
# Compressibility (1/GPa) = 0.01786014
#
# Stress axis : x y z
#
# Youngs Moduli (GPa) = 95.56881 90.05266 113.48158
#
# Poissons Ratio (x) = 0.27745 0.19391
# Poissons Ratio (y) = 0.29444 0.16686
# Poissons Ratio (z) = 0.16330 0.13241
#
# Static dielectric constant tensor:
#      x y z
#    x 3.843840 0.000000 0.000000 
#    y 0.000000 3.531760 0.000000 
#    z 0.000000 0.000000 3.851070 
# 
# 
# High freq. dielectric constant tensor:
#      x y z
#    x 1.829550 0.000000 0.000000 
#    y 0.000000 1.783780 0.000000 
#    z 0.000000 0.000000 1.796900 
# 
# From -- ./inp_files/5608.got.cif
#   From: 2010.03.12/outbox.cif.g09.slc.cpg/sg28_3_cif.got.tgz:5608.got - 2010.04.14 03:39:34.
