data_PCOD8168621
_publ_section_title
;
Structure prediction by ZEFSAII (Michael W. Deem and Ramdas Pophale) SiO2 
 PCOD8168621
Probable space group: P C A 21
;
_chemical_formula_sum "Si O2"
_cell_formula_units_Z 32
_cell_length_a 5.592191
_cell_length_b 17.341921
_cell_length_c 12.181912
_cell_angle_alpha 90.000000
_cell_angle_beta 90.000000
_cell_angle_gamma 90.000000
_cell_volume 1181.393719
_symmetry_space_group_name_H-M "P C A 21"
_symmetry_group_IT_number 29
_symmetry_cell_setting 'orthorhombic'
loop_
_space_group_symop_operation_xyz
x,y,z
-x,-y,1/2+z
1/2-x,y,1/2+z
1/2+x,-y,z
loop_
_atom_site_type_symbol
_atom_site_label
_atom_site_fract_x
_atom_site_fract_y
_atom_site_fract_z
Si Si1 0.475605 0.202031 0.562890
Si Si2 0.875104 0.022229 0.306915
Si Si3 0.936388 0.471905 0.463673
Si Si4 0.649715 0.465698 0.218038
Si Si5 0.663244 0.286262 0.194989
Si Si6 0.277123 0.811596 0.368137
Si Si7 0.102570 0.300697 0.473208
Si Si8 0.146384 0.035281 0.055072
O O1 0.576780 0.247126 0.668313
O O2 0.685772 0.164973 0.488116
O O3 0.371849 0.270781 0.485128
O O4 0.312803 0.126482 0.585541
O O5 0.889576 0.113578 0.314170
O O6 0.625688 0.999512 0.244488
O O7 0.867637 0.976797 0.422997
O O8 0.158022 0.526418 0.413546
O O9 0.067191 0.390283 0.450403
O O10 0.877733 0.492284 0.590615
O O11 0.397041 0.497193 0.271356
O O12 0.681369 0.374722 0.231413
O O13 0.572097 0.230451 0.293143
O O14 0.493890 0.277195 0.092590
O O15 0.478956 0.745670 0.376229
O O16 0.385561 0.992572 0.103187
#
# Coordination Sequence:
#
# PCOD8168621 Si02
#       8
#     4   4   4   4   4   4   4   4
#     4  11  23  40  68  94 130 176 218 277 340 392
#     4  10  19  37  64  89 123 172 219 257 321 398
#     4   9  19  34  61  91 126 167 216 269 325 402
#     4   9  19  38  64  88 126 180 217 266 336 398
#     4  10  25  41  63 101 132 167 228 279 328 401
#     4  11  23  42  65  95 132 175 217 278 334 395
#     4  10  23  40  65  93 129 172 219 270 341 393
#     4  10  19  36  64  91 122 171 220 258 321 401
#
# _framework density 27.086649999999999
#
# number of rings (size 3 to 8) (size 9 to 14) (size 15 to 20)
#    0.000    2.000    2.500    1.500   12.250    1.000 
#    0.000    2.500    0.000    0.000    0.000    0.000 
#    0.000    0.000    0.000    0.000    0.000    0.000 
#
# Total GULP energy -396500.555082 kJ/mol
# GULP energy per Si atom -12390.642346 kJ/mol
# Density = 2.702500 g / cm^3
# Si number density = 27.086650 Si / 1000 Ang^3
#
#
#
# Elastic Constant Matrix: (Units=GPa)
#
#
# Indices 1 2 3 4 5 6 
#
# 1 177.7712 52.3303 53.4434 0.0000 0.0000 0.0000
# 2 52.3303 167.2368 23.3607 0.0000 0.0000 0.0000
# 3 53.4434 23.3607 66.4956 0.0000 0.0000 0.0000
# 4 0.0000 0.0000 0.0000 33.9218 0.0000 0.0000
# 5 0.0000 0.0000 0.0000 0.0000 45.0440 0.0000
# 6 0.0000 0.0000 0.0000 0.0000 0.0000 40.7792
#
#
#
# Elastic Compliance Matrix: (Units=1/GPa)
#
#
# Indices 1 2 3 4 5 6 
#
# 1 0.007829 -0.001652 -0.005712 0.000000 0.000000 0.000000
# 2 -0.001652 0.006637 -0.001004 0.000000 0.000000 0.000000
# 3 -0.005712 -0.001004 0.019982 0.000000 0.000000 0.000000
# 4 0.000000 0.000000 0.000000 0.029480 0.000000 0.000000
# 5 0.000000 0.000000 0.000000 0.000000 0.022201 0.000000
# 6 0.000000 0.000000 0.000000 0.000000 0.000000 0.024522
#
#
# Mechanical properties :
#
#
# Convention : Reuss Voigt Hill
#
# Bulk Modulus (GPa) = 56.45814 74.41917 65.43865
# Shear Modulus (GPa) = 37.51274 42.77362 40.14318
#
# Velocity S-wave (km/s) = 3.72548 3.97815 3.85389
# Velocity P-wave (km/s) = 6.27650 6.97388 6.63436
#
# Compressibility (1/GPa) = 0.01771224
#
# Stress axis : x y z
#
# Youngs Moduli (GPa) = 127.73808 150.67836 50.04567
#
# Poissons Ratio (x) = 0.24889 0.28584
# Poissons Ratio (y) = 0.21100 0.05024
# Poissons Ratio (z) = 0.72959 0.15127
#
# Static dielectric constant tensor:
#      x y z
#    x 5.357640 0.000000 0.000000 
#    y 0.000000 4.616860 0.000000 
#    z 0.000000 0.000000 5.331600 
# 
# 
# High freq. dielectric constant tensor:
#      x y z
#    x 2.097450 0.000000 0.000000 
#    y 0.000000 2.080320 0.000000 
#    z 0.000000 0.000000 2.138300 
# 
# From -- ./inp_files/4105.got.cif
#   From: 2010.03.12/outbox.cif.g09.slc.cpg/sg29_3_cif.got.tgz:4105.got - 2010.04.14 03:43:10.
