data_PCOD8168769
_publ_section_title
;
Structure prediction by ZEFSAII (Michael W. Deem and Ramdas Pophale) SiO2 
 PCOD8168769
Probable space group: P C A 21
;
_chemical_formula_sum "Si O2"
_cell_formula_units_Z 28
_cell_length_a 14.039357
_cell_length_b 16.623413
_cell_length_c 5.255607
_cell_angle_alpha 90.000000
_cell_angle_beta 90.000000
_cell_angle_gamma 90.000000
_cell_volume 1226.564229
_symmetry_space_group_name_H-M "P C A 21"
_symmetry_group_IT_number 29
_symmetry_cell_setting 'orthorhombic'
loop_
_space_group_symop_operation_xyz
x,y,z
-x,-y,1/2+z
1/2-x,y,1/2+z
1/2+x,-y,z
loop_
_atom_site_type_symbol
_atom_site_label
_atom_site_fract_x
_atom_site_fract_y
_atom_site_fract_z
Si Si1 0.003540 0.051900 0.671480
Si Si2 0.417933 0.422992 0.597316
Si Si3 0.343946 0.265403 0.716935
Si Si4 0.867332 0.801511 0.219057
Si Si5 0.298895 0.881545 0.711777
Si Si6 0.532705 0.403314 0.097564
Si Si7 0.703579 0.306235 0.205730
O O1 0.911771 0.106884 0.716665
O O2 0.099764 0.106223 0.681460
O O3 0.993704 0.014313 0.391959
O O4 0.329505 0.361468 0.658986
O O5 0.449405 0.407869 0.306669
O O6 0.397524 0.517764 0.630858
O O7 0.497009 0.398373 0.807703
O O8 0.246792 0.214279 0.746274
O O9 0.409229 0.229829 0.487669
O O10 0.403191 0.251642 0.978673
O O11 0.249688 0.921368 0.462287
O O12 0.277170 0.787896 0.713293
O O13 0.593039 0.324332 0.159693
O O14 0.737217 0.345088 0.471647
#
# Coordination Sequence:
#
# PCOD8168769 Si02
#       7
#     4   4   4   4   4   4   4
#     4  12  26  47  69 101 129 167 215 266 341 406
#     4  10  21  36  62  91 133 170 214 261 322 382
#     4  10  21  41  64  97 129 172 217 260 323 380
#     4  10  23  43  63  96 130 165 213 267 322 400
#     4  10  23  44  66  95 128 168 212 264 323 387
#     4  10  21  38  57  95 127 174 217 265 320 368
#     4  10  21  39  61  87 118 160 214 261 307 361
#
# _framework density 22.827994
#
# number of rings (size 3 to 8) (size 9 to 14) (size 15 to 20)
#    0.000    1.714    0.000    3.429    4.000    0.000 
#   20.571    0.000    0.000    0.000    0.000    0.000 
#    0.000    0.000    0.000    0.000    0.000    0.000 
#
# Total GULP energy -346892.704094 kJ/mol
# GULP energy per Si atom -12389.025146 kJ/mol
# Density = 2.277604 g / cm^3
# Si number density = 22.827994 Si / 1000 Ang^3
#
#
#
# Elastic Constant Matrix: (Units=GPa)
#
#
# Indices 1 2 3 4 5 6 
#
# 1 67.3034 12.4805 7.2085 0.0000 0.0000 0.0000
# 2 12.4805 42.6960 14.6847 0.0000 0.0000 0.0000
# 3 7.2085 14.6847 167.1901 0.0000 0.0000 0.0000
# 4 0.0000 0.0000 0.0000 29.2371 0.0000 0.0000
# 5 0.0000 0.0000 0.0000 0.0000 21.7079 0.0000
# 6 0.0000 0.0000 0.0000 0.0000 0.0000 33.8753
#
#
#
# Elastic Compliance Matrix: (Units=1/GPa)
#
#
# Indices 1 2 3 4 5 6 
#
# 1 0.015723 -0.004499 -0.000283 0.000000 0.000000 0.000000
# 2 -0.004499 0.025438 -0.002040 0.000000 0.000000 0.000000
# 3 -0.000283 -0.002040 0.006173 0.000000 0.000000 0.000000
# 4 0.000000 0.000000 0.000000 0.034203 0.000000 0.000000
# 5 0.000000 0.000000 0.000000 0.000000 0.046066 0.000000
# 6 0.000000 0.000000 0.000000 0.000000 0.000000 0.029520
#
#
# Mechanical properties :
#
#
# Convention : Reuss Voigt Hill
#
# Bulk Modulus (GPa) = 29.68249 38.43743 34.05996
# Shear Modulus (GPa) = 27.47314 33.15180 30.31247
#
# Velocity S-wave (km/s) = 3.47289 3.81497 3.64794
# Velocity P-wave (km/s) = 5.39557 6.02326 5.71804
#
# Compressibility (1/GPa) = 0.03368990
#
# Stress axis : x y z
#
# Youngs Moduli (GPa) = 63.60284 39.31106 162.00597
#
# Poissons Ratio (x) = 0.17685 0.04581
# Poissons Ratio (y) = 0.28612 0.33055
# Poissons Ratio (z) = 0.01798 0.08021
#
# Static dielectric constant tensor:
#      x y z
#    x 3.620140 0.000000 0.000000 
#    y 0.000000 4.041730 0.000000 
#    z 0.000000 0.000000 5.268410 
# 
# 
# High freq. dielectric constant tensor:
#      x y z
#    x 1.859970 0.000000 0.000000 
#    y 0.000000 1.888060 0.000000 
#    z 0.000000 0.000000 1.942990 
# 
# From -- ./inp_files/251.got.cif
#   From: 2010.03.12/outbox.cif.g09.slc.cpg/sg29_1_cif.got.tgz:251.got - 2010.04.14 03:43:10.
