data_PCOD8168785
_publ_section_title
;
Structure prediction by ZEFSAII (Michael W. Deem and Ramdas Pophale) SiO2 
 PCOD8168785
Probable space group: P C A 21
;
_chemical_formula_sum "Si O2"
_cell_formula_units_Z 32
_cell_length_a 8.823070
_cell_length_b 14.522663
_cell_length_c 12.165853
_cell_angle_alpha 90.000000
_cell_angle_beta 90.000000
_cell_angle_gamma 90.000000
_cell_volume 1558.865153
_symmetry_space_group_name_H-M "P C A 21"
_symmetry_group_IT_number 29
_symmetry_cell_setting 'orthorhombic'
loop_
_space_group_symop_operation_xyz
x,y,z
-x,-y,1/2+z
1/2-x,y,1/2+z
1/2+x,-y,z
loop_
_atom_site_type_symbol
_atom_site_label
_atom_site_fract_x
_atom_site_fract_y
_atom_site_fract_z
Si Si1 0.943021 0.869562 0.163260
Si Si2 0.096513 0.874257 0.532044
Si Si3 0.824150 0.986743 0.584720
Si Si4 0.974584 0.605788 0.807219
Si Si5 0.191092 0.725099 0.676934
Si Si6 0.520987 0.317790 0.053699
Si Si7 0.877704 0.587095 0.263012
Si Si8 0.050796 0.747375 0.344044
O O1 0.782844 0.920947 0.156855
O O2 0.964558 0.788532 0.071641
O O3 0.951685 0.825226 0.283116
O O4 0.075076 0.945773 0.158646
O O5 0.136999 0.830173 0.650799
O O6 0.100490 0.781992 0.461772
O O7 0.932758 0.919552 0.517311
O O8 0.221467 0.951795 0.502016
O O9 0.802330 0.589309 0.773117
O O10 0.042397 0.668144 0.709234
O O11 0.066861 0.511798 0.801706
O O12 0.989516 0.650425 0.929101
O O13 0.297841 0.679669 0.580944
O O14 0.292830 0.727272 0.784535
O O15 0.431547 0.384405 0.139702
O O16 0.948731 0.656536 0.352816
#
# Coordination Sequence:
#
# PCOD8168785 Si02
#       8
#     4   4   4   4   4   4   4   4
#     4   9  20  40  58  90 127 161 208 264 312 365
#     4  11  22  39  61  92 125 168 211 260 318 365
#     4  10  21  38  61  87 125 163 213 266 306 377
#     4  12  25  43  72  96 126 175 211 251 333 379
#     4  10  22  41  65  91 129 168 211 261 316 379
#     4  10  23  45  66  92 142 163 208 272 311 379
#     4  10  25  43  63 102 125 163 216 262 310 391
#     4  10  22  41  62  88 131 165 206 262 324 373
#
# _framework density 20.527754000000002
#
# number of rings (size 3 to 8) (size 9 to 14) (size 15 to 20)
#    0.000    2.000    2.500    2.250    5.250    4.000 
#    0.000    0.000    0.000    0.000    0.000    0.000 
#    0.000    0.000    0.000    0.000    0.000    0.000 
#
# Total GULP energy -396501.792739 kJ/mol
# GULP energy per Si atom -12390.681023 kJ/mol
# Density = 2.048103 g / cm^3
# Si number density = 20.527754 Si / 1000 Ang^3
#
#
#
# Elastic Constant Matrix: (Units=GPa)
#
#
# Indices 1 2 3 4 5 6 
#
# 1 159.6367 62.2362 34.5359 0.0000 0.0000 0.0000
# 2 62.2362 117.8474 29.4572 0.0000 0.0000 0.0000
# 3 34.5359 29.4572 51.8508 0.0000 0.0000 0.0000
# 4 0.0000 0.0000 0.0000 17.8807 0.0000 0.0000
# 5 0.0000 0.0000 0.0000 0.0000 12.4480 0.0000
# 6 0.0000 0.0000 0.0000 0.0000 0.0000 35.4535
#
#
#
# Elastic Compliance Matrix: (Units=1/GPa)
#
#
# Indices 1 2 3 4 5 6 
#
# 1 0.008427 -0.003552 -0.003595 0.000000 0.000000 0.000000
# 2 -0.003552 0.011387 -0.004103 0.000000 0.000000 0.000000
# 3 -0.003595 -0.004103 0.024012 0.000000 0.000000 0.000000
# 4 0.000000 0.000000 0.000000 0.055926 0.000000 0.000000
# 5 0.000000 0.000000 0.000000 0.000000 0.080334 0.000000
# 6 0.000000 0.000000 0.000000 0.000000 0.000000 0.028206
#
#
# Mechanical properties :
#
#
# Convention : Reuss Voigt Hill
#
# Bulk Modulus (GPa) = 46.89270 64.64374 55.76822
# Shear Modulus (GPa) = 21.01725 26.69681 23.85703
#
# Velocity S-wave (km/s) = 3.20323 3.61019 3.41278
# Velocity P-wave (km/s) = 6.04765 6.99551 6.53878
#
# Compressibility (1/GPa) = 0.02132528
#
# Stress axis : x y z
#
# Youngs Moduli (GPa) = 118.67222 87.82054 41.64621
#
# Poissons Ratio (x) = 0.31190 0.14972
# Poissons Ratio (y) = 0.42147 0.17089
# Poissons Ratio (z) = 0.42662 0.36037
#
# Static dielectric constant tensor:
#      x y z
#    x 3.927700 0.000000 0.000000 
#    y 0.000000 3.983840 0.000000 
#    z 0.000000 0.000000 3.484040 
# 
# 
# High freq. dielectric constant tensor:
#      x y z
#    x 1.819010 0.000000 0.000000 
#    y 0.000000 1.818870 0.000000 
#    z 0.000000 0.000000 1.770190 
# 
# From -- ./inp_files/2931.got.cif
#   From: 2010.03.12/outbox.cif.g09.slc.cpg/sg29_2_cif.got.tgz:2931.got - 2010.04.14 03:43:10.
