data_PCOD8168300
_publ_section_title
;
Structure prediction by ZEFSAII (Michael W. Deem and Ramdas Pophale) SiO2 
 PCOD8168300
Probable space group: P M A 2
;
_chemical_formula_sum "Si O2"
_cell_formula_units_Z 24
_cell_length_a 17.408216
_cell_length_b 7.670810
_cell_length_c 9.531229
_cell_angle_alpha 90.000000
_cell_angle_beta 90.000000
_cell_angle_gamma 90.000000
_cell_volume 1272.753783
_symmetry_space_group_name_H-M "P M A 2"
_symmetry_group_IT_number 28
_symmetry_cell_setting 'orthorhombic'
loop_
_space_group_symop_operation_xyz
x,y,z
-x,-y,z
1/2-x,y,z
1/2+x,-y,z
loop_
_atom_site_type_symbol
_atom_site_label
_atom_site_fract_x
_atom_site_fract_y
_atom_site_fract_z
Si Si1 0.409546 0.503297 0.899230
Si Si2 0.158527 0.185904 0.397470
Si Si3 0.341075 0.204385 0.716056
Si Si4 0.341310 0.490714 0.198555
Si Si5 0.340471 0.876938 0.211916
Si Si6 0.840228 0.126859 0.895332
O O1 0.500000 0.500000 0.912155
O O2 0.382251 0.370661 0.780700
O O3 0.383004 0.695886 0.853132
O O4 0.374142 0.442045 0.046731
O O5 0.250000 0.181352 0.392792
O O6 0.129604 0.190280 0.556460
O O7 0.128346 0.355642 0.314448
O O8 0.123215 0.015156 0.320511
O O9 0.250000 0.230446 0.726969
O O10 0.367022 0.027472 0.793325
O O11 0.250000 0.485902 0.183805
O O12 0.370666 0.682281 0.245299
O O13 0.250000 0.881009 0.230402
O O14 0.362652 0.929594 0.053265
O O15 0.750000 0.164108 0.882678
#
# Coordination Sequence:
#
# PCOD8168300 Si02
#       6
#     4   4   4   4   4   4
#     4  11  22  35  53  77 108 144 180 217 258 310
#     4   9  17  29  50  79 103 126 163 215 269 312
#     4  10  20  34  54  79 106 137 174 218 266 314
#     4   9  17  32  54  77 102 132 171 218 262 308
#     4   8  14  26  46  73  99 123 157 204 254 298
#     4   9  18  34  57  79 100 132 175 220 261 306
#
# _framework density 18.856750999999999
#
# number of rings (size 3 to 8) (size 9 to 14) (size 15 to 20)
#    0.000    2.667    0.000    3.500    0.000    4.667 
#    0.000    5.833    0.000    4.000    0.000    0.000 
#    0.000    0.000    0.000    0.000    0.000    0.000 
#
# Total GULP energy -297571.188867 kJ/mol
# GULP energy per Si atom -12398.799536 kJ/mol
# Density = 1.881383 g / cm^3
# Si number density = 18.856751 Si / 1000 Ang^3
#
#
#
# Elastic Constant Matrix: (Units=GPa)
#
#
# Indices 1 2 3 4 5 6 
#
# 1 32.1123 19.5451 17.3221 0.0000 0.0000 0.0000
# 2 19.5451 138.2692 96.9199 0.0000 0.0000 0.0000
# 3 17.3221 96.9199 150.5909 0.0000 0.0000 0.0000
# 4 0.0000 0.0000 0.0000 21.3824 0.0000 0.0000
# 5 0.0000 0.0000 0.0000 0.0000 4.9002 0.0000
# 6 0.0000 0.0000 0.0000 0.0000 0.0000 6.9709
#
#
#
# Elastic Compliance Matrix: (Units=1/GPa)
#
#
# Indices 1 2 3 4 5 6 
#
# 1 0.034257 -0.003790 -0.001501 0.000000 0.000000 0.000000
# 2 -0.003790 0.013596 -0.008314 0.000000 0.000000 0.000000
# 3 -0.001501 -0.008314 0.012164 0.000000 0.000000 0.000000
# 4 0.000000 0.000000 0.000000 0.046767 0.000000 0.000000
# 5 0.000000 0.000000 0.000000 0.000000 0.204074 0.000000
# 6 0.000000 0.000000 0.000000 0.000000 0.000000 0.143454
#
#
# Mechanical properties :
#
#
# Convention : Reuss Voigt Hill
#
# Bulk Modulus (GPa) = 30.48205 65.39406 47.93806
# Shear Modulus (GPa) = 10.15312 19.12971 14.64142
#
# Velocity S-wave (km/s) = 2.32294 3.18854 2.78952
# Velocity P-wave (km/s) = 4.83682 6.95057 5.98771
#
# Compressibility (1/GPa) = 0.03280619
#
# Stress axis : x y z
#
# Youngs Moduli (GPa) = 29.19075 73.55093 82.20773
#
# Poissons Ratio (x) = 0.27877 0.12341
# Poissons Ratio (y) = 0.11064 0.68351
# Poissons Ratio (z) = 0.04382 0.61153
#
# Static dielectric constant tensor:
#      x y z
#    x 2.984520 0.000000 0.000000 
#    y 0.000000 3.801080 0.000000 
#    z 0.000000 0.000000 3.622200 
# 
# 
# High freq. dielectric constant tensor:
#      x y z
#    x 1.682860 0.000000 0.000000 
#    y 0.000000 1.749370 0.000000 
#    z 0.000000 0.000000 1.731490 
# 
# From -- ./inp_files/3777.got.cif
#   From: 2010.03.12/outbox.cif.g09.slc.cpg/sg28_2_cif.got.tgz:3777.got - 2010.04.14 03:39:34.
