data_PCOD8168721
_publ_section_title
;
Structure prediction by ZEFSAII (Michael W. Deem and Ramdas Pophale) SiO2 
 PCOD8168721
Probable space group: P C A 21
;
_chemical_formula_sum "Si O2"
_cell_formula_units_Z 32
_cell_length_a 13.837986
_cell_length_b 7.787268
_cell_length_c 11.954570
_cell_angle_alpha 90.000000
_cell_angle_beta 90.000000
_cell_angle_gamma 90.000000
_cell_volume 1288.225725
_symmetry_space_group_name_H-M "P C A 21"
_symmetry_group_IT_number 29
_symmetry_cell_setting 'orthorhombic'
loop_
_space_group_symop_operation_xyz
x,y,z
-x,-y,1/2+z
1/2-x,y,1/2+z
1/2+x,-y,z
loop_
_atom_site_type_symbol
_atom_site_label
_atom_site_fract_x
_atom_site_fract_y
_atom_site_fract_z
Si Si1 0.888322 0.356020 0.844840
Si Si2 0.283876 0.843328 0.665848
Si Si3 0.914747 0.261153 0.468570
Si Si4 0.884696 0.916316 0.170827
Si Si5 0.455083 0.115127 0.407815
Si Si6 0.045725 0.589348 0.750860
Si Si7 0.893099 0.587553 0.046596
Si Si8 0.570572 0.881018 0.146282
O O1 0.801695 0.297721 0.762867
O O2 0.935072 0.187848 0.902875
O O3 0.979708 0.424283 0.774500
O O4 0.849382 0.499375 0.934367
O O5 0.320474 0.770919 0.545724
O O6 0.172342 0.901624 0.660932
O O7 0.335613 0.025160 0.696282
O O8 0.885456 0.365243 0.356072
O O9 0.993080 0.378328 0.531356
O O10 0.963805 0.088421 0.422929
O O11 0.888058 0.846665 0.299152
O O12 0.842715 0.765817 0.088472
O O13 0.993663 0.961558 0.133678
O O14 0.407446 0.193977 0.521507
O O15 0.115975 0.553252 0.645849
O O16 0.967027 0.738762 0.730156
#
# Coordination Sequence:
#
# PCOD8168721 Si02
#       8
#     4   4   4   4   4   4   4   4
#     4  11  21  39  71 107 141 183 244 314 383 430
#     4  11  23  44  70 103 150 191 249 308 368 462
#     4  10  20  38  66 105 139 186 243 295 369 455
#     4  12  23  44  70 104 146 198 257 301 373 463
#     4  11  19  39  68 100 136 190 245 296 363 457
#     4  11  19  36  73  99 140 186 233 309 381 445
#     4  11  21  38  71 109 140 184 250 307 375 443
#     4  11  22  42  67 103 138 196 251 296 378 453
#
# _framework density 24.840368000000002
#
# number of rings (size 3 to 8) (size 9 to 14) (size 15 to 20)
#    0.000    1.000    8.750    0.000    0.000    0.000 
#    4.500    1.250    8.250    0.000    0.000    0.000 
#    0.000    0.000    0.000    0.000    0.000    0.000 
#
# Total GULP energy -396560.656950 kJ/mol
# GULP energy per Si atom -12392.520530 kJ/mol
# Density = 2.478383 g / cm^3
# Si number density = 24.840368 Si / 1000 Ang^3
#
#
#
# Elastic Constant Matrix: (Units=GPa)
#
#
# Indices 1 2 3 4 5 6 
#
# 1 30.3610 -1.3224 22.2127 0.0000 0.0000 0.0000
# 2 -1.3224 77.0603 48.9364 0.0000 0.0000 0.0000
# 3 22.2127 48.9364 158.9395 0.0000 0.0000 0.0000
# 4 0.0000 0.0000 0.0000 51.8305 0.0000 0.0000
# 5 0.0000 0.0000 0.0000 0.0000 20.3976 0.0000
# 6 0.0000 0.0000 0.0000 0.0000 0.0000 33.6049
#
#
#
# Elastic Compliance Matrix: (Units=1/GPa)
#
#
# Indices 1 2 3 4 5 6 
#
# 1 0.038194 0.005028 -0.006886 0.000000 0.000000 0.000000
# 2 0.005028 0.016793 -0.005873 0.000000 0.000000 0.000000
# 3 -0.006886 -0.005873 0.009062 0.000000 0.000000 0.000000
# 4 0.000000 0.000000 0.000000 0.019294 0.000000 0.000000
# 5 0.000000 0.000000 0.000000 0.000000 0.049025 0.000000
# 6 0.000000 0.000000 0.000000 0.000000 0.000000 0.029758
#
#
# Mechanical properties :
#
#
# Convention : Reuss Voigt Hill
#
# Bulk Modulus (GPa) = 20.58142 45.11270 32.84706
# Shear Modulus (GPa) = 25.80202 34.26887 30.03544
#
# Velocity S-wave (km/s) = 3.22640 3.71828 3.48104
# Velocity P-wave (km/s) = 4.70989 6.05265 5.42299
#
# Compressibility (1/GPa) = 0.04858750
#
# Stress axis : x y z
#
# Youngs Moduli (GPa) = 26.18214 59.54927 110.34656
#
# Poissons Ratio (x) = -0.29943 0.75985
# Poissons Ratio (y) = -0.13165 0.64808
# Poissons Ratio (z) = 0.18029 0.34974
#
# Static dielectric constant tensor:
#      x y z
#    x 3.697060 0.000000 0.000000 
#    y 0.000000 4.555050 0.000000 
#    z 0.000000 0.000000 4.940800 
# 
# 
# High freq. dielectric constant tensor:
#      x y z
#    x 1.926120 0.000000 0.000000 
#    y 0.000000 1.997720 0.000000 
#    z 0.000000 0.000000 2.011530 
# 
# From -- ./inp_files/3454.got.cif
#   From: 2010.03.12/outbox.cif.g09.slc.cpg/sg29_2_cif.got.tgz:3454.got - 2010.04.14 03:43:10.
