data_PCOD8168546
_publ_section_title
;
Structure prediction by ZEFSAII (Michael W. Deem and Ramdas Pophale) SiO2 
 PCOD8168546
Probable space group: P C A 21
;
_chemical_formula_sum "Si O2"
_cell_formula_units_Z 32
_cell_length_a 16.952031
_cell_length_b 7.733845
_cell_length_c 11.817845
_cell_angle_alpha 90.000000
_cell_angle_beta 90.000000
_cell_angle_gamma 90.000000
_cell_volume 1549.371244
_symmetry_space_group_name_H-M "P C A 21"
_symmetry_group_IT_number 29
_symmetry_cell_setting 'orthorhombic'
loop_
_space_group_symop_operation_xyz
x,y,z
-x,-y,1/2+z
1/2-x,y,1/2+z
1/2+x,-y,z
loop_
_atom_site_type_symbol
_atom_site_label
_atom_site_fract_x
_atom_site_fract_y
_atom_site_fract_z
Si Si1 0.013097 0.193651 0.324340
Si Si2 0.233325 0.016827 0.879767
Si Si3 0.839687 0.315103 0.905457
Si Si4 0.584781 0.033147 0.005967
Si Si5 0.044571 0.827892 0.240286
Si Si6 0.046855 0.811926 0.588359
Si Si7 0.375982 0.148226 0.181419
Si Si8 0.843656 0.686360 0.954973
O O1 0.068694 0.317441 0.399056
O O2 0.935585 0.146990 0.395785
O O3 0.981498 0.278106 0.206165
O O4 0.059458 0.015634 0.296660
O O5 0.190728 0.069133 0.762554
O O6 0.299602 0.157710 0.896001
O O7 0.271899 0.825320 0.880633
O O8 0.174541 0.027425 0.987003
O O9 0.902327 0.313211 0.803067
O O10 0.801666 0.505718 0.919397
O O11 0.890111 0.300982 0.021594
O O12 0.576265 0.159433 0.112548
O O13 0.530415 0.860494 0.014073
O O14 0.951728 0.773586 0.248757
O O15 0.088755 0.994676 0.607031
O O16 0.343672 0.289466 0.091541
#
# Coordination Sequence:
#
# PCOD8168546 Si02
#       8
#     4   4   4   4   4   4   4   4
#     4  10  17  40  67  92 115 162 220 261 314 375
#     4  12  23  41  63  92 133 175 206 264 332 400
#     4  12  25  41  62  98 135 172 211 267 329 396
#     4  10  18  36  72  89 116 168 217 260 323 378
#     4  10  19  39  71  92 114 168 224 265 320 378
#     4  10  19  40  70  92 115 168 221 264 321 374
#     4  10  20  41  72  87 125 174 215 274 322 378
#     4  12  25  42  63  96 135 169 216 269 329 391
#
# _framework density 20.653538999999999
#
# number of rings (size 3 to 8) (size 9 to 14) (size 15 to 20)
#    0.000    1.500    8.750    0.000    1.750    1.000 
#    4.500    2.500    0.000    0.000    0.000    0.000 
#    0.000    0.000    0.000    0.000    0.000    0.000 
#
# Total GULP energy -396558.221708 kJ/mol
# GULP energy per Si atom -12392.444428 kJ/mol
# Density = 2.060653 g / cm^3
# Si number density = 20.653539 Si / 1000 Ang^3
#
#
#
# Elastic Constant Matrix: (Units=GPa)
#
#
# Indices 1 2 3 4 5 6 
#
# 1 79.9248 24.1731 38.4902 0.0000 0.0000 0.0000
# 2 24.1731 72.7129 22.7086 0.0000 0.0000 0.0000
# 3 38.4902 22.7086 122.6959 0.0000 0.0000 0.0000
# 4 0.0000 0.0000 0.0000 21.6816 0.0000 0.0000
# 5 0.0000 0.0000 0.0000 0.0000 31.2380 0.0000
# 6 0.0000 0.0000 0.0000 0.0000 0.0000 7.9142
#
#
#
# Elastic Compliance Matrix: (Units=1/GPa)
#
#
# Indices 1 2 3 4 5 6 
#
# 1 0.015721 -0.003912 -0.004208 0.000000 0.000000 0.000000
# 2 -0.003912 0.015570 -0.001654 0.000000 0.000000 0.000000
# 3 -0.004208 -0.001654 0.009776 0.000000 0.000000 0.000000
# 4 0.000000 0.000000 0.000000 0.046122 0.000000 0.000000
# 5 0.000000 0.000000 0.000000 0.000000 0.032012 0.000000
# 6 0.000000 0.000000 0.000000 0.000000 0.000000 0.126355
#
#
# Mechanical properties :
#
#
# Convention : Reuss Voigt Hill
#
# Bulk Modulus (GPa) = 46.47101 49.56416 48.01759
# Shear Modulus (GPa) = 18.36350 24.83086 21.59718
#
# Velocity S-wave (km/s) = 2.98505 3.47112 3.23722
# Velocity P-wave (km/s) = 5.86769 6.33363 6.10511
#
# Compressibility (1/GPa) = 0.02151879
#
# Stress axis : x y z
#
# Youngs Moduli (GPa) = 63.60736 64.22585 102.28692
#
# Poissons Ratio (x) = 0.25128 0.43040
# Poissons Ratio (y) = 0.24886 0.16922
# Poissons Ratio (z) = 0.26765 0.10625
#
# Static dielectric constant tensor:
#      x y z
#    x 3.915600 0.000000 0.000000 
#    y 0.000000 3.315210 0.000000 
#    z 0.000000 0.000000 3.996770 
# 
# 
# High freq. dielectric constant tensor:
#      x y z
#    x 1.802980 0.000000 0.000000 
#    y 0.000000 1.761740 0.000000 
#    z 0.000000 0.000000 1.824160 
# 
# From -- ./inp_files/3693.got.cif
#   From: 2010.03.12/outbox.cif.g09.slc.cpg/sg29_2_cif.got.tgz:3693.got - 2010.04.14 03:43:10.
