data_PCOD8168220
_publ_section_title
;
Structure prediction by ZEFSAII (Michael W. Deem and Ramdas Pophale) SiO2 
 PCOD8168220
Probable space group: P M A 2
;
_chemical_formula_sum "Si O2"
_cell_formula_units_Z 32
_cell_length_a 8.757626
_cell_length_b 14.245608
_cell_length_c 15.417429
_cell_angle_alpha 90.000000
_cell_angle_beta 90.000000
_cell_angle_gamma 90.000000
_cell_volume 1923.443090
_symmetry_space_group_name_H-M "P M A 2"
_symmetry_group_IT_number 28
_symmetry_cell_setting 'orthorhombic'
loop_
_space_group_symop_operation_xyz
x,y,z
-x,-y,z
1/2-x,y,z
1/2+x,-y,z
loop_
_atom_site_type_symbol
_atom_site_label
_atom_site_fract_x
_atom_site_fract_y
_atom_site_fract_z
Si Si1 0.571001 0.904322 0.377340
Si Si2 0.573296 0.399109 0.795326
Si Si3 0.572205 0.397244 0.603301
Si Si4 0.071093 0.599314 0.289275
Si Si5 0.069084 0.096810 0.177934
Si Si6 0.069857 0.396666 0.965260
Si Si7 0.931046 0.707065 0.447768
Si Si8 0.571181 0.282693 0.120301
O O1 0.750000 0.915267 0.384824
O O2 0.520238 0.890030 0.277971
O O3 0.512571 0.813707 0.430522
O O4 0.500000 0.000000 0.416109
O O5 0.500000 0.500000 0.787221
O O6 0.750000 0.407667 0.819811
O O7 0.550575 0.353437 0.700209
O O8 0.487942 0.347090 0.875261
O O9 0.500000 0.500000 0.592436
O O10 0.750000 0.406166 0.579600
O O11 0.490103 0.322857 0.541628
O O12 0.250000 0.587575 0.303668
O O13 0.031830 0.669951 0.211879
O O14 0.000000 0.500000 0.263983
O O15 0.997851 0.636377 0.377292
O O16 0.250000 0.099266 0.165496
O O17 0.990610 0.177269 0.121475
O O18 0.000000 0.000000 0.142171
O O19 0.250000 0.404405 0.964793
O O20 0.000000 0.500000 0.973914
O O21 0.017821 0.335476 0.045458
O O22 0.750000 0.700772 0.443152
O O23 0.750000 0.284632 0.100217
#
# Coordination Sequence:
#
# PCOD8168220 Si02
#       8
#     4   4   4   4   4   4   4   4
#     4   9  19  33  51  72  95 126 162 206 251 292
#     4   9  17  31  50  71  97 127 164 206 249 293
#     4  10  20  33  50  73 100 133 168 206 247 292
#     4  11  23  35  48  66  95 134 171 204 240 286
#     4  10  19  34  53  74  99 128 166 210 255 298
#     4  11  21  33  51  74 102 134 168 207 250 298
#     4  11  21  34  50  71  99 131 166 204 246 294
#     4  11  22  35  51  73  99 133 171 207 250 297
#
# _framework density 16.636832999999999
#
# number of rings (size 3 to 8) (size 9 to 14) (size 15 to 20)
#    0.000    1.750    1.250    4.875    0.000    5.500 
#    0.000    0.000    0.000    0.000    0.000    0.875 
#    0.000    4.000    0.000    0.000    0.000    0.000 
#
# Total GULP energy -396789.386621 kJ/mol
# GULP energy per Si atom -12399.668332 kJ/mol
# Density = 1.659897 g / cm^3
# Si number density = 16.636833 Si / 1000 Ang^3
#
#
#
# Elastic Constant Matrix: (Units=GPa)
#
#
# Indices 1 2 3 4 5 6 
#
# 1 102.0496 44.1710 48.9736 0.0000 0.0000 0.0000
# 2 44.1710 97.4577 37.8170 0.0000 0.0000 0.0000
# 3 48.9736 37.8170 94.5725 0.0000 0.0000 0.0000
# 4 0.0000 0.0000 0.0000 3.1488 0.0000 0.0000
# 5 0.0000 0.0000 0.0000 0.0000 19.6987 0.0000
# 6 0.0000 0.0000 0.0000 0.0000 0.0000 28.5665
#
#
#
# Elastic Compliance Matrix: (Units=1/GPa)
#
#
# Indices 1 2 3 4 5 6 
#
# 1 0.014420 -0.004306 -0.005745 0.000000 0.000000 0.000000
# 2 -0.004306 0.013431 -0.003141 0.000000 0.000000 0.000000
# 3 -0.005745 -0.003141 0.014805 0.000000 0.000000 0.000000
# 4 0.000000 0.000000 0.000000 0.317578 0.000000 0.000000
# 5 0.000000 0.000000 0.000000 0.000000 0.050765 0.000000
# 6 0.000000 0.000000 0.000000 0.000000 0.000000 0.035006
#
#
# Mechanical properties :
#
#
# Convention : Reuss Voigt Hill
#
# Bulk Modulus (GPa) = 61.45710 61.77812 61.61761
# Shear Modulus (GPa) = 10.46432 21.15735 15.81083
#
# Velocity S-wave (km/s) = 2.51068 3.56998 3.08612
# Velocity P-wave (km/s) = 6.73983 7.36254 7.05805
#
# Compressibility (1/GPa) = 0.01627151
#
# Stress axis : x y z
#
# Youngs Moduli (GPa) = 69.34641 74.45247 67.54436
#
# Poissons Ratio (x) = 0.32062 0.38807
# Poissons Ratio (y) = 0.29863 0.21215
# Poissons Ratio (z) = 0.39843 0.23384
#
# Static dielectric constant tensor:
#      x y z
#    x 3.382780 0.000000 0.000000 
#    y 0.000000 3.058380 0.000000 
#    z 0.000000 0.000000 3.498760 
# 
# 
# High freq. dielectric constant tensor:
#      x y z
#    x 1.660520 0.000000 0.000000 
#    y 0.000000 1.619170 0.000000 
#    z 0.000000 0.000000 1.633350 
# 
# From -- ./inp_files/6296.got.cif
#   From: 2010.03.12/outbox.cif.g09.slc.cpg/sg28_4_cif.got.tgz:6296.got - 2010.04.14 03:39:34.
