data_PCOD8168638
_publ_section_title
;
Structure prediction by ZEFSAII (Michael W. Deem and Ramdas Pophale) SiO2 
 PCOD8168638
Probable space group: P C A 21
;
_chemical_formula_sum "Si O2"
_cell_formula_units_Z 28
_cell_length_a 16.210784
_cell_length_b 7.858151
_cell_length_c 10.482482
_cell_angle_alpha 90.000000
_cell_angle_beta 90.000000
_cell_angle_gamma 90.000000
_cell_volume 1335.329717
_symmetry_space_group_name_H-M "P C A 21"
_symmetry_group_IT_number 29
_symmetry_cell_setting 'orthorhombic'
loop_
_space_group_symop_operation_xyz
x,y,z
-x,-y,1/2+z
1/2-x,y,1/2+z
1/2+x,-y,z
loop_
_atom_site_type_symbol
_atom_site_label
_atom_site_fract_x
_atom_site_fract_y
_atom_site_fract_z
Si Si1 0.323702 0.494816 0.256340
Si Si2 0.024867 0.666434 0.876425
Si Si3 0.591639 0.851780 0.783533
Si Si4 0.136674 0.909255 0.009170
Si Si5 0.274157 0.651084 0.991624
Si Si6 0.980238 0.897232 0.669127
Si Si7 0.541850 0.318888 0.444985
O O1 0.409333 0.595415 0.272844
O O2 0.343261 0.293406 0.244534
O O3 0.267702 0.536152 0.380798
O O4 0.280612 0.545531 0.123512
O O5 0.968312 0.808602 0.806882
O O6 0.968420 0.522257 0.937696
O O7 0.071771 0.755754 0.992440
O O8 0.504674 0.772739 0.829765
O O9 0.637734 0.967079 0.887593
O O10 0.559669 0.973915 0.669048
O O11 0.225764 0.824710 0.026001
O O12 0.106387 0.012509 0.133651
O O13 0.361338 0.717300 0.939538
O O14 0.998835 0.746047 0.572240
#
# Coordination Sequence:
#
# PCOD8168638 Si02
#       7
#     4   4   4   4   4   4   4
#     4  10  22  43  63  92 133 175 217 270 332 398
#     4   9  19  39  63  88 125 167 221 262 317 397
#     4   9  21  42  63  91 130 171 220 274 318 393
#     4   9  21  38  63  91 134 163 209 275 333 381
#     4  11  23  42  64  97 132 180 213 273 338 395
#     4  10  19  38  64  93 119 171 217 274 328 373
#     4  10  21  38  66  92 121 171 221 258 324 401
#
# _framework density 20.968603999999999
#
# number of rings (size 3 to 8) (size 9 to 14) (size 15 to 20)
#    0.000    2.286    1.429    0.000    4.000    0.000 
#   10.286    0.000    0.000    0.000    0.000    0.000 
#    0.000    0.000    0.000    0.000    0.000    0.000 
#
# Total GULP energy -347050.821231 kJ/mol
# GULP energy per Si atom -12394.672187 kJ/mol
# Density = 2.092088 g / cm^3
# Si number density = 20.968604 Si / 1000 Ang^3
#
#
#
# Elastic Constant Matrix: (Units=GPa)
#
#
# Indices 1 2 3 4 5 6 
#
# 1 120.7488 61.2325 43.1767 0.0000 0.0000 0.0000
# 2 61.2325 133.5718 38.2779 0.0000 0.0000 0.0000
# 3 43.1767 38.2779 87.5800 0.0000 0.0000 0.0000
# 4 0.0000 0.0000 0.0000 26.9367 0.0000 0.0000
# 5 0.0000 0.0000 0.0000 0.0000 26.4117 0.0000
# 6 0.0000 0.0000 0.0000 0.0000 0.0000 41.1077
#
#
#
# Elastic Compliance Matrix: (Units=1/GPa)
#
#
# Indices 1 2 3 4 5 6 
#
# 1 0.011890 -0.004311 -0.003978 0.000000 0.000000 0.000000
# 2 -0.004311 0.010121 -0.002299 0.000000 0.000000 0.000000
# 3 -0.003978 -0.002299 0.014384 0.000000 0.000000 0.000000
# 4 0.000000 0.000000 0.000000 0.037124 0.000000 0.000000
# 5 0.000000 0.000000 0.000000 0.000000 0.037862 0.000000
# 6 0.000000 0.000000 0.000000 0.000000 0.000000 0.024326
#
#
# Mechanical properties :
#
#
# Convention : Reuss Voigt Hill
#
# Bulk Modulus (GPa) = 65.69754 69.69722 67.69738
# Shear Modulus (GPa) = 30.87273 32.17210 31.52242
#
# Velocity S-wave (km/s) = 3.84126 3.92126 3.88147
# Velocity P-wave (km/s) = 7.14654 7.33572 7.24175
#
# Compressibility (1/GPa) = 0.01522127
#
# Stress axis : x y z
#
# Youngs Moduli (GPa) = 84.10437 98.79994 69.52310
#
# Poissons Ratio (x) = 0.42590 0.27654
# Poissons Ratio (y) = 0.36255 0.15980
# Poissons Ratio (z) = 0.33454 0.22709
#
# Static dielectric constant tensor:
#      x y z
#    x 3.642340 0.000000 0.000000 
#    y 0.000000 4.079280 0.000000 
#    z 0.000000 0.000000 3.637420 
# 
# 
# High freq. dielectric constant tensor:
#      x y z
#    x 1.798100 0.000000 0.000000 
#    y 0.000000 1.836180 0.000000 
#    z 0.000000 0.000000 1.813050 
# 
# From -- ./inp_files/3430.got.cif
#   From: 2010.03.12/outbox.cif.g09.slc.cpg/sg29_2_cif.got.tgz:3430.got - 2010.04.14 03:43:10.
