data_PCOD8168169
_publ_section_title
;
Structure prediction by ZEFSAII (Michael W. Deem and Ramdas Pophale) SiO2 
 PCOD8168169
Probable space group: P M A 2
;
_chemical_formula_sum "Si O2"
_cell_formula_units_Z 20
_cell_length_a 8.624361
_cell_length_b 13.848442
_cell_length_c 10.231014
_cell_angle_alpha 90.000000
_cell_angle_beta 90.000000
_cell_angle_gamma 90.000000
_cell_volume 1221.930549
_symmetry_space_group_name_H-M "P M A 2"
_symmetry_group_IT_number 28
_symmetry_cell_setting 'orthorhombic'
loop_
_space_group_symop_operation_xyz
x,y,z
-x,-y,z
1/2-x,y,z
1/2+x,-y,z
loop_
_atom_site_type_symbol
_atom_site_label
_atom_site_fract_x
_atom_site_fract_y
_atom_site_fract_z
Si Si1 0.066741 0.103305 0.162990
Si Si2 0.925657 0.786538 0.672278
Si Si3 0.067546 0.897899 0.442502
Si Si4 0.574770 0.601704 0.813404
Si Si5 0.432536 0.772832 0.936124
O O1 0.250000 0.096607 0.164947
O O2 0.007209 0.133266 0.305766
O O3 0.000000 0.000000 0.119564
O O4 0.012122 0.184853 0.063877
O O5 0.750000 0.825706 0.658604
O O6 0.927681 0.669103 0.682763
O O7 0.027464 0.817158 0.549037
O O8 0.001283 0.828109 0.806918
O O9 0.250000 0.906828 0.424072
O O10 0.000000 0.000000 0.490903
O O11 0.500000 0.500000 0.778586
O O12 0.750000 0.586289 0.862864
O O13 0.478835 0.658842 0.926514
O O14 0.250000 0.786281 0.945036
#
# Coordination Sequence:
#
# PCOD8168169 Si02
#       5
#     4   4   4   4   4
#     4  11  21  35  52  73 103 138 173 208 251 301
#     4   9  19  34  51  76 103 132 169 210 253 296
#     4  11  21  34  52  74 102 138 173 207 251 300
#     4   9  18  32  53  77 103 131 166 207 256 304
#     4  10  19  33  52  77 103 132 170 211 254 298
#
# _framework density 16.367542
#
# number of rings (size 3 to 8) (size 9 to 14) (size 15 to 20)
#    1.200    0.800    0.000    7.200    0.000    0.800 
#    0.000    4.000    0.000    1.200    0.000    5.600 
#    0.000    0.000    0.000    0.000    0.000    0.000 
#
# Total GULP energy -247878.186535 kJ/mol
# GULP energy per Si atom -12393.909327 kJ/mol
# Density = 1.633029 g / cm^3
# Si number density = 16.367542 Si / 1000 Ang^3
#
#
#
# Elastic Constant Matrix: (Units=GPa)
#
#
# Indices 1 2 3 4 5 6 
#
# 1 157.2682 38.2458 43.1838 0.0000 0.0000 0.0000
# 2 38.2458 80.4377 51.1136 0.0000 0.0000 0.0000
# 3 43.1838 51.1136 87.5768 0.0000 0.0000 0.0000
# 4 0.0000 0.0000 0.0000 5.5521 0.0000 0.0000
# 5 0.0000 0.0000 0.0000 0.0000 30.8779 0.0000
# 6 0.0000 0.0000 0.0000 0.0000 0.0000 29.3920
#
#
#
# Elastic Compliance Matrix: (Units=1/GPa)
#
#
# Indices 1 2 3 4 5 6 
#
# 1 0.007541 -0.001943 -0.002584 0.000000 0.000000 0.000000
# 2 -0.001943 0.020262 -0.010867 0.000000 0.000000 0.000000
# 3 -0.002584 -0.010867 0.019035 0.000000 0.000000 0.000000
# 4 0.000000 0.000000 0.000000 0.180111 0.000000 0.000000
# 5 0.000000 0.000000 0.000000 0.000000 0.032386 0.000000
# 6 0.000000 0.000000 0.000000 0.000000 0.000000 0.034023
#
#
# Mechanical properties :
#
#
# Convention : Reuss Voigt Hill
#
# Bulk Modulus (GPa) = 62.31216 65.59657 63.95437
# Shear Modulus (GPa) = 15.17469 26.01371 20.59420
#
# Velocity S-wave (km/s) = 3.04817 3.99099 3.55101
# Velocity P-wave (km/s) = 7.10927 7.83591 7.48142
#
# Compressibility (1/GPa) = 0.01604823
#
# Stress axis : x y z
#
# Youngs Moduli (GPa) = 132.61334 49.35465 52.53386
#
# Poissons Ratio (x) = 0.09591 0.13575
# Poissons Ratio (y) = 0.25772 0.57090
# Poissons Ratio (z) = 0.34268 0.53635
#
# Static dielectric constant tensor:
#      x y z
#    x 3.280130 0.000000 0.000000 
#    y 0.000000 2.901030 0.000000 
#    z 0.000000 0.000000 2.967060 
# 
# 
# High freq. dielectric constant tensor:
#      x y z
#    x 1.657160 0.000000 0.000000 
#    y 0.000000 1.607400 0.000000 
#    z 0.000000 0.000000 1.613460 
# 
# From -- ./inp_files/2374.got.cif
#   From: 2010.03.12/outbox.cif.g09.slc.cpg/sg28_2_cif.got.tgz:2374.got - 2010.04.14 03:39:34.
