data_PCOD8168117
_publ_section_title
;
Structure prediction by ZEFSAII (Michael W. Deem and Ramdas Pophale) SiO2 
 PCOD8168117
Probable space group: P M A 2
;
_chemical_formula_sum "Si O2"
_cell_formula_units_Z 32
_cell_length_a 8.626665
_cell_length_b 14.252488
_cell_length_c 15.705503
_cell_angle_alpha 90.000000
_cell_angle_beta 90.000000
_cell_angle_gamma 90.000000
_cell_volume 1931.014200
_symmetry_space_group_name_H-M "P M A 2"
_symmetry_group_IT_number 28
_symmetry_cell_setting 'orthorhombic'
loop_
_space_group_symop_operation_xyz
x,y,z
-x,-y,z
1/2-x,y,z
1/2+x,-y,z
loop_
_atom_site_type_symbol
_atom_site_label
_atom_site_fract_x
_atom_site_fract_y
_atom_site_fract_z
Si Si1 0.429993 0.399193 0.627660
Si Si2 0.567545 0.097447 0.038824
Si Si3 0.568059 0.723650 0.968183
Si Si4 0.432105 0.397569 0.133381
Si Si5 0.566563 0.604629 0.442781
Si Si6 0.066751 0.396636 0.811159
Si Si7 0.933431 0.901102 0.223738
Si Si8 0.567440 0.283366 0.289158
O O1 0.500000 0.500000 0.621686
O O2 0.250000 0.414613 0.634484
O O3 0.469542 0.349965 0.537162
O O4 0.483794 0.353056 0.717949
O O5 0.750000 0.088509 0.050900
O O6 0.524060 0.178752 0.972803
O O7 0.491734 0.122235 0.129247
O O8 0.500000 0.000000 0.003014
O O9 0.750000 0.744998 0.962674
O O10 0.527498 0.660533 0.049349
O O11 0.503188 0.672076 0.884100
O O12 0.500000 0.500000 0.120222
O O13 0.250000 0.403038 0.150493
O O14 0.511198 0.349821 0.213771
O O15 0.500000 0.500000 0.433568
O O16 0.750000 0.601903 0.424010
O O17 0.479577 0.672151 0.378443
O O18 0.250000 0.404561 0.820885
O O19 0.000000 0.500000 0.824621
O O20 0.750000 0.906067 0.222781
O O21 0.989160 0.818796 0.285695
O O22 0.000000 0.000000 0.256890
O O23 0.750000 0.271380 0.283145
#
# Coordination Sequence:
#
# PCOD8168117 Si02
#       8
#     4   4   4   4   4   4   4   4
#     4   8  15  28  47  69  95 126 163 203 247 289
#     4  11  21  34  53  73  96 126 163 205 248 290
#     4  10  20  33  49  70  99 132 166 202 243 289
#     4  11  22  34  47  65  96 135 170 203 237 284
#     4  10  19  32  49  71  99 132 167 207 248 294
#     4   9  17  30  48  72 100 132 166 203 243 289
#     4  11  21  36  55  75  98 125 160 202 248 292
#     4  12  23  35  50  71  97 130 168 205 244 291
#
# _framework density 16.571601999999999
#
# number of rings (size 3 to 8) (size 9 to 14) (size 15 to 20)
#    0.000    1.750    1.250    5.625    0.000    1.500 
#    0.000    0.000    0.000    0.000    0.000    0.875 
#    0.000    4.000    0.000    0.000    0.000    0.000 
#
# Total GULP energy -396644.514971 kJ/mol
# GULP energy per Si atom -12395.141093 kJ/mol
# Density = 1.653388 g / cm^3
# Si number density = 16.571602 Si / 1000 Ang^3
#
#
#
# Elastic Constant Matrix: (Units=GPa)
#
#
# Indices 1 2 3 4 5 6 
#
# 1 93.5281 42.3489 40.6224 0.0000 0.0000 0.0000
# 2 42.3489 111.6394 55.4878 0.0000 0.0000 0.0000
# 3 40.6224 55.4878 117.8096 0.0000 0.0000 0.0000
# 4 0.0000 0.0000 0.0000 7.3455 0.0000 0.0000
# 5 0.0000 0.0000 0.0000 0.0000 13.2445 0.0000
# 6 0.0000 0.0000 0.0000 0.0000 0.0000 28.6624
#
#
#
# Elastic Compliance Matrix: (Units=1/GPa)
#
#
# Indices 1 2 3 4 5 6 
#
# 1 0.013658 -0.003708 -0.002963 0.000000 0.000000 0.000000
# 2 -0.003708 0.012702 -0.004704 0.000000 0.000000 0.000000
# 3 -0.002963 -0.004704 0.011725 0.000000 0.000000 0.000000
# 4 0.000000 0.000000 0.000000 0.136138 0.000000 0.000000
# 5 0.000000 0.000000 0.000000 0.000000 0.075503 0.000000
# 6 0.000000 0.000000 0.000000 0.000000 0.000000 0.034889
#
#
# Mechanical properties :
#
#
# Convention : Reuss Voigt Hill
#
# Bulk Modulus (GPa) = 65.20928 66.65501 65.93214
# Shear Modulus (GPa) = 16.00116 22.15169 19.07642
#
# Velocity S-wave (km/s) = 3.11074 3.66009 3.39654
# Velocity P-wave (km/s) = 7.23448 7.62702 7.43334
#
# Compressibility (1/GPa) = 0.01533524
#
# Stress axis : x y z
#
# Youngs Moduli (GPa) = 73.21743 78.72711 85.28468
#
# Poissons Ratio (x) = 0.29195 0.25268
# Poissons Ratio (y) = 0.27152 0.40117
# Poissons Ratio (z) = 0.21693 0.37033
#
# Static dielectric constant tensor:
#      x y z
#    x 3.202170 0.000000 0.000000 
#    y 0.000000 3.102380 0.000000 
#    z 0.000000 0.000000 3.552940 
# 
# 
# High freq. dielectric constant tensor:
#      x y z
#    x 1.652100 0.000000 0.000000 
#    y 0.000000 1.618620 0.000000 
#    z 0.000000 0.000000 1.634340 
# 
# From -- ./inp_files/6424.got.cif
#   From: 2010.03.12/outbox.cif.g09.slc.cpg/sg28_4_cif.got.tgz:6424.got - 2010.04.14 03:39:34.
