data_PCOD8168474
_publ_section_title
;
Structure prediction by ZEFSAII (Michael W. Deem and Ramdas Pophale) SiO2 
 PCOD8168474
Probable space group: P M A 2
;
_chemical_formula_sum "Si O2"
_cell_formula_units_Z 32
_cell_length_a 8.417072
_cell_length_b 15.470442
_cell_length_c 11.879295
_cell_angle_alpha 90.000000
_cell_angle_beta 90.000000
_cell_angle_gamma 90.000000
_cell_volume 1546.872189
_symmetry_space_group_name_H-M "P M A 2"
_symmetry_group_IT_number 28
_symmetry_cell_setting 'orthorhombic'
loop_
_space_group_symop_operation_xyz
x,y,z
-x,-y,z
1/2-x,y,z
1/2+x,-y,z
loop_
_atom_site_type_symbol
_atom_site_label
_atom_site_fract_x
_atom_site_fract_y
_atom_site_fract_z
Si Si1 0.434916 0.091663 0.758700
Si Si2 0.565630 0.147381 0.987381
Si Si3 0.062864 0.407413 0.234039
Si Si4 0.564137 0.663802 0.995191
Si Si5 0.438773 0.091201 0.225470
Si Si6 0.937808 0.409601 0.771999
Si Si7 0.064132 0.248440 0.374538
Si Si8 0.065646 0.750950 0.620505
O O1 0.250000 0.100146 0.730091
O O2 0.462954 0.100355 0.891757
O O3 0.531222 0.165957 0.695552
O O4 0.500000 0.000000 0.715057
O O5 0.750000 0.129199 0.963622
O O6 0.536349 0.249354 0.984378
O O7 0.515642 0.106589 0.104666
O O8 0.250000 0.409259 0.242772
O O9 0.990614 0.334869 0.318084
O O10 0.000000 0.500000 0.272736
O O11 0.008603 0.385949 0.107181
O O12 0.750000 0.687575 0.000064
O O13 0.526349 0.602589 0.890487
O O14 0.250000 0.092424 0.214452
O O15 0.503631 0.164007 0.311134
O O16 0.500000 0.000000 0.273459
O O17 0.750000 0.410116 0.790961
O O18 0.990215 0.334298 0.686913
O O19 0.000000 0.500000 0.720651
O O20 0.250000 0.249961 0.354054
O O21 0.029877 0.243741 0.505583
O O22 0.250000 0.746395 0.591418
#
# Coordination Sequence:
#
# PCOD8168474 Si02
#       8
#     4   4   4   4   4   4   4   4
#     4  12  25  43  68  95 128 168 208 257 314 374
#     4  12  23  38  63  96 131 166 206 254 311 377
#     4  10  22  40  62  92 126 163 207 255 310 370
#     4  11  21  38  64  93 128 168 205 254 316 378
#     4  11  23  42  65  93 127 164 209 257 311 375
#     4  11  24  41  63  93 129 166 210 262 313 378
#     4  10  23  44  65  87 123 168 212 260 315 372
#     4  11  25  44  65  93 126 163 214 266 315 373
#
# _framework density 20.686906
#
# number of rings (size 3 to 8) (size 9 to 14) (size 15 to 20)
#    0.000    1.000    2.500    4.500    0.000    6.000 
#    0.000    3.750    0.000    0.000    0.000    0.000 
#    0.000    0.000    0.000    0.000    0.000    0.000 
#
# Total GULP energy -397003.273314 kJ/mol
# GULP energy per Si atom -12406.352291 kJ/mol
# Density = 2.063982 g / cm^3
# Si number density = 20.686906 Si / 1000 Ang^3
#
#
#
# Elastic Constant Matrix: (Units=GPa)
#
#
# Indices 1 2 3 4 5 6 
#
# 1 49.9523 15.7812 5.2258 0.0000 0.0000 0.0000
# 2 15.7812 174.1039 52.8913 0.0000 0.0000 0.0000
# 3 5.2258 52.8913 115.8569 0.0000 0.0000 0.0000
# 4 0.0000 0.0000 0.0000 15.0393 0.0000 0.0000
# 5 0.0000 0.0000 0.0000 0.0000 23.0199 0.0000
# 6 0.0000 0.0000 0.0000 0.0000 0.0000 35.5815
#
#
#
# Elastic Compliance Matrix: (Units=1/GPa)
#
#
# Indices 1 2 3 4 5 6 
#
# 1 0.020610 -0.001841 -0.000089 0.000000 0.000000 0.000000
# 2 -0.001841 0.006833 -0.003036 0.000000 0.000000 0.000000
# 3 -0.000089 -0.003036 0.010022 0.000000 0.000000 0.000000
# 4 0.000000 0.000000 0.000000 0.066492 0.000000 0.000000
# 5 0.000000 0.000000 0.000000 0.000000 0.043441 0.000000
# 6 0.000000 0.000000 0.000000 0.000000 0.000000 0.028104
#
#
# Mechanical properties :
#
#
# Convention : Reuss Voigt Hill
#
# Bulk Modulus (GPa) = 36.32212 54.18996 45.25604
# Shear Modulus (GPa) = 25.69211 32.46248 29.07729
#
# Velocity S-wave (km/s) = 3.52795 3.96565 3.75319
# Velocity P-wave (km/s) = 5.84734 6.87173 6.38013
#
# Compressibility (1/GPa) = 0.02753143
#
# Stress axis : x y z
#
# Youngs Moduli (GPa) = 48.52001 146.34856 99.78515
#
# Poissons Ratio (x) = 0.26944 0.00889
# Poissons Ratio (y) = 0.08933 0.30299
# Poissons Ratio (z) = 0.00432 0.44437
#
# Static dielectric constant tensor:
#      x y z
#    x 3.723120 0.000000 0.000000 
#    y 0.000000 4.186110 0.000000 
#    z 0.000000 0.000000 3.686430 
# 
# 
# High freq. dielectric constant tensor:
#      x y z
#    x 1.809160 0.000000 0.000000 
#    y 0.000000 1.828870 0.000000 
#    z 0.000000 0.000000 1.804360 
# 
# From -- ./inp_files/5028.got.cif
#   From: 2010.03.12/outbox.cif.g09.slc.cpg/sg28_3_cif.got.tgz:5028.got - 2010.04.14 03:39:34.
