data_PCOD8168278
_publ_section_title
;
Structure prediction by ZEFSAII (Michael W. Deem and Ramdas Pophale) SiO2 
 PCOD8168278
Probable space group: P M A 2
;
_chemical_formula_sum "Si O2"
_cell_formula_units_Z 24
_cell_length_a 8.963535
_cell_length_b 15.605804
_cell_length_c 9.660806
_cell_angle_alpha 90.000000
_cell_angle_beta 90.000000
_cell_angle_gamma 90.000000
_cell_volume 1351.384171
_symmetry_space_group_name_H-M "P M A 2"
_symmetry_group_IT_number 28
_symmetry_cell_setting 'orthorhombic'
loop_
_space_group_symop_operation_xyz
x,y,z
-x,-y,z
1/2-x,y,z
1/2+x,-y,z
loop_
_atom_site_type_symbol
_atom_site_label
_atom_site_fract_x
_atom_site_fract_y
_atom_site_fract_z
Si Si1 0.422080 0.579130 0.105120
Si Si2 0.423688 0.767195 0.097728
Si Si3 0.923369 0.770428 0.803593
Si Si4 0.074935 0.913707 0.304370
Si Si5 0.425993 0.912354 0.620269
Si Si6 0.576703 0.579932 0.809212
O O1 0.500000 0.500000 0.189573
O O2 0.250000 0.556277 0.091709
O O3 0.446572 0.673587 0.170047
O O4 0.495814 0.583228 0.955545
O O5 0.250000 0.780072 0.058295
O O6 0.480113 0.835430 0.209947
O O7 0.521236 0.778223 0.960771
O O8 0.750000 0.795886 0.800155
O O9 0.946864 0.673960 0.742113
O O10 0.017214 0.833082 0.708475
O O11 0.250000 0.926206 0.293688
O O12 0.025680 0.895545 0.461841
O O13 0.000000 0.000000 0.247441
O O14 0.250000 0.920762 0.637495
O O15 0.500000 0.000000 0.675126
O O16 0.500000 0.500000 0.724480
O O17 0.750000 0.559778 0.828003
#
# Coordination Sequence:
#
# PCOD8168278 Si02
#       6
#     4   4   4   4   4   4
#     4   9  15  24  41  64  92 124 155 189 230 277
#     4   9  18  32  49  71  99 128 158 195 240 285
#     4  10  20  32  48  74 103 128 159 199 240 283
#     4   9  19  35  53  72  93 122 160 197 236 285
#     4  10  20  35  54  72  93 125 162 199 241 289
#     4   9  16  26  42  65  94 125 157 193 232 277
#
# _framework density 17.75957
#
# number of rings (size 3 to 8) (size 9 to 14) (size 15 to 20)
#    0.000    2.667    0.000    3.000    0.000    4.667 
#    0.000    1.667    0.000    1.000    0.000    4.667 
#    0.000    0.000    0.000    0.000    0.000    0.000 
#
# Total GULP energy -297397.733190 kJ/mol
# GULP energy per Si atom -12391.572216 kJ/mol
# Density = 1.771915 g / cm^3
# Si number density = 17.759570 Si / 1000 Ang^3
#
#
#
# Elastic Constant Matrix: (Units=GPa)
#
#
# Indices 1 2 3 4 5 6 
#
# 1 90.7262 62.9298 25.5895 0.0000 0.0000 0.0000
# 2 62.9298 173.2068 53.3483 0.0000 0.0000 0.0000
# 3 25.5895 53.3483 45.1770 0.0000 0.0000 0.0000
# 4 0.0000 0.0000 0.0000 -0.9400 0.0000 0.0000
# 5 0.0000 0.0000 0.0000 0.0000 14.7041 0.0000
# 6 0.0000 0.0000 0.0000 0.0000 0.0000 36.1429
#
#
#
# Elastic Compliance Matrix: (Units=1/GPa)
#
#
# Indices 1 2 3 4 5 6 
#
# 1 0.015033 -0.004462 -0.003246 0.000000 0.000000 0.000000
# 2 -0.004462 0.010398 -0.009751 0.000000 0.000000 0.000000
# 3 -0.003246 -0.009751 0.035489 0.000000 0.000000 0.000000
# 4 0.000000 0.000000 0.000000 -1.063826 0.000000 0.000000
# 5 0.000000 0.000000 0.000000 0.000000 0.068008 0.000000
# 6 0.000000 0.000000 0.000000 0.000000 0.000000 0.027668
#
#
# Mechanical properties :
#
#
# Convention : Reuss Voigt Hill
#
# Bulk Modulus (GPa) = 38.46000 65.87169 52.16584
# Shear Modulus (GPa) = -5.78941 21.13090 7.67074
#
# Velocity S-wave (km/s) = -1.80747 3.45314 2.08053
# Velocity P-wave (km/s) = 4.16497 7.28493 5.93368
#
# Compressibility (1/GPa) = 0.02600104
#
# Stress axis : x y z
#
# Youngs Moduli (GPa) = 66.52224 96.17226 28.17785
#
# Poissons Ratio (x) = 0.42911 0.09146
# Poissons Ratio (y) = 0.29682 0.27477
# Poissons Ratio (z) = 0.21593 0.93781
#
# Static dielectric constant tensor:
#      x y z
#    x 3.378970 0.000000 0.000000 
#    y 0.000000 4.359540 0.000000 
#    z 0.000000 0.000000 2.874430 
# 
# 
# High freq. dielectric constant tensor:
#      x y z
#    x 1.699580 0.000000 0.000000 
#    y 0.000000 1.714810 0.000000 
#    z 0.000000 0.000000 1.628100 
# 
# From -- ./inp_files/2564.got.cif
#   From: 2010.03.12/outbox.cif.g09.slc.cpg/sg28_2_cif.got.tgz:2564.got - 2010.04.14 03:39:34.
