data_PCOD8168644
_publ_section_title
;
Structure prediction by ZEFSAII (Michael W. Deem and Ramdas Pophale) SiO2 
 PCOD8168644
Probable space group: P C A 21
;
_chemical_formula_sum "Si O2"
_cell_formula_units_Z 32
_cell_length_a 13.753216
_cell_length_b 20.485708
_cell_length_c 5.139074
_cell_angle_alpha 90.000000
_cell_angle_beta 90.000000
_cell_angle_gamma 90.000000
_cell_volume 1447.905151
_symmetry_space_group_name_H-M "P C A 21"
_symmetry_group_IT_number 29
_symmetry_cell_setting 'orthorhombic'
loop_
_space_group_symop_operation_xyz
x,y,z
-x,-y,1/2+z
1/2-x,y,1/2+z
1/2+x,-y,z
loop_
_atom_site_type_symbol
_atom_site_label
_atom_site_fract_x
_atom_site_fract_y
_atom_site_fract_z
Si Si1 0.363555 0.344904 0.599300
Si Si2 0.189521 0.741129 0.138630
Si Si3 0.054667 0.488443 0.099459
Si Si4 0.187207 0.132184 0.590978
Si Si5 0.649355 0.714012 0.599615
Si Si6 0.684523 0.120597 0.238593
Si Si7 0.000052 0.040835 0.603557
Si Si8 0.187804 0.601707 0.183238
O O1 0.384307 0.421766 0.580696
O O2 0.410751 0.306225 0.356006
O O3 0.248987 0.328143 0.615439
O O4 0.412533 0.312309 0.854449
O O5 0.283043 0.742678 0.333410
O O6 0.132522 0.807875 0.206447
O O7 0.134530 0.673018 0.204675
O O8 0.032361 0.516383 0.810371
O O9 0.114927 0.544107 0.246787
O O10 0.251136 0.112003 0.342942
O O11 0.167916 0.209387 0.584380
O O12 0.085935 0.093814 0.588193
O O13 0.732403 0.111198 0.520890
O O14 0.599395 0.069378 0.214643
O O15 0.975190 0.014807 0.315011
O O16 0.272662 0.595006 0.392504
#
# Coordination Sequence:
#
# PCOD8168644 Si02
#       8
#     4   4   4   4   4   4   4   4
#     4  10  20  36  63  87 129 162 226 270 326 407
#     4   8  16  34  59  87 109 145 205 261 298 368
#     4  12  26  41  55  91 136 174 212 275 338 402
#     4  12  23  45  71 102 145 182 228 292 352 421
#     4  10  19  39  66  98 117 170 232 274 334 397
#     4  10  21  42  71  93 127 174 222 270 327 387
#     4  12  28  45  66 105 141 175 228 271 339 432
#     4  10  21  38  63  83 112 160 213 253 314 374
#
# _framework density 22.100895000000001
#
# number of rings (size 3 to 8) (size 9 to 14) (size 15 to 20)
#    0.000    1.500    2.500    3.000    3.500    3.000 
#    4.500    0.000    0.000    0.000    0.000    0.000 
#    0.000    0.000    0.000    0.000    0.000    0.000 
#
# Total GULP energy -396450.634991 kJ/mol
# GULP energy per Si atom -12389.082343 kJ/mol
# Density = 2.205059 g / cm^3
# Si number density = 22.100895 Si / 1000 Ang^3
#
#
#
# Elastic Constant Matrix: (Units=GPa)
#
#
# Indices 1 2 3 4 5 6 
#
# 1 46.6118 36.5525 4.3939 0.0000 0.0000 0.0000
# 2 36.5525 102.1196 15.6104 0.0000 0.0000 0.0000
# 3 4.3939 15.6104 146.3984 0.0000 0.0000 0.0000
# 4 0.0000 0.0000 0.0000 29.6875 0.0000 0.0000
# 5 0.0000 0.0000 0.0000 0.0000 -134.9355 0.0000
# 6 0.0000 0.0000 0.0000 0.0000 0.0000 1.9598
#
#
#
# Elastic Compliance Matrix: (Units=1/GPa)
#
#
# Indices 1 2 3 4 5 6 
#
# 1 0.029834 -0.010717 0.000247 0.000000 0.000000 0.000000
# 2 -0.010717 0.013804 -0.001150 0.000000 0.000000 0.000000
# 3 0.000247 -0.001150 0.006946 0.000000 0.000000 0.000000
# 4 0.000000 0.000000 0.000000 0.033684 0.000000 0.000000
# 5 0.000000 0.000000 0.000000 0.000000 -0.007411 0.000000
# 6 0.000000 0.000000 0.000000 0.000000 0.000000 0.510267
#
#
# Mechanical properties :
#
#
# Convention : Reuss Voigt Hill
#
# Bulk Modulus (GPa) = 36.56958 45.36038 40.96498
# Shear Modulus (GPa) = 8.07129 -4.75279 1.65925
#
# Velocity S-wave (km/s) = 1.91310 -1.46805 0.86741
# Velocity P-wave (km/s) = 4.63276 4.20657 4.42480
#
# Compressibility (1/GPa) = 0.02734513
#
# Stress axis : x y z
#
# Youngs Moduli (GPa) = 33.51834 72.44172 143.96961
#
# Poissons Ratio (x) = 0.77634 -0.03560
# Poissons Ratio (y) = 0.35921 0.16561
# Poissons Ratio (z) = -0.00829 0.08333
#
# Static dielectric constant tensor:
#      x y z
#    x 6.799950 0.000000 0.000000 
#    y 0.000000 4.269480 0.000000 
#    z 0.000000 0.000000 5.850480 
# 
# 
# High freq. dielectric constant tensor:
#      x y z
#    x 1.819210 0.000000 0.000000 
#    y 0.000000 1.886190 0.000000 
#    z 0.000000 0.000000 1.904530 
# 
# From -- ./inp_files/267.got.cif
#   From: 2010.03.12/outbox.cif.g09.slc.cpg/sg29_1_cif.got.tgz:267.got - 2010.04.14 03:43:10.
