data_PCOD8168983
_publ_section_title
;
Structure prediction by ZEFSAII (Michael W. Deem and Ramdas Pophale) SiO2 
 PCOD8168983
Probable space group: P C A 21
;
_chemical_formula_sum "Si O2"
_cell_formula_units_Z 28
_cell_length_a 23.572274
_cell_length_b 10.256273
_cell_length_c 5.226199
_cell_angle_alpha 90.000000
_cell_angle_beta 90.000000
_cell_angle_gamma 90.000000
_cell_volume 1263.505089
_symmetry_space_group_name_H-M "P C A 21"
_symmetry_group_IT_number 29
_symmetry_cell_setting 'orthorhombic'
loop_
_space_group_symop_operation_xyz
x,y,z
-x,-y,1/2+z
1/2-x,y,1/2+z
1/2+x,-y,z
loop_
_atom_site_type_symbol
_atom_site_label
_atom_site_fract_x
_atom_site_fract_y
_atom_site_fract_z
Si Si1 0.226644 0.522046 0.105970
Si Si2 0.962455 0.803674 0.613083
Si Si3 0.598242 0.173994 0.625864
Si Si4 0.775630 0.773409 0.119529
Si Si5 0.528410 0.518259 0.012815
Si Si6 0.381399 0.672721 0.631170
Si Si7 0.101522 0.119480 0.623627
O O1 0.248122 0.595081 0.359534
O O2 0.249956 0.373671 0.112572
O O3 0.159629 0.546943 0.095031
O O4 0.942305 0.657544 0.543419
O O5 0.933261 0.887375 0.389730
O O6 0.029892 0.823718 0.606598
O O7 0.939672 0.838424 0.893531
O O8 0.621426 0.227297 0.895060
O O9 0.621714 0.028242 0.584392
O O10 0.627515 0.254468 0.397962
O O11 0.747997 0.844603 0.365513
O O12 0.844001 0.783210 0.132220
O O13 0.524996 0.480654 0.711380
O O14 0.558368 0.396285 0.146672
#
# Coordination Sequence:
#
# PCOD8168983 Si02
#       7
#     4   4   4   4   4   4   4
#     4  10  23  41  64  94 125 160 225 287 338 391
#     4  12  24  42  69 104 139 178 233 270 335 401
#     4  12  25  46  65 102 146 182 220 264 332 436
#     4  10  23  44  65  97 128 165 230 292 330 379
#     4  12  23  41  64 101 138 173 221 276 337 398
#     4  12  24  43  67  95 138 178 216 276 347 400
#     4  12  26  43  72  99 136 188 223 279 333 389
#
# _framework density 22.160574
#
# number of rings (size 3 to 8) (size 9 to 14) (size 15 to 20)
#    0.000    0.571    2.857    5.143    8.000    0.000 
#    0.000    4.286    0.000    0.000    0.000    0.000 
#    0.000    0.000    0.000    0.000    0.000    0.000 
#
# Total GULP energy -346892.512028 kJ/mol
# GULP energy per Si atom -12389.018287 kJ/mol
# Density = 2.211014 g / cm^3
# Si number density = 22.160574 Si / 1000 Ang^3
#
#
#
# Elastic Constant Matrix: (Units=GPa)
#
#
# Indices 1 2 3 4 5 6 
#
# 1 75.8168 22.8449 31.6256 0.0000 0.0000 0.0000
# 2 22.8449 93.6366 -0.4718 0.0000 0.0000 0.0000
# 3 31.6256 -0.4718 165.5169 0.0000 0.0000 0.0000
# 4 0.0000 0.0000 0.0000 11.8372 0.0000 0.0000
# 5 0.0000 0.0000 0.0000 0.0000 29.4717 0.0000
# 6 0.0000 0.0000 0.0000 0.0000 0.0000 24.7542
#
#
#
# Elastic Compliance Matrix: (Units=1/GPa)
#
#
# Indices 1 2 3 4 5 6 
#
# 1 0.015587 -0.003818 -0.002989 0.000000 0.000000 0.000000
# 2 -0.003818 0.011615 0.000763 0.000000 0.000000 0.000000
# 3 -0.002989 0.000763 0.006615 0.000000 0.000000 0.000000
# 4 0.000000 0.000000 0.000000 0.084480 0.000000 0.000000
# 5 0.000000 0.000000 0.000000 0.000000 0.033931 0.000000
# 6 0.000000 0.000000 0.000000 0.000000 0.000000 0.040397
#
#
# Mechanical properties :
#
#
# Convention : Reuss Voigt Hill
#
# Bulk Modulus (GPa) = 46.02345 49.21863 47.62104
# Shear Modulus (GPa) = 23.58982 31.94406 27.76694
#
# Velocity S-wave (km/s) = 3.26620 3.80080 3.54360
# Velocity P-wave (km/s) = 5.91923 6.44358 6.18696
#
# Compressibility (1/GPa) = 0.02172805
#
# Stress axis : x y z
#
# Youngs Moduli (GPa) = 64.15630 86.09636 151.17195
#
# Poissons Ratio (x) = 0.32870 0.45187
# Poissons Ratio (y) = 0.24494 -0.11528
# Poissons Ratio (z) = 0.19177 -0.06566
#
# Static dielectric constant tensor:
#      x y z
#    x 3.846470 0.000000 0.000000 
#    y 0.000000 3.958310 0.000000 
#    z 0.000000 0.000000 5.915970 
# 
# 
# High freq. dielectric constant tensor:
#      x y z
#    x 1.851930 0.000000 0.000000 
#    y 0.000000 1.856710 0.000000 
#    z 0.000000 0.000000 1.909380 
# 
# From -- ./inp_files/664.got.cif
#   From: 2010.03.12/outbox.cif.g09.slc.cpg/sg29_1_cif.got.tgz:664.got - 2010.04.14 03:43:10.
