data_PCOD8168053
_publ_section_title
;
Structure prediction by ZEFSAII (Michael W. Deem and Ramdas Pophale) SiO2 
 PCOD8168053
Probable space group: P M A 2
;
_chemical_formula_sum "Si O2"
_cell_formula_units_Z 24
_cell_length_a 15.738063
_cell_length_b 8.509015
_cell_length_c 9.430667
_cell_angle_alpha 90.000000
_cell_angle_beta 90.000000
_cell_angle_gamma 90.000000
_cell_volume 1262.911677
_symmetry_space_group_name_H-M "P M A 2"
_symmetry_group_IT_number 28
_symmetry_cell_setting 'orthorhombic'
loop_
_space_group_symop_operation_xyz
x,y,z
-x,-y,z
1/2-x,y,z
1/2+x,-y,z
loop_
_atom_site_type_symbol
_atom_site_label
_atom_site_fract_x
_atom_site_fract_y
_atom_site_fract_z
Si Si1 0.008812 0.183012 0.416910
Si Si2 0.345146 0.670779 0.924111
Si Si3 0.155973 0.297710 0.601789
Si Si4 0.000850 0.685952 0.106167
Si Si5 0.344230 0.299800 0.925398
Si Si6 0.581567 0.389841 0.633959
O O1 0.098795 0.205828 0.491203
O O2 0.004529 0.272169 0.269300
O O3 0.936205 0.258673 0.515569
O O4 0.000000 0.000000 0.390585
O O5 0.250000 0.745021 0.939042
O O6 0.338281 0.485562 0.943742
O O7 0.384886 0.705695 0.769589
O O8 0.409867 0.747475 0.039007
O O9 0.250000 0.240230 0.568337
O O10 0.130818 0.256216 0.763982
O O11 0.151686 0.486785 0.577798
O O12 0.000000 0.500000 0.085775
O O13 0.919145 0.764557 0.027142
O O14 0.250000 0.229982 0.963361
O O15 0.500000 0.500000 0.671469
#
# Coordination Sequence:
#
# PCOD8168053 Si02
#       6
#     4   4   4   4   4   4
#     4  11  23  36  49  72 111 152 179 207 256 313
#     4   9  16  29  52  81 103 124 163 221 272 308
#     4   9  17  34  59  84 103 127 172 226 268 311
#     4  10  18  32  52  75 104 136 174 215 257 310
#     4   8  15  29  55  83 101 121 163 222 274 310
#     4   9  16  32  57  79 100 130 173 219 265 312
#
# _framework density 19.003705
#
# number of rings (size 3 to 8) (size 9 to 14) (size 15 to 20)
#    0.000    2.667    0.000    6.500    0.000    0.667 
#    0.000   10.833    0.000    2.000    0.000    0.000 
#    0.000    0.000    0.000    0.000    0.000    0.000 
#
# Total GULP energy -297420.901729 kJ/mol
# GULP energy per Si atom -12392.537572 kJ/mol
# Density = 1.896045 g / cm^3
# Si number density = 19.003705 Si / 1000 Ang^3
#
#
#
# Elastic Constant Matrix: (Units=GPa)
#
#
# Indices 1 2 3 4 5 6 
#
# 1 137.1240 6.0529 78.8803 0.0000 0.0000 0.0000
# 2 6.0529 14.5631 -1.4898 0.0000 0.0000 0.0000
# 3 78.8803 -1.4898 107.4075 0.0000 0.0000 0.0000
# 4 0.0000 0.0000 0.0000 -1.3894 0.0000 0.0000
# 5 0.0000 0.0000 0.0000 0.0000 12.6057 0.0000
# 6 0.0000 0.0000 0.0000 0.0000 0.0000 7.6360
#
#
#
# Elastic Compliance Matrix: (Units=1/GPa)
#
#
# Indices 1 2 3 4 5 6 
#
# 1 0.013213 -0.006494 -0.009794 0.000000 0.000000 0.000000
# 2 -0.006494 0.071956 0.005767 0.000000 0.000000 0.000000
# 3 -0.009794 0.005767 0.016583 0.000000 0.000000 0.000000
# 4 0.000000 0.000000 0.000000 -0.719722 0.000000 0.000000
# 5 0.000000 0.000000 0.000000 0.000000 0.079329 0.000000
# 6 0.000000 0.000000 0.000000 0.000000 0.000000 0.130958
#
#
# Mechanical properties :
#
#
# Convention : Reuss Voigt Hill
#
# Bulk Modulus (GPa) = 12.38993 47.33126 29.86059
# Shear Modulus (GPa) = -13.89902 15.48053 0.79076
#
# Velocity S-wave (km/s) = -2.70735 2.85723 0.64576
# Velocity P-wave (km/s) = 1.79974 5.98710 4.03772
#
# Compressibility (1/GPa) = 0.08071073
#
# Stress axis : x y z
#
# Youngs Moduli (GPa) = 75.68164 13.89745 60.30270
#
# Poissons Ratio (x) = 0.09025 0.59060
# Poissons Ratio (y) = 0.49146 -0.34777
# Poissons Ratio (z) = 0.74122 -0.08015
#
# Static dielectric constant tensor:
#      x y z
#    x 4.117190 0.000000 0.000000 
#    y 0.000000 2.918980 0.000000 
#    z 0.000000 0.000000 3.400570 
# 
# 
# High freq. dielectric constant tensor:
#      x y z
#    x 1.752510 0.000000 0.000000 
#    y 0.000000 1.680320 0.000000 
#    z 0.000000 0.000000 1.734820 
# 
# From -- ./inp_files/3784.got.cif
#   From: 2010.03.12/outbox.cif.g09.slc.cpg/sg28_2_cif.got.tgz:3784.got - 2010.04.14 03:39:34.
