data_PCOD8168724
_publ_section_title
;
Structure prediction by ZEFSAII (Michael W. Deem and Ramdas Pophale) SiO2 
 PCOD8168724
Probable space group: P C A 21
;
_chemical_formula_sum "Si O2"
_cell_formula_units_Z 28
_cell_length_a 17.706375
_cell_length_b 7.527831
_cell_length_c 10.447467
_cell_angle_alpha 90.000000
_cell_angle_beta 90.000000
_cell_angle_gamma 90.000000
_cell_volume 1392.549131
_symmetry_space_group_name_H-M "P C A 21"
_symmetry_group_IT_number 29
_symmetry_cell_setting 'orthorhombic'
loop_
_space_group_symop_operation_xyz
x,y,z
-x,-y,1/2+z
1/2-x,y,1/2+z
1/2+x,-y,z
loop_
_atom_site_type_symbol
_atom_site_label
_atom_site_fract_x
_atom_site_fract_y
_atom_site_fract_z
Si Si1 0.366480 0.374029 0.025420
Si Si2 0.415870 0.804227 0.326643
Si Si3 0.783031 0.355634 0.196464
Si Si4 0.366480 0.625971 0.577645
Si Si5 0.915870 0.804226 0.276422
Si Si6 0.474467 0.500000 0.801532
Si Si7 0.783031 0.644366 0.406600
O O1 0.333697 0.552786 0.087551
O O2 0.407476 0.243104 0.125799
O O3 0.426305 0.434562 0.920737
O O4 0.294575 0.271928 0.961916
O O5 0.333383 0.797619 0.260573
O O6 0.407476 0.756896 0.477266
O O7 0.471665 0.663093 0.259224
O O8 0.449262 0.000000 0.301532
O O9 0.705425 0.271928 0.141148
O O10 0.759112 0.500000 0.301532
O O11 0.426305 0.565439 0.682327
O O12 0.333697 0.447214 0.515514
O O13 0.833382 0.797618 0.342491
O O14 0.971665 0.663092 0.343840
#
# Coordination Sequence:
#
# PCOD8168724 Si02
#       7
#     4   4   4   4   4   4   4
#     4  10  20  39  67  87 119 168 211 259 314 369
#     4  11  24  41  61  95 131 163 208 264 323 380
#     4   9  18  39  66  90 114 161 215 262 309 370
#     4  10  20  39  67  87 119 168 211 259 314 369
#     4  11  24  41  61  95 131 163 208 264 323 380
#     4  12  22  42  62  92 126 172 208 256 324 384
#     4   9  18  39  66  90 114 161 215 262 309 370
#
# _framework density 20.107009000000001
#
# number of rings (size 3 to 8) (size 9 to 14) (size 15 to 20)
#    0.000    1.714    5.714    0.857    0.000    1.143 
#   10.286    1.429    0.000    0.000    0.000    0.000 
#    0.000    0.000    0.000    0.000    0.000    0.000 
#
# Total GULP energy -347116.818777 kJ/mol
# GULP energy per Si atom -12397.029242 kJ/mol
# Density = 2.006124 g / cm^3
# Si number density = 20.107009 Si / 1000 Ang^3
#
#
#
# Elastic Constant Matrix: (Units=GPa)
#
#
# Indices 1 2 3 4 5 6 
#
# 1 116.9303 48.2667 61.0956 0.0000 0.0000 0.0000
# 2 48.2667 117.6553 30.6202 0.0000 0.0000 0.0000
# 3 61.0956 30.6202 109.3427 0.0000 0.0000 0.0000
# 4 0.0000 0.0000 0.0000 19.7934 0.0000 0.0000
# 5 0.0000 0.0000 0.0000 0.0000 27.8003 0.0000
# 6 0.0000 0.0000 0.0000 0.0000 0.0000 6.7058
#
#
#
# Elastic Compliance Matrix: (Units=1/GPa)
#
#
# Indices 1 2 3 4 5 6 
#
# 1 0.013533 -0.003866 -0.006479 0.000000 0.000000 0.000000
# 2 -0.003866 0.010272 -0.000717 0.000000 0.000000 0.000000
# 3 -0.006479 -0.000717 0.012966 0.000000 0.000000 0.000000
# 4 0.000000 0.000000 0.000000 0.050522 0.000000 0.000000
# 5 0.000000 0.000000 0.000000 0.000000 0.035971 0.000000
# 6 0.000000 0.000000 0.000000 0.000000 0.000000 0.149124
#
#
# Mechanical properties :
#
#
# Convention : Reuss Voigt Hill
#
# Bulk Modulus (GPa) = 68.26557 69.32148 68.79352
# Shear Modulus (GPa) = 16.70046 24.45630 20.57838
#
# Velocity S-wave (km/s) = 2.88510 3.49134 3.20260
# Velocity P-wave (km/s) = 6.71739 7.12768 6.92557
#
# Compressibility (1/GPa) = 0.01464867
#
# Stress axis : x y z
#
# Youngs Moduli (GPa) = 73.89309 97.35490 77.12194
#
# Poissons Ratio (x) = 0.37633 0.49968
# Poissons Ratio (y) = 0.28564 0.05526
# Poissons Ratio (z) = 0.47876 0.06976
#
# Static dielectric constant tensor:
#      x y z
#    x 3.938340 0.000000 0.000000 
#    y 0.000000 3.168910 0.000000 
#    z 0.000000 0.000000 3.987950 
# 
# 
# High freq. dielectric constant tensor:
#      x y z
#    x 1.803540 0.000000 0.000000 
#    y 0.000000 1.732250 0.000000 
#    z 0.000000 0.000000 1.795140 
# 
# From -- ./inp_files/3650.got.cif
#   From: 2010.03.12/outbox.cif.g09.slc.cpg/sg29_2_cif.got.tgz:3650.got - 2010.04.14 03:43:10.
