data_PCOD8168630
_publ_section_title
;
Structure prediction by ZEFSAII (Michael W. Deem and Ramdas Pophale) SiO2 
 PCOD8168630
Probable space group: P C A 21
;
_chemical_formula_sum "Si O2"
_cell_formula_units_Z 24
_cell_length_a 9.746719
_cell_length_b 8.466942
_cell_length_c 15.562098
_cell_angle_alpha 90.000000
_cell_angle_beta 90.000000
_cell_angle_gamma 90.000000
_cell_volume 1284.260651
_symmetry_space_group_name_H-M "P C A 21"
_symmetry_group_IT_number 29
_symmetry_cell_setting 'orthorhombic'
loop_
_space_group_symop_operation_xyz
x,y,z
-x,-y,1/2+z
1/2-x,y,1/2+z
1/2+x,-y,z
loop_
_atom_site_type_symbol
_atom_site_label
_atom_site_fract_x
_atom_site_fract_y
_atom_site_fract_z
Si Si1 0.917384 0.314484 0.352150
Si Si2 0.785263 0.589028 0.852150
Si Si3 0.765589 0.818492 0.507134
Si Si4 0.500746 0.029617 0.947680
Si Si5 0.765589 0.818492 0.197167
Si Si6 0.500745 0.029617 0.756620
O O1 0.779085 0.415165 0.352150
O O2 0.924608 0.201526 0.267606
O O3 0.050447 0.429652 0.352150
O O4 0.924608 0.201527 0.436694
O O5 0.736116 0.681039 0.936890
O O6 0.736115 0.681040 0.767410
O O7 0.750000 0.743965 0.602150
O O8 0.909797 0.910677 0.503993
O O9 0.646443 0.947077 0.491638
O O10 0.476500 0.957238 0.852150
O O11 0.646444 0.947077 0.212663
O O12 0.909798 0.910676 0.200307
#
# Coordination Sequence:
#
# PCOD8168630 Si02
#       6
#     4   4   4   4   4   4
#     4   8  19  32  56  68 106 144 169 218 254 314
#     4  10  19  38  50  78 106 140 179 212 264 312
#     4  11  20  34  57  81 108 137 174 222 265 312
#     4   9  18  36  53  77 105 136 179 217 259 309
#     4  11  20  34  57  81 108 137 174 222 265 312
#     4   9  18  36  53  77 105 136 179 217 259 309
#
# _framework density 18.687795000000001
#
# number of rings (size 3 to 8) (size 9 to 14) (size 15 to 20)
#    1.000    1.333    3.333    1.000    0.000    2.667 
#    0.000    8.333    0.000    0.000    0.000    0.000 
#    0.000    0.000    0.000    0.000    0.000    0.000 
#
# Total GULP energy -297429.548741 kJ/mol
# GULP energy per Si atom -12392.897864 kJ/mol
# Density = 1.864526 g / cm^3
# Si number density = 18.687795 Si / 1000 Ang^3
#
#
#
# Elastic Constant Matrix: (Units=GPa)
#
#
# Indices 1 2 3 4 5 6 
#
# 1 16.8773 -3.8466 9.2743 0.0000 0.0000 0.0000
# 2 -3.8466 19.1057 1.3836 0.0000 0.0000 0.0000
# 3 9.2743 1.3836 107.7679 0.0000 0.0000 0.0000
# 4 0.0000 0.0000 0.0000 5.6681 0.0000 0.0000
# 5 0.0000 0.0000 0.0000 0.0000 21.5713 0.0000
# 6 0.0000 0.0000 0.0000 0.0000 0.0000 37.5724
#
#
#
# Elastic Compliance Matrix: (Units=1/GPa)
#
#
# Indices 1 2 3 4 5 6 
#
# 1 0.065551 0.013619 -0.005816 0.000000 0.000000 0.000000
# 2 0.013619 0.055218 -0.001881 0.000000 0.000000 0.000000
# 3 -0.005816 -0.001881 0.009804 0.000000 0.000000 0.000000
# 4 0.000000 0.000000 0.000000 0.176426 0.000000 0.000000
# 5 0.000000 0.000000 0.000000 0.000000 0.046358 0.000000
# 6 0.000000 0.000000 0.000000 0.000000 0.000000 0.026615
#
#
# Mechanical properties :
#
#
# Convention : Reuss Voigt Hill
#
# Bulk Modulus (GPa) = 7.02163 17.48593 12.25378
# Shear Modulus (GPa) = 12.03074 22.09166 17.06120
#
# Velocity S-wave (km/s) = 2.54003 3.44196 3.02480
# Velocity P-wave (km/s) = 3.51679 5.01730 4.33250
#
# Compressibility (1/GPa) = 0.14241715
#
# Stress axis : x y z
#
# Youngs Moduli (GPa) = 15.25523 18.10991 102.00054
#
# Poissons Ratio (x) = -0.24663 0.59324
# Poissons Ratio (y) = -0.20776 0.19186
# Poissons Ratio (z) = 0.08873 0.03406
#
# Static dielectric constant tensor:
#      x y z
#    x 3.345890 0.000000 0.000000 
#    y 0.000000 2.986650 0.000000 
#    z 0.000000 0.000000 3.323050 
# 
# 
# High freq. dielectric constant tensor:
#      x y z
#    x 1.729240 0.000000 0.000000 
#    y 0.000000 1.689860 0.000000 
#    z 0.000000 0.000000 1.713410 
# 
# From -- ./inp_files/4220.got.cif
#   From: 2010.03.12/outbox.cif.g09.slc.cpg/sg29_3_cif.got.tgz:4220.got - 2010.04.14 03:43:10.
