data_PCOD8168864
_publ_section_title
;
Structure prediction by ZEFSAII (Michael W. Deem and Ramdas Pophale) SiO2 
 PCOD8168864
Probable space group: P C A 21
;
_chemical_formula_sum "Si O2"
_cell_formula_units_Z 28
_cell_length_a 23.788085
_cell_length_b 6.495411
_cell_length_c 8.348500
_cell_angle_alpha 90.000000
_cell_angle_beta 90.000000
_cell_angle_gamma 90.000000
_cell_volume 1289.955028
_symmetry_space_group_name_H-M "P C A 21"
_symmetry_group_IT_number 29
_symmetry_cell_setting 'orthorhombic'
loop_
_space_group_symop_operation_xyz
x,y,z
-x,-y,1/2+z
1/2-x,y,1/2+z
1/2+x,-y,z
loop_
_atom_site_type_symbol
_atom_site_label
_atom_site_fract_x
_atom_site_fract_y
_atom_site_fract_z
Si Si1 0.329246 0.409614 0.860300
Si Si2 0.111228 0.106798 0.121941
Si Si3 0.696481 0.167958 0.242249
Si Si4 0.004540 0.778360 0.747849
Si Si5 0.200857 0.050165 0.565696
Si Si6 0.093192 0.119393 0.770154
Si Si7 0.055559 0.453320 0.524407
O O1 0.349191 0.251497 0.726878
O O2 0.294339 0.585713 0.763990
O O3 0.383806 0.505698 0.948522
O O4 0.291220 0.283085 0.991410
O O5 0.049076 0.089115 0.193472
O O6 0.140701 0.880651 0.135448
O O7 0.111488 0.201983 0.944101
O O8 0.747051 0.039822 0.163734
O O9 0.686654 0.102248 0.423630
O O10 0.052196 0.930495 0.809448
O O11 0.028119 0.658285 0.594173
O O12 0.987753 0.628493 0.892061
O O13 0.148239 0.040448 0.682333
O O14 0.061337 0.290013 0.667580
#
# Coordination Sequence:
#
# PCOD8168864 Si02
#       7
#     4   4   4   4   4   4   4
#     4   9  22  42  62  88 124 160 202 260 312 373
#     4  10  23  38  60  90 121 160 207 250 302 374
#     4  11  22  42  64  87 122 162 200 254 316 364
#     4  11  22  38  60  89 123 162 207 256 307 368
#     4  10  23  41  63  93 120 156 212 253 303 379
#     4  11  22  40  62  88 123 161 201 255 307 364
#     4  10  22  37  57  87 123 161 205 254 313 374
#
# _framework density 21.706185000000001
#
# number of rings (size 3 to 8) (size 9 to 14) (size 15 to 20)
#    0.000    1.714    0.000    4.286    0.000    9.143 
#    0.000    5.714    0.000    0.000    0.000    0.000 
#    0.000    0.000    0.000    0.000    0.000    0.000 
#
# Total GULP energy -347101.796793 kJ/mol
# GULP energy per Si atom -12396.492743 kJ/mol
# Density = 2.165678 g / cm^3
# Si number density = 21.706185 Si / 1000 Ang^3
#
#
#
# Elastic Constant Matrix: (Units=GPa)
#
#
# Indices 1 2 3 4 5 6 
#
# 1 109.9936 52.1168 37.6298 0.0000 0.0000 0.0000
# 2 52.1168 91.2552 15.9335 0.0000 0.0000 0.0000
# 3 37.6298 15.9335 110.4854 0.0000 0.0000 0.0000
# 4 0.0000 0.0000 0.0000 29.8502 0.0000 0.0000
# 5 0.0000 0.0000 0.0000 0.0000 30.1609 0.0000
# 6 0.0000 0.0000 0.0000 0.0000 0.0000 26.1122
#
#
#
# Elastic Compliance Matrix: (Units=1/GPa)
#
#
# Indices 1 2 3 4 5 6 
#
# 1 0.013761 -0.007222 -0.003645 0.000000 0.000000 0.000000
# 2 -0.007222 0.015032 0.000292 0.000000 0.000000 0.000000
# 3 -0.003645 0.000292 0.010250 0.000000 0.000000 0.000000
# 4 0.000000 0.000000 0.000000 0.033501 0.000000 0.000000
# 5 0.000000 0.000000 0.000000 0.000000 0.033155 0.000000
# 6 0.000000 0.000000 0.000000 0.000000 0.000000 0.038296
#
#
# Mechanical properties :
#
#
# Convention : Reuss Voigt Hill
#
# Bulk Modulus (GPa) = 55.89071 58.12159 57.00615
# Shear Modulus (GPa) = 29.22094 30.96159 30.09127
#
# Velocity S-wave (km/s) = 3.67304 3.78086 3.72734
# Velocity P-wave (km/s) = 6.61763 6.77455 6.69655
#
# Compressibility (1/GPa) = 0.01789206
#
# Stress axis : x y z
#
# Youngs Moduli (GPa) = 72.67174 66.52460 97.55791
#
# Poissons Ratio (x) = 0.48046 0.35561
# Poissons Ratio (y) = 0.52486 -0.02849
# Poissons Ratio (z) = 0.26489 -0.01943
#
# Static dielectric constant tensor:
#      x y z
#    x 3.952780 0.000000 0.000000 
#    y 0.000000 3.890950 0.000000 
#    z 0.000000 0.000000 4.129470 
# 
# 
# High freq. dielectric constant tensor:
#      x y z
#    x 1.851970 0.000000 0.000000 
#    y 0.000000 1.840910 0.000000 
#    z 0.000000 0.000000 1.869020 
# 
# From -- ./inp_files/2410.got.cif
#   From: 2010.03.12/outbox.cif.g09.slc.cpg/sg29_2_cif.got.tgz:2410.got - 2010.04.14 03:43:10.
