data_PCOD8168025
_publ_section_title
;
Structure prediction by ZEFSAII (Michael W. Deem and Ramdas Pophale) SiO2 
 PCOD8168025
Probable space group: P M A 2
;
_chemical_formula_sum "Si O2"
_cell_formula_units_Z 28
_cell_length_a 18.000219
_cell_length_b 9.670984
_cell_length_c 9.058969
_cell_angle_alpha 90.000000
_cell_angle_beta 90.000000
_cell_angle_gamma 90.000000
_cell_volume 1576.983783
_symmetry_space_group_name_H-M "P M A 2"
_symmetry_group_IT_number 28
_symmetry_cell_setting 'orthorhombic'
loop_
_space_group_symop_operation_xyz
x,y,z
-x,-y,z
1/2-x,y,z
1/2+x,-y,z
loop_
_atom_site_type_symbol
_atom_site_label
_atom_site_fract_x
_atom_site_fract_y
_atom_site_fract_z
Si Si1 0.165564 0.395127 0.842370
Si Si2 0.027616 0.856026 0.892587
Si Si3 0.905033 0.821052 0.652340
Si Si4 0.164234 0.593605 0.594648
Si Si5 0.931371 0.593360 0.417989
Si Si6 0.044754 0.367292 0.078088
Si Si7 0.161966 0.890202 0.699077
O O1 0.250000 0.421516 0.888125
O O2 0.158779 0.256645 0.744511
O O3 0.131626 0.522876 0.745404
O O4 0.122319 0.370819 0.993457
O O5 0.115548 0.862521 0.850653
O O6 0.981659 0.822574 0.743660
O O7 0.000000 0.000000 0.958012
O O8 0.010486 0.753798 0.026758
O O9 0.923361 0.738252 0.503367
O O10 0.872529 0.974398 0.618512
O O11 0.250000 0.560699 0.599007
O O12 0.135725 0.513728 0.449082
O O13 0.148604 0.758062 0.591632
O O14 0.936823 0.639768 0.249860
O O15 0.000000 0.500000 0.472246
O O16 0.000000 0.500000 0.032954
O O17 0.250000 0.906823 0.735253
#
# Coordination Sequence:
#
# PCOD8168025 Si02
#       7
#     4   4   4   4   4   4   4
#     4   9  17  31  51  75  99 130 169 211 257 306
#     4   9  18  33  51  74 101 132 168 212 257 302
#     4   9  18  32  53  76 102 134 172 215 258 308
#     4   9  18  31  50  74 100 128 165 211 258 306
#     4  10  20  34  50  73 101 136 174 214 257 306
#     4  10  20  33  50  73 102 134 169 209 254 307
#     4  10  18  30  52  81 106 132 169 216 263 311
#
# _framework density 17.755413000000001
#
# number of rings (size 3 to 8) (size 9 to 14) (size 15 to 20)
#    0.000    2.571    0.000    2.143    0.000    5.143 
#    0.000    5.000    0.000    0.857    0.000   18.000 
#    0.000    0.000    0.000    0.000    0.000    0.000 
#
# Total GULP energy -346975.239371 kJ/mol
# GULP energy per Si atom -12391.972835 kJ/mol
# Density = 1.771500 g / cm^3
# Si number density = 17.755413 Si / 1000 Ang^3
#
#
#
# Elastic Constant Matrix: (Units=GPa)
#
#
# Indices 1 2 3 4 5 6 
#
# 1 78.6598 41.9645 44.0129 0.0000 0.0000 0.0000
# 2 41.9645 146.7400 64.7453 0.0000 0.0000 0.0000
# 3 44.0129 64.7453 87.7636 0.0000 0.0000 0.0000
# 4 0.0000 0.0000 0.0000 36.2682 0.0000 0.0000
# 5 0.0000 0.0000 0.0000 0.0000 19.1556 0.0000
# 6 0.0000 0.0000 0.0000 0.0000 0.0000 27.9680
#
#
#
# Elastic Compliance Matrix: (Units=1/GPa)
#
#
# Indices 1 2 3 4 5 6 
#
# 1 0.017961 -0.001723 -0.007736 0.000000 0.000000 0.000000
# 2 -0.001723 0.010269 -0.006711 0.000000 0.000000 0.000000
# 3 -0.007736 -0.006711 0.020225 0.000000 0.000000 0.000000
# 4 0.000000 0.000000 0.000000 0.027572 0.000000 0.000000
# 5 0.000000 0.000000 0.000000 0.000000 0.052204 0.000000
# 6 0.000000 0.000000 0.000000 0.000000 0.000000 0.035755
#
#
# Mechanical properties :
#
#
# Convention : Reuss Voigt Hill
#
# Bulk Modulus (GPa) = 62.05989 68.28989 65.17489
# Shear Modulus (GPa) = 24.78947 27.50773 26.14860
#
# Velocity S-wave (km/s) = 3.74058 3.94033 3.84176
# Velocity P-wave (km/s) = 7.32697 7.69718 7.51435
#
# Compressibility (1/GPa) = 0.01611347
#
# Stress axis : x y z
#
# Youngs Moduli (GPa) = 55.67669 97.38255 49.44367
#
# Poissons Ratio (x) = 0.16780 0.38250
# Poissons Ratio (y) = 0.09593 0.33184
# Poissons Ratio (z) = 0.43072 0.65358
#
# Static dielectric constant tensor:
#      x y z
#    x 3.357950 0.000000 0.000000 
#    y 0.000000 3.511180 0.000000 
#    z 0.000000 0.000000 2.908130 
# 
# 
# High freq. dielectric constant tensor:
#      x y z
#    x 1.693380 0.000000 0.000000 
#    y 0.000000 1.705190 0.000000 
#    z 0.000000 0.000000 1.647040 
# 
# From -- ./inp_files/4018.got.cif
#   From: 2010.03.12/outbox.cif.g09.slc.cpg/sg28_3_cif.got.tgz:4018.got - 2010.04.14 03:39:34.
