data_PCOD8168746
_publ_section_title
;
Structure prediction by ZEFSAII (Michael W. Deem and Ramdas Pophale) SiO2 
 PCOD8168746
Probable space group: P C A 21
;
_chemical_formula_sum "Si O2"
_cell_formula_units_Z 32
_cell_length_a 5.466956
_cell_length_b 14.205183
_cell_length_c 15.786863
_cell_angle_alpha 90.000000
_cell_angle_beta 90.000000
_cell_angle_gamma 90.000000
_cell_volume 1225.993737
_symmetry_space_group_name_H-M "P C A 21"
_symmetry_group_IT_number 29
_symmetry_cell_setting 'orthorhombic'
loop_
_space_group_symop_operation_xyz
x,y,z
-x,-y,1/2+z
1/2-x,y,1/2+z
1/2+x,-y,z
loop_
_atom_site_type_symbol
_atom_site_label
_atom_site_fract_x
_atom_site_fract_y
_atom_site_fract_z
Si Si1 0.933934 0.728224 0.457290
Si Si2 0.570002 0.471432 0.436663
Si Si3 0.643710 0.745512 0.629346
Si Si4 0.713695 0.973639 0.765048
Si Si5 0.156392 0.223754 0.301274
Si Si6 0.215765 0.880385 0.902716
Si Si7 0.521134 0.057481 0.071541
Si Si8 0.008908 0.545220 0.121987
O O1 0.113683 0.638519 0.458622
O O2 0.071872 0.827967 0.454193
O O3 0.780572 0.730061 0.541936
O O4 0.769223 0.710372 0.373696
O O5 0.309634 0.488781 0.386675
O O6 0.509030 0.530514 0.521315
O O7 0.839737 0.734218 0.706666
O O8 0.506624 0.847291 0.629610
O O9 0.459835 0.657180 0.640589
O O10 0.667315 0.867936 0.794252
O O11 0.476342 0.014661 0.713151
O O12 0.802690 0.028915 0.850030
O O13 0.889146 0.192182 0.332248
O O14 0.014791 0.911479 0.972707
O O15 0.779054 0.005123 0.090373
O O16 0.752050 0.504730 0.160913
#
# Coordination Sequence:
#
# PCOD8168746 Si02
#       8
#     4   4   4   4   4   4   4   4
#     4  12  24  48  77 108 151 204 259 325 394 482
#     4  10  22  41  75 109 142 192 247 304 399 463
#     4  12  27  48  79 112 157 204 267 325 399 476
#     4  10  20  41  68  92 144 198 236 306 380 432
#     4  11  26  46  68 113 147 204 263 317 387 469
#     4  11  24  43  76 103 152 203 260 323 394 457
#     4  12  27  46  73 114 151 200 265 315 386 471
#     4  10  22  45  74 109 148 199 247 315 399 458
#
# _framework density 26.101275999999999
#
# number of rings (size 3 to 8) (size 9 to 14) (size 15 to 20)
#    0.000    1.000    5.000    2.250    5.250    3.000 
#    6.750    1.250    0.000    0.000    0.000    0.000 
#    0.000    0.000    0.000    0.000    0.000    0.000 
#
# Total GULP energy -396475.164854 kJ/mol
# GULP energy per Si atom -12389.848902 kJ/mol
# Density = 2.604187 g / cm^3
# Si number density = 26.101276 Si / 1000 Ang^3
#
#
#
# Elastic Constant Matrix: (Units=GPa)
#
#
# Indices 1 2 3 4 5 6 
#
# 1 149.0452 34.5130 28.5517 0.0000 0.0000 0.0000
# 2 34.5130 134.8195 32.5104 0.0000 0.0000 0.0000
# 3 28.5517 32.5104 91.3230 0.0000 0.0000 0.0000
# 4 0.0000 0.0000 0.0000 4.7023 0.0000 0.0000
# 5 0.0000 0.0000 0.0000 0.0000 25.8620 0.0000
# 6 0.0000 0.0000 0.0000 0.0000 0.0000 27.0977
#
#
#
# Elastic Compliance Matrix: (Units=1/GPa)
#
#
# Indices 1 2 3 4 5 6 
#
# 1 0.007391 -0.001460 -0.001791 0.000000 0.000000 0.000000
# 2 -0.001460 0.008402 -0.002535 0.000000 0.000000 0.000000
# 3 -0.001791 -0.002535 0.012412 0.000000 0.000000 0.000000
# 4 0.000000 0.000000 0.000000 0.212664 0.000000 0.000000
# 5 0.000000 0.000000 0.000000 0.000000 0.038667 0.000000
# 6 0.000000 0.000000 0.000000 0.000000 0.000000 0.036903
#
#
# Mechanical properties :
#
#
# Convention : Reuss Voigt Hill
#
# Bulk Modulus (GPa) = 60.11780 62.92644 61.52212
# Shear Modulus (GPa) = 14.99003 30.17324 22.58163
#
# Velocity S-wave (km/s) = 2.39906 3.40370 2.94454
# Velocity P-wave (km/s) = 5.54585 6.29347 5.93145
#
# Compressibility (1/GPa) = 0.01663401
#
# Stress axis : x y z
#
# Youngs Moduli (GPa) = 135.30820 119.01489 80.56479
#
# Poissons Ratio (x) = 0.17377 0.14428
# Poissons Ratio (y) = 0.19756 0.20421
# Poissons Ratio (z) = 0.24231 0.30166
#
# Static dielectric constant tensor:
#      x y z
#    x 5.183490 0.000000 0.000000 
#    y 0.000000 4.929120 0.000000 
#    z 0.000000 0.000000 4.829300 
# 
# 
# High freq. dielectric constant tensor:
#      x y z
#    x 2.049890 0.000000 0.000000 
#    y 0.000000 2.046080 0.000000 
#    z 0.000000 0.000000 2.036820 
# 
# From -- ./inp_files/4904.got.cif
#   From: 2010.03.12/outbox.cif.g09.slc.cpg/sg29_3_cif.got.tgz:4904.got - 2010.04.14 03:43:10.
