data_PCOD8168176
_publ_section_title
;
Structure prediction by ZEFSAII (Michael W. Deem and Ramdas Pophale) SiO2 
 PCOD8168176
Probable space group: P M A 2
;
_chemical_formula_sum "Si O2"
_cell_formula_units_Z 24
_cell_length_a 8.582985
_cell_length_b 16.616158
_cell_length_c 9.266625
_cell_angle_alpha 90.000000
_cell_angle_beta 90.000000
_cell_angle_gamma 90.000000
_cell_volume 1321.571167
_symmetry_space_group_name_H-M "P M A 2"
_symmetry_group_IT_number 28
_symmetry_cell_setting 'orthorhombic'
loop_
_space_group_symop_operation_xyz
x,y,z
-x,-y,z
1/2-x,y,z
1/2+x,-y,z
loop_
_atom_site_type_symbol
_atom_site_label
_atom_site_fract_x
_atom_site_fract_y
_atom_site_fract_z
Si Si1 0.066146 0.416441 0.987950
Si Si2 0.569986 0.319138 0.216215
Si Si3 0.567268 0.269247 0.810793
Si Si4 0.933528 0.914650 0.320501
Si Si5 0.429677 0.768334 0.493803
Si Si6 0.070207 0.176794 0.049513
O O1 0.250000 0.420963 0.004359
O O2 0.000000 0.500000 0.925449
O O3 0.020658 0.345725 0.877268
O O4 0.985689 0.403592 0.147081
O O5 0.750000 0.301778 0.173131
O O6 0.548596 0.309655 0.388677
O O7 0.452412 0.256741 0.143051
O O8 0.750000 0.286778 0.811218
O O9 0.502288 0.255553 0.649447
O O10 0.529855 0.187704 0.902860
O O11 0.750000 0.917547 0.325837
O O12 0.987884 0.895434 0.154771
O O13 0.987123 0.847098 0.432641
O O14 0.000000 0.000000 0.369436
O O15 0.250000 0.791790 0.508558
O O16 0.250000 0.166499 0.006714
#
# Coordination Sequence:
#
# PCOD8168176 Si02
#       6
#     4   4   4   4   4   4
#     4  11  21  34  52  75 101 131 168 210 252 297
#     4   9  16  30  51  73  96 126 162 201 242 291
#     4  10  19  33  53  77 103 134 167 203 248 301
#     4  10  20  33  52  75 101 131 169 212 255 298
#     4   9  19  34  53  76 104 135 168 203 248 303
#     4   9  17  30  48  72  97 127 165 203 241 290
#
# _framework density 18.160202999999999
#
# number of rings (size 3 to 8) (size 9 to 14) (size 15 to 20)
#    0.000    2.333    0.000    5.500    0.000    4.000 
#    0.000    1.667    0.000    2.000    0.000    0.000 
#    0.000    0.000    0.000    0.000    0.000    0.000 
#
# Total GULP energy -297385.729736 kJ/mol
# GULP energy per Si atom -12391.072072 kJ/mol
# Density = 1.811887 g / cm^3
# Si number density = 18.160203 Si / 1000 Ang^3
#
#
#
# Elastic Constant Matrix: (Units=GPa)
#
#
# Indices 1 2 3 4 5 6 
#
# 1 69.5802 34.2212 41.5223 0.0000 0.0000 0.0000
# 2 34.2212 90.5773 52.0604 0.0000 0.0000 0.0000
# 3 41.5223 52.0604 150.1406 0.0000 0.0000 0.0000
# 4 0.0000 0.0000 0.0000 4.3211 0.0000 0.0000
# 5 0.0000 0.0000 0.0000 0.0000 24.2297 0.0000
# 6 0.0000 0.0000 0.0000 0.0000 0.0000 25.0182
#
#
#
# Elastic Compliance Matrix: (Units=1/GPa)
#
#
# Indices 1 2 3 4 5 6 
#
# 1 0.018983 -0.005189 -0.003451 0.000000 0.000000 0.000000
# 2 -0.005189 0.015206 -0.003838 0.000000 0.000000 0.000000
# 3 -0.003451 -0.003838 0.008945 0.000000 0.000000 0.000000
# 4 0.000000 0.000000 0.000000 0.231424 0.000000 0.000000
# 5 0.000000 0.000000 0.000000 0.000000 0.041272 0.000000
# 6 0.000000 0.000000 0.000000 0.000000 0.000000 0.039971
#
#
# Mechanical properties :
#
#
# Convention : Reuss Voigt Hill
#
# Bulk Modulus (GPa) = 55.00372 62.87844 58.94108
# Shear Modulus (GPa) = 12.92604 22.88009 17.90307
#
# Velocity S-wave (km/s) = 2.67081 3.55336 3.14322
# Velocity P-wave (km/s) = 6.31386 7.17876 6.76016
#
# Compressibility (1/GPa) = 0.01818059
#
# Stress axis : x y z
#
# Youngs Moduli (GPa) = 52.67853 65.76156 111.78828
#
# Poissons Ratio (x) = 0.34121 0.38575
# Poissons Ratio (y) = 0.27333 0.42902
# Poissons Ratio (z) = 0.18178 0.25238
#
# Static dielectric constant tensor:
#      x y z
#    x 3.334740 0.000000 0.000000 
#    y 0.000000 3.720590 0.000000 
#    z 0.000000 0.000000 3.724070 
# 
# 
# High freq. dielectric constant tensor:
#      x y z
#    x 1.713530 0.000000 0.000000 
#    y 0.000000 1.677490 0.000000 
#    z 0.000000 0.000000 1.698340 
# 
# From -- ./inp_files/2559.got.cif
#   From: 2010.03.12/outbox.cif.g09.slc.cpg/sg28_2_cif.got.tgz:2559.got - 2010.04.14 03:39:34.
