data_PCOD8168729
_publ_section_title
;
Structure prediction by ZEFSAII (Michael W. Deem and Ramdas Pophale) SiO2 
 PCOD8168729
Probable space group: P C A 21
;
_chemical_formula_sum "Si O2"
_cell_formula_units_Z 32
_cell_length_a 21.661110
_cell_length_b 6.559875
_cell_length_c 10.508752
_cell_angle_alpha 90.000000
_cell_angle_beta 90.000000
_cell_angle_gamma 90.000000
_cell_volume 1493.232435
_symmetry_space_group_name_H-M "P C A 21"
_symmetry_group_IT_number 29
_symmetry_cell_setting 'orthorhombic'
loop_
_space_group_symop_operation_xyz
x,y,z
-x,-y,1/2+z
1/2-x,y,1/2+z
1/2+x,-y,z
loop_
_atom_site_type_symbol
_atom_site_label
_atom_site_fract_x
_atom_site_fract_y
_atom_site_fract_z
Si Si1 0.953952 0.109890 0.123180
Si Si2 0.653596 0.149044 0.233505
Si Si3 0.642851 0.436668 0.997817
Si Si4 0.774482 0.142629 0.363752
Si Si5 0.064017 0.488547 0.778169
Si Si6 0.844114 0.843839 0.180824
Si Si7 0.977124 0.143596 0.836820
Si Si8 0.216704 0.176816 0.077513
O O1 0.938246 0.340863 0.167722
O O2 0.893974 0.967923 0.095111
O O3 0.992144 0.112228 0.988756
O O4 0.992876 0.024475 0.243556
O O5 0.711486 0.238181 0.309349
O O6 0.596286 0.127797 0.327461
O O7 0.676966 0.926404 0.189743
O O8 0.633289 0.300384 0.121798
O O9 0.692380 0.346780 0.902586
O O10 0.577844 0.432101 0.921648
O O11 0.669045 0.659400 0.025932
O O12 0.818283 0.021163 0.269447
O O13 0.762020 0.997964 0.481940
O O14 0.120691 0.335479 0.752255
O O15 0.999873 0.365088 0.788003
O O16 0.784215 0.735864 0.116397
#
# Coordination Sequence:
#
# PCOD8168729 Si02
#       8
#     4   4   4   4   4   4   4   4
#     4  11  26  47  71  95 138 179 230 287 335 408
#     4  10  25  40  64  99 135 173 225 278 334 404
#     4  11  23  38  68  97 133 174 220 277 340 403
#     4  10  20  40  62  97 133 173 215 274 339 402
#     4  11  25  41  71  94 133 177 229 279 340 401
#     4  10  21  40  63  97 129 176 220 269 340 399
#     4  11  28  45  70 100 133 185 231 281 340 402
#     4  10  22  37  67  97 136 171 216 277 336 407
#
# _framework density 21.430019000000001
#
# number of rings (size 3 to 8) (size 9 to 14) (size 15 to 20)
#    0.000    1.500    2.500    0.750    7.000    3.000 
#    0.000    0.000    0.000    0.000    0.000    0.000 
#    0.000    0.000    0.000    0.000    0.000    0.000 
#
# Total GULP energy -396517.990095 kJ/mol
# GULP energy per Si atom -12391.187190 kJ/mol
# Density = 2.138124 g / cm^3
# Si number density = 21.430019 Si / 1000 Ang^3
#
#
#
# Elastic Constant Matrix: (Units=GPa)
#
#
# Indices 1 2 3 4 5 6 
#
# 1 84.0204 26.9672 45.2496 0.0000 0.0000 0.0000
# 2 26.9672 61.2602 12.4196 0.0000 0.0000 0.0000
# 3 45.2496 12.4196 76.8841 0.0000 0.0000 0.0000
# 4 0.0000 0.0000 0.0000 20.7839 0.0000 0.0000
# 5 0.0000 0.0000 0.0000 0.0000 40.5950 0.0000
# 6 0.0000 0.0000 0.0000 0.0000 0.0000 19.8538
#
#
#
# Elastic Compliance Matrix: (Units=1/GPa)
#
#
# Indices 1 2 3 4 5 6 
#
# 1 0.019659 -0.006522 -0.010517 0.000000 0.000000 0.000000
# 2 -0.006522 0.019040 0.000763 0.000000 0.000000 0.000000
# 3 -0.010517 0.000763 0.019073 0.000000 0.000000 0.000000
# 4 0.000000 0.000000 0.000000 0.048114 0.000000 0.000000
# 5 0.000000 0.000000 0.000000 0.000000 0.024634 0.000000
# 6 0.000000 0.000000 0.000000 0.000000 0.000000 0.050368
#
#
# Mechanical properties :
#
#
# Convention : Reuss Voigt Hill
#
# Bulk Modulus (GPa) = 39.65041 43.49303 41.57172
# Shear Modulus (GPa) = 22.53814 25.41509 23.97662
#
# Velocity S-wave (km/s) = 3.24652 3.44751 3.34853
# Velocity P-wave (km/s) = 5.70926 6.01552 5.86439
#
# Compressibility (1/GPa) = 0.02522042
#
# Stress axis : x y z
#
# Youngs Moduli (GPa) = 50.86756 52.52056 52.43058
#
# Poissons Ratio (x) = 0.34253 0.55139
# Poissons Ratio (y) = 0.33175 -0.03999
# Poissons Ratio (z) = 0.53495 -0.04006
#
# Static dielectric constant tensor:
#      x y z
#    x 3.916570 0.000000 0.000000 
#    y 0.000000 3.810640 0.000000 
#    z 0.000000 0.000000 4.025700 
# 
# 
# High freq. dielectric constant tensor:
#      x y z
#    x 1.845370 0.000000 0.000000 
#    y 0.000000 1.838630 0.000000 
#    z 0.000000 0.000000 1.842360 
# 
# From -- ./inp_files/3818.got.cif
#   From: 2010.03.12/outbox.cif.g09.slc.cpg/sg29_2_cif.got.tgz:3818.got - 2010.04.14 03:43:10.
