data_PCOD8168391
_publ_section_title
;
Structure prediction by ZEFSAII (Michael W. Deem and Ramdas Pophale) SiO2 
 PCOD8168391
Probable space group: P M A 2
;
_chemical_formula_sum "Si O2"
_cell_formula_units_Z 20
_cell_length_a 16.844817
_cell_length_b 5.063664
_cell_length_c 11.312248
_cell_angle_alpha 90.000000
_cell_angle_beta 90.000000
_cell_angle_gamma 90.000000
_cell_volume 964.895087
_symmetry_space_group_name_H-M "P M A 2"
_symmetry_group_IT_number 28
_symmetry_cell_setting 'orthorhombic'
loop_
_space_group_symop_operation_xyz
x,y,z
-x,-y,z
1/2-x,y,z
1/2+x,-y,z
loop_
_atom_site_type_symbol
_atom_site_label
_atom_site_fract_x
_atom_site_fract_y
_atom_site_fract_z
Si Si1 0.657721 0.882166 0.754450
Si Si2 0.053741 0.742530 0.127706
Si Si3 0.412568 0.603215 0.866885
Si Si4 0.155827 0.273126 0.496577
Si Si5 0.655896 0.227691 0.354186
O O1 0.750000 0.962325 0.748455
O O2 0.646437 0.643931 0.847393
O O3 0.624570 0.773452 0.629276
O O4 0.609026 0.144911 0.786884
O O5 0.123186 0.768431 0.222226
O O6 0.000000 0.500000 0.167659
O O7 0.095323 0.688982 0.002548
O O8 0.000000 0.000000 0.117755
O O9 0.500000 0.500000 0.834470
O O10 0.250000 0.283088 0.501116
O O11 0.122293 0.540878 0.438840
O O12 0.125566 0.039792 0.413149
O O13 0.750000 0.245984 0.344134
#
# Coordination Sequence:
#
# PCOD8168391 Si02
#       5
#     4   4   4   4   4
#     4  11  22  39  64  90 118 155 202 247 293 359
#     4  11  23  41  60  81 117 157 191 237 297 349
#     4  11  23  41  60  85 122 161 196 243 306 358
#     4   9  19  36  58  86 119 150 182 236 300 342
#     4  10  20  37  61  86 113 149 194 237 283 346
#
# _framework density 20.727640000000001
#
# number of rings (size 3 to 8) (size 9 to 14) (size 15 to 20)
#    0.000    1.600    0.000    6.000    0.000    4.800 
#    0.000   12.000    0.000    0.000    0.000    0.000 
#    0.000    0.000    0.000    0.000    0.000    0.000 
#
# Total GULP energy -248042.726242 kJ/mol
# GULP energy per Si atom -12402.136312 kJ/mol
# Density = 2.068046 g / cm^3
# Si number density = 20.727640 Si / 1000 Ang^3
#
#
#
# Elastic Constant Matrix: (Units=GPa)
#
#
# Indices 1 2 3 4 5 6 
#
# 1 43.5927 22.0302 45.9283 0.0000 0.0000 0.0000
# 2 22.0302 117.6701 29.7147 0.0000 0.0000 0.0000
# 3 45.9283 29.7147 117.5787 0.0000 0.0000 0.0000
# 4 0.0000 0.0000 0.0000 41.0165 0.0000 0.0000
# 5 0.0000 0.0000 0.0000 0.0000 30.4665 0.0000
# 6 0.0000 0.0000 0.0000 0.0000 0.0000 32.2540
#
#
#
# Elastic Compliance Matrix: (Units=1/GPa)
#
#
# Indices 1 2 3 4 5 6 
#
# 1 0.040542 -0.003836 -0.014867 0.000000 0.000000 0.000000
# 2 -0.003836 0.009441 -0.000887 0.000000 0.000000 0.000000
# 3 -0.014867 -0.000887 0.014536 0.000000 0.000000 0.000000
# 4 0.000000 0.000000 0.000000 0.024380 0.000000 0.000000
# 5 0.000000 0.000000 0.000000 0.000000 0.032823 0.000000
# 6 0.000000 0.000000 0.000000 0.000000 0.000000 0.031004
#
#
# Mechanical properties :
#
#
# Convention : Reuss Voigt Hill
#
# Bulk Modulus (GPa) = 39.46613 52.68753 46.07683
# Shear Modulus (GPa) = 24.95603 32.82527 28.89065
#
# Velocity S-wave (km/s) = 3.47363 3.98382 3.73744
# Velocity P-wave (km/s) = 5.93042 6.82900 6.39551
#
# Compressibility (1/GPa) = 0.02533819
#
# Stress axis : x y z
#
# Youngs Moduli (GPa) = 24.66606 105.92539 68.79257
#
# Poissons Ratio (x) = 0.40632 1.02273
# Poissons Ratio (y) = 0.09462 0.06105
# Poissons Ratio (z) = 0.36671 0.09400
#
# Static dielectric constant tensor:
#      x y z
#    x 3.475330 0.000000 0.000000 
#    y 0.000000 4.092860 0.000000 
#    z 0.000000 0.000000 3.858340 
# 
# 
# High freq. dielectric constant tensor:
#      x y z
#    x 1.786890 0.000000 0.000000 
#    y 0.000000 1.835500 0.000000 
#    z 0.000000 0.000000 1.821350 
# 
# From -- ./inp_files/5441.got.cif
#   From: 2010.03.12/outbox.cif.g09.slc.cpg/sg28_3_cif.got.tgz:5441.got - 2010.04.14 03:39:34.
