data_PCOD8168675
_publ_section_title
;
Structure prediction by ZEFSAII (Michael W. Deem and Ramdas Pophale) SiO2 
 PCOD8168675
Probable space group: P C A 21
;
_chemical_formula_sum "Si O2"
_cell_formula_units_Z 32
_cell_length_a 29.669155
_cell_length_b 9.877888
_cell_length_c 5.370189
_cell_angle_alpha 90.000000
_cell_angle_beta 90.000000
_cell_angle_gamma 90.000000
_cell_volume 1573.833719
_symmetry_space_group_name_H-M "P C A 21"
_symmetry_group_IT_number 29
_symmetry_cell_setting 'orthorhombic'
loop_
_space_group_symop_operation_xyz
x,y,z
-x,-y,1/2+z
1/2-x,y,1/2+z
1/2+x,-y,z
loop_
_atom_site_type_symbol
_atom_site_label
_atom_site_fract_x
_atom_site_fract_y
_atom_site_fract_z
Si Si1 0.424366 0.094481 0.053200
Si Si2 0.126097 0.747047 0.192857
Si Si3 0.271421 0.748148 0.726612
Si Si4 0.454364 0.806171 0.060415
Si Si5 0.228667 0.064270 0.160852
Si Si6 0.872815 0.958862 0.544494
Si Si7 0.940658 0.420753 0.445476
Si Si8 0.477737 0.330137 0.223263
O O1 0.389902 0.108262 0.287225
O O2 0.454054 0.230749 0.026028
O O3 0.401571 0.081423 0.785377
O O4 0.456331 0.966144 0.115946
O O5 0.176311 0.718323 0.287795
O O6 0.092175 0.776616 0.417104
O O7 0.126860 0.877726 0.009237
O O8 0.108362 0.609268 0.061912
O O9 0.256042 0.683762 0.460818
O O10 0.260960 0.906112 0.696795
O O11 0.501208 0.769776 0.927304
O O12 0.453481 0.716595 0.304583
O O13 0.242551 0.127741 0.429799
O O14 0.177021 0.094979 0.098366
O O15 0.938616 0.564991 0.309504
O O16 0.981991 0.430076 0.639338
#
# Coordination Sequence:
#
# PCOD8168675 Si02
#       8
#     4   4   4   4   4   4   4   4
#     4  11  24  37  58  84 116 155 190 246 292 346
#     4   9  20  34  56  82 114 157 186 233 298 346
#     4   9  18  29  50  82 116 144 182 232 285 344
#     4  10  22  37  57  79 116 152 193 237 296 343
#     4   9  16  28  50  79 113 148 179 228 290 349
#     4  10  20  36  54  85 119 148 192 238 294 351
#     4  11  21  40  55  82 114 155 195 244 286 346
#     4  11  25  37  60  83 114 155 207 244 291 345
#
# _framework density 20.332515000000001
#
# number of rings (size 3 to 8) (size 9 to 14) (size 15 to 20)
#    0.000    2.000    2.500    0.750    5.250    3.000 
#    0.000    0.000    0.000    0.000    0.000    5.250 
#    0.000    0.000    0.000    0.000    0.000    0.000 
#
# Total GULP energy -396523.575499 kJ/mol
# GULP energy per Si atom -12391.361734 kJ/mol
# Density = 2.028624 g / cm^3
# Si number density = 20.332515 Si / 1000 Ang^3
#
#
#
# Elastic Constant Matrix: (Units=GPa)
#
#
# Indices 1 2 3 4 5 6 
#
# 1 74.4794 21.0918 12.6717 0.0000 0.0000 0.0000
# 2 21.0918 75.3880 6.4596 0.0000 0.0000 0.0000
# 3 12.6717 6.4596 87.2563 0.0000 0.0000 0.0000
# 4 0.0000 0.0000 0.0000 20.6420 0.0000 0.0000
# 5 0.0000 0.0000 0.0000 0.0000 27.5269 0.0000
# 6 0.0000 0.0000 0.0000 0.0000 0.0000 12.2923
#
#
#
# Elastic Compliance Matrix: (Units=1/GPa)
#
#
# Indices 1 2 3 4 5 6 
#
# 1 0.014877 -0.004003 -0.001864 0.000000 0.000000 0.000000
# 2 -0.004003 0.014426 -0.000487 0.000000 0.000000 0.000000
# 3 -0.001864 -0.000487 0.011767 0.000000 0.000000 0.000000
# 4 0.000000 0.000000 0.000000 0.048445 0.000000 0.000000
# 5 0.000000 0.000000 0.000000 0.000000 0.036328 0.000000
# 6 0.000000 0.000000 0.000000 0.000000 0.000000 0.081352
#
#
# Mechanical properties :
#
#
# Convention : Reuss Voigt Hill
#
# Bulk Modulus (GPa) = 35.25630 35.28553 35.27092
# Shear Modulus (GPa) = 21.80008 25.21895 23.50952
#
# Velocity S-wave (km/s) = 3.27797 3.52565 3.40406
# Velocity P-wave (km/s) = 5.63065 5.82799 5.73017
#
# Compressibility (1/GPa) = 0.02836372
#
# Stress axis : x y z
#
# Youngs Moduli (GPa) = 67.21708 69.31814 84.98162
#
# Poissons Ratio (x) = 0.27745 0.15842
# Poissons Ratio (y) = 0.26904 0.04136
# Poissons Ratio (z) = 0.12531 0.03374
#
# Static dielectric constant tensor:
#      x y z
#    x 3.710850 0.000000 0.000000 
#    y 0.000000 3.316180 0.000000 
#    z 0.000000 0.000000 3.826620 
# 
# 
# High freq. dielectric constant tensor:
#      x y z
#    x 1.791190 0.000000 0.000000 
#    y 0.000000 1.743520 0.000000 
#    z 0.000000 0.000000 1.802580 
# 
# From -- ./inp_files/892.got.cif
#   From: 2010.03.12/outbox.cif.g09.slc.cpg/sg29_1_cif.got.tgz:892.got - 2010.04.14 03:43:10.
