data_PCOD8168381
_publ_section_title
;
Structure prediction by ZEFSAII (Michael W. Deem and Ramdas Pophale) SiO2 
 PCOD8168381
Probable space group: P M A 2
;
_chemical_formula_sum "Si O2"
_cell_formula_units_Z 28
_cell_length_a 8.667626
_cell_length_b 9.778128
_cell_length_c 17.290846
_cell_angle_alpha 90.000000
_cell_angle_beta 90.000000
_cell_angle_gamma 90.000000
_cell_volume 1465.453777
_symmetry_space_group_name_H-M "P M A 2"
_symmetry_group_IT_number 28
_symmetry_cell_setting 'orthorhombic'
loop_
_space_group_symop_operation_xyz
x,y,z
-x,-y,z
1/2-x,y,z
1/2+x,-y,z
loop_
_atom_site_type_symbol
_atom_site_label
_atom_site_fract_x
_atom_site_fract_y
_atom_site_fract_z
Si Si1 0.069079 0.142661 0.747080
Si Si2 0.571382 0.143930 0.500500
Si Si3 0.067629 0.349206 0.617586
Si Si4 0.932255 0.648537 0.203806
Si Si5 0.570852 0.143153 0.319520
Si Si6 0.067306 0.144543 0.923487
Si Si7 0.567148 0.350566 0.044200
O O1 0.250000 0.127088 0.740425
O O2 0.009576 0.266065 0.693158
O O3 0.018767 0.173479 0.834911
O O4 0.000000 0.000000 0.717124
O O5 0.750000 0.142526 0.522719
O O6 0.488899 0.270576 0.541544
O O7 0.544298 0.166420 0.409981
O O8 0.500000 0.000000 0.528054
O O9 0.250000 0.360523 0.614978
O O10 0.000000 0.500000 0.620622
O O11 0.750000 0.639141 0.195236
O O12 0.000000 0.500000 0.219797
O O13 0.977563 0.740134 0.276140
O O14 0.002710 0.710760 0.124715
O O15 0.750000 0.147979 0.296985
O O16 0.500000 0.000000 0.292535
O O17 0.250000 0.146719 0.935547
O O18 0.000000 0.000000 0.951008
O O19 0.986870 0.259986 0.973230
O O20 0.500000 0.500000 0.030402
O O21 0.750000 0.357016 0.047837
#
# Coordination Sequence:
#
# PCOD8168381 Si02
#       7
#     4   4   4   4   4   4   4
#     4   9  20  37  58  82 110 145 184 227 276 331
#     4  10  21  38  60  84 112 147 185 227 276 331
#     4  11  23  38  56  82 114 148 187 231 278 327
#     4  11  22  38  59  83 112 148 187 228 276 330
#     4  10  21  38  59  85 114 145 184 229 277 328
#     4  10  20  37  58  84 114 145 185 230 277 328
#     4  11  22  38  58  82 112 148 187 228 277 331
#
# _framework density 19.106711000000001
#
# number of rings (size 3 to 8) (size 9 to 14) (size 15 to 20)
#    0.000    1.714    0.000    5.571    0.000    6.286 
#    0.000    4.286    0.000    0.000    0.000    0.000 
#    0.000    0.000    0.000    0.000    0.000    0.000 
#
# Total GULP energy -347319.461854 kJ/mol
# GULP energy per Si atom -12404.266495 kJ/mol
# Density = 1.906322 g / cm^3
# Si number density = 19.106711 Si / 1000 Ang^3
#
#
#
# Elastic Constant Matrix: (Units=GPa)
#
#
# Indices 1 2 3 4 5 6 
#
# 1 130.8207 60.7112 51.9972 0.0000 0.0000 0.0000
# 2 60.7112 137.5088 72.2575 0.0000 0.0000 0.0000
# 3 51.9972 72.2575 89.3194 0.0000 0.0000 0.0000
# 4 0.0000 0.0000 0.0000 51.0386 0.0000 0.0000
# 5 0.0000 0.0000 0.0000 0.0000 11.3446 0.0000
# 6 0.0000 0.0000 0.0000 0.0000 0.0000 39.6254
#
#
#
# Elastic Compliance Matrix: (Units=1/GPa)
#
#
# Indices 1 2 3 4 5 6 
#
# 1 0.010400 -0.002453 -0.004070 0.000000 0.000000 0.000000
# 2 -0.002453 0.013228 -0.009273 0.000000 0.000000 0.000000
# 3 -0.004070 -0.009273 0.021067 0.000000 0.000000 0.000000
# 4 0.000000 0.000000 0.000000 0.019593 0.000000 0.000000
# 5 0.000000 0.000000 0.000000 0.000000 0.088147 0.000000
# 6 0.000000 0.000000 0.000000 0.000000 0.000000 0.025236
#
#
# Mechanical properties :
#
#
# Convention : Reuss Voigt Hill
#
# Bulk Modulus (GPa) = 76.32005 80.84230 78.58117
# Shear Modulus (GPa) = 23.40472 31.91392 27.65932
#
# Velocity S-wave (km/s) = 3.50372 4.09136 3.80889
# Velocity P-wave (km/s) = 7.50992 8.04499 7.78205
#
# Compressibility (1/GPa) = 0.01310272
#
# Stress axis : x y z
#
# Youngs Moduli (GPa) = 96.15233 75.59609 47.46770
#
# Poissons Ratio (x) = 0.18544 0.19319
# Poissons Ratio (y) = 0.23587 0.44018
# Poissons Ratio (z) = 0.39133 0.70102
#
# Static dielectric constant tensor:
#      x y z
#    x 3.631060 0.000000 0.000000 
#    y 0.000000 3.531690 0.000000 
#    z 0.000000 0.000000 3.668240 
# 
# 
# High freq. dielectric constant tensor:
#      x y z
#    x 1.759850 0.000000 0.000000 
#    y 0.000000 1.743940 0.000000 
#    z 0.000000 0.000000 1.750800 
# 
# From -- ./inp_files/6762.got.cif
#   From: 2010.03.12/outbox.cif.g09.slc.cpg/sg28_4_cif.got.tgz:6762.got - 2010.04.14 03:39:34.
