data_PCOD8168307
_publ_section_title
;
Structure prediction by ZEFSAII (Michael W. Deem and Ramdas Pophale) SiO2 
 PCOD8168307
Probable space group: P M A 2
;
_chemical_formula_sum "Si O2"
_cell_formula_units_Z 32
_cell_length_a 8.844207
_cell_length_b 23.803693
_cell_length_c 7.796030
_cell_angle_alpha 90.000000
_cell_angle_beta 90.000000
_cell_angle_gamma 90.000000
_cell_volume 1641.257565
_symmetry_space_group_name_H-M "P M A 2"
_symmetry_group_IT_number 28
_symmetry_cell_setting 'orthorhombic'
loop_
_space_group_symop_operation_xyz
x,y,z
-x,-y,z
1/2-x,y,z
1/2+x,-y,z
loop_
_atom_site_type_symbol
_atom_site_label
_atom_site_fract_x
_atom_site_fract_y
_atom_site_fract_z
Si Si1 0.927971 0.627897 0.161650
Si Si2 0.426444 0.244074 0.159101
Si Si3 0.428977 0.633431 0.525908
Si Si4 0.070665 0.560666 0.852698
Si Si5 0.926859 0.139968 0.030493
Si Si6 0.929479 0.060115 0.337208
Si Si7 0.071690 0.758286 0.515536
Si Si8 0.926936 0.127789 0.657550
O O1 0.750000 0.616112 0.159791
O O2 0.966868 0.691982 0.108291
O O3 0.989750 0.613426 0.351451
O O4 0.008680 0.588379 0.025225
O O5 0.250000 0.237509 0.188778
O O6 0.485827 0.199554 0.019814
O O7 0.512022 0.226166 0.329568
O O8 0.250000 0.630534 0.494878
O O9 0.480144 0.595210 0.684603
O O10 0.485034 0.696626 0.573653
O O11 0.250000 0.556798 0.866743
O O12 0.000000 0.500000 0.831314
O O13 0.750000 0.153345 0.046224
O O14 0.984383 0.100737 0.184008
O O15 0.963171 0.107915 0.850876
O O16 0.750000 0.054140 0.336928
O O17 0.995391 0.085094 0.516495
O O18 0.000000 0.000000 0.304075
O O19 0.250000 0.757330 0.506839
O O20 0.011586 0.808095 0.638131
O O21 0.750000 0.129174 0.619729
#
# Coordination Sequence:
#
# PCOD8168307 Si02
#       8
#     4   4   4   4   4   4   4   4
#     4  10  22  39  59  86 122 161 195 238 293 350
#     4  10  20  34  54  85 121 151 185 230 287 343
#     4   9  20  37  60  89 116 150 197 244 292 347
#     4  11  24  41  62  88 118 155 200 245 290 348
#     4  10  20  35  58  82 110 148 188 233 280 335
#     4  10  21  38  56  79 109 148 190 232 280 333
#     4   9  16  33  58  83 112 145 186 234 282 338
#     4   9  18  33  56  84 108 139 187 231 276 332
#
# _framework density 19.497243999999998
#
# number of rings (size 3 to 8) (size 9 to 14) (size 15 to 20)
#    0.000    2.250    1.250    1.125    1.750    4.000 
#    0.000    2.500    0.000    0.000    0.000    0.000 
#    0.000    0.000    0.000    0.000    0.000    0.000 
#
# Total GULP energy -396696.401532 kJ/mol
# GULP energy per Si atom -12396.762548 kJ/mol
# Density = 1.945287 g / cm^3
# Si number density = 19.497244 Si / 1000 Ang^3
#
#
#
# Elastic Constant Matrix: (Units=GPa)
#
#
# Indices 1 2 3 4 5 6 
#
# 1 64.7876 23.0661 36.9458 0.0000 0.0000 0.0000
# 2 23.0661 113.1043 53.2537 0.0000 0.0000 0.0000
# 3 36.9458 53.2537 120.3408 0.0000 0.0000 0.0000
# 4 0.0000 0.0000 0.0000 27.1509 0.0000 0.0000
# 5 0.0000 0.0000 0.0000 0.0000 11.6769 0.0000
# 6 0.0000 0.0000 0.0000 0.0000 0.0000 29.4992
#
#
#
# Elastic Compliance Matrix: (Units=1/GPa)
#
#
# Indices 1 2 3 4 5 6 
#
# 1 0.018889 -0.001417 -0.005172 0.000000 0.000000 0.000000
# 2 -0.001417 0.011275 -0.004554 0.000000 0.000000 0.000000
# 3 -0.005172 -0.004554 0.011913 0.000000 0.000000 0.000000
# 4 0.000000 0.000000 0.000000 0.036831 0.000000 0.000000
# 5 0.000000 0.000000 0.000000 0.000000 0.085639 0.000000
# 6 0.000000 0.000000 0.000000 0.000000 0.000000 0.033899
#
#
# Mechanical properties :
#
#
# Convention : Reuss Voigt Hill
#
# Bulk Modulus (GPa) = 50.53053 58.30709 54.41881
# Shear Modulus (GPa) = 21.99451 25.99654 23.99552
#
# Velocity S-wave (km/s) = 3.36234 3.65546 3.51196
# Velocity P-wave (km/s) = 6.40678 6.91280 6.66459
#
# Compressibility (1/GPa) = 0.01979002
#
# Stress axis : x y z
#
# Youngs Moduli (GPa) = 52.94100 88.69407 83.94190
#
# Poissons Ratio (x) = 0.12568 0.43415
# Poissons Ratio (y) = 0.07501 0.38230
# Poissons Ratio (z) = 0.27381 0.40394
#
# Static dielectric constant tensor:
#      x y z
#    x 3.347270 0.000000 0.000000 
#    y 0.000000 3.989320 0.000000 
#    z 0.000000 0.000000 3.575460 
# 
# 
# High freq. dielectric constant tensor:
#      x y z
#    x 1.739540 0.000000 0.000000 
#    y 0.000000 1.760840 0.000000 
#    z 0.000000 0.000000 1.764530 
# 
# From -- ./inp_files/2744.got.cif
#   From: 2010.03.12/outbox.cif.g09.slc.cpg/sg28_2_cif.got.tgz:2744.got - 2010.04.14 03:39:34.
