data_PCOD8168774
_publ_section_title
;
Structure prediction by ZEFSAII (Michael W. Deem and Ramdas Pophale) SiO2 
 PCOD8168774
Probable space group: P C A 21
;
_chemical_formula_sum "Si O2"
_cell_formula_units_Z 32
_cell_length_a 28.721666
_cell_length_b 5.337048
_cell_length_c 9.255364
_cell_angle_alpha 90.000000
_cell_angle_beta 90.000000
_cell_angle_gamma 90.000000
_cell_volume 1418.744660
_symmetry_space_group_name_H-M "P C A 21"
_symmetry_group_IT_number 29
_symmetry_cell_setting 'orthorhombic'
loop_
_space_group_symop_operation_xyz
x,y,z
-x,-y,1/2+z
1/2-x,y,1/2+z
1/2+x,-y,z
loop_
_atom_site_type_symbol
_atom_site_label
_atom_site_fract_x
_atom_site_fract_y
_atom_site_fract_z
Si Si1 0.421730 0.428090 0.304630
Si Si2 0.212067 0.741052 0.589275
Si Si3 0.138886 0.241482 0.286470
Si Si4 0.194459 0.744054 0.258258
Si Si5 0.343520 0.237992 0.118926
Si Si6 0.018813 0.859441 0.307384
Si Si7 0.935128 0.504961 0.617896
Si Si8 0.026190 0.752422 0.615891
O O1 0.383601 0.237417 0.241359
O O2 0.472256 0.305380 0.310884
O O3 0.407552 0.527589 0.464935
O O4 0.425793 0.654591 0.187112
O O5 0.215789 0.751602 0.417404
O O6 0.264415 0.748541 0.643845
O O7 0.185439 0.986140 0.648203
O O8 0.187865 0.485106 0.642273
O O9 0.162838 0.988555 0.229616
O O10 0.133825 0.237818 0.459613
O O11 0.088209 0.268295 0.211017
O O12 0.166056 0.489296 0.233172
O O13 0.037932 0.908769 0.470899
O O14 0.062655 0.741226 0.219533
O O15 0.004145 0.116530 0.238419
O O16 0.989219 0.538950 0.571482
#
# Coordination Sequence:
#
# PCOD8168774 Si02
#       8
#     4   4   4   4   4   4   4   4
#     4  10  22  38  56  85 117 154 203 249 298 355
#     4  10  22  40  62  88 119 154 197 244 303 362
#     4  10  22  39  60  89 121 157 198 246 300 360
#     4  10  22  40  62  88 119 154 197 244 303 362
#     4  10  22  39  60  89 121 157 198 246 300 360
#     4  10  21  37  58  83 117 157 199 248 300 355
#     4  10  22  38  56  85 117 154 203 249 298 355
#     4  10  21  37  58  83 117 157 199 248 300 355
#
# _framework density 22.555153000000001
#
# number of rings (size 3 to 8) (size 9 to 14) (size 15 to 20)
#    0.000    2.000    0.000    2.250    3.500    5.000 
#    0.000    0.000    0.000    0.000    0.000    0.000 
#    0.000    0.000    0.000    0.000    0.000    0.000 
#
# Total GULP energy -396597.140855 kJ/mol
# GULP energy per Si atom -12393.660652 kJ/mol
# Density = 2.250382 g / cm^3
# Si number density = 22.555153 Si / 1000 Ang^3
#
#
#
# Elastic Constant Matrix: (Units=GPa)
#
#
# Indices 1 2 3 4 5 6 
#
# 1 61.0157 12.5730 14.2449 0.0000 0.0000 0.0000
# 2 12.5730 97.3698 2.0085 0.0000 0.0000 0.0000
# 3 14.2449 2.0085 76.2632 0.0000 0.0000 0.0000
# 4 0.0000 0.0000 0.0000 21.1779 0.0000 0.0000
# 5 0.0000 0.0000 0.0000 0.0000 38.4624 0.0000
# 6 0.0000 0.0000 0.0000 0.0000 0.0000 27.7440
#
#
#
# Elastic Compliance Matrix: (Units=1/GPa)
#
#
# Indices 1 2 3 4 5 6 
#
# 1 0.017598 -0.002206 -0.003229 0.000000 0.000000 0.000000
# 2 -0.002206 0.010552 0.000134 0.000000 0.000000 0.000000
# 3 -0.003229 0.000134 0.013712 0.000000 0.000000 0.000000
# 4 0.000000 0.000000 0.000000 0.047219 0.000000 0.000000
# 5 0.000000 0.000000 0.000000 0.000000 0.025999 0.000000
# 6 0.000000 0.000000 0.000000 0.000000 0.000000 0.036044
#
#
# Mechanical properties :
#
#
# Convention : Reuss Voigt Hill
#
# Bulk Modulus (GPa) = 31.98896 32.47795 32.23345
# Shear Modulus (GPa) = 29.04522 31.19835 30.12179
#
# Velocity S-wave (km/s) = 3.59241 3.72318 3.65838
# Velocity P-wave (km/s) = 5.60540 5.73702 5.67159
#
# Compressibility (1/GPa) = 0.03126079
#
# Stress axis : x y z
#
# Youngs Moduli (GPa) = 56.82609 94.76720 72.92847
#
# Poissons Ratio (x) = 0.20903 0.23548
# Poissons Ratio (y) = 0.12534 -0.00978
# Poissons Ratio (z) = 0.18348 -0.01271
#
# Static dielectric constant tensor:
#      x y z
#    x 3.863660 0.000000 0.000000 
#    y 0.000000 4.106360 0.000000 
#    z 0.000000 0.000000 4.392390 
# 
# 
# High freq. dielectric constant tensor:
#      x y z
#    x 1.877050 0.000000 0.000000 
#    y 0.000000 1.888360 0.000000 
#    z 0.000000 0.000000 1.895250 
# 
# From -- ./inp_files/2592.got.cif
#   From: 2010.03.12/outbox.cif.g09.slc.cpg/sg29_2_cif.got.tgz:2592.got - 2010.04.14 03:43:10.
