data_PCOD8168415
_publ_section_title
;
Structure prediction by ZEFSAII (Michael W. Deem and Ramdas Pophale) SiO2 
 PCOD8168415
Probable space group: P M A 2
;
_chemical_formula_sum "Si O2"
_cell_formula_units_Z 28
_cell_length_a 8.722572
_cell_length_b 9.129302
_cell_length_c 18.482898
_cell_angle_alpha 90.000000
_cell_angle_beta 90.000000
_cell_angle_gamma 90.000000
_cell_volume 1471.811540
_symmetry_space_group_name_H-M "P M A 2"
_symmetry_group_IT_number 28
_symmetry_cell_setting 'orthorhombic'
loop_
_space_group_symop_operation_xyz
x,y,z
-x,-y,z
1/2-x,y,z
1/2+x,-y,z
loop_
_atom_site_type_symbol
_atom_site_label
_atom_site_fract_x
_atom_site_fract_y
_atom_site_fract_z
Si Si1 0.571228 0.342339 0.312380
Si Si2 0.069035 0.660375 0.156219
Si Si3 0.068469 0.661296 0.466725
Si Si4 0.068130 0.840734 0.020466
Si Si5 0.930320 0.340682 0.883115
Si Si6 0.568274 0.662257 0.611613
Si Si7 0.931819 0.159619 0.742698
O O1 0.500000 0.500000 0.312961
O O2 0.750000 0.368733 0.312744
O O3 0.523738 0.268471 0.235407
O O4 0.528752 0.259617 0.388604
O O5 0.250000 0.643654 0.148278
O O6 0.005433 0.768438 0.094638
O O7 0.000000 0.500000 0.145486
O O8 0.250000 0.656136 0.481078
O O9 0.000000 0.500000 0.462020
O O10 0.985850 0.736612 0.535377
O O11 0.250000 0.852759 0.020149
O O12 0.007856 0.743043 0.953888
O O13 0.000000 0.000000 0.012016
O O14 0.750000 0.357216 0.886929
O O15 0.981478 0.251959 0.812516
O O16 0.000000 0.500000 0.879360
O O17 0.500000 0.500000 0.621051
O O18 0.750000 0.652796 0.614918
O O19 0.506743 0.766603 0.673430
O O20 0.750000 0.151996 0.733010
O O21 0.000000 0.000000 0.753087
#
# Coordination Sequence:
#
# PCOD8168415 Si02
#       7
#     4   4   4   4   4   4   4
#     4   8  14  24  41  67  98 131 166 210 260 306
#     4   9  17  30  49  74 103 134 172 215 259 306
#     4   9  15  25  43  69 100 133 170 213 263 311
#     4  10  21  36  53  76 106 139 174 211 253 303
#     4  10  22  38  58  83 108 135 170 212 256 304
#     4  11  21  34  53  78 107 139 177 220 265 312
#     4  11  23  39  57  79 107 139 175 213 259 312
#
# _framework density 19.024175
#
# number of rings (size 3 to 8) (size 9 to 14) (size 15 to 20)
#    0.000    2.286    0.000    4.286    0.000    4.000 
#    0.000    0.000    0.000    0.857    0.000    2.000 
#    0.000    0.000    0.000    0.000    0.000    0.000 
#
# Total GULP energy -346909.800110 kJ/mol
# GULP energy per Si atom -12389.635718 kJ/mol
# Density = 1.898087 g / cm^3
# Si number density = 19.024175 Si / 1000 Ang^3
#
#
#
# Elastic Constant Matrix: (Units=GPa)
#
#
# Indices 1 2 3 4 5 6 
#
# 1 60.7157 36.3103 55.0468 0.0000 0.0000 0.0000
# 2 36.3103 111.6471 84.1593 0.0000 0.0000 0.0000
# 3 55.0468 84.1593 223.0540 0.0000 0.0000 0.0000
# 4 0.0000 0.0000 0.0000 5.6617 0.0000 0.0000
# 5 0.0000 0.0000 0.0000 0.0000 15.0391 0.0000
# 6 0.0000 0.0000 0.0000 0.0000 0.0000 27.0815
#
#
#
# Elastic Compliance Matrix: (Units=1/GPa)
#
#
# Indices 1 2 3 4 5 6 
#
# 1 0.022672 -0.004410 -0.003931 0.000000 0.000000 0.000000
# 2 -0.004410 0.013375 -0.003958 0.000000 0.000000 0.000000
# 3 -0.003931 -0.003958 0.006947 0.000000 0.000000 0.000000
# 4 0.000000 0.000000 0.000000 0.176624 0.000000 0.000000
# 5 0.000000 0.000000 0.000000 0.000000 0.066493 0.000000
# 6 0.000000 0.000000 0.000000 0.000000 0.000000 0.036926
#
#
# Mechanical properties :
#
#
# Convention : Reuss Voigt Hill
#
# Bulk Modulus (GPa) = 54.36361 82.93885 68.65123
# Shear Modulus (GPa) = 14.13363 24.21649 19.17506
#
# Velocity S-wave (km/s) = 2.72863 3.57169 3.17824
# Velocity P-wave (km/s) = 6.21010 7.79105 7.04506
#
# Compressibility (1/GPa) = 0.01839466
#
# Stress axis : x y z
#
# Youngs Moduli (GPa) = 44.10784 74.76903 143.95298
#
# Poissons Ratio (x) = 0.32974 0.56590
# Poissons Ratio (y) = 0.19452 0.56975
# Poissons Ratio (z) = 0.17339 0.29593
#
# Static dielectric constant tensor:
#      x y z
#    x 3.472290 0.000000 0.000000 
#    y 0.000000 3.095720 0.000000 
#    z 0.000000 0.000000 4.657780 
# 
# 
# High freq. dielectric constant tensor:
#      x y z
#    x 1.739930 0.000000 0.000000 
#    y 0.000000 1.694830 0.000000 
#    z 0.000000 0.000000 1.777940 
# 
# From -- ./inp_files/6719.got.cif
#   From: 2010.03.12/outbox.cif.g09.slc.cpg/sg28_4_cif.got.tgz:6719.got - 2010.04.14 03:39:34.
