data_PCOD8168813
_publ_section_title
;
Structure prediction by ZEFSAII (Michael W. Deem and Ramdas Pophale) SiO2 
 PCOD8168813
Probable space group: P C A 21
;
_chemical_formula_sum "Si O2"
_cell_formula_units_Z 32
_cell_length_a 28.017586
_cell_length_b 6.257276
_cell_length_c 8.694618
_cell_angle_alpha 90.000000
_cell_angle_beta 90.000000
_cell_angle_gamma 90.000000
_cell_volume 1524.286247
_symmetry_space_group_name_H-M "P C A 21"
_symmetry_group_IT_number 29
_symmetry_cell_setting 'orthorhombic'
loop_
_space_group_symop_operation_xyz
x,y,z
-x,-y,1/2+z
1/2-x,y,1/2+z
1/2+x,-y,z
loop_
_atom_site_type_symbol
_atom_site_label
_atom_site_fract_x
_atom_site_fract_y
_atom_site_fract_z
Si Si1 0.070076 0.548784 0.327370
Si Si2 0.871430 0.056848 0.814856
Si Si3 0.900520 0.780323 0.085589
Si Si4 0.485123 0.137047 0.316381
Si Si5 0.201586 0.255508 0.728013
Si Si6 0.052438 0.164236 0.142750
Si Si7 0.270816 0.854853 0.738366
Si Si8 0.259580 0.534236 0.485344
O O1 0.115158 0.696851 0.287569
O O2 0.087947 0.413984 0.472267
O O3 0.055790 0.416569 0.174210
O O4 0.022339 0.679749 0.364025
O O5 0.815605 0.005647 0.795198
O O6 0.895345 0.922284 0.680198
O O7 0.890335 0.990488 0.983827
O O8 0.947517 0.800863 0.187076
O O9 0.854669 0.749091 0.194100
O O10 0.457137 0.086566 0.471581
O O11 0.513422 0.928568 0.261668
O O12 0.225091 0.397526 0.594264
O O13 0.205471 0.368275 0.896291
O O14 0.225417 0.016651 0.729348
O O15 0.283121 0.733170 0.578321
O O16 0.268661 0.656821 0.853815
#
# Coordination Sequence:
#
# PCOD8168813 Si02
#       8
#     4   4   4   4   4   4   4   4
#     4  10  21  40  61  84 116 157 200 252 310 366
#     4  10  22  39  61  87 118 158 200 248 309 374
#     4  11  23  39  63  90 121 162 208 254 318 385
#     4  11  22  39  60  87 120 154 199 254 307 374
#     4  11  23  41  63  92 129 169 212 269 321 381
#     4  10  22  38  59  87 117 153 199 247 306 367
#     4  11  22  41  63  88 127 166 205 262 318 369
#     4  10  23  39  62  91 122 165 217 254 311 388
#
# _framework density 20.993431999999999
#
# number of rings (size 3 to 8) (size 9 to 14) (size 15 to 20)
#    0.000    1.500    0.000    6.000    0.000    8.000 
#    0.000    1.250    0.000    0.000    0.000    0.000 
#    0.000    0.000    0.000    0.000    0.000    0.000 
#
# Total GULP energy -396561.191571 kJ/mol
# GULP energy per Si atom -12392.537237 kJ/mol
# Density = 2.094565 g / cm^3
# Si number density = 20.993432 Si / 1000 Ang^3
#
#
#
# Elastic Constant Matrix: (Units=GPa)
#
#
# Indices 1 2 3 4 5 6 
#
# 1 96.8254 18.5226 3.0341 0.0000 0.0000 0.0000
# 2 18.5226 95.2192 20.0707 0.0000 0.0000 0.0000
# 3 3.0341 20.0707 79.4671 0.0000 0.0000 0.0000
# 4 0.0000 0.0000 0.0000 30.4471 0.0000 0.0000
# 5 0.0000 0.0000 0.0000 0.0000 35.0349 0.0000
# 6 0.0000 0.0000 0.0000 0.0000 0.0000 21.9688
#
#
#
# Elastic Compliance Matrix: (Units=1/GPa)
#
#
# Indices 1 2 3 4 5 6 
#
# 1 0.010728 -0.002113 0.000124 0.000000 0.000000 0.000000
# 2 -0.002113 0.011509 -0.002826 0.000000 0.000000 0.000000
# 3 0.000124 -0.002826 0.013293 0.000000 0.000000 0.000000
# 4 0.000000 0.000000 0.000000 0.032844 0.000000 0.000000
# 5 0.000000 0.000000 0.000000 0.000000 0.028543 0.000000
# 6 0.000000 0.000000 0.000000 0.000000 0.000000 0.045519
#
#
# Mechanical properties :
#
#
# Convention : Reuss Voigt Hill
#
# Bulk Modulus (GPa) = 38.61034 39.41849 39.01441
# Shear Modulus (GPa) = 31.11405 32.81578 31.96492
#
# Velocity S-wave (km/s) = 3.85396 3.95795 3.90630
# Velocity P-wave (km/s) = 6.18349 6.30115 6.24260
#
# Compressibility (1/GPa) = 0.02589980
#
# Stress axis : x y z
#
# Youngs Moduli (GPa) = 93.21223 86.88992 75.22836
#
# Poissons Ratio (x) = 0.18360 -0.00933
# Poissons Ratio (y) = 0.19696 0.21260
# Poissons Ratio (z) = -0.01157 0.24556
#
# Static dielectric constant tensor:
#      x y z
#    x 3.768390 0.000000 0.000000 
#    y 0.000000 3.961390 0.000000 
#    z 0.000000 0.000000 3.972690 
# 
# 
# High freq. dielectric constant tensor:
#      x y z
#    x 1.818690 0.000000 0.000000 
#    y 0.000000 1.829510 0.000000 
#    z 0.000000 0.000000 1.828510 
# 
# From -- ./inp_files/2589.got.cif
#   From: 2010.03.12/outbox.cif.g09.slc.cpg/sg29_2_cif.got.tgz:2589.got - 2010.04.14 03:43:10.
