data_PCOD8168296
_publ_section_title
;
Structure prediction by ZEFSAII (Michael W. Deem and Ramdas Pophale) SiO2 
 PCOD8168296
Probable space group: P M A 2
;
_chemical_formula_sum "Si O2"
_cell_formula_units_Z 32
_cell_length_a 9.691024
_cell_length_b 18.478804
_cell_length_c 9.735805
_cell_angle_alpha 90.000000
_cell_angle_beta 90.000000
_cell_angle_gamma 90.000000
_cell_volume 1743.473678
_symmetry_space_group_name_H-M "P M A 2"
_symmetry_group_IT_number 28
_symmetry_cell_setting 'orthorhombic'
loop_
_space_group_symop_operation_xyz
x,y,z
-x,-y,z
1/2-x,y,z
1/2+x,-y,z
loop_
_atom_site_type_symbol
_atom_site_label
_atom_site_fract_x
_atom_site_fract_y
_atom_site_fract_z
Si Si1 0.591330 0.336648 0.000000
Si Si2 0.589365 0.796235 0.427036
Si Si3 0.904666 0.434612 0.244610
Si Si4 0.590490 0.429951 0.743831
Si Si5 0.092714 0.665630 0.491863
Si Si6 0.091297 0.068115 0.612341
Si Si7 0.909551 0.930939 0.926287
Si Si8 0.588294 0.794002 0.108597
O O1 0.750000 0.311366 0.018566
O O2 0.560299 0.406974 0.092898
O O3 0.492664 0.271059 0.037917
O O4 0.559681 0.363814 0.847132
O O5 0.750000 0.777443 0.440545
O O6 0.506020 0.734114 0.505932
O O7 0.551546 0.869335 0.506203
O O8 0.545400 0.803500 0.267734
O O9 0.750000 0.464528 0.256543
O O10 0.927278 0.365305 0.340134
O O11 0.000000 0.500000 0.290046
O O12 0.500000 0.500000 0.776973
O O13 0.750000 0.453834 0.752349
O O14 0.550508 0.398314 0.595612
O O15 0.250000 0.690458 0.519662
O O16 0.250000 0.045423 0.595820
O O17 0.060906 0.092999 0.768954
O O18 0.000000 0.000000 0.570624
O O19 0.750000 0.951909 0.946465
O O20 0.952616 0.866416 0.027432
O O21 0.000000 0.000000 0.967479
O O22 0.750000 0.777242 0.094301
#
# Coordination Sequence:
#
# PCOD8168296 Si02
#       8
#     4   4   4   4   4   4   4   4
#     4  10  21  37  54  78 110 142 178 222 269 320
#     4  10  21  36  55  81 111 143 181 223 266 316
#     4  10  20  34  54  76 103 138 177 218 263 314
#     4  10  22  38  56  80 109 140 179 226 273 324
#     4  10  21  37  54  78 110 142 178 222 269 320
#     4   9  19  36  56  80 110 142 178 219 263 314
#     4   9  19  36  56  80 110 142 178 219 263 314
#     4  10  21  36  55  81 111 143 181 223 266 316
#
# _framework density 18.354164000000001
#
# number of rings (size 3 to 8) (size 9 to 14) (size 15 to 20)
#    0.000    2.250    1.250    0.750    1.750    3.500 
#    0.000    0.000    0.000    0.000    0.000    0.000 
#    0.000    0.000    0.000    0.000    0.000    0.000 
#
# Total GULP energy -396877.991196 kJ/mol
# GULP energy per Si atom -12402.437225 kJ/mol
# Density = 1.831239 g / cm^3
# Si number density = 18.354164 Si / 1000 Ang^3
#
#
#
# Elastic Constant Matrix: (Units=GPa)
#
#
# Indices 1 2 3 4 5 6 
#
# 1 78.9422 75.8038 37.4422 0.0000 0.0000 0.0000
# 2 75.8038 124.0262 43.6612 0.0000 0.0000 0.0000
# 3 37.4422 43.6612 76.9755 0.0000 0.0000 0.0000
# 4 0.0000 0.0000 0.0000 14.1071 0.0000 0.0000
# 5 0.0000 0.0000 0.0000 0.0000 23.9571 0.0000
# 6 0.0000 0.0000 0.0000 0.0000 0.0000 44.0615
#
#
#
# Elastic Compliance Matrix: (Units=1/GPa)
#
#
# Indices 1 2 3 4 5 6 
#
# 1 0.032538 -0.017887 -0.005681 0.000000 0.000000 0.000000
# 2 -0.017887 0.019907 -0.002591 0.000000 0.000000 0.000000
# 3 -0.005681 -0.002591 0.017224 0.000000 0.000000 0.000000
# 4 0.000000 0.000000 0.000000 0.070886 0.000000 0.000000
# 5 0.000000 0.000000 0.000000 0.000000 0.041741 0.000000
# 6 0.000000 0.000000 0.000000 0.000000 0.000000 0.022696
#
#
# Mechanical properties :
#
#
# Convention : Reuss Voigt Hill
#
# Bulk Modulus (GPa) = 57.63418 65.97316 61.80367
# Shear Modulus (GPa) = 19.00451 24.62758 21.81605
#
# Velocity S-wave (km/s) = 3.22131 3.66703 3.45137
# Velocity P-wave (km/s) = 6.73090 7.34520 7.04475
#
# Compressibility (1/GPa) = 0.01735081
#
# Stress axis : x y z
#
# Youngs Moduli (GPa) = 30.73329 50.23277 58.05730
#
# Poissons Ratio (x) = 0.89851 0.32985
# Poissons Ratio (y) = 0.54972 0.15043
# Poissons Ratio (z) = 0.17461 0.13016
#
# Static dielectric constant tensor:
#      x y z
#    x 3.350680 0.000000 0.000000 
#    y 0.000000 3.155830 0.000000 
#    z 0.000000 0.000000 3.529290 
# 
# 
# High freq. dielectric constant tensor:
#      x y z
#    x 1.709300 0.000000 0.000000 
#    y 0.000000 1.704620 0.000000 
#    z 0.000000 0.000000 1.724150 
# 
# From -- ./inp_files/3111.got.cif
#   From: 2010.03.12/outbox.cif.g09.slc.cpg/sg28_2_cif.got.tgz:3111.got - 2010.04.14 03:39:34.
