data_PCOD8168882
_publ_section_title
;
Structure prediction by ZEFSAII (Michael W. Deem and Ramdas Pophale) SiO2 
 PCOD8168882
Probable space group: P C A 21
;
_chemical_formula_sum "Si O2"
_cell_formula_units_Z 32
_cell_length_a 16.296308
_cell_length_b 8.629136
_cell_length_c 11.460812
_cell_angle_alpha 90.000000
_cell_angle_beta 90.000000
_cell_angle_gamma 90.000000
_cell_volume 1611.654431
_symmetry_space_group_name_H-M "P C A 21"
_symmetry_group_IT_number 29
_symmetry_cell_setting 'orthorhombic'
loop_
_space_group_symop_operation_xyz
x,y,z
-x,-y,1/2+z
1/2-x,y,1/2+z
1/2+x,-y,z
loop_
_atom_site_type_symbol
_atom_site_label
_atom_site_fract_x
_atom_site_fract_y
_atom_site_fract_z
Si Si1 0.190449 0.074664 0.071260
Si Si2 0.858651 0.144411 0.771765
Si Si3 0.137958 0.141812 0.672838
Si Si4 0.554123 0.934856 0.440706
Si Si5 0.032936 0.213831 0.027771
Si Si6 0.012236 0.355086 0.796027
Si Si7 0.030172 0.711163 0.773605
Si Si8 0.183679 0.873569 0.841016
O O1 0.269919 0.162349 0.123368
O O2 0.130091 0.220822 0.052084
O O3 0.142669 0.964728 0.160279
O O4 0.206512 0.967191 0.958167
O O5 0.766423 0.208804 0.792288
O O6 0.928787 0.273058 0.748876
O O7 0.875445 0.042768 0.886861
O O8 0.078308 0.133015 0.563902
O O9 0.097817 0.280282 0.748941
O O10 0.140008 0.987901 0.749368
O O11 0.537721 0.795474 0.351893
O O12 0.476300 0.047217 0.461252
O O13 0.974531 0.222826 0.141314
O O14 0.010205 0.349220 0.937074
O O15 0.008607 0.532082 0.759193
O O16 0.116772 0.735149 0.842230
#
# Coordination Sequence:
#
# PCOD8168882 Si02
#       8
#     4   4   4   4   4   4   4   4
#     4  11  20  37  70  93 120 161 227 277 313 366
#     4  10  22  39  62  94 122 165 217 281 314 381
#     4  11  22  39  65  92 126 164 217 278 320 381
#     4  11  20  37  65  91 117 167 218 271 312 380
#     4  11  22  42  64  91 126 169 219 272 312 390
#     4  11  26  42  60  93 142 173 213 259 343 404
#     4  12  25  40  66  96 133 178 215 264 342 400
#     4  11  21  40  64  96 122 165 226 278 320 372
#
# _framework density 19.855371999999999
#
# number of rings (size 3 to 8) (size 9 to 14) (size 15 to 20)
#    0.000    1.000    6.250    1.500    1.750    0.000 
#    2.250    0.000    0.000    0.000    0.000    0.000 
#    0.000    0.000    0.000    0.000    0.000    0.000 
#
# Total GULP energy -396518.185198 kJ/mol
# GULP energy per Si atom -12391.193287 kJ/mol
# Density = 1.981018 g / cm^3
# Si number density = 19.855372 Si / 1000 Ang^3
#
#
#
# Elastic Constant Matrix: (Units=GPa)
#
#
# Indices 1 2 3 4 5 6 
#
# 1 105.7544 42.5608 23.1739 0.0000 0.0000 0.0000
# 2 42.5608 85.0065 21.0234 0.0000 0.0000 0.0000
# 3 23.1739 21.0234 107.6616 0.0000 0.0000 0.0000
# 4 0.0000 0.0000 0.0000 16.8480 0.0000 0.0000
# 5 0.0000 0.0000 0.0000 0.0000 31.2249 0.0000
# 6 0.0000 0.0000 0.0000 0.0000 0.0000 19.3882
#
#
#
# Elastic Compliance Matrix: (Units=1/GPa)
#
#
# Indices 1 2 3 4 5 6 
#
# 1 0.012065 -0.005672 -0.001489 0.000000 0.000000 0.000000
# 2 -0.005672 0.015028 -0.001714 0.000000 0.000000 0.000000
# 3 -0.001489 -0.001714 0.009944 0.000000 0.000000 0.000000
# 4 0.000000 0.000000 0.000000 0.059354 0.000000 0.000000
# 5 0.000000 0.000000 0.000000 0.000000 0.032026 0.000000
# 6 0.000000 0.000000 0.000000 0.000000 0.000000 0.051578
#
#
# Mechanical properties :
#
#
# Convention : Reuss Voigt Hill
#
# Bulk Modulus (GPa) = 51.85161 52.43762 52.14462
# Shear Modulus (GPa) = 24.48905 27.60319 26.04612
#
# Velocity S-wave (km/s) = 3.51575 3.73260 3.62580
# Velocity P-wave (km/s) = 6.53085 6.71145 6.62176
#
# Compressibility (1/GPa) = 0.01928580
#
# Stress axis : x y z
#
# Youngs Moduli (GPa) = 82.88394 66.54422 100.56780
#
# Poissons Ratio (x) = 0.37746 0.14978
# Poissons Ratio (y) = 0.47015 0.17233
# Poissons Ratio (z) = 0.12344 0.11403
#
# Static dielectric constant tensor:
#      x y z
#    x 4.015080 0.000000 0.000000 
#    y 0.000000 3.171840 0.000000 
#    z 0.000000 0.000000 3.848450 
# 
# 
# High freq. dielectric constant tensor:
#      x y z
#    x 1.786760 0.000000 0.000000 
#    y 0.000000 1.726120 0.000000 
#    z 0.000000 0.000000 1.795540 
# 
# From -- ./inp_files/3478.got.cif
#   From: 2010.03.12/outbox.cif.g09.slc.cpg/sg29_2_cif.got.tgz:3478.got - 2010.04.14 03:43:10.
