data_PCOD8168174
_publ_section_title
;
Structure prediction by ZEFSAII (Michael W. Deem and Ramdas Pophale) SiO2 
 PCOD8168174
Probable space group: P M A 2
;
_chemical_formula_sum "Si O2"
_cell_formula_units_Z 24
_cell_length_a 9.078812
_cell_length_b 16.481352
_cell_length_c 9.055641
_cell_angle_alpha 90.000000
_cell_angle_beta 90.000000
_cell_angle_gamma 90.000000
_cell_volume 1355.005491
_symmetry_space_group_name_H-M "P M A 2"
_symmetry_group_IT_number 28
_symmetry_cell_setting 'orthorhombic'
loop_
_space_group_symop_operation_xyz
x,y,z
-x,-y,z
1/2-x,y,z
1/2+x,-y,z
loop_
_atom_site_type_symbol
_atom_site_label
_atom_site_fract_x
_atom_site_fract_y
_atom_site_fract_z
Si Si1 0.581410 0.582931 0.351360
Si Si2 0.915889 0.763601 0.799644
Si Si3 0.081231 0.829705 0.232734
Si Si4 0.078657 0.731090 0.505599
Si Si5 0.084552 0.310623 0.090962
Si Si6 0.079755 0.079538 0.998217
O O1 0.500000 0.500000 0.386432
O O2 0.750000 0.572575 0.399134
O O3 0.514315 0.654833 0.449055
O O4 0.568303 0.603302 0.175144
O O5 0.750000 0.766872 0.735177
O O6 0.032318 0.753667 0.670416
O O7 0.932278 0.686715 0.912845
O O8 0.952146 0.845932 0.888615
O O9 0.250000 0.852716 0.203883
O O10 0.050102 0.811909 0.406072
O O11 0.044130 0.745739 0.151961
O O12 0.981872 0.900916 0.163192
O O13 0.250000 0.707166 0.501821
O O14 0.250000 0.274687 0.125281
O O15 0.250000 0.060031 0.013370
O O16 0.000000 0.000000 0.933957
#
# Coordination Sequence:
#
# PCOD8168174 Si02
#       6
#     4   4   4   4   4   4
#     4  10  19  33  53  75 101 131 166 210 255 298
#     4   9  18  33  52  74 101 134 168 204 250 301
#     4   9  17  30  49  72  97 126 163 203 242 290
#     4  10  20  33  51  76 103 134 171 206 246 299
#     4   8  16  31  50  71  95 127 165 202 243 292
#     4  10  20  34  53  76 101 130 167 209 254 300
#
# _framework density 17.712105000000001
#
# number of rings (size 3 to 8) (size 9 to 14) (size 15 to 20)
#    0.000    2.667    0.000    3.000    0.000    6.000 
#    0.000    1.667    0.000    4.000    0.000    0.000 
#    0.000    0.000    0.000    0.000    0.000    0.000 
#
# Total GULP energy -297404.811457 kJ/mol
# GULP energy per Si atom -12391.867144 kJ/mol
# Density = 1.767179 g / cm^3
# Si number density = 17.712105 Si / 1000 Ang^3
#
#
#
# Elastic Constant Matrix: (Units=GPa)
#
#
# Indices 1 2 3 4 5 6 
#
# 1 109.7089 44.5316 52.5802 0.0000 0.0000 0.0000
# 2 44.5316 73.4629 31.3174 0.0000 0.0000 0.0000
# 3 52.5802 31.3174 101.2466 0.0000 0.0000 0.0000
# 4 0.0000 0.0000 0.0000 16.1985 0.0000 0.0000
# 5 0.0000 0.0000 0.0000 0.0000 28.5967 0.0000
# 6 0.0000 0.0000 0.0000 0.0000 0.0000 29.7898
#
#
#
# Elastic Compliance Matrix: (Units=1/GPa)
#
#
# Indices 1 2 3 4 5 6 
#
# 1 0.014312 -0.006343 -0.005470 0.000000 0.000000 0.000000
# 2 -0.006343 0.018492 -0.002425 0.000000 0.000000 0.000000
# 3 -0.005470 -0.002425 0.013468 0.000000 0.000000 0.000000
# 4 0.000000 0.000000 0.000000 0.061734 0.000000 0.000000
# 5 0.000000 0.000000 0.000000 0.000000 0.034969 0.000000
# 6 0.000000 0.000000 0.000000 0.000000 0.000000 0.033569
#
#
# Mechanical properties :
#
#
# Convention : Reuss Voigt Hill
#
# Bulk Modulus (GPa) = 56.20240 60.14187 58.17213
# Shear Modulus (GPa) = 23.70205 25.31627 24.50916
#
# Velocity S-wave (km/s) = 3.66209 3.78474 3.72392
# Velocity P-wave (km/s) = 7.04848 7.28889 7.16970
#
# Compressibility (1/GPa) = 0.01779283
#
# Stress axis : x y z
#
# Youngs Moduli (GPa) = 69.87332 54.07882 74.25008
#
# Poissons Ratio (x) = 0.34304 0.40617
# Poissons Ratio (y) = 0.44323 0.18009
# Poissons Ratio (z) = 0.38223 0.13117
#
# Static dielectric constant tensor:
#      x y z
#    x 3.363960 0.000000 0.000000 
#    y 0.000000 3.108810 0.000000 
#    z 0.000000 0.000000 3.298300 
# 
# 
# High freq. dielectric constant tensor:
#      x y z
#    x 1.699940 0.000000 0.000000 
#    y 0.000000 1.657210 0.000000 
#    z 0.000000 0.000000 1.673310 
# 
# From -- ./inp_files/2542.got.cif
#   From: 2010.03.12/outbox.cif.g09.slc.cpg/sg28_2_cif.got.tgz:2542.got - 2010.04.14 03:39:34.
