data_PCOD8168778
_publ_section_title
;
Structure prediction by ZEFSAII (Michael W. Deem and Ramdas Pophale) SiO2 
 PCOD8168778
Probable space group: P C A 21
;
_chemical_formula_sum "Si O2"
_cell_formula_units_Z 28
_cell_length_a 9.143334
_cell_length_b 15.969749
_cell_length_c 9.434850
_cell_angle_alpha 90.000000
_cell_angle_beta 90.000000
_cell_angle_gamma 90.000000
_cell_volume 1377.646124
_symmetry_space_group_name_H-M "P C A 21"
_symmetry_group_IT_number 29
_symmetry_cell_setting 'orthorhombic'
loop_
_space_group_symop_operation_xyz
x,y,z
-x,-y,1/2+z
1/2-x,y,1/2+z
1/2+x,-y,z
loop_
_atom_site_type_symbol
_atom_site_label
_atom_site_fract_x
_atom_site_fract_y
_atom_site_fract_z
Si Si1 0.494186 0.113955 0.740900
Si Si2 0.902073 0.250143 0.053695
Si Si3 0.617722 0.440918 0.236277
Si Si4 0.996896 0.884321 0.045151
Si Si5 0.892308 0.252569 0.730557
Si Si6 0.087507 0.561765 0.565340
Si Si7 0.249060 0.997892 0.643270
O O1 0.483214 0.182869 0.615765
O O2 0.352920 0.054594 0.740550
O O3 0.643259 0.060332 0.735609
O O4 0.495090 0.160669 0.892211
O O5 0.756488 0.242618 0.145131
O O6 0.970950 0.342870 0.062098
O O7 0.864433 0.226625 0.892558
O O8 0.549076 0.347909 0.220612
O O9 0.778584 0.442367 0.172942
O O10 0.532421 0.503796 0.135779
O O11 0.622471 0.467444 0.403072
O O12 0.990142 0.811897 0.164751
O O13 0.854073 0.942584 0.049891
O O14 0.144818 0.939474 0.050485
#
# Coordination Sequence:
#
# PCOD8168778 Si02
#       7
#     4   4   4   4   4   4   4
#     4  11  22  39  61  86 117 156 198 245 295 347
#     4  10  21  37  60  88 119 154 197 241 290 350
#     4  10  21  39  63  91 121 157 197 245 295 355
#     4  11  22  39  61  86 117 156 198 245 295 347
#     4  10  21  37  60  88 119 154 197 241 290 350
#     4  10  21  39  63  91 121 157 197 245 295 355
#     4  10  24  38  58  88 118 152 200 246 296 346
#
# _framework density 20.324522999999999
#
# number of rings (size 3 to 8) (size 9 to 14) (size 15 to 20)
#    0.000    1.714    1.429    2.571    0.000    9.143 
#    2.571    0.000    0.000    0.000    0.000    0.000 
#    0.000    0.000    0.000    0.000    0.000    0.000 
#
# Total GULP energy -347055.571073 kJ/mol
# GULP energy per Si atom -12394.841824 kJ/mol
# Density = 2.027826 g / cm^3
# Si number density = 20.324523 Si / 1000 Ang^3
#
#
#
# Elastic Constant Matrix: (Units=GPa)
#
#
# Indices 1 2 3 4 5 6 
#
# 1 73.0595 27.8855 21.1077 0.0000 0.0000 0.0000
# 2 27.8855 98.3909 50.9944 0.0000 0.0000 0.0000
# 3 21.1077 50.9944 165.3569 0.0000 0.0000 0.0000
# 4 0.0000 0.0000 0.0000 31.6630 0.0000 0.0000
# 5 0.0000 0.0000 0.0000 0.0000 19.2640 0.0000
# 6 0.0000 0.0000 0.0000 0.0000 0.0000 23.6754
#
#
#
# Elastic Compliance Matrix: (Units=1/GPa)
#
#
# Indices 1 2 3 4 5 6 
#
# 1 0.015423 -0.003988 -0.000739 0.000000 0.000000 0.000000
# 2 -0.003988 0.013128 -0.003540 0.000000 0.000000 0.000000
# 3 -0.000739 -0.003540 0.007233 0.000000 0.000000 0.000000
# 4 0.000000 0.000000 0.000000 0.031583 0.000000 0.000000
# 5 0.000000 0.000000 0.000000 0.000000 0.051910 0.000000
# 6 0.000000 0.000000 0.000000 0.000000 0.000000 0.042238
#
#
# Mechanical properties :
#
#
# Convention : Reuss Voigt Hill
#
# Bulk Modulus (GPa) = 51.94350 59.64249 55.79300
# Shear Modulus (GPa) = 27.10522 30.70845 28.90683
#
# Velocity S-wave (km/s) = 3.65584 3.89125 3.77538
# Velocity P-wave (km/s) = 6.59035 7.04258 6.82022
#
# Compressibility (1/GPa) = 0.01925169
#
# Stress axis : x y z
#
# Youngs Moduli (GPa) = 64.83747 76.17098 138.24756
#
# Poissons Ratio (x) = 0.30379 0.10214
# Poissons Ratio (y) = 0.25859 0.48933
# Poissons Ratio (z) = 0.04790 0.26961
#
# Static dielectric constant tensor:
#      x y z
#    x 3.539780 0.000000 0.000000 
#    y 0.000000 3.950880 0.000000 
#    z 0.000000 0.000000 3.766540 
# 
# 
# High freq. dielectric constant tensor:
#      x y z
#    x 1.770630 0.000000 0.000000 
#    y 0.000000 1.797590 0.000000 
#    z 0.000000 0.000000 1.808980 
# 
# From -- ./inp_files/1219.got.cif
#   From: 2010.03.12/outbox.cif.g09.slc.cpg/sg29_1_cif.got.tgz:1219.got - 2010.04.14 03:43:10.
