data_PCOD8168913
_publ_section_title
;
Structure prediction by ZEFSAII (Michael W. Deem and Ramdas Pophale) SiO2 
 PCOD8168913
Probable space group: P C A 21
;
_chemical_formula_sum "Si O2"
_cell_formula_units_Z 28
_cell_length_a 8.927345
_cell_length_b 17.567702
_cell_length_c 8.148359
_cell_angle_alpha 90.000000
_cell_angle_beta 90.000000
_cell_angle_gamma 90.000000
_cell_volume 1277.931071
_symmetry_space_group_name_H-M "P C A 21"
_symmetry_group_IT_number 29
_symmetry_cell_setting 'orthorhombic'
loop_
_space_group_symop_operation_xyz
x,y,z
-x,-y,1/2+z
1/2-x,y,1/2+z
1/2+x,-y,z
loop_
_atom_site_type_symbol
_atom_site_label
_atom_site_fract_x
_atom_site_fract_y
_atom_site_fract_z
Si Si1 0.288584 0.035518 0.708110
Si Si2 0.156820 0.311851 0.457588
Si Si3 0.562290 0.833022 0.608735
Si Si4 0.967759 0.430995 0.300528
Si Si5 0.154398 0.566306 0.436686
Si Si6 0.958993 0.688467 0.295460
Si Si7 0.075558 0.953159 0.917294
O O1 0.183434 0.108926 0.685240
O O2 0.402644 0.044648 0.860305
O O3 0.185103 0.962202 0.760417
O O4 0.381284 0.021416 0.541736
O O5 0.132053 0.220341 0.465181
O O6 0.108795 0.350364 0.630223
O O7 0.332974 0.324300 0.433323
O O8 0.054731 0.350417 0.317144
O O9 0.505933 0.777891 0.757417
O O10 0.418902 0.875910 0.526601
O O11 0.833749 0.437603 0.432759
O O12 0.085224 0.497908 0.332010
O O13 0.897385 0.437983 0.122490
O O14 0.108098 0.646804 0.354707
#
# Coordination Sequence:
#
# PCOD8168913 Si02
#       7
#     4   4   4   4   4   4   4
#     4  12  23  42  71 100 138 183 239 299 357 433
#     4  10  22  41  67  97 135 177 230 274 349 404
#     4  10  24  42  70  95 144 178 243 284 363 420
#     4  12  25  45  71 105 138 183 228 286 344 416
#     4  12  25  45  72 101 143 178 232 283 345 416
#     4  10  22  41  66  98 132 182 225 280 343 410
#     4  12  23  44  67 102 134 183 239 294 359 429
#
# _framework density 21.910413999999999
#
# number of rings (size 3 to 8) (size 9 to 14) (size 15 to 20)
#    0.857    0.000    2.857    5.143    0.000    0.000 
#    2.571    0.000    0.000    0.000    0.000    0.000 
#    0.000    0.000    0.000    0.000    0.000    0.000 
#
# Total GULP energy -346976.362310 kJ/mol
# GULP energy per Si atom -12392.012940 kJ/mol
# Density = 2.186055 g / cm^3
# Si number density = 21.910414 Si / 1000 Ang^3
#
#
#
# Elastic Constant Matrix: (Units=GPa)
#
#
# Indices 1 2 3 4 5 6 
#
# 1 83.9975 51.2736 10.7726 0.0000 0.0000 0.0000
# 2 51.2736 114.1797 34.5693 0.0000 0.0000 0.0000
# 3 10.7726 34.5693 73.5703 0.0000 0.0000 0.0000
# 4 0.0000 0.0000 0.0000 40.9590 0.0000 0.0000
# 5 0.0000 0.0000 0.0000 0.0000 40.7838 0.0000
# 6 0.0000 0.0000 0.0000 0.0000 0.0000 24.5815
#
#
#
# Elastic Compliance Matrix: (Units=1/GPa)
#
#
# Indices 1 2 3 4 5 6 
#
# 1 0.016498 -0.007785 0.001242 0.000000 0.000000 0.000000
# 2 -0.007785 0.013884 -0.005384 0.000000 0.000000 0.000000
# 3 0.001242 -0.005384 0.015940 0.000000 0.000000 0.000000
# 4 0.000000 0.000000 0.000000 0.024415 0.000000 0.000000
# 5 0.000000 0.000000 0.000000 0.000000 0.024520 0.000000
# 6 0.000000 0.000000 0.000000 0.000000 0.000000 0.040681
#
#
# Mechanical properties :
#
#
# Convention : Reuss Voigt Hill
#
# Bulk Modulus (GPa) = 44.50524 51.66427 48.08476
# Shear Modulus (GPa) = 29.89009 32.94033 31.41521
#
# Velocity S-wave (km/s) = 3.69751 3.88159 3.79067
# Velocity P-wave (km/s) = 6.21170 6.61211 6.41503
#
# Compressibility (1/GPa) = 0.02246926
#
# Stress axis : x y z
#
# Youngs Moduli (GPa) = 60.61477 72.02587 62.73378
#
# Poissons Ratio (x) = 0.56069 -0.07792
# Poissons Ratio (y) = 0.47186 0.33775
# Poissons Ratio (z) = -0.07529 0.38778
#
# Static dielectric constant tensor:
#      x y z
#    x 3.926630 0.000000 0.000000 
#    y 0.000000 3.868270 0.000000 
#    z 0.000000 0.000000 3.966710 
# 
# 
# High freq. dielectric constant tensor:
#      x y z
#    x 1.853450 0.000000 0.000000 
#    y 0.000000 1.848700 0.000000 
#    z 0.000000 0.000000 1.871880 
# 
# From -- ./inp_files/1218.got.cif
#   From: 2010.03.12/outbox.cif.g09.slc.cpg/sg29_1_cif.got.tgz:1218.got - 2010.04.14 03:43:10.
