data_PCOD8168325
_publ_section_title
;
Structure prediction by ZEFSAII (Michael W. Deem and Ramdas Pophale) SiO2 
 PCOD8168325
Probable space group: P M A 2
;
_chemical_formula_sum "Si O2"
_cell_formula_units_Z 28
_cell_length_a 8.641932
_cell_length_b 9.880533
_cell_length_c 17.524616
_cell_angle_alpha 90.000000
_cell_angle_beta 90.000000
_cell_angle_gamma 90.000000
_cell_volume 1496.372534
_symmetry_space_group_name_H-M "P M A 2"
_symmetry_group_IT_number 28
_symmetry_cell_setting 'orthorhombic'
loop_
_space_group_symop_operation_xyz
x,y,z
-x,-y,z
1/2-x,y,z
1/2+x,-y,z
loop_
_atom_site_type_symbol
_atom_site_label
_atom_site_fract_x
_atom_site_fract_y
_atom_site_fract_z
Si Si1 0.933282 0.358832 0.285150
Si Si2 0.567641 0.141834 0.575302
Si Si3 0.433925 0.354015 0.863200
Si Si4 0.433303 0.857719 0.404334
Si Si5 0.566276 0.151066 0.984951
Si Si6 0.565751 0.358207 0.698372
Si Si7 0.067888 0.642292 0.113473
O O1 0.750000 0.363834 0.287903
O O2 0.000204 0.249287 0.343982
O O3 0.991515 0.326430 0.199236
O O4 0.000000 0.500000 0.313750
O O5 0.750000 0.130448 0.576119
O O6 0.509153 0.179005 0.489923
O O7 0.509715 0.253063 0.634721
O O8 0.500000 0.000000 0.602851
O O9 0.500000 0.500000 0.889866
O O10 0.250000 0.360594 0.867665
O O11 0.496773 0.231685 0.913860
O O12 0.488241 0.318829 0.778160
O O13 0.250000 0.863303 0.401066
O O14 0.500000 0.000000 0.377837
O O15 0.750000 0.143585 0.976626
O O16 0.500000 0.000000 0.988949
O O17 0.514638 0.232836 0.060766
O O18 0.500000 0.500000 0.669196
O O19 0.750000 0.363936 0.708427
O O20 0.250000 0.625612 0.111159
O O21 0.000000 0.500000 0.083125
#
# Coordination Sequence:
#
# PCOD8168325 Si02
#       7
#     4   4   4   4   4   4   4
#     4   9  18  33  52  76 105 135 171 214 257 303
#     4   9  19  34  52  74 102 137 174 212 255 306
#     4  11  22  38  59  81 106 138 175 214 261 314
#     4   9  18  33  51  73 103 137 173 212 255 304
#     4  11  23  38  55  79 109 139 175 217 262 310
#     4  10  20  35  54  78 106 135 172 215 259 307
#     4   9  19  35  55  77 103 137 174 212 256 308
#
# _framework density 18.711918000000001
#
# number of rings (size 3 to 8) (size 9 to 14) (size 15 to 20)
#    0.000    2.286    0.000    3.429    0.000    5.714 
#    0.000    1.429    0.000    0.000    0.000    0.000 
#    0.000    0.000    0.000    0.000    0.000    0.000 
#
# Total GULP energy -347193.358666 kJ/mol
# GULP energy per Si atom -12399.762810 kJ/mol
# Density = 1.866933 g / cm^3
# Si number density = 18.711918 Si / 1000 Ang^3
#
#
#
# Elastic Constant Matrix: (Units=GPa)
#
#
# Indices 1 2 3 4 5 6 
#
# 1 57.1234 46.9489 37.3543 0.0000 0.0000 0.0000
# 2 46.9489 186.5286 116.0147 0.0000 0.0000 0.0000
# 3 37.3543 116.0147 125.9660 0.0000 0.0000 0.0000
# 4 0.0000 0.0000 0.0000 -226.2169 0.0000 0.0000
# 5 0.0000 0.0000 0.0000 0.0000 3.0385 0.0000
# 6 0.0000 0.0000 0.0000 0.0000 0.0000 34.8355
#
#
#
# Elastic Compliance Matrix: (Units=1/GPa)
#
#
# Indices 1 2 3 4 5 6 
#
# 1 0.022691 -0.003573 -0.003438 0.000000 0.000000 0.000000
# 2 -0.003573 0.013113 -0.011018 0.000000 0.000000 0.000000
# 3 -0.003438 -0.011018 0.019105 0.000000 0.000000 0.000000
# 4 0.000000 0.000000 0.000000 -0.004421 0.000000 0.000000
# 5 0.000000 0.000000 0.000000 0.000000 0.329111 0.000000
# 6 0.000000 0.000000 0.000000 0.000000 0.000000 0.028706
#
#
# Mechanical properties :
#
#
# Convention : Reuss Voigt Hill
#
# Bulk Modulus (GPa) = 53.04494 85.58376 69.31435
# Shear Modulus (GPa) = 11.09515 -26.38191 -7.64338
#
# Velocity S-wave (km/s) = 2.43769 -3.75894 -2.02327
# Velocity P-wave (km/s) = 6.02767 5.19590 5.62718
#
# Compressibility (1/GPa) = 0.01885194
#
# Stress axis : x y z
#
# Youngs Moduli (GPa) = 44.07088 76.26088 52.34117
#
# Poissons Ratio (x) = 0.27245 0.17997
# Poissons Ratio (y) = 0.15745 0.57667
# Poissons Ratio (z) = 0.15153 0.84021
#
# Static dielectric constant tensor:
#      x y z
#    x 3.377350 0.000000 0.000000 
#    y 0.000000 3.548170 0.000000 
#    z 0.000000 0.000000 3.780690 
# 
# 
# High freq. dielectric constant tensor:
#      x y z
#    x 1.725360 0.000000 0.000000 
#    y 0.000000 1.727490 0.000000 
#    z 0.000000 0.000000 1.735570 
# 
# From -- ./inp_files/6830.got.cif
#   From: 2010.03.12/outbox.cif.g09.slc.cpg/sg28_4_cif.got.tgz:6830.got - 2010.04.14 03:39:34.
