data_PCOD8168515
_publ_section_title
;
Structure prediction by ZEFSAII (Michael W. Deem and Ramdas Pophale) SiO2 
 PCOD8168515
Probable space group: P M A 2
;
_chemical_formula_sum "Si O2"
_cell_formula_units_Z 12
_cell_length_a 16.649393
_cell_length_b 4.606230
_cell_length_c 6.515167
_cell_angle_alpha 90.000000
_cell_angle_beta 90.000000
_cell_angle_gamma 90.000000
_cell_volume 499.654239
_symmetry_space_group_name_H-M "P M A 2"
_symmetry_group_IT_number 28
_symmetry_cell_setting 'orthorhombic'
loop_
_space_group_symop_operation_xyz
x,y,z
-x,-y,z
1/2-x,y,z
1/2+x,-y,z
loop_
_atom_site_type_symbol
_atom_site_label
_atom_site_fract_x
_atom_site_fract_y
_atom_site_fract_z
Si Si1 0.944724 0.254766 0.581910
Si Si2 0.341046 0.928084 0.213993
Si Si3 0.408987 0.441711 0.986682
O O1 0.886747 0.075352 0.431803
O O2 0.000000 0.500000 0.466794
O O3 0.897091 0.443298 0.753572
O O4 0.000000 0.000000 0.686302
O O5 0.250000 0.029328 0.249950
O O6 0.345007 0.600940 0.133001
O O7 0.386123 0.108295 0.032955
O O8 0.500000 0.500000 0.055825
#
# Coordination Sequence:
#
# PCOD8168515 Si02
#       3
#     4   4   4
#     4  11  23  43  70  96 128 178 232 278 328 396
#     4  12  25  40  64  99 137 173 214 276 344 400
#     4  11  23  43  67  93 128 175 228 274 324 396
#
# _framework density 24.01661
#
# number of rings (size 3 to 8) (size 9 to 14) (size 15 to 20)
#    0.000    0.667    0.000   11.000    0.000    2.667 
#    0.000    0.000    0.000    0.000    0.000    0.000 
#    0.000    0.000    0.000    0.000    0.000    0.000 
#
# Total GULP energy -148678.169890 kJ/mol
# GULP energy per Si atom -12389.847491 kJ/mol
# Density = 2.396195 g / cm^3
# Si number density = 24.016610 Si / 1000 Ang^3
#
#
#
# Elastic Constant Matrix: (Units=GPa)
#
#
# Indices 1 2 3 4 5 6 
#
# 1 138.4545 33.4157 49.9697 0.0000 0.0000 0.0000
# 2 33.4157 84.5873 26.8354 0.0000 0.0000 0.0000
# 3 49.9697 26.8354 140.3171 0.0000 0.0000 0.0000
# 4 0.0000 0.0000 0.0000 49.4935 0.0000 0.0000
# 5 0.0000 0.0000 0.0000 0.0000 9.6492 0.0000
# 6 0.0000 0.0000 0.0000 0.0000 0.0000 35.0193
#
#
#
# Elastic Compliance Matrix: (Units=1/GPa)
#
#
# Indices 1 2 3 4 5 6 
#
# 1 0.008811 -0.002646 -0.002632 0.000000 0.000000 0.000000
# 2 -0.002646 0.013380 -0.001617 0.000000 0.000000 0.000000
# 3 -0.002632 -0.001617 0.008373 0.000000 0.000000 0.000000
# 4 0.000000 0.000000 0.000000 0.020205 0.000000 0.000000
# 5 0.000000 0.000000 0.000000 0.000000 0.103635 0.000000
# 6 0.000000 0.000000 0.000000 0.000000 0.000000 0.028556
#
#
# Mechanical properties :
#
#
# Convention : Reuss Voigt Hill
#
# Bulk Modulus (GPa) = 59.60978 64.86672 62.23825
# Shear Modulus (GPa) = 24.71084 35.70827 30.20955
#
# Velocity S-wave (km/s) = 3.21114 3.86011 3.55048
# Velocity P-wave (km/s) = 6.21471 6.85091 6.54055
#
# Compressibility (1/GPa) = 0.01677577
#
# Stress axis : x y z
#
# Youngs Moduli (GPa) = 113.49479 74.73716 119.42962
#
# Poissons Ratio (x) = 0.19774 0.31431
# Poissons Ratio (y) = 0.30028 0.19309
# Poissons Ratio (z) = 0.29869 0.12083
#
# Static dielectric constant tensor:
#      x y z
#    x 3.943740 0.000000 0.000000 
#    y 0.000000 4.568380 0.000000 
#    z 0.000000 0.000000 4.004280 
# 
# 
# High freq. dielectric constant tensor:
#      x y z
#    x 1.920940 0.000000 0.000000 
#    y 0.000000 1.981330 0.000000 
#    z 0.000000 0.000000 1.947410 
# 
# From -- ./inp_files/911.got.cif
#   From: 2010.03.12/outbox.cif.g09.slc.cpg/sg28_1_cif.got.tgz:911.got - 2010.04.14 03:39:34.
