data_PCOD8168963
_publ_section_title
;
Structure prediction by ZEFSAII (Michael W. Deem and Ramdas Pophale) SiO2 
 PCOD8168963
Probable space group: P C A 21
;
_chemical_formula_sum "Si O2"
_cell_formula_units_Z 32
_cell_length_a 13.495259
_cell_length_b 9.074960
_cell_length_c 12.005058
_cell_angle_alpha 90.000000
_cell_angle_beta 90.000000
_cell_angle_gamma 90.000000
_cell_volume 1470.246675
_symmetry_space_group_name_H-M "P C A 21"
_symmetry_group_IT_number 29
_symmetry_cell_setting 'orthorhombic'
loop_
_space_group_symop_operation_xyz
x,y,z
-x,-y,1/2+z
1/2-x,y,1/2+z
1/2+x,-y,z
loop_
_atom_site_type_symbol
_atom_site_label
_atom_site_fract_x
_atom_site_fract_y
_atom_site_fract_z
Si Si1 0.899827 0.289682 0.806270
Si Si2 0.519037 0.816418 0.013114
Si Si3 0.447941 0.654741 0.227654
Si Si4 0.775592 0.841653 0.419011
Si Si5 0.442311 0.352732 0.137834
Si Si6 0.791758 0.112818 0.269712
Si Si7 0.625053 0.601993 0.387479
Si Si8 0.623637 0.949348 0.582504
O O1 0.819069 0.163178 0.791091
O O2 0.849290 0.432490 0.861738
O O3 0.945421 0.328760 0.684338
O O4 0.983205 0.227437 0.889516
O O5 0.477331 0.702568 0.103124
O O6 0.482777 0.979965 0.049782
O O7 0.638654 0.809340 0.009613
O O8 0.401392 0.489730 0.212321
O O9 0.369118 0.755454 0.293408
O O10 0.547497 0.662477 0.298400
O O11 0.730297 0.687771 0.372451
O O12 0.677675 0.913829 0.469120
O O13 0.818818 0.962739 0.334484
O O14 0.387152 0.197103 0.159710
O O15 0.430346 0.385505 0.006951
O O16 0.807198 0.070713 0.141060
#
# Coordination Sequence:
#
# PCOD8168963 Si02
#       8
#     4   4   4   4   4   4   4   4
#     4  11  23  44  67  98 140 177 231 284 338 410
#     4  11  23  45  66  99 139 179 221 286 345 404
#     4  10  24  46  70  96 138 177 229 281 341 405
#     4  11  25  41  69  99 134 177 223 286 337 411
#     4  10  22  45  69  95 134 179 224 287 337 405
#     4  11  25  40  66  99 132 179 222 280 340 405
#     4  10  24  45  67 102 133 180 233 279 341 411
#     4  10  24  42  66  98 136 172 231 275 341 413
#
# _framework density 21.765055
#
# number of rings (size 3 to 8) (size 9 to 14) (size 15 to 20)
#    0.000    1.500    2.500    0.750    7.000    4.000 
#    6.750    0.000    0.000    0.000    0.000    0.000 
#    0.000    0.000    0.000    0.000    0.000    0.000 
#
# Total GULP energy -396508.660132 kJ/mol
# GULP energy per Si atom -12390.895629 kJ/mol
# Density = 2.171552 g / cm^3
# Si number density = 21.765055 Si / 1000 Ang^3
#
#
#
# Elastic Constant Matrix: (Units=GPa)
#
#
# Indices 1 2 3 4 5 6 
#
# 1 90.6847 46.9779 34.9417 0.0000 0.0000 0.0000
# 2 46.9779 140.3066 36.1767 0.0000 0.0000 0.0000
# 3 34.9417 36.1767 72.4462 0.0000 0.0000 0.0000
# 4 0.0000 0.0000 0.0000 25.4928 0.0000 0.0000
# 5 0.0000 0.0000 0.0000 0.0000 32.9833 0.0000
# 6 0.0000 0.0000 0.0000 0.0000 0.0000 40.2444
#
#
#
# Elastic Compliance Matrix: (Units=1/GPa)
#
#
# Indices 1 2 3 4 5 6 
#
# 1 0.014993 -0.003622 -0.005423 0.000000 0.000000 0.000000
# 2 -0.003622 0.009055 -0.002775 0.000000 0.000000 0.000000
# 3 -0.005423 -0.002775 0.017805 0.000000 0.000000 0.000000
# 4 0.000000 0.000000 0.000000 0.039227 0.000000 0.000000
# 5 0.000000 0.000000 0.000000 0.000000 0.030318 0.000000
# 6 0.000000 0.000000 0.000000 0.000000 0.000000 0.024848
#
#
# Mechanical properties :
#
#
# Convention : Reuss Voigt Hill
#
# Bulk Modulus (GPa) = 54.90357 59.95889 57.43123
# Shear Modulus (GPa) = 30.12839 32.10018 31.11429
#
# Velocity S-wave (km/s) = 3.72459 3.84454 3.78504
# Velocity P-wave (km/s) = 6.61643 6.87862 6.74880
#
# Compressibility (1/GPa) = 0.01821375
#
# Stress axis : x y z
#
# Youngs Moduli (GPa) = 66.69852 110.43104 56.16543
#
# Poissons Ratio (x) = 0.39995 0.30457
# Poissons Ratio (y) = 0.24157 0.15586
# Poissons Ratio (z) = 0.36168 0.30646
#
# Static dielectric constant tensor:
#      x y z
#    x 3.619300 0.000000 0.000000 
#    y 0.000000 4.362130 0.000000 
#    z 0.000000 0.000000 3.867300 
# 
# 
# High freq. dielectric constant tensor:
#      x y z
#    x 1.836490 0.000000 0.000000 
#    y 0.000000 1.878360 0.000000 
#    z 0.000000 0.000000 1.850880 
# 
# From -- ./inp_files/3488.got.cif
#   From: 2010.03.12/outbox.cif.g09.slc.cpg/sg29_2_cif.got.tgz:3488.got - 2010.04.14 03:43:10.
