data_PCOD8168418
_publ_section_title
;
Structure prediction by ZEFSAII (Michael W. Deem and Ramdas Pophale) SiO2 
 PCOD8168418
Probable space group: P M A 2
;
_chemical_formula_sum "Si O2"
_cell_formula_units_Z 32
_cell_length_a 17.520158
_cell_length_b 9.874226
_cell_length_c 9.471982
_cell_angle_alpha 90.000000
_cell_angle_beta 90.000000
_cell_angle_gamma 90.000000
_cell_volume 1638.633939
_symmetry_space_group_name_H-M "P M A 2"
_symmetry_group_IT_number 28
_symmetry_cell_setting 'orthorhombic'
loop_
_space_group_symop_operation_xyz
x,y,z
-x,-y,z
1/2-x,y,z
1/2+x,-y,z
loop_
_atom_site_type_symbol
_atom_site_label
_atom_site_fract_x
_atom_site_fract_y
_atom_site_fract_z
Si Si1 0.338215 0.788532 0.179950
Si Si2 0.838215 0.711468 0.947468
Si Si3 0.412697 0.471407 0.448583
Si Si4 0.338069 0.746626 0.501897
Si Si5 0.912772 0.986319 0.003533
Si Si6 0.161931 0.246626 0.625520
Si Si7 0.087228 0.513680 0.123884
Si Si8 0.412697 0.971407 0.678835
O O1 0.250000 0.753604 0.154105
O O2 0.355638 0.801934 0.345737
O O3 0.388893 0.670047 0.111585
O O4 0.359454 0.929608 0.108298
O O5 0.750000 0.746395 0.973314
O O6 0.888893 0.829953 0.015834
O O7 0.855637 0.698067 0.781680
O O8 0.859454 0.570392 0.019119
O O9 0.500000 0.500000 0.486296
O O10 0.360357 0.589325 0.513433
O O11 0.388686 0.329336 0.515265
O O12 0.400384 0.458345 0.281447
O O13 0.250000 0.762268 0.543147
O O14 0.388686 0.829336 0.612154
O O15 0.900384 0.041654 0.845971
O O16 0.000000 0.000000 0.052402
O O17 0.250000 0.262267 0.584270
O O18 0.139643 0.089325 0.613984
O O19 0.000000 0.500000 0.075017
O O20 0.500000 0.000000 0.641121
#
# Coordination Sequence:
#
# PCOD8168418 Si02
#       8
#     4   4   4   4   4   4   4   4
#     4  10  21  36  54  79 110 142 179 223 268 317
#     4  10  21  36  54  79 110 142 179 223 268 317
#     4  10  21  37  57  81 109 142 180 222 268 318
#     4  10  21  36  54  79 110 142 179 223 268 317
#     4  10  21  37  57  81 109 142 180 222 268 318
#     4  10  21  36  54  79 110 142 179 223 268 317
#     4  10  21  37  57  81 109 142 180 222 268 318
#     4  10  21  37  57  81 109 142 180 222 268 318
#
# _framework density 19.528461
#
# number of rings (size 3 to 8) (size 9 to 14) (size 15 to 20)
#    0.000    2.000    0.000    3.000    0.000    6.000 
#    0.000    0.000    0.000    0.000    0.000    0.000 
#    0.000    0.000    0.000    0.000    0.000    0.000 
#
# Total GULP energy -397029.117532 kJ/mol
# GULP energy per Si atom -12407.159923 kJ/mol
# Density = 1.948401 g / cm^3
# Si number density = 19.528461 Si / 1000 Ang^3
#
#
#
# Elastic Constant Matrix: (Units=GPa)
#
#
# Indices 1 2 3 4 5 6 
#
# 1 66.2591 5.7353 12.8863 0.0000 0.0000 0.0000
# 2 5.7353 42.5055 17.7379 0.0000 0.0000 0.0000
# 3 12.8863 17.7379 38.8906 0.0000 0.0000 0.0000
# 4 0.0000 0.0000 0.0000 32.5780 0.0000 0.0000
# 5 0.0000 0.0000 0.0000 0.0000 15.7942 0.0000
# 6 0.0000 0.0000 0.0000 0.0000 0.0000 38.8339
#
#
#
# Elastic Compliance Matrix: (Units=1/GPa)
#
#
# Indices 1 2 3 4 5 6 
#
# 1 0.016132 0.000067 -0.005376 0.000000 0.000000 0.000000
# 2 0.000067 0.029057 -0.013275 0.000000 0.000000 0.000000
# 3 -0.005376 -0.013275 0.033549 0.000000 0.000000 0.000000
# 4 0.000000 0.000000 0.000000 0.030696 0.000000 0.000000
# 5 0.000000 0.000000 0.000000 0.000000 0.063315 0.000000
# 6 0.000000 0.000000 0.000000 0.000000 0.000000 0.025751
#
#
# Mechanical properties :
#
#
# Convention : Reuss Voigt Hill
#
# Bulk Modulus (GPa) = 24.05572 24.48600 24.27086
# Shear Modulus (GPa) = 20.03818 24.86093 22.44956
#
# Velocity S-wave (km/s) = 3.20676 3.57187 3.39423
# Velocity P-wave (km/s) = 5.10452 5.43846 5.27413
#
# Compressibility (1/GPa) = 0.04157015
#
# Stress axis : x y z
#
# Youngs Moduli (GPa) = 61.98865 34.41499 29.80709
#
# Poissons Ratio (x) = -0.00229 0.16023
# Poissons Ratio (y) = -0.00413 0.39569
# Poissons Ratio (z) = 0.33323 0.45686
#
# Static dielectric constant tensor:
#      x y z
#    x 3.630090 0.000000 0.000000 
#    y 0.000000 3.418060 0.000000 
#    z 0.000000 0.000000 3.442050 
# 
# 
# High freq. dielectric constant tensor:
#      x y z
#    x 1.775310 0.000000 0.000000 
#    y 0.000000 1.761380 0.000000 
#    z 0.000000 0.000000 1.752280 
# 
# From -- ./inp_files/5638.got.cif
#   From: 2010.03.12/outbox.cif.g09.slc.cpg/sg28_3_cif.got.tgz:5638.got - 2010.04.14 03:39:34.
