data_PCOD8168986
_publ_section_title
;
Structure prediction by ZEFSAII (Michael W. Deem and Ramdas Pophale) SiO2 
 PCOD8168986
Probable space group: P C A 21
;
_chemical_formula_sum "Si O2"
_cell_formula_units_Z 24
_cell_length_a 14.298475
_cell_length_b 13.935415
_cell_length_c 5.150643
_cell_angle_alpha 90.000000
_cell_angle_beta 90.000000
_cell_angle_gamma 90.000000
_cell_volume 1026.292313
_symmetry_space_group_name_H-M "P C A 21"
_symmetry_group_IT_number 29
_symmetry_cell_setting 'orthorhombic'
loop_
_space_group_symop_operation_xyz
x,y,z
-x,-y,1/2+z
1/2-x,y,1/2+z
1/2+x,-y,z
loop_
_atom_site_type_symbol
_atom_site_label
_atom_site_fract_x
_atom_site_fract_y
_atom_site_fract_z
Si Si1 0.805512 0.861142 0.129530
Si Si2 0.943642 0.494681 0.924220
Si Si3 0.943642 0.005319 0.348488
Si Si4 0.144212 0.793457 0.885797
Si Si5 0.305512 0.361142 0.143175
Si Si6 0.855788 0.293457 0.886915
O O1 0.727290 0.890118 0.341775
O O2 0.899084 0.916057 0.199060
O O3 0.830110 0.750000 0.136353
O O4 0.867303 0.408617 0.890868
O O5 0.976244 0.530586 0.638326
O O6 0.899084 0.583943 0.073646
O O7 0.867303 0.091383 0.381841
O O8 0.976244 0.969413 0.634382
O O9 0.091670 0.749999 0.636357
O O10 0.250000 0.750000 0.886358
O O11 0.091991 0.750001 0.136357
O O12 0.272710 0.390118 0.430930
#
# Coordination Sequence:
#
# PCOD8168986 Si02
#       6
#     4   4   4   4   4   4
#     4  10  23  43  70  94 127 181 236 279 335 428
#     4  12  26  42  68 105 144 182 229 304 359 407
#     4  12  26  42  68 105 144 182 229 304 359 407
#     4  10  23  41  66  99 134 185 236 284 347 432
#     4  10  23  43  70  94 127 181 236 279 335 428
#     4  10  23  41  66  99 134 185 236 284 347 432
#
# _framework density 23.385148000000001
#
# number of rings (size 3 to 8) (size 9 to 14) (size 15 to 20)
#    0.000    1.333    0.000    4.000    9.333    4.000 
#    0.000    0.000    0.000    0.000    0.000    0.000 
#    0.000    0.000    0.000    0.000    0.000    0.000 
#
# Total GULP energy -297354.511956 kJ/mol
# GULP energy per Si atom -12389.771332 kJ/mol
# Density = 2.333192 g / cm^3
# Si number density = 23.385148 Si / 1000 Ang^3
#
#
#
# Elastic Constant Matrix: (Units=GPa)
#
#
# Indices 1 2 3 4 5 6 
#
# 1 60.9585 49.0871 8.6380 0.0000 0.0000 0.0000
# 2 49.0871 101.5518 41.4735 0.0000 0.0000 0.0000
# 3 8.6380 41.4735 167.2272 0.0000 0.0000 0.0000
# 4 0.0000 0.0000 0.0000 37.4876 0.0000 0.0000
# 5 0.0000 0.0000 0.0000 0.0000 14.2424 0.0000
# 6 0.0000 0.0000 0.0000 0.0000 0.0000 35.0747
#
#
#
# Elastic Compliance Matrix: (Units=1/GPa)
#
#
# Indices 1 2 3 4 5 6 
#
# 1 0.027499 -0.014145 0.002088 0.000000 0.000000 0.000000
# 2 -0.014145 0.018233 -0.003791 0.000000 0.000000 0.000000
# 3 0.002088 -0.003791 0.006812 0.000000 0.000000 0.000000
# 4 0.000000 0.000000 0.000000 0.026675 0.000000 0.000000
# 5 0.000000 0.000000 0.000000 0.000000 0.070213 0.000000
# 6 0.000000 0.000000 0.000000 0.000000 0.000000 0.028511
#
#
# Mechanical properties :
#
#
# Convention : Reuss Voigt Hill
#
# Bulk Modulus (GPa) = 47.96822 58.68164 53.32493
# Shear Modulus (GPa) = 23.08524 32.73018 27.90771
#
# Velocity S-wave (km/s) = 3.14534 3.74520 3.45830
# Velocity P-wave (km/s) = 5.80928 6.62194 6.22887
#
# Compressibility (1/GPa) = 0.02084714
#
# Stress axis : x y z
#
# Youngs Moduli (GPa) = 36.36513 54.84672 146.79332
#
# Poissons Ratio (x) = 0.77579 -0.30644
# Poissons Ratio (y) = 0.51437 0.55652
# Poissons Ratio (z) = -0.07591 0.20793
#
# Static dielectric constant tensor:
#      x y z
#    x 3.793140 0.000000 0.000000 
#    y 0.000000 4.105440 0.000000 
#    z 0.000000 0.000000 6.767310 
# 
# 
# High freq. dielectric constant tensor:
#      x y z
#    x 1.888430 0.000000 0.000000 
#    y 0.000000 1.924740 0.000000 
#    z 0.000000 0.000000 1.966530 
# 
# From -- ./inp_files/196.got.cif
#   From: 2010.03.12/outbox.cif.g09.slc.cpg/sg29_1_cif.got.tgz:196.got - 2010.04.14 03:43:10.
