data_PCOD8168588
_publ_section_title
;
Structure prediction by ZEFSAII (Michael W. Deem and Ramdas Pophale) SiO2 
 PCOD8168588
Probable space group: P C A 21
;
_chemical_formula_sum "Si O2"
_cell_formula_units_Z 32
_cell_length_a 15.809320
_cell_length_b 20.431562
_cell_length_c 4.961504
_cell_angle_alpha 90.000000
_cell_angle_beta 90.000000
_cell_angle_gamma 90.000000
_cell_volume 1602.610950
_symmetry_space_group_name_H-M "P C A 21"
_symmetry_group_IT_number 29
_symmetry_cell_setting 'orthorhombic'
loop_
_space_group_symop_operation_xyz
x,y,z
-x,-y,1/2+z
1/2-x,y,1/2+z
1/2+x,-y,z
loop_
_atom_site_type_symbol
_atom_site_label
_atom_site_fract_x
_atom_site_fract_y
_atom_site_fract_z
Si Si1 0.691916 0.231794 0.554170
Si Si2 0.049373 0.522556 0.653363
Si Si3 0.694344 0.956975 0.521772
Si Si4 0.694141 0.091741 0.662652
Si Si5 0.308714 0.183775 0.126072
Si Si6 0.693838 0.575360 0.663172
Si Si7 0.928006 0.696703 0.146132
Si Si8 0.462187 0.674367 0.146212
O O1 0.728766 0.238969 0.255085
O O2 0.646630 0.160194 0.595963
O O3 0.623941 0.287482 0.599078
O O4 0.140553 0.490010 0.607147
O O5 0.058305 0.598803 0.593568
O O6 0.980010 0.490448 0.457771
O O7 0.721071 0.958138 0.209625
O O8 0.647634 0.888299 0.588614
O O9 0.641970 0.024256 0.592756
O O10 0.778634 0.090671 0.474351
O O11 0.269081 0.193147 0.420651
O O12 0.382550 0.235433 0.079015
O O13 0.775187 0.576379 0.470658
O O14 0.637752 0.638502 0.603595
O O15 0.963573 0.697962 0.448116
O O16 0.007104 0.686862 0.948814
#
# Coordination Sequence:
#
# PCOD8168588 Si02
#       8
#     4   4   4   4   4   4   4   4
#     4  10  21  37  59  86 113 140 190 243 281 327
#     4  12  23  44  62  82 114 151 186 227 285 345
#     4   8  14  25  46  74 106 142 184 225 278 322
#     4   8  14  27  48  76 106 139 178 233 280 322
#     4  10  19  33  53  82 114 149 191 239 271 316
#     4  12  24  39  63  90 111 142 188 237 274 323
#     4  12  23  39  58  84 119 153 186 223 281 346
#     4  12  24  40  63  82 113 156 183 223 288 353
#
# _framework density 19.967416
#
# number of rings (size 3 to 8) (size 9 to 14) (size 15 to 20)
#    0.000    1.500    2.500    3.750    0.000    1.000 
#    0.000    0.000    0.000    1.500    0.000    0.000 
#    0.000    0.000    0.000    0.000    0.000    0.000 
#
# Total GULP energy -396712.986150 kJ/mol
# GULP energy per Si atom -12397.280817 kJ/mol
# Density = 1.992197 g / cm^3
# Si number density = 19.967416 Si / 1000 Ang^3
#
#
#
# Elastic Constant Matrix: (Units=GPa)
#
#
# Indices 1 2 3 4 5 6 
#
# 1 54.2311 50.1319 5.4291 0.0000 0.0000 0.0000
# 2 50.1319 145.7385 12.7247 0.0000 0.0000 0.0000
# 3 5.4291 12.7247 74.0594 0.0000 0.0000 0.0000
# 4 0.0000 0.0000 0.0000 25.9279 0.0000 0.0000
# 5 0.0000 0.0000 0.0000 0.0000 29.1569 0.0000
# 6 0.0000 0.0000 0.0000 0.0000 0.0000 18.8446
#
#
#
# Elastic Compliance Matrix: (Units=1/GPa)
#
#
# Indices 1 2 3 4 5 6 
#
# 1 0.027048 -0.009270 -0.000390 0.000000 0.000000 0.000000
# 2 -0.009270 0.010143 -0.001063 0.000000 0.000000 0.000000
# 3 -0.000390 -0.001063 0.013714 0.000000 0.000000 0.000000
# 4 0.000000 0.000000 0.000000 0.038568 0.000000 0.000000
# 5 0.000000 0.000000 0.000000 0.000000 0.034297 0.000000
# 6 0.000000 0.000000 0.000000 0.000000 0.000000 0.053066
#
#
# Mechanical properties :
#
#
# Convention : Reuss Voigt Hill
#
# Bulk Modulus (GPa) = 33.94608 45.62227 39.78417
# Shear Modulus (GPa) = 24.02663 28.50212 26.26437
#
# Velocity S-wave (km/s) = 3.47261 3.78224 3.63073
# Velocity P-wave (km/s) = 5.75468 6.47856 6.12732
#
# Compressibility (1/GPa) = 0.02945849
#
# Stress axis : x y z
#
# Youngs Moduli (GPa) = 36.97134 98.58829 72.91845
#
# Poissons Ratio (x) = 0.91392 0.02844
# Poissons Ratio (y) = 0.34273 0.07753
# Poissons Ratio (z) = 0.01442 0.10482
#
# Static dielectric constant tensor:
#      x y z
#    x 3.050830 0.000000 0.000000 
#    y 0.000000 4.156960 0.000000 
#    z 0.000000 0.000000 3.779870 
# 
# 
# High freq. dielectric constant tensor:
#      x y z
#    x 1.713580 0.000000 0.000000 
#    y 0.000000 1.808210 0.000000 
#    z 0.000000 0.000000 1.802840 
# 
# From -- ./inp_files/123.got.cif
#   From: 2010.03.12/outbox.cif.g09.slc.cpg/sg29_1_cif.got.tgz:123.got - 2010.04.14 03:43:10.
