data_PCOD8168455
_publ_section_title
;
Structure prediction by ZEFSAII (Michael W. Deem and Ramdas Pophale) SiO2 
 PCOD8168455
Probable space group: P M A 2
;
_chemical_formula_sum "Si O2"
_cell_formula_units_Z 16
_cell_length_a 19.938887
_cell_length_b 7.611964
_cell_length_c 5.040887
_cell_angle_alpha 90.000000
_cell_angle_beta 90.000000
_cell_angle_gamma 90.000000
_cell_volume 765.076037
_symmetry_space_group_name_H-M "P M A 2"
_symmetry_group_IT_number 28
_symmetry_cell_setting 'orthorhombic'
loop_
_space_group_symop_operation_xyz
x,y,z
-x,-y,z
1/2-x,y,z
1/2+x,-y,z
loop_
_atom_site_type_symbol
_atom_site_label
_atom_site_fract_x
_atom_site_fract_y
_atom_site_fract_z
Si Si1 0.059538 0.633895 0.654850
Si Si2 0.827468 0.864088 0.237279
Si Si3 0.327468 0.364087 0.737284
Si Si4 0.940462 0.133896 0.154851
O O1 0.130722 0.539889 0.693039
O O2 0.053952 0.704150 0.356493
O O3 0.000000 0.500000 0.713234
O O4 0.053955 0.795849 0.856492
O O5 0.750000 0.919186 0.215372
O O6 0.845733 0.783802 0.521861
O O7 0.869278 0.039892 0.193052
O O8 0.845739 0.716202 0.021859
O O9 0.250000 0.419189 0.715409
O O10 0.000000 0.000000 0.213226
#
# Coordination Sequence:
#
# PCOD8168455 Si02
#       4
#     4   4   4   4
#     4  12  24  39  60  85 116 151 192 237 282 336
#     4  10  21  39  61  85 116 151 187 231 285 340
#     4  10  21  39  61  85 116 151 187 231 285 340
#     4  12  24  39  60  85 116 151 192 237 282 336
#
# _framework density 20.912953999999999
#
# number of rings (size 3 to 8) (size 9 to 14) (size 15 to 20)
#    0.000    1.000    0.000    7.500    0.000    2.000 
#    0.000    0.000    0.000    0.000    0.000    0.000 
#    0.000    0.000    0.000    0.000    0.000    0.000 
#
# Total GULP energy -198562.245678 kJ/mol
# GULP energy per Si atom -12410.140355 kJ/mol
# Density = 2.086536 g / cm^3
# Si number density = 20.912954 Si / 1000 Ang^3
#
#
#
# Elastic Constant Matrix: (Units=GPa)
#
#
# Indices 1 2 3 4 5 6 
#
# 1 99.9750 52.8120 20.5134 0.0000 0.0000 0.0000
# 2 52.8120 84.9183 9.1681 0.0000 0.0000 0.0000
# 3 20.5134 9.1681 75.2787 0.0000 0.0000 0.0000
# 4 0.0000 0.0000 0.0000 41.8105 0.0000 0.0000
# 5 0.0000 0.0000 0.0000 0.0000 25.5053 0.0000
# 6 0.0000 0.0000 0.0000 0.0000 0.0000 57.3971
#
#
#
# Elastic Compliance Matrix: (Units=1/GPa)
#
#
# Indices 1 2 3 4 5 6 
#
# 1 0.015582 -0.009355 -0.003107 0.000000 0.000000 0.000000
# 2 -0.009355 0.017550 0.000412 0.000000 0.000000 0.000000
# 3 -0.003107 0.000412 0.014080 0.000000 0.000000 0.000000
# 4 0.000000 0.000000 0.000000 0.023917 0.000000 0.000000
# 5 0.000000 0.000000 0.000000 0.000000 0.039207 0.000000
# 6 0.000000 0.000000 0.000000 0.000000 0.000000 0.017422
#
#
# Mechanical properties :
#
#
# Convention : Reuss Voigt Hill
#
# Bulk Modulus (GPa) = 43.26753 47.23988 45.25370
# Shear Modulus (GPa) = 31.33556 36.78783 34.06169
#
# Velocity S-wave (km/s) = 3.87509 4.19870 4.04014
# Velocity P-wave (km/s) = 6.38404 6.79289 6.59164
#
# Compressibility (1/GPa) = 0.02311202
#
# Stress axis : x y z
#
# Youngs Moduli (GPa) = 64.17727 56.98112 71.02084
#
# Poissons Ratio (x) = 0.53307 0.22064
# Poissons Ratio (y) = 0.60039 -0.02926
# Poissons Ratio (z) = 0.19938 -0.02347
#
# Static dielectric constant tensor:
#      x y z
#    x 3.942430 0.000000 0.000000 
#    y 0.000000 3.560580 0.000000 
#    z 0.000000 0.000000 3.989360 
# 
# 
# High freq. dielectric constant tensor:
#      x y z
#    x 1.832250 0.000000 0.000000 
#    y 0.000000 1.813050 0.000000 
#    z 0.000000 0.000000 1.838390 
# 
# From -- ./inp_files/1286.got.cif
#   From: 2010.03.12/outbox.cif.g09.slc.cpg/sg28_1_cif.got.tgz:1286.got - 2010.04.14 03:39:34.
