data_PCOD8168679
_publ_section_title
;
Structure prediction by ZEFSAII (Michael W. Deem and Ramdas Pophale) SiO2 
 PCOD8168679
Probable space group: P C A 21
;
_chemical_formula_sum "Si O2"
_cell_formula_units_Z 32
_cell_length_a 9.378712
_cell_length_b 13.198005
_cell_length_c 12.665746
_cell_angle_alpha 90.000000
_cell_angle_beta 90.000000
_cell_angle_gamma 90.000000
_cell_volume 1567.769686
_symmetry_space_group_name_H-M "P C A 21"
_symmetry_group_IT_number 29
_symmetry_cell_setting 'orthorhombic'
loop_
_space_group_symop_operation_xyz
x,y,z
-x,-y,1/2+z
1/2-x,y,1/2+z
1/2+x,-y,z
loop_
_atom_site_type_symbol
_atom_site_label
_atom_site_fract_x
_atom_site_fract_y
_atom_site_fract_z
Si Si1 0.132499 0.595130 0.584180
Si Si2 0.582961 0.675890 0.238114
Si Si3 0.492305 0.897664 0.524989
Si Si4 0.367507 0.404859 0.224939
Si Si5 0.741553 0.999997 0.654546
Si Si6 0.582966 0.324108 0.070990
Si Si7 0.999998 0.512902 0.904556
Si Si8 0.007689 0.102337 0.284103
O O1 0.183158 0.500000 0.654569
O O2 0.248557 0.685444 0.591629
O O3 0.112244 0.559993 0.463460
O O4 0.988843 0.645691 0.627788
O O5 0.751441 0.685449 0.217490
O O6 0.575252 0.582145 0.318182
O O7 0.513404 0.776285 0.285523
O O8 0.346305 0.936301 0.578829
O O9 0.486576 0.776286 0.523567
O O10 0.500003 0.937780 0.404546
O O11 0.637278 0.929702 0.584747
O O12 0.511146 0.354294 0.181313
O O13 0.387786 0.439982 0.345661
O O14 0.637285 0.070293 0.724350
O O15 0.846312 0.936294 0.730257
O O16 0.575265 0.417859 0.990927
#
# Coordination Sequence:
#
# PCOD8168679 Si02
#       8
#     4   4   4   4   4   4   4   4
#     4  10  21  36  56  83 122 161 200 243 291 349
#     4  11  21  37  59  86 119 157 201 246 292 355
#     4  11  22  43  66  94 123 160 202 254 314 370
#     4  10  21  36  56  83 122 161 200 243 291 349
#     4  10  24  42  68  92 124 156 200 258 318 374
#     4  11  21  37  59  86 119 157 201 246 292 355
#     4  10  20  36  56  86 118 162 200 240 294 346
#     4  11  22  43  66  94 123 160 202 254 314 370
#
# _framework density 20.411159999999999
#
# number of rings (size 3 to 8) (size 9 to 14) (size 15 to 20)
#    0.000    1.500    1.250    5.250    0.000    2.000 
#    4.500    0.000    5.500    0.000    0.000    0.000 
#    0.000    0.000    0.000    0.000    0.000    0.000 
#
# Total GULP energy -396692.581823 kJ/mol
# GULP energy per Si atom -12396.643182 kJ/mol
# Density = 2.036470 g / cm^3
# Si number density = 20.411160 Si / 1000 Ang^3
#
#
#
# Elastic Constant Matrix: (Units=GPa)
#
#
# Indices 1 2 3 4 5 6 
#
# 1 146.7913 44.2936 61.9081 0.0000 0.0000 0.0000
# 2 44.2936 72.2799 37.0198 0.0000 0.0000 0.0000
# 3 61.9081 37.0198 134.1447 0.0000 0.0000 0.0000
# 4 0.0000 0.0000 0.0000 17.9648 0.0000 0.0000
# 5 0.0000 0.0000 0.0000 0.0000 25.4502 0.0000
# 6 0.0000 0.0000 0.0000 0.0000 0.0000 26.2853
#
#
#
# Elastic Compliance Matrix: (Units=1/GPa)
#
#
# Indices 1 2 3 4 5 6 
#
# 1 0.009408 -0.004125 -0.003204 0.000000 0.000000 0.000000
# 2 -0.004125 0.017921 -0.003042 0.000000 0.000000 0.000000
# 3 -0.003204 -0.003042 0.009773 0.000000 0.000000 0.000000
# 4 0.000000 0.000000 0.000000 0.055664 0.000000 0.000000
# 5 0.000000 0.000000 0.000000 0.000000 0.039292 0.000000
# 6 0.000000 0.000000 0.000000 0.000000 0.000000 0.038044
#
#
# Mechanical properties :
#
#
# Convention : Reuss Voigt Hill
#
# Bulk Modulus (GPa) = 61.12105 71.07323 66.09714
# Shear Modulus (GPa) = 25.47168 27.93967 26.70568
#
# Velocity S-wave (km/s) = 3.53644 3.70380 3.62109
# Velocity P-wave (km/s) = 6.83265 7.29296 7.06655
#
# Compressibility (1/GPa) = 0.01636098
#
# Stress axis : x y z
#
# Youngs Moduli (GPa) = 106.29206 55.80134 102.32658
#
# Poissons Ratio (x) = 0.23015 0.32781
# Poissons Ratio (y) = 0.43840 0.31129
# Poissons Ratio (z) = 0.34052 0.16975
#
# Static dielectric constant tensor:
#      x y z
#    x 3.716190 0.000000 0.000000 
#    y 0.000000 3.517580 0.000000 
#    z 0.000000 0.000000 3.828100 
# 
# 
# High freq. dielectric constant tensor:
#      x y z
#    x 1.808970 0.000000 0.000000 
#    y 0.000000 1.781350 0.000000 
#    z 0.000000 0.000000 1.804750 
# 
# From -- ./inp_files/2912.got.cif
#   From: 2010.03.12/outbox.cif.g09.slc.cpg/sg29_2_cif.got.tgz:2912.got - 2010.04.14 03:43:10.
