data_PCOD8168198
_publ_section_title
;
Structure prediction by ZEFSAII (Michael W. Deem and Ramdas Pophale) SiO2 
 PCOD8168198
Probable space group: P M A 2
;
_chemical_formula_sum "Si O2"
_cell_formula_units_Z 32
_cell_length_a 8.838334
_cell_length_b 14.515909
_cell_length_c 12.238632
_cell_angle_alpha 90.000000
_cell_angle_beta 90.000000
_cell_angle_gamma 90.000000
_cell_volume 1570.173064
_symmetry_space_group_name_H-M "P M A 2"
_symmetry_group_IT_number 28
_symmetry_cell_setting 'orthorhombic'
loop_
_space_group_symop_operation_xyz
x,y,z
-x,-y,z
1/2-x,y,z
1/2+x,-y,z
loop_
_atom_site_type_symbol
_atom_site_label
_atom_site_fract_x
_atom_site_fract_y
_atom_site_fract_z
Si Si1 0.423212 0.907022 0.322420
Si Si2 0.927024 0.716562 0.260864
Si Si3 0.069909 0.091563 0.786349
Si Si4 0.076749 0.332584 0.501632
Si Si5 0.575963 0.148107 0.564719
Si Si6 0.078507 0.585996 0.690781
Si Si7 0.070721 0.601345 0.068128
Si Si8 0.075039 0.731066 0.869474
O O1 0.250000 0.903095 0.283164
O O2 0.507330 0.819476 0.269796
O O3 0.432498 0.911303 0.454033
O O4 0.500000 0.000000 0.276620
O O5 0.750000 0.723827 0.232676
O O6 0.955164 0.661346 0.373090
O O7 0.013849 0.656171 0.172990
O O8 0.250000 0.085550 0.774689
O O9 0.990888 0.093994 0.667492
O O10 0.025801 0.177071 0.864631
O O11 0.000000 0.000000 0.842633
O O12 0.250000 0.349146 0.529968
O O13 0.030146 0.234575 0.547947
O O14 0.980994 0.408463 0.566409
O O15 0.750000 0.177614 0.588844
O O16 0.250000 0.558792 0.687777
O O17 0.048498 0.680612 0.754237
O O18 0.000000 0.500000 0.751744
O O19 0.250000 0.589665 0.073380
O O20 0.000000 0.500000 0.060663
O O21 0.020195 0.662509 0.964497
O O22 0.250000 0.758277 0.886227
#
# Coordination Sequence:
#
# PCOD8168198 Si02
#       8
#     4   4   4   4   4   4   4   4
#     4  10  20  34  56  87 124 166 208 251 301 360
#     4  10  22  40  62  89 123 159 203 257 307 362
#     4  12  24  37  59  88 123 165 206 250 300 360
#     4  10  20  35  56  85 121 161 202 246 303 361
#     4  10  19  33  54  83 122 164 206 249 296 354
#     4  11  22  36  58  86 121 159 197 244 302 367
#     4  11  24  44  70  95 120 155 203 256 309 368
#     4  10  23  43  64  89 122 157 199 254 307 361
#
# _framework density 20.379919999999998
#
# number of rings (size 3 to 8) (size 9 to 14) (size 15 to 20)
#    0.000    1.500    1.250    4.125    0.000    6.000 
#    0.000    0.625    0.000    3.000    0.000    0.000 
#    0.000    0.000    0.000    0.000    0.000    0.000 
#
# Total GULP energy -396777.675060 kJ/mol
# GULP energy per Si atom -12399.302346 kJ/mol
# Density = 2.033353 g / cm^3
# Si number density = 20.379920 Si / 1000 Ang^3
#
#
#
# Elastic Constant Matrix: (Units=GPa)
#
#
# Indices 1 2 3 4 5 6 
#
# 1 101.1432 58.5271 55.2290 0.0000 0.0000 0.0000
# 2 58.5271 127.8078 49.2014 0.0000 0.0000 0.0000
# 3 55.2290 49.2014 88.6334 0.0000 0.0000 0.0000
# 4 0.0000 0.0000 0.0000 18.4829 0.0000 0.0000
# 5 0.0000 0.0000 0.0000 0.0000 27.2591 0.0000
# 6 0.0000 0.0000 0.0000 0.0000 0.0000 39.8733
#
#
#
# Elastic Compliance Matrix: (Units=1/GPa)
#
#
# Indices 1 2 3 4 5 6 
#
# 1 0.016949 -0.004700 -0.007952 0.000000 0.000000 0.000000
# 2 -0.004700 0.011254 -0.003319 0.000000 0.000000 0.000000
# 3 -0.007952 -0.003319 0.018080 0.000000 0.000000 0.000000
# 4 0.000000 0.000000 0.000000 0.054104 0.000000 0.000000
# 5 0.000000 0.000000 0.000000 0.000000 0.036685 0.000000
# 6 0.000000 0.000000 0.000000 0.000000 0.000000 0.025079
#
#
# Mechanical properties :
#
#
# Convention : Reuss Voigt Hill
#
# Bulk Modulus (GPa) = 69.72925 71.49994 70.61460
# Shear Modulus (GPa) = 25.14164 27.43151 26.28658
#
# Velocity S-wave (km/s) = 3.51614 3.67278 3.59531
# Velocity P-wave (km/s) = 7.12554 7.29009 7.20828
#
# Compressibility (1/GPa) = 0.01434118
#
# Stress axis : x y z
#
# Youngs Moduli (GPa) = 59.00064 88.85627 55.31081
#
# Poissons Ratio (x) = 0.41764 0.43983
# Poissons Ratio (y) = 0.27731 0.18355
# Poissons Ratio (z) = 0.46918 0.29487
#
# Static dielectric constant tensor:
#      x y z
#    x 3.770360 0.000000 0.000000 
#    y 0.000000 3.758860 0.000000 
#    z 0.000000 0.000000 3.671460 
# 
# 
# High freq. dielectric constant tensor:
#      x y z
#    x 1.808520 0.000000 0.000000 
#    y 0.000000 1.805930 0.000000 
#    z 0.000000 0.000000 1.777100 
# 
# From -- ./inp_files/5037.got.cif
#   From: 2010.03.12/outbox.cif.g09.slc.cpg/sg28_3_cif.got.tgz:5037.got - 2010.04.14 03:39:34.
