data_PCOD8168933
_publ_section_title
;
Structure prediction by ZEFSAII (Michael W. Deem and Ramdas Pophale) SiO2 
 PCOD8168933
Probable space group: P C A 21
;
_chemical_formula_sum "Si O2"
_cell_formula_units_Z 28
_cell_length_a 17.209832
_cell_length_b 6.198259
_cell_length_c 11.505285
_cell_angle_alpha 90.000000
_cell_angle_beta 90.000000
_cell_angle_gamma 90.000000
_cell_volume 1227.280211
_symmetry_space_group_name_H-M "P C A 21"
_symmetry_group_IT_number 29
_symmetry_cell_setting 'orthorhombic'
loop_
_space_group_symop_operation_xyz
x,y,z
-x,-y,1/2+z
1/2-x,y,1/2+z
1/2+x,-y,z
loop_
_atom_site_type_symbol
_atom_site_label
_atom_site_fract_x
_atom_site_fract_y
_atom_site_fract_z
Si Si1 0.297575 0.572022 0.446360
Si Si2 0.683576 0.094515 0.340024
Si Si3 0.164944 0.283341 0.500750
Si Si4 0.100245 0.206146 0.897301
Si Si5 0.563500 0.983115 0.659819
Si Si6 0.390143 0.880469 0.595823
Si Si7 0.941633 0.337718 0.983611
O O1 0.259636 0.759252 0.366286
O O2 0.231543 0.459779 0.527711
O O3 0.335688 0.387230 0.363974
O O4 0.363438 0.660232 0.533599
O O5 0.667218 0.080513 0.203702
O O6 0.607669 0.185416 0.400590
O O7 0.694598 0.852770 0.389269
O O8 0.140637 0.128239 0.605835
O O9 0.086480 0.417479 0.476627
O O10 0.079956 0.032583 0.796821
O O11 0.025991 0.345809 0.929914
O O12 0.128932 0.076263 0.009564
O O13 0.481571 0.865822 0.628171
O O14 0.559385 0.230693 0.614008
#
# Coordination Sequence:
#
# PCOD8168933 Si02
#       7
#     4   4   4   4   4   4   4
#     4  11  25  42  65 103 136 179 231 274 345 420
#     4  10  22  45  68  93 137 180 224 288 342 404
#     4  10  22  44  67  96 130 178 228 282 343 406
#     4  11  23  42  67 108 134 176 228 281 344 413
#     4  10  22  42  71  96 133 175 226 290 342 402
#     4  11  24  45  68  98 140 180 227 287 346 404
#     4   9  20  42  68  98 130 174 228 278 350 401
#
# _framework density 22.814675000000001
#
# number of rings (size 3 to 8) (size 9 to 14) (size 15 to 20)
#    0.000    1.714    1.429    1.714    2.000    3.429 
#   20.571    0.000    0.000    0.000    0.000    0.000 
#    0.000    0.000    0.000    0.000    0.000    0.000 
#
# Total GULP energy -347049.825386 kJ/mol
# GULP energy per Si atom -12394.636621 kJ/mol
# Density = 2.276275 g / cm^3
# Si number density = 22.814675 Si / 1000 Ang^3
#
#
#
# Elastic Constant Matrix: (Units=GPa)
#
#
# Indices 1 2 3 4 5 6 
#
# 1 95.3976 38.2101 37.2631 0.0000 0.0000 0.0000
# 2 38.2101 97.7191 42.5000 0.0000 0.0000 0.0000
# 3 37.2631 42.5000 127.8355 0.0000 0.0000 0.0000
# 4 0.0000 0.0000 0.0000 23.0719 0.0000 0.0000
# 5 0.0000 0.0000 0.0000 0.0000 21.9184 0.0000
# 6 0.0000 0.0000 0.0000 0.0000 0.0000 48.7872
#
#
#
# Elastic Compliance Matrix: (Units=1/GPa)
#
#
# Indices 1 2 3 4 5 6 
#
# 1 0.013062 -0.004035 -0.002466 0.000000 0.000000 0.000000
# 2 -0.004035 0.013210 -0.003216 0.000000 0.000000 0.000000
# 3 -0.002466 -0.003216 0.009610 0.000000 0.000000 0.000000
# 4 0.000000 0.000000 0.000000 0.043343 0.000000 0.000000
# 5 0.000000 0.000000 0.000000 0.000000 0.045624 0.000000
# 6 0.000000 0.000000 0.000000 0.000000 0.000000 0.020497
#
#
# Mechanical properties :
#
#
# Convention : Reuss Voigt Hill
#
# Bulk Modulus (GPa) = 60.79389 61.87763 61.33576
# Shear Modulus (GPa) = 29.36663 32.28744 30.82703
#
# Velocity S-wave (km/s) = 3.59162 3.76600 3.67985
# Velocity P-wave (km/s) = 6.62604 6.78904 6.70803
#
# Compressibility (1/GPa) = 0.01644902
#
# Stress axis : x y z
#
# Youngs Moduli (GPa) = 76.55909 75.70230 104.05405
#
# Poissons Ratio (x) = 0.30545 0.25659
# Poissons Ratio (y) = 0.30891 0.33459
# Poissons Ratio (z) = 0.18879 0.24342
#
# Static dielectric constant tensor:
#      x y z
#    x 4.282140 0.000000 0.000000 
#    y 0.000000 4.118710 0.000000 
#    z 0.000000 0.000000 3.860580 
# 
# 
# High freq. dielectric constant tensor:
#      x y z
#    x 1.920870 0.000000 0.000000 
#    y 0.000000 1.900980 0.000000 
#    z 0.000000 0.000000 1.872740 
# 
# From -- ./inp_files/3579.got.cif
#   From: 2010.03.12/outbox.cif.g09.slc.cpg/sg29_2_cif.got.tgz:3579.got - 2010.04.14 03:43:10.
