data_PCOD8168956
_publ_section_title
;
Structure prediction by ZEFSAII (Michael W. Deem and Ramdas Pophale) SiO2 
 PCOD8168956
Probable space group: P C A 21
;
_chemical_formula_sum "Si O2"
_cell_formula_units_Z 32
_cell_length_a 13.695100
_cell_length_b 5.469537
_cell_length_c 16.667522
_cell_angle_alpha 90.000000
_cell_angle_beta 90.000000
_cell_angle_gamma 90.000000
_cell_volume 1248.495006
_symmetry_space_group_name_H-M "P C A 21"
_symmetry_group_IT_number 29
_symmetry_cell_setting 'orthorhombic'
loop_
_space_group_symop_operation_xyz
x,y,z
-x,-y,1/2+z
1/2-x,y,1/2+z
1/2+x,-y,z
loop_
_atom_site_type_symbol
_atom_site_label
_atom_site_fract_x
_atom_site_fract_y
_atom_site_fract_z
Si Si1 0.081537 0.927183 0.309400
Si Si2 0.110570 0.301833 0.848858
Si Si3 0.668948 0.301498 0.459898
Si Si4 0.118462 0.124550 0.148613
Si Si5 0.034012 0.316738 0.424306
Si Si6 0.699534 0.609332 0.686557
Si Si7 0.608167 0.112844 0.618267
Si Si8 0.142665 0.931931 0.980042
O O1 0.131926 0.932985 0.222295
O O2 0.086817 0.197319 0.348108
O O3 0.136337 0.740887 0.367975
O O4 0.967398 0.863232 0.300223
O O5 0.184369 0.410044 0.782874
O O6 0.052191 0.506277 0.896453
O O7 0.169388 0.138407 0.914035
O O8 0.617584 0.560865 0.480524
O O9 0.626117 0.098778 0.521532
O O10 0.786739 0.302349 0.462544
O O11 0.184080 0.363297 0.169102
O O12 0.004329 0.182148 0.137794
O O13 0.167563 0.013983 0.069596
O O14 0.973268 0.122421 0.477786
O O15 0.667207 0.353313 0.647814
O O16 0.642903 0.855278 0.655330
#
# Coordination Sequence:
#
# PCOD8168956 Si02
#       8
#     4   4   4   4   4   4   4   4
#     4  10  22  44  72 103 152 193 251 308 388 448
#     4  10  22  46  71 108 148 197 251 312 379 460
#     4  11  25  45  71 105 147 200 248 317 380 459
#     4  12  25  49  76 112 151 206 253 320 387 455
#     4  10  23  43  73 106 139 202 243 316 378 454
#     4  12  28  49  79 111 153 199 258 312 385 450
#     4  12  28  49  77 113 157 195 252 325 374 459
#     4  11  25  45  73 106 155 190 264 308 389 457
#
# _framework density 25.630858
#
# number of rings (size 3 to 8) (size 9 to 14) (size 15 to 20)
#    0.000    1.000    2.500    3.750    5.250    5.000 
#    4.500    0.000    0.000    0.000    0.000    0.000 
#    0.000    0.000    0.000    0.000    0.000    0.000 
#
# Total GULP energy -396603.950256 kJ/mol
# GULP energy per Si atom -12393.873445 kJ/mol
# Density = 2.557252 g / cm^3
# Si number density = 25.630858 Si / 1000 Ang^3
#
#
#
# Elastic Constant Matrix: (Units=GPa)
#
#
# Indices 1 2 3 4 5 6 
#
# 1 105.1080 0.9265 5.8826 0.0000 0.0000 0.0000
# 2 0.9265 68.6303 -6.5867 0.0000 0.0000 0.0000
# 3 5.8826 -6.5867 119.6355 0.0000 0.0000 0.0000
# 4 0.0000 0.0000 0.0000 22.2754 0.0000 0.0000
# 5 0.0000 0.0000 0.0000 0.0000 20.3780 0.0000
# 6 0.0000 0.0000 0.0000 0.0000 0.0000 35.0664
#
#
#
# Elastic Compliance Matrix: (Units=1/GPa)
#
#
# Indices 1 2 3 4 5 6 
#
# 1 0.009542 -0.000175 -0.000479 0.000000 0.000000 0.000000
# 2 -0.000175 0.014651 0.000815 0.000000 0.000000 0.000000
# 3 -0.000479 0.000815 0.008427 0.000000 0.000000 0.000000
# 4 0.000000 0.000000 0.000000 0.044893 0.000000 0.000000
# 5 0.000000 0.000000 0.000000 0.000000 0.049072 0.000000
# 6 0.000000 0.000000 0.000000 0.000000 0.000000 0.028517
#
#
# Mechanical properties :
#
#
# Convention : Reuss Voigt Hill
#
# Bulk Modulus (GPa) = 30.35432 32.64650 31.50041
# Shear Modulus (GPa) = 30.16383 35.08740 32.62561
#
# Velocity S-wave (km/s) = 3.43426 3.70395 3.57165
# Velocity P-wave (km/s) = 5.25301 5.57289 5.41531
#
# Compressibility (1/GPa) = 0.03294424
#
# Stress axis : x y z
#
# Youngs Moduli (GPa) = 104.79589 68.25271 118.66405
#
# Poissons Ratio (x) = 0.01193 0.05682
# Poissons Ratio (y) = 0.01832 -0.09674
# Poissons Ratio (z) = 0.05018 -0.05564
#
# Static dielectric constant tensor:
#      x y z
#    x 4.654080 0.000000 0.000000 
#    y 0.000000 4.488040 0.000000 
#    z 0.000000 0.000000 4.714980 
# 
# 
# High freq. dielectric constant tensor:
#      x y z
#    x 2.033780 0.000000 0.000000 
#    y 0.000000 2.009760 0.000000 
#    z 0.000000 0.000000 2.032380 
# 
# From -- ./inp_files/5262.got.cif
#   From: 2010.03.12/outbox.cif.g09.slc.cpg/sg29_3_cif.got.tgz:5262.got - 2010.04.14 03:43:10.
