data_PCOD8168452
_publ_section_title
;
Structure prediction by ZEFSAII (Michael W. Deem and Ramdas Pophale) SiO2 
 PCOD8168452
Probable space group: P M A 2
;
_chemical_formula_sum "Si O2"
_cell_formula_units_Z 30
_cell_length_a 15.160026
_cell_length_b 10.603634
_cell_length_c 8.890617
_cell_angle_alpha 90.000000
_cell_angle_beta 90.000000
_cell_angle_gamma 90.000000
_cell_volume 1429.178837
_symmetry_space_group_name_H-M "P M A 2"
_symmetry_group_IT_number 28
_symmetry_cell_setting 'orthorhombic'
loop_
_space_group_symop_operation_xyz
x,y,z
-x,-y,z
1/2-x,y,z
1/2+x,-y,z
loop_
_atom_site_type_symbol
_atom_site_label
_atom_site_fract_x
_atom_site_fract_y
_atom_site_fract_z
Si Si1 0.848785 0.033977 0.029500
Si Si2 0.850204 0.524980 0.840301
Si Si3 0.847720 0.589135 0.519240
Si Si4 0.152219 0.700620 0.484014
Si Si5 0.082477 0.240107 0.983073
Si Si6 0.090119 0.748200 0.819432
Si Si7 0.519792 0.745012 0.317448
Si Si8 0.000000 0.000000 0.254385
O O1 0.750000 0.044039 0.097031
O O2 0.924025 0.064312 0.151397
O O3 0.855351 0.138239 0.897056
O O4 0.861180 0.888431 0.976000
O O5 0.750000 0.488499 0.806038
O O6 0.889153 0.586403 0.686740
O O7 0.857868 0.634413 0.964275
O O8 0.894247 0.392722 0.889012
O O9 0.750000 0.654557 0.511899
O O10 0.837066 0.447306 0.468267
O O11 0.917194 0.655990 0.411431
O O12 0.250000 0.761366 0.458004
O O13 0.113963 0.746978 0.643778
O O14 0.083747 0.732812 0.352898
O O15 0.012724 0.226074 0.847570
O O16 0.034015 0.267907 0.139945
O O17 0.542853 0.891253 0.357400
#
# Coordination Sequence:
#
# PCOD8168452 Si02
#       8
#     4   4   4   4   4   4   4   2
#     4  11  21  41  66  88 124 167 206 258 318 378
#     4  10  21  38  61  96 127 160 212 266 315 378
#     4   9  20  39  63  89 126 167 205 254 320 379
#     4  10  22  40  62  91 123 163 209 258 316 382
#     4  11  23  39  61  94 128 165 210 262 323 377
#     4  11  20  41  65  91 124 163 212 262 321 377
#     4  11  22  41  60  84 127 166 205 253 314 369
#     4  10  24  44  56  92 124 166 212 256 312 378
#
# _framework density 20.991074999999999
#
# number of rings (size 3 to 8) (size 9 to 14) (size 15 to 20)
#    0.000    1.600    2.667    4.000    0.000    7.467 
#    4.800    1.333    0.000    0.000    0.000    0.000 
#    0.000    0.000    0.000    0.000    0.000    0.000 
#
# Total GULP energy -371656.851249 kJ/mol
# GULP energy per Si atom -12388.561708 kJ/mol
# Density = 2.094330 g / cm^3
# Si number density = 20.991075 Si / 1000 Ang^3
#
#
#
# Elastic Constant Matrix: (Units=GPa)
#
#
# Indices 1 2 3 4 5 6 
#
# 1 117.0761 25.7326 49.5824 0.0000 0.0000 0.0000
# 2 25.7326 108.1373 45.4093 0.0000 0.0000 0.0000
# 3 49.5824 45.4093 71.0928 0.0000 0.0000 0.0000
# 4 0.0000 0.0000 0.0000 32.7762 0.0000 0.0000
# 5 0.0000 0.0000 0.0000 0.0000 0.7005 0.0000
# 6 0.0000 0.0000 0.0000 0.0000 0.0000 22.5386
#
#
#
# Elastic Compliance Matrix: (Units=1/GPa)
#
#
# Indices 1 2 3 4 5 6 
#
# 1 0.012188 0.000914 -0.009084 0.000000 0.000000 0.000000
# 2 0.000914 0.012706 -0.008753 0.000000 0.000000 0.000000
# 3 -0.009084 -0.008753 0.025993 0.000000 0.000000 0.000000
# 4 0.000000 0.000000 0.000000 0.030510 0.000000 0.000000
# 5 0.000000 0.000000 0.000000 0.000000 1.427484 0.000000
# 6 0.000000 0.000000 0.000000 0.000000 0.000000 0.044368
#
#
# Mechanical properties :
#
#
# Convention : Reuss Voigt Hill
#
# Bulk Modulus (GPa) = 58.68533 59.75054 59.21794
# Shear Modulus (GPa) = 3.13918 22.90853 13.02385
#
# Velocity S-wave (km/s) = 1.22423 3.30714 2.49358
# Velocity P-wave (km/s) = 5.47871 6.56578 6.04672
#
# Compressibility (1/GPa) = 0.01704003
#
# Stress axis : x y z
#
# Youngs Moduli (GPa) = 82.05036 78.70558 38.47243
#
# Poissons Ratio (x) = -0.07197 0.34949
# Poissons Ratio (y) = -0.07503 0.33676
# Poissons Ratio (z) = 0.74536 0.68893
#
# Static dielectric constant tensor:
#      x y z
#    x 3.993060 0.000000 0.000000 
#    y 0.000000 3.988210 0.000000 
#    z 0.000000 0.000000 3.653710 
# 
# 
# High freq. dielectric constant tensor:
#      x y z
#    x 1.833100 0.000000 0.000000 
#    y 0.000000 1.831560 0.000000 
#    z 0.000000 0.000000 1.798910 
# 
# From -- ./inp_files/3494.got.cif
#   From: 2010.03.12/outbox.cif.g09.slc.cpg/sg28_2_cif.got.tgz:3494.got - 2010.04.14 03:39:34.
