data_PCOD8168632
_publ_section_title
;
Structure prediction by ZEFSAII (Michael W. Deem and Ramdas Pophale) SiO2 
 PCOD8168632
Probable space group: P C A 21
;
_chemical_formula_sum "Si O2"
_cell_formula_units_Z 32
_cell_length_a 18.760115
_cell_length_b 5.303133
_cell_length_c 13.662858
_cell_angle_alpha 90.000000
_cell_angle_beta 90.000000
_cell_angle_gamma 90.000000
_cell_volume 1359.282013
_symmetry_space_group_name_H-M "P C A 21"
_symmetry_group_IT_number 29
_symmetry_cell_setting 'orthorhombic'
loop_
_space_group_symop_operation_xyz
x,y,z
-x,-y,1/2+z
1/2-x,y,1/2+z
1/2+x,-y,z
loop_
_atom_site_type_symbol
_atom_site_label
_atom_site_fract_x
_atom_site_fract_y
_atom_site_fract_z
Si Si1 0.380905 0.496056 0.623080
Si Si2 0.694885 0.507002 0.327157
Si Si3 0.683888 0.008160 0.438792
Si Si4 0.151525 0.995604 0.000453
Si Si5 0.543307 0.990399 0.822967
Si Si6 0.492983 0.510330 0.264756
Si Si7 0.145723 0.016744 0.644821
Si Si8 0.326274 0.516964 0.224390
O O1 0.327369 0.504190 0.714112
O O2 0.368842 0.243008 0.561601
O O3 0.461484 0.495807 0.665623
O O4 0.370221 0.742946 0.557464
O O5 0.667083 0.764970 0.373298
O O6 0.781584 0.497549 0.325911
O O7 0.664665 0.264786 0.382768
O O8 0.765013 0.005539 0.476649
O O9 0.628535 0.996202 0.529533
O O10 0.107871 0.001863 0.898916
O O11 0.494119 0.739075 0.831999
O O12 0.575116 0.978307 0.711633
O O13 0.491430 0.235576 0.828464
O O14 0.409388 0.524956 0.244289
O O15 0.192760 0.269361 0.661060
O O16 0.195383 0.774190 0.668897
#
# Coordination Sequence:
#
# PCOD8168632 Si02
#       8
#     4   4   4   4   4   4   4   4
#     4  12  26  44  65 101 139 169 211 283 338 376
#     4  12  24  41  64  94 134 173 213 265 322 381
#     4  12  23  39  63  97 129 171 218 262 320 390
#     4  12  24  42  69  99 130 176 225 265 326 400
#     4  10  21  41  67  91 124 173 222 260 311 398
#     4  10  21  41  63  88 125 165 209 265 323 379
#     4  10  20  36  61  89 119 156 213 269 307 360
#     4  10  19  38  62  83 116 169 209 251 309 382
#
# _framework density 23.541840000000001
#
# number of rings (size 3 to 8) (size 9 to 14) (size 15 to 20)
#    0.000    1.000    0.000    9.000    0.000    0.000 
#    0.000   15.000    0.000    0.000    0.000    0.000 
#    0.000    0.000    0.000    0.000    0.000    0.000 
#
# Total GULP energy -396583.997864 kJ/mol
# GULP energy per Si atom -12393.249933 kJ/mol
# Density = 2.348826 g / cm^3
# Si number density = 23.541840 Si / 1000 Ang^3
#
#
#
# Elastic Constant Matrix: (Units=GPa)
#
#
# Indices 1 2 3 4 5 6 
#
# 1 74.3905 0.0879 22.6544 0.0000 0.0000 0.0000
# 2 0.0879 182.4941 23.7527 0.0000 0.0000 0.0000
# 3 22.6544 23.7527 66.7210 0.0000 0.0000 0.0000
# 4 0.0000 0.0000 0.0000 49.1719 0.0000 0.0000
# 5 0.0000 0.0000 0.0000 0.0000 33.9289 0.0000
# 6 0.0000 0.0000 0.0000 0.0000 0.0000 -24.7913
#
#
#
# Elastic Compliance Matrix: (Units=1/GPa)
#
#
# Indices 1 2 3 4 5 6 
#
# 1 0.015075 0.000691 -0.005365 0.000000 0.000000 0.000000
# 2 0.000691 0.005778 -0.002291 0.000000 0.000000 0.000000
# 3 -0.005365 -0.002291 0.017625 0.000000 0.000000 0.000000
# 4 0.000000 0.000000 0.000000 0.020337 0.000000 0.000000
# 5 0.000000 0.000000 0.000000 0.000000 0.029473 0.000000
# 6 0.000000 0.000000 0.000000 0.000000 0.000000 -0.040337
#
#
# Mechanical properties :
#
#
# Convention : Reuss Voigt Hill
#
# Bulk Modulus (GPa) = 40.73683 46.28838 43.51260
# Shear Modulus (GPa) = 71.36288 30.13594 50.74941
#
# Velocity S-wave (km/s) = 5.51172 3.58173 4.64800
# Velocity P-wave (km/s) = 7.60572 6.06712 6.87957
#
# Compressibility (1/GPa) = 0.02454781
#
# Stress axis : x y z
#
# Youngs Moduli (GPa) = 66.33279 173.08406 56.73743
#
# Poissons Ratio (x) = -0.11960 0.30438
# Poissons Ratio (y) = -0.04584 0.13001
# Poissons Ratio (z) = 0.35586 0.39661
#
# Static dielectric constant tensor:
#      x y z
#    x 4.004160 0.000000 0.000000 
#    y 0.000000 -2.303370 0.000000 
#    z 0.000000 0.000000 4.272580 
# 
# 
# High freq. dielectric constant tensor:
#      x y z
#    x 1.914000 0.000000 0.000000 
#    y 0.000000 1.977070 0.000000 
#    z 0.000000 0.000000 1.919630 
# 
# From -- ./inp_files/3909.got.cif
#   From: 2010.03.12/outbox.cif.g09.slc.cpg/sg29_2_cif.got.tgz:3909.got - 2010.04.14 03:43:10.
