data_PCOD8168222
_publ_section_title
;
Structure prediction by ZEFSAII (Michael W. Deem and Ramdas Pophale) SiO2 
 PCOD8168222
Probable space group: P M A 2
;
_chemical_formula_sum "Si O2"
_cell_formula_units_Z 28
_cell_length_a 8.737362
_cell_length_b 14.294103
_cell_length_c 12.756255
_cell_angle_alpha 90.000000
_cell_angle_beta 90.000000
_cell_angle_gamma 90.000000
_cell_volume 1593.163797
_symmetry_space_group_name_H-M "P M A 2"
_symmetry_group_IT_number 28
_symmetry_cell_setting 'orthorhombic'
loop_
_space_group_symop_operation_xyz
x,y,z
-x,-y,z
1/2-x,y,z
1/2+x,-y,z
loop_
_atom_site_type_symbol
_atom_site_label
_atom_site_fract_x
_atom_site_fract_y
_atom_site_fract_z
Si Si1 0.430243 0.599126 0.670470
Si Si2 0.430487 0.398151 0.058486
Si Si3 0.570256 0.598063 0.449689
Si Si4 0.069337 0.902692 0.172522
Si Si5 0.072675 0.289176 0.851634
Si Si6 0.429397 0.276723 0.253491
Si Si7 0.571630 0.905004 0.947796
O O1 0.500000 0.500000 0.706630
O O2 0.250000 0.588027 0.661588
O O3 0.496936 0.630828 0.558834
O O4 0.471667 0.678197 0.754270
O O5 0.500000 0.500000 0.056521
O O6 0.250000 0.407525 0.063207
O O7 0.490761 0.343085 0.160347
O O8 0.483579 0.342665 0.955428
O O9 0.500000 0.500000 0.411731
O O10 0.750000 0.584268 0.465187
O O11 0.531794 0.675982 0.363987
O O12 0.250000 0.910951 0.169410
O O13 0.018206 0.821270 0.251552
O O14 0.000000 0.000000 0.214004
O O15 0.007544 0.878829 0.057048
O O16 0.250000 0.310934 0.828991
O O17 0.044794 0.178458 0.865751
O O18 0.250000 0.257559 0.239536
O O19 0.750000 0.920175 0.970886
O O20 0.500000 0.000000 0.900036
#
# Coordination Sequence:
#
# PCOD8168222 Si02
#       7
#     4   4   4   4   4   4   4
#     4  11  22  36  55  77 106 139 182 226 262 313
#     4  10  20  33  48  72 107 140 170 208 258 313
#     4  10  20  35  57  79 106 141 180 222 264 312
#     4  11  21  33  53  78 107 141 178 218 260 315
#     4  10  20  35  54  75 106 142 175 217 265 314
#     4  10  20  36  54  76 107 141 175 217 267 314
#     4  10  19  34  54  77 108 140 175 218 262 315
#
# _framework density 17.575092999999999
#
# number of rings (size 3 to 8) (size 9 to 14) (size 15 to 20)
#    0.000    1.714    1.429    6.000    0.000    4.571 
#    0.000    0.000    0.000    0.857    0.000    4.000 
#    0.000    0.000    0.000    0.000    0.000    0.000 
#
# Total GULP energy -347299.703744 kJ/mol
# GULP energy per Si atom -12403.560848 kJ/mol
# Density = 1.753509 g / cm^3
# Si number density = 17.575093 Si / 1000 Ang^3
#
#
#
# Elastic Constant Matrix: (Units=GPa)
#
#
# Indices 1 2 3 4 5 6 
#
# 1 112.0826 60.9222 55.6454 0.0000 0.0000 0.0000
# 2 60.9222 134.8493 67.4043 0.0000 0.0000 0.0000
# 3 55.6454 67.4043 99.8459 0.0000 0.0000 0.0000
# 4 0.0000 0.0000 0.0000 26.9623 0.0000 0.0000
# 5 0.0000 0.0000 0.0000 0.0000 22.5787 0.0000
# 6 0.0000 0.0000 0.0000 0.0000 0.0000 33.2098
#
#
#
# Elastic Compliance Matrix: (Units=1/GPa)
#
#
# Indices 1 2 3 4 5 6 
#
# 1 0.013340 -0.003487 -0.005080 0.000000 0.000000 0.000000
# 2 -0.003487 0.012104 -0.006228 0.000000 0.000000 0.000000
# 3 -0.005080 -0.006228 0.017051 0.000000 0.000000 0.000000
# 4 0.000000 0.000000 0.000000 0.037089 0.000000 0.000000
# 5 0.000000 0.000000 0.000000 0.000000 0.044290 0.000000
# 6 0.000000 0.000000 0.000000 0.000000 0.000000 0.030112
#
#
# Mechanical properties :
#
#
# Convention : Reuss Voigt Hill
#
# Bulk Modulus (GPa) = 77.49372 79.41353 78.45362
# Shear Modulus (GPa) = 26.61325 27.40391 27.00858
#
# Velocity S-wave (km/s) = 3.89557 3.95301 3.92440
# Velocity P-wave (km/s) = 8.02637 8.13133 8.07902
#
# Compressibility (1/GPa) = 0.01290427
#
# Stress axis : x y z
#
# Youngs Moduli (GPa) = 74.96472 82.61656 58.64775
#
# Poissons Ratio (x) = 0.28810 0.29794
# Poissons Ratio (y) = 0.26142 0.36525
# Poissons Ratio (z) = 0.38083 0.51452
#
# Static dielectric constant tensor:
#      x y z
#    x 3.381830 0.000000 0.000000 
#    y 0.000000 3.217190 0.000000 
#    z 0.000000 0.000000 3.150840 
# 
# 
# High freq. dielectric constant tensor:
#      x y z
#    x 1.687610 0.000000 0.000000 
#    y 0.000000 1.682930 0.000000 
#    z 0.000000 0.000000 1.661440 
# 
# From -- ./inp_files/4827.got.cif
#   From: 2010.03.12/outbox.cif.g09.slc.cpg/sg28_3_cif.got.tgz:4827.got - 2010.04.14 03:39:34.
