data_PCOD8168119
_publ_section_title
;
Structure prediction by ZEFSAII (Michael W. Deem and Ramdas Pophale) SiO2 
 PCOD8168119
Probable space group: P M A 2
;
_chemical_formula_sum "Si O2"
_cell_formula_units_Z 32
_cell_length_a 8.660306
_cell_length_b 14.288715
_cell_length_c 15.800371
_cell_angle_alpha 90.000000
_cell_angle_beta 90.000000
_cell_angle_gamma 90.000000
_cell_volume 1955.211288
_symmetry_space_group_name_H-M "P M A 2"
_symmetry_group_IT_number 28
_symmetry_cell_setting 'orthorhombic'
loop_
_space_group_symop_operation_xyz
x,y,z
-x,-y,z
1/2-x,y,z
1/2+x,-y,z
loop_
_atom_site_type_symbol
_atom_site_label
_atom_site_fract_x
_atom_site_fract_y
_atom_site_fract_z
Si Si1 0.568654 0.398569 0.198420
Si Si2 0.429356 0.707634 0.851415
Si Si3 0.067594 0.602731 0.380730
Si Si4 0.929042 0.094422 0.785016
Si Si5 0.067825 0.602508 0.016283
Si Si6 0.433134 0.717338 0.540857
Si Si7 0.568075 0.602814 0.695879
Si Si8 0.067460 0.097920 0.602392
O O1 0.500000 0.500000 0.199089
O O2 0.750000 0.407725 0.197843
O O3 0.518172 0.352218 0.288471
O O4 0.515689 0.353099 0.108261
O O5 0.250000 0.682524 0.834633
O O6 0.454116 0.819594 0.849059
O O7 0.487444 0.673127 0.943180
O O8 0.533470 0.657832 0.781777
O O9 0.250000 0.592493 0.387312
O O10 0.006865 0.671108 0.453808
O O11 0.000000 0.500000 0.394743
O O12 0.750000 0.077626 0.764443
O O13 0.014062 0.118386 0.697785
O O14 0.000000 0.000000 0.826026
O O15 0.250000 0.591149 0.013053
O O16 0.000000 0.500000 0.000048
O O17 0.250000 0.725372 0.545335
O O18 0.489662 0.655229 0.618360
O O19 0.505453 0.820333 0.542348
O O20 0.500000 0.500000 0.703401
O O21 0.750000 0.598233 0.680790
O O22 0.250000 0.094965 0.598916
O O23 0.000000 0.000000 0.568800
#
# Coordination Sequence:
#
# PCOD8168119 Si02
#       8
#     4   4   4   4   4   4   4   4
#     4   8  14  27  45  66  91 119 154 193 233 277
#     4  10  20  33  48  68  94 125 158 195 235 278
#     4   9  18  30  47  69  95 126 158 195 236 278
#     4  10  19  32  50  68  92 120 155 198 240 279
#     4   9  17  29  46  68  94 124 157 192 232 277
#     4  11  21  34  49  69  96 125 160 198 236 281
#     4  12  24  35  47  64  92 130 165 195 231 276
#     4  11  21  34  52  72  93 121 157 196 243 283
#
# _framework density 16.366517999999999
#
# number of rings (size 3 to 8) (size 9 to 14) (size 15 to 20)
#    0.000    2.000    1.250    4.500    0.000    4.000 
#    0.000    0.000    0.000    0.000    0.000    0.875 
#    0.000    2.000    0.000    0.000    0.000    0.500 
#
# Total GULP energy -396564.307598 kJ/mol
# GULP energy per Si atom -12392.634612 kJ/mol
# Density = 1.632927 g / cm^3
# Si number density = 16.366518 Si / 1000 Ang^3
#
#
#
# Elastic Constant Matrix: (Units=GPa)
#
#
# Indices 1 2 3 4 5 6 
#
# 1 67.2234 33.2318 32.2174 0.0000 0.0000 0.0000
# 2 33.2318 110.1794 67.4077 0.0000 0.0000 0.0000
# 3 32.2174 67.4077 147.2412 0.0000 0.0000 0.0000
# 4 0.0000 0.0000 0.0000 -3.9622 0.0000 0.0000
# 5 0.0000 0.0000 0.0000 0.0000 9.5250 0.0000
# 6 0.0000 0.0000 0.0000 0.0000 0.0000 25.8022
#
#
#
# Elastic Compliance Matrix: (Units=1/GPa)
#
#
# Indices 1 2 3 4 5 6 
#
# 1 0.017900 -0.004171 -0.002007 0.000000 0.000000 0.000000
# 2 -0.004171 0.013579 -0.005304 0.000000 0.000000 0.000000
# 3 -0.002007 -0.005304 0.009659 0.000000 0.000000 0.000000
# 4 0.000000 0.000000 0.000000 -0.252382 0.000000 0.000000
# 5 0.000000 0.000000 0.000000 0.000000 0.104987 0.000000
# 6 0.000000 0.000000 0.000000 0.000000 0.000000 0.038756
#
#
# Mechanical properties :
#
#
# Convention : Reuss Voigt Hill
#
# Bulk Modulus (GPa) = 55.02449 65.59532 60.30990
# Shear Modulus (GPa) = -129.94033 19.05879 -55.44077
#
# Velocity S-wave (km/s) = -8.92000 3.41618 -5.82650
# Velocity P-wave (km/s) = 8.50854 7.46501 2.88695
#
# Compressibility (1/GPa) = 0.01817373
#
# Stress axis : x y z
#
# Youngs Moduli (GPa) = 55.86734 73.64292 103.53127
#
# Poissons Ratio (x) = 0.30715 0.20780
# Poissons Ratio (y) = 0.23301 0.54912
# Poissons Ratio (z) = 0.11213 0.39060
#
# Static dielectric constant tensor:
#      x y z
#    x 3.152450 0.000000 0.000000 
#    y 0.000000 3.542130 0.000000 
#    z 0.000000 0.000000 3.674170 
# 
# 
# High freq. dielectric constant tensor:
#      x y z
#    x 1.638560 0.000000 0.000000 
#    y 0.000000 1.609540 0.000000 
#    z 0.000000 0.000000 1.625900 
# 
# From -- ./inp_files/6431.got.cif
#   From: 2010.03.12/outbox.cif.g09.slc.cpg/sg28_4_cif.got.tgz:6431.got - 2010.04.14 03:39:34.
