data_PCOD8168334
_publ_section_title
;
Structure prediction by ZEFSAII (Michael W. Deem and Ramdas Pophale) SiO2 
 PCOD8168334
Probable space group: P M A 2
;
_chemical_formula_sum "Si O2"
_cell_formula_units_Z 16
_cell_length_a 8.813537
_cell_length_b 13.184627
_cell_length_c 7.744318
_cell_angle_alpha 90.000000
_cell_angle_beta 90.000000
_cell_angle_gamma 90.000000
_cell_volume 899.914517
_symmetry_space_group_name_H-M "P M A 2"
_symmetry_group_IT_number 28
_symmetry_cell_setting 'orthorhombic'
loop_
_space_group_symop_operation_xyz
x,y,z
-x,-y,z
1/2-x,y,z
1/2+x,-y,z
loop_
_atom_site_type_symbol
_atom_site_label
_atom_site_fract_x
_atom_site_fract_y
_atom_site_fract_z
Si Si1 0.921761 0.308703 0.409680
Si Si2 0.571483 0.729966 0.743450
Si Si3 0.078378 0.896876 0.551489
Si Si4 0.930371 0.392121 0.046690
O O1 0.750000 0.346206 0.443195
O O2 0.924618 0.184952 0.393742
O O3 0.987779 0.358973 0.236883
O O4 0.023357 0.339467 0.576894
O O5 0.750000 0.727042 0.769476
O O6 0.512772 0.845525 0.712157
O O7 0.490318 0.690336 0.913724
O O8 0.250000 0.919931 0.610093
O O9 0.000000 0.000000 0.489596
O O10 0.750000 0.396733 0.037824
O O11 0.000000 0.500000 0.998647
#
# Coordination Sequence:
#
# PCOD8168334 Si02
#       4
#     4   4   4   4
#     4   8  19  37  56  77 110 146 180 226 274 320
#     4  10  20  35  56  82 112 146 182 223 271 327
#     4   9  17  34  57  82 109 144 182 224 275 323
#     4  11  22  38  57  80 110 145 185 229 274 324
#
# _framework density 17.779468000000001
#
# number of rings (size 3 to 8) (size 9 to 14) (size 15 to 20)
#    1.500    1.000    0.000    3.000    0.000    3.000 
#    0.000    3.750    0.000    3.000    0.000    0.000 
#    0.000    0.000    0.000    0.000    0.000    0.000 
#
# Total GULP energy -198230.499985 kJ/mol
# GULP energy per Si atom -12389.406249 kJ/mol
# Density = 1.773900 g / cm^3
# Si number density = 17.779468 Si / 1000 Ang^3
#
#
#
# Elastic Constant Matrix: (Units=GPa)
#
#
# Indices 1 2 3 4 5 6 
#
# 1 102.7016 20.8040 32.3982 0.0000 0.0000 0.0000
# 2 20.8040 52.8141 2.4168 0.0000 0.0000 0.0000
# 3 32.3982 2.4168 69.3435 0.0000 0.0000 0.0000
# 4 0.0000 0.0000 0.0000 22.9103 0.0000 0.0000
# 5 0.0000 0.0000 0.0000 0.0000 18.6997 0.0000
# 6 0.0000 0.0000 0.0000 0.0000 0.0000 29.4425
#
#
#
# Elastic Compliance Matrix: (Units=1/GPa)
#
#
# Indices 1 2 3 4 5 6 
#
# 1 0.012465 -0.004651 -0.005662 0.000000 0.000000 0.000000
# 2 -0.004651 0.020700 0.001452 0.000000 0.000000 0.000000
# 3 -0.005662 0.001452 0.017016 0.000000 0.000000 0.000000
# 4 0.000000 0.000000 0.000000 0.043648 0.000000 0.000000
# 5 0.000000 0.000000 0.000000 0.000000 0.053477 0.000000
# 6 0.000000 0.000000 0.000000 0.000000 0.000000 0.033964
#
#
# Mechanical properties :
#
#
# Convention : Reuss Voigt Hill
#
# Bulk Modulus (GPa) = 30.80876 37.34411 34.07644
# Shear Modulus (GPa) = 23.83081 25.49319 24.66200
#
# Velocity S-wave (km/s) = 3.66506 3.79074 3.72843
# Velocity P-wave (km/s) = 5.93937 6.34108 6.14351
#
# Compressibility (1/GPa) = 0.03245830
#
# Stress axis : x y z
#
# Youngs Moduli (GPa) = 80.22365 48.30912 58.76956
#
# Poissons Ratio (x) = 0.22469 0.33274
# Poissons Ratio (y) = 0.37313 -0.08531
# Poissons Ratio (z) = 0.45421 -0.07013
#
# Static dielectric constant tensor:
#      x y z
#    x 3.293620 0.000000 0.000000 
#    y 0.000000 3.142750 0.000000 
#    z 0.000000 0.000000 3.119420 
# 
# 
# High freq. dielectric constant tensor:
#      x y z
#    x 1.699640 0.000000 0.000000 
#    y 0.000000 1.673170 0.000000 
#    z 0.000000 0.000000 1.666110 
# 
# From -- ./inp_files/2161.got.cif
#   From: 2010.03.12/outbox.cif.g09.slc.cpg/sg28_2_cif.got.tgz:2161.got - 2010.04.14 03:39:34.
