data_PCOD8168151
_publ_section_title
;
Structure prediction by ZEFSAII (Michael W. Deem and Ramdas Pophale) SiO2 
 PCOD8168151
Probable space group: P M A 2
;
_chemical_formula_sum "Si O2"
_cell_formula_units_Z 32
_cell_length_a 16.874773
_cell_length_b 5.081455
_cell_length_c 19.216420
_cell_angle_alpha 90.000000
_cell_angle_beta 90.000000
_cell_angle_gamma 90.000000
_cell_volume 1647.777262
_symmetry_space_group_name_H-M "P M A 2"
_symmetry_group_IT_number 28
_symmetry_cell_setting 'orthorhombic'
loop_
_space_group_symop_operation_xyz
x,y,z
-x,-y,z
1/2-x,y,z
1/2+x,-y,z
loop_
_atom_site_type_symbol
_atom_site_label
_atom_site_fract_x
_atom_site_fract_y
_atom_site_fract_z
Si Si1 0.411733 0.096177 0.530740
Si Si2 0.553837 0.249613 0.876380
Si Si3 0.555342 0.250695 0.026458
Si Si4 0.343233 0.751270 0.160569
Si Si5 0.055732 0.750269 0.725778
Si Si6 0.342182 0.612717 0.597740
Si Si7 0.447223 0.243781 0.378537
Si Si8 0.843446 0.751320 0.246221
O O1 0.389140 0.347951 0.577325
O O2 0.403614 0.175787 0.450440
O O3 0.500000 0.000000 0.550639
O O4 0.353900 0.847021 0.541891
O O5 0.500000 0.500000 0.868215
O O6 0.599647 0.225351 0.802230
O O7 0.500000 0.000000 0.885522
O O8 0.600474 0.270458 0.950378
O O9 0.500000 0.500000 0.039643
O O10 0.623014 0.229811 0.083534
O O11 0.500000 0.000000 0.031949
O O12 0.250000 0.773906 0.152558
O O13 0.370521 0.480949 0.195338
O O14 0.374891 0.982910 0.210459
O O15 0.126139 0.727231 0.670603
O O16 0.000000 0.500000 0.721416
O O17 0.000000 0.000000 0.710255
O O18 0.250000 0.542241 0.604079
O O19 0.500000 0.500000 0.390570
O O20 0.381168 0.297156 0.321157
O O21 0.500000 0.000000 0.353411
O O22 0.750000 0.754345 0.257923
#
# Coordination Sequence:
#
# PCOD8168151 Si02
#       8
#     4   4   4   4   4   4   4   4
#     4  11  23  42  61  81 112 150 186 223 277 340
#     4   8  16  30  49  76 104 134 177 221 262 314
#     4  10  19  32  53  79 105 135 178 227 265 305
#     4  10  21  36  52  76 108 143 177 212 262 326
#     4  10  19  34  57  78 105 147 184 217 268 331
#     4  12  24  37  57  88 117 143 184 236 276 320
#     4  11  23  39  60  84 107 135 180 231 268 314
#     4  10  22  38  55  76 108 143 175 213 267 328
#
# _framework density 19.420100999999999
#
# number of rings (size 3 to 8) (size 9 to 14) (size 15 to 20)
#    0.000    1.750    0.000    5.625    0.000    4.000 
#    0.000    1.875    0.000    0.000    0.000   14.000 
#    0.000    0.000    0.000    0.000    0.000    0.000 
#
# Total GULP energy -396633.344859 kJ/mol
# GULP energy per Si atom -12394.792027 kJ/mol
# Density = 1.937590 g / cm^3
# Si number density = 19.420101 Si / 1000 Ang^3
#
#
#
# Elastic Constant Matrix: (Units=GPa)
#
#
# Indices 1 2 3 4 5 6 
#
# 1 60.0021 35.3726 64.5133 0.0000 0.0000 0.0000
# 2 35.3726 120.9035 29.3489 0.0000 0.0000 0.0000
# 3 64.5133 29.3489 160.4552 0.0000 0.0000 0.0000
# 4 0.0000 0.0000 0.0000 29.9147 0.0000 0.0000
# 5 0.0000 0.0000 0.0000 0.0000 19.2974 0.0000
# 6 0.0000 0.0000 0.0000 0.0000 0.0000 18.8810
#
#
#
# Elastic Compliance Matrix: (Units=1/GPa)
#
#
# Indices 1 2 3 4 5 6 
#
# 1 0.034183 -0.006974 -0.012468 0.000000 0.000000 0.000000
# 2 -0.006974 0.010078 0.000961 0.000000 0.000000 0.000000
# 3 -0.012468 0.000961 0.011070 0.000000 0.000000 0.000000
# 4 0.000000 0.000000 0.000000 0.033428 0.000000 0.000000
# 5 0.000000 0.000000 0.000000 0.000000 0.051820 0.000000
# 6 0.000000 0.000000 0.000000 0.000000 0.000000 0.052963
#
#
# Mechanical properties :
#
#
# Convention : Reuss Voigt Hill
#
# Bulk Modulus (GPa) = 54.44407 66.64781 60.54594
# Shear Modulus (GPa) = 21.13010 27.76035 24.44523
#
# Velocity S-wave (km/s) = 3.30214 3.78493 3.55175
# Velocity P-wave (km/s) = 6.52952 7.31399 6.93286
#
# Compressibility (1/GPa) = 0.01836747
#
# Stress axis : x y z
#
# Youngs Moduli (GPa) = 29.25419 99.22287 90.33799
#
# Poissons Ratio (x) = 0.69201 1.12635
# Poissons Ratio (y) = 0.20403 -0.08679
# Poissons Ratio (z) = 0.36475 -0.09532
#
# Static dielectric constant tensor:
#      x y z
#    x 3.106360 0.000000 0.000000 
#    y 0.000000 3.863000 0.000000 
#    z 0.000000 0.000000 4.067050 
# 
# 
# High freq. dielectric constant tensor:
#      x y z
#    x 1.709660 0.000000 0.000000 
#    y 0.000000 1.785560 0.000000 
#    z 0.000000 0.000000 1.780020 
# 
# From -- ./inp_files/6986.got.cif
#   From: 2010.03.12/outbox.cif.g09.slc.cpg/sg28_4_cif.got.tgz:6986.got - 2010.04.14 03:39:34.
