data_PCOD8168717
_publ_section_title
;
Structure prediction by ZEFSAII (Michael W. Deem and Ramdas Pophale) SiO2 
 PCOD8168717
Probable space group: P C A 21
;
_chemical_formula_sum "Si O2"
_cell_formula_units_Z 32
_cell_length_a 15.339692
_cell_length_b 8.424348
_cell_length_c 11.338502
_cell_angle_alpha 90.000000
_cell_angle_beta 90.000000
_cell_angle_gamma 90.000000
_cell_volume 1465.239505
_symmetry_space_group_name_H-M "P C A 21"
_symmetry_group_IT_number 29
_symmetry_cell_setting 'orthorhombic'
loop_
_space_group_symop_operation_xyz
x,y,z
-x,-y,1/2+z
1/2-x,y,1/2+z
1/2+x,-y,z
loop_
_atom_site_type_symbol
_atom_site_label
_atom_site_fract_x
_atom_site_fract_y
_atom_site_fract_z
Si Si1 0.150107 0.984655 0.512290
Si Si2 0.242724 0.223581 0.658448
Si Si3 0.915723 0.236543 0.207095
Si Si4 0.830482 0.512892 0.516546
Si Si5 0.094230 0.223060 0.326225
Si Si6 0.412567 0.408314 0.272624
Si Si7 0.745898 0.247408 0.867857
Si Si8 0.599871 0.434130 0.259635
O O1 0.093447 0.850280 0.579905
O O2 0.204401 0.908197 0.407334
O O3 0.218964 0.054925 0.604135
O O4 0.094807 0.126801 0.450344
O O5 0.265349 0.345815 0.553249
O O6 0.320739 0.188642 0.747758
O O7 0.156737 0.285990 0.723523
O O8 0.914369 0.428399 0.195941
O O9 0.837924 0.189483 0.295647
O O10 0.006509 0.171703 0.258757
O O11 0.889388 0.559203 0.406975
O O12 0.777106 0.354386 0.482176
O O13 0.896321 0.486321 0.623854
O O14 0.092339 0.413359 0.347091
O O15 0.510450 0.332735 0.272836
O O16 0.810682 0.344116 0.783233
#
# Coordination Sequence:
#
# PCOD8168717 Si02
#       8
#     4   4   4   4   4   4   4   4
#     4  12  24  38  60  86 126 168 190 240 304 350
#     4  11  22  39  62  90 121 157 202 244 296 360
#     4  10  23  41  61  89 121 156 204 247 292 358
#     4  10  20  38  64  86 118 160 196 254 304 334
#     4  10  23  41  61  89 121 156 204 247 292 358
#     4  10  22  40  64  93 118 151 205 252 294 354
#     4  11  22  39  62  90 121 157 202 244 296 360
#     4  10  22  40  64  93 118 151 205 252 294 354
#
# _framework density 21.839433
#
# number of rings (size 3 to 8) (size 9 to 14) (size 15 to 20)
#    0.000    1.500    0.000    6.750    0.000    9.000 
#    0.000    0.000    0.000    0.000    0.000    0.000 
#    0.000    0.000    0.000    0.000    0.000    0.000 
#
# Total GULP energy -396733.960634 kJ/mol
# GULP energy per Si atom -12397.936270 kJ/mol
# Density = 2.178973 g / cm^3
# Si number density = 21.839433 Si / 1000 Ang^3
#
#
#
# Elastic Constant Matrix: (Units=GPa)
#
#
# Indices 1 2 3 4 5 6 
#
# 1 116.0715 10.8914 22.6522 0.0000 0.0000 0.0000
# 2 10.8914 49.1345 31.9982 0.0000 0.0000 0.0000
# 3 22.6522 31.9982 78.1967 0.0000 0.0000 0.0000
# 4 0.0000 0.0000 0.0000 28.6970 0.0000 0.0000
# 5 0.0000 0.0000 0.0000 0.0000 23.1553 0.0000
# 6 0.0000 0.0000 0.0000 0.0000 0.0000 -14.3941
#
#
#
# Elastic Compliance Matrix: (Units=1/GPa)
#
#
# Indices 1 2 3 4 5 6 
#
# 1 0.009138 -0.000411 -0.002479 0.000000 0.000000 0.000000
# 2 -0.000411 0.027765 -0.011242 0.000000 0.000000 0.000000
# 3 -0.002479 -0.011242 0.018107 0.000000 0.000000 0.000000
# 4 0.000000 0.000000 0.000000 0.034847 0.000000 0.000000
# 5 0.000000 0.000000 0.000000 0.000000 0.043187 0.000000
# 6 0.000000 0.000000 0.000000 0.000000 0.000000 -0.069473
#
#
# Mechanical properties :
#
#
# Convention : Reuss Voigt Hill
#
# Bulk Modulus (GPa) = 37.39066 41.60960 39.50013
# Shear Modulus (GPa) = 49.62815 19.34904 34.48860
#
# Velocity S-wave (km/s) = 4.77215 2.97975 3.97821
# Velocity P-wave (km/s) = 6.89365 5.56169 6.26318
#
# Compressibility (1/GPa) = 0.02674465
#
# Stress axis : x y z
#
# Youngs Moduli (GPa) = 109.43655 36.01675 55.22824
#
# Poissons Ratio (x) = 0.01481 0.13690
# Poissons Ratio (y) = 0.04501 0.62089
# Poissons Ratio (z) = 0.27127 0.40491
#
# Static dielectric constant tensor:
#      x y z
#    x 4.054870 0.000000 0.000000 
#    y 0.000000 3.866890 0.000000 
#    z 0.000000 0.000000 3.862300 
# 
# 
# High freq. dielectric constant tensor:
#      x y z
#    x 1.870280 0.000000 0.000000 
#    y 0.000000 1.844460 0.000000 
#    z 0.000000 0.000000 1.857520 
# 
# From -- ./inp_files/3453.got.cif
#   From: 2010.03.12/outbox.cif.g09.slc.cpg/sg29_2_cif.got.tgz:3453.got - 2010.04.14 03:43:10.
