data_PCOD8168875
_publ_section_title
;
Structure prediction by ZEFSAII (Michael W. Deem and Ramdas Pophale) SiO2 
 PCOD8168875
Probable space group: P C A 21
;
_chemical_formula_sum "Si O2"
_cell_formula_units_Z 20
_cell_length_a 15.729795
_cell_length_b 10.558119
_cell_length_c 4.866196
_cell_angle_alpha 90.000000
_cell_angle_beta 90.000000
_cell_angle_gamma 90.000000
_cell_volume 808.163464
_symmetry_space_group_name_H-M "P C A 21"
_symmetry_group_IT_number 29
_symmetry_cell_setting 'orthorhombic'
loop_
_space_group_symop_operation_xyz
x,y,z
-x,-y,1/2+z
1/2-x,y,1/2+z
1/2+x,-y,z
loop_
_atom_site_type_symbol
_atom_site_label
_atom_site_fract_x
_atom_site_fract_y
_atom_site_fract_z
Si Si1 0.525282 0.421277 0.681850
Si Si2 0.018352 0.917262 0.012284
Si Si3 0.807112 0.003290 0.570011
Si Si4 0.192734 0.491908 0.853290
Si Si5 0.409704 0.239838 0.409962
O O1 0.529012 0.492688 0.389592
O O2 0.621797 0.400222 0.789697
O O3 0.478434 0.285378 0.642343
O O4 0.961684 0.806491 0.140785
O O5 0.120192 0.890603 0.009665
O O6 0.987951 0.955405 0.706914
O O7 0.724533 0.020871 0.380139
O O8 0.844912 0.863203 0.524741
O O9 0.275132 0.505860 0.663036
O O10 0.145794 0.358176 0.807537
#
# Coordination Sequence:
#
# PCOD8168875 Si02
#       5
#     4   4   4   4   4
#     4  10  22  39  58  86 121 156 194 240 294 355
#     4  10  22  39  58  86 121 156 194 240 294 355
#     4  11  22  38  60  91 119 148 195 253 292 334
#     4  11  22  38  60  91 119 148 195 253 292 334
#     4  10  22  40  64  86 116 164 200 232 292 362
#
# _framework density 24.747471000000001
#
# number of rings (size 3 to 8) (size 9 to 14) (size 15 to 20)
#    0.000    1.600    0.000    6.000    0.000   12.800 
#    0.000    2.000    0.000    0.000    0.000    0.000 
#    0.000    0.000    0.000    0.000    0.000    0.000 
#
# Total GULP energy -247987.269865 kJ/mol
# GULP energy per Si atom -12399.363493 kJ/mol
# Density = 2.469115 g / cm^3
# Si number density = 24.747471 Si / 1000 Ang^3
#
#
#
# Elastic Constant Matrix: (Units=GPa)
#
#
# Indices 1 2 3 4 5 6 
#
# 1 133.6149 -2.0023 5.9760 0.0000 0.0000 0.0000
# 2 -2.0023 16.7091 -8.1077 0.0000 0.0000 0.0000
# 3 5.9760 -8.1077 54.5338 0.0000 0.0000 0.0000
# 4 0.0000 0.0000 0.0000 19.6064 0.0000 0.0000
# 5 0.0000 0.0000 0.0000 0.0000 34.0901 0.0000
# 6 0.0000 0.0000 0.0000 0.0000 0.0000 41.7950
#
#
#
# Elastic Compliance Matrix: (Units=1/GPa)
#
#
# Indices 1 2 3 4 5 6 
#
# 1 0.007526 0.000541 -0.000744 0.000000 0.000000 0.000000
# 2 0.000541 0.064540 0.009536 0.000000 0.000000 0.000000
# 3 -0.000744 0.009536 0.019837 0.000000 0.000000 0.000000
# 4 0.000000 0.000000 0.000000 0.051004 0.000000 0.000000
# 5 0.000000 0.000000 0.000000 0.000000 0.029334 0.000000
# 6 0.000000 0.000000 0.000000 0.000000 0.000000 0.023926
#
#
# Mechanical properties :
#
#
# Convention : Reuss Voigt Hill
#
# Bulk Modulus (GPa) = 9.04433 21.84332 15.44383
# Shear Modulus (GPa) = 23.32561 33.03107 28.17834
#
# Velocity S-wave (km/s) = 3.07342 3.65735 3.37803
# Velocity P-wave (km/s) = 4.03201 5.16533 4.63345
#
# Compressibility (1/GPa) = 0.11056647
#
# Stress axis : x y z
#
# Youngs Moduli (GPa) = 132.87996 15.49436 50.41202
#
# Poissons Ratio (x) = -0.00838 0.03752
# Poissons Ratio (y) = -0.07184 -0.48073
# Poissons Ratio (z) = 0.09890 -0.14775
#
# Static dielectric constant tensor:
#      x y z
#    x 4.670420 0.000000 0.000000 
#    y 0.000000 4.220100 0.000000 
#    z 0.000000 0.000000 4.460030 
# 
# 
# High freq. dielectric constant tensor:
#      x y z
#    x 2.001630 0.000000 0.000000 
#    y 0.000000 1.954790 0.000000 
#    z 0.000000 0.000000 1.999850 
# 
# From -- ./inp_files/181.got.cif
#   From: 2010.03.12/outbox.cif.g09.slc.cpg/sg29_1_cif.got.tgz:181.got - 2010.04.14 03:43:10.
