data_PCOD8168800
_publ_section_title
;
Structure prediction by ZEFSAII (Michael W. Deem and Ramdas Pophale) SiO2 
 PCOD8168800
Probable space group: P C A 21
;
_chemical_formula_sum "Si O2"
_cell_formula_units_Z 32
_cell_length_a 12.320002
_cell_length_b 8.444464
_cell_length_c 14.848788
_cell_angle_alpha 90.000000
_cell_angle_beta 90.000000
_cell_angle_gamma 90.000000
_cell_volume 1544.805737
_symmetry_space_group_name_H-M "P C A 21"
_symmetry_group_IT_number 29
_symmetry_cell_setting 'orthorhombic'
loop_
_space_group_symop_operation_xyz
x,y,z
-x,-y,1/2+z
1/2-x,y,1/2+z
1/2+x,-y,z
loop_
_atom_site_type_symbol
_atom_site_label
_atom_site_fract_x
_atom_site_fract_y
_atom_site_fract_z
Si Si1 0.719104 0.207479 0.827120
Si Si2 0.309627 0.335930 0.941657
Si Si3 0.935443 0.385719 0.877208
Si Si4 0.681222 0.190223 0.632832
Si Si5 0.761125 0.539111 0.622607
Si Si6 0.852136 0.547295 0.305826
Si Si7 0.543145 0.733670 0.057451
Si Si8 0.719551 0.973568 0.983225
O O1 0.840159 0.268981 0.847906
O O2 0.712223 0.118827 0.730940
O O3 0.640170 0.358078 0.817339
O O4 0.677370 0.091359 0.905412
O O5 0.399487 0.429038 0.884383
O O6 0.193538 0.383300 0.899221
O O7 0.310567 0.144686 0.939441
O O8 0.315731 0.390051 0.045374
O O9 0.026227 0.382703 0.799049
O O10 0.979159 0.335409 0.973285
O O11 0.751713 0.349797 0.618017
O O12 0.550923 0.214359 0.627167
O O13 0.718026 0.065383 0.559978
O O14 0.717701 0.600132 0.719364
O O15 0.884363 0.599165 0.607243
O O16 0.618269 0.880725 0.026755
#
# Coordination Sequence:
#
# PCOD8168800 Si02
#       8
#     4   4   4   4   4   4   4   4
#     4  10  24  42  66  94 140 171 215 281 320 398
#     4  10  21  39  64  92 127 167 215 275 315 389
#     4  11  20  44  69  94 122 177 223 273 333 376
#     4  11  23  45  65  97 142 169 218 273 329 400
#     4  10  21  40  68  95 126 167 222 284 310 383
#     4  10  21  39  67  96 126 166 226 276 324 383
#     4  11  23  43  71  92 130 178 220 271 333 384
#     4  11  23  42  62 100 137 173 211 273 326 407
#
# _framework density 20.714579000000001
#
# number of rings (size 3 to 8) (size 9 to 14) (size 15 to 20)
#    0.000    1.500    5.000    0.750    0.000    9.000 
#    2.250    0.000    0.000    0.000    0.000    0.000 
#    0.000    0.000    0.000    0.000    0.000    0.000 
#
# Total GULP energy -396598.896029 kJ/mol
# GULP energy per Si atom -12393.715501 kJ/mol
# Density = 2.066743 g / cm^3
# Si number density = 20.714579 Si / 1000 Ang^3
#
#
#
# Elastic Constant Matrix: (Units=GPa)
#
#
# Indices 1 2 3 4 5 6 
#
# 1 123.4411 36.7930 40.3838 0.0000 0.0000 0.0000
# 2 36.7930 86.1271 44.2621 0.0000 0.0000 0.0000
# 3 40.3838 44.2621 115.3082 0.0000 0.0000 0.0000
# 4 0.0000 0.0000 0.0000 15.6575 0.0000 0.0000
# 5 0.0000 0.0000 0.0000 0.0000 36.4255 0.0000
# 6 0.0000 0.0000 0.0000 0.0000 0.0000 28.2119
#
#
#
# Elastic Compliance Matrix: (Units=1/GPa)
#
#
# Indices 1 2 3 4 5 6 
#
# 1 0.009733 -0.002997 -0.002258 0.000000 0.000000 0.000000
# 2 -0.002997 0.015387 -0.004857 0.000000 0.000000 0.000000
# 3 -0.002258 -0.004857 0.011328 0.000000 0.000000 0.000000
# 4 0.000000 0.000000 0.000000 0.063867 0.000000 0.000000
# 5 0.000000 0.000000 0.000000 0.000000 0.027453 0.000000
# 6 0.000000 0.000000 0.000000 0.000000 0.000000 0.035446
#
#
# Mechanical properties :
#
#
# Convention : Reuss Voigt Hill
#
# Bulk Modulus (GPa) = 61.64006 63.08381 62.36194
# Shear Modulus (GPa) = 26.47644 29.62148 28.04896
#
# Velocity S-wave (km/s) = 3.57901 3.78561 3.68376
# Velocity P-wave (km/s) = 6.84839 7.04470 6.94724
#
# Compressibility (1/GPa) = 0.01622322
#
# Stress axis : x y z
#
# Youngs Moduli (GPa) = 102.74082 64.98909 88.27994
#
# Poissons Ratio (x) = 0.19480 0.19936
# Poissons Ratio (y) = 0.30796 0.42875
# Poissons Ratio (z) = 0.23201 0.31564
#
# Static dielectric constant tensor:
#      x y z
#    x 3.844220 0.000000 0.000000 
#    y 0.000000 3.766200 0.000000 
#    z 0.000000 0.000000 4.036660 
# 
# 
# High freq. dielectric constant tensor:
#      x y z
#    x 1.802600 0.000000 0.000000 
#    y 0.000000 1.799130 0.000000 
#    z 0.000000 0.000000 1.823280 
# 
# From -- ./inp_files/4531.got.cif
#   From: 2010.03.12/outbox.cif.g09.slc.cpg/sg29_3_cif.got.tgz:4531.got - 2010.04.14 03:43:10.
