data_PCOD8168998
_publ_section_title
;
Structure prediction by ZEFSAII (Michael W. Deem and Ramdas Pophale) SiO2 
 PCOD8168998
Probable space group: P C A 21
;
_chemical_formula_sum "Si O2"
_cell_formula_units_Z 24
_cell_length_a 19.979948
_cell_length_b 5.291489
_cell_length_c 9.668377
_cell_angle_alpha 90.000000
_cell_angle_beta 90.000000
_cell_angle_gamma 90.000000
_cell_volume 1022.176348
_symmetry_space_group_name_H-M "P C A 21"
_symmetry_group_IT_number 29
_symmetry_cell_setting 'orthorhombic'
loop_
_space_group_symop_operation_xyz
x,y,z
-x,-y,1/2+z
1/2-x,y,1/2+z
1/2+x,-y,z
loop_
_atom_site_type_symbol
_atom_site_label
_atom_site_fract_x
_atom_site_fract_y
_atom_site_fract_z
Si Si1 0.409176 0.855035 0.848480
Si Si2 0.388801 0.609392 0.420710
Si Si3 0.866964 0.163750 0.150704
Si Si4 0.251720 0.544979 0.564920
Si Si5 0.559171 0.894404 0.867631
Si Si6 0.671268 0.638403 0.312592
O O1 0.485771 0.877301 0.800282
O O2 0.377068 0.602268 0.783033
O O3 0.368040 0.099752 0.799653
O O4 0.411856 0.832663 0.014179
O O5 0.385602 0.600996 0.252111
O O6 0.315766 0.645728 0.483661
O O7 0.423625 0.346627 0.464261
O O8 0.433662 0.853930 0.464791
O O9 0.885361 0.915273 0.242556
O O10 0.788571 0.201461 0.111283
O O11 0.271747 0.370090 0.694792
O O12 0.204412 0.377644 0.464465
#
# Coordination Sequence:
#
# PCOD8168998 Si02
#       6
#     4   4   4   4   4   4
#     4  11  25  43  69  99 135 182 230 281 340 419
#     4  10  23  42  69  97 132 183 219 286 346 404
#     4   9  24  43  68  98 136 178 227 285 346 395
#     4  11  23  47  67 102 138 174 236 281 350 413
#     4  10  23  45  63 101 134 180 225 280 344 405
#     4  11  26  42  70 101 133 181 225 287 342 408
#
# _framework density 23.479313999999999
#
# number of rings (size 3 to 8) (size 9 to 14) (size 15 to 20)
#    1.000    0.667    1.667    1.000    4.667   10.667 
#    0.000    0.000    0.000    0.000    0.000    0.000 
#    0.000    0.000    0.000    0.000    0.000    0.000 
#
# Total GULP energy -297383.348172 kJ/mol
# GULP energy per Si atom -12390.972841 kJ/mol
# Density = 2.342587 g / cm^3
# Si number density = 23.479314 Si / 1000 Ang^3
#
#
#
# Elastic Constant Matrix: (Units=GPa)
#
#
# Indices 1 2 3 4 5 6 
#
# 1 153.4407 68.9429 27.9796 0.0000 0.0000 0.0000
# 2 68.9429 167.4892 27.9391 0.0000 0.0000 0.0000
# 3 27.9796 27.9391 58.4608 0.0000 0.0000 0.0000
# 4 0.0000 0.0000 0.0000 16.4413 0.0000 0.0000
# 5 0.0000 0.0000 0.0000 0.0000 31.4221 0.0000
# 6 0.0000 0.0000 0.0000 0.0000 0.0000 32.3802
#
#
#
# Elastic Compliance Matrix: (Units=1/GPa)
#
#
# Indices 1 2 3 4 5 6 
#
# 1 0.008332 -0.003004 -0.002552 0.000000 0.000000 0.000000
# 2 -0.003004 0.007571 -0.002180 0.000000 0.000000 0.000000
# 3 -0.002552 -0.002180 0.019369 0.000000 0.000000 0.000000
# 4 0.000000 0.000000 0.000000 0.060822 0.000000 0.000000
# 5 0.000000 0.000000 0.000000 0.000000 0.031825 0.000000
# 6 0.000000 0.000000 0.000000 0.000000 0.000000 0.030883
#
#
# Mechanical properties :
#
#
# Convention : Reuss Voigt Hill
#
# Bulk Modulus (GPa) = 50.50819 69.90154 60.20487
# Shear Modulus (GPa) = 27.64333 33.01731 30.33032
#
# Velocity S-wave (km/s) = 3.43497 3.75404 3.59805
# Velocity P-wave (km/s) = 6.10660 6.97328 6.55428
#
# Compressibility (1/GPa) = 0.01979877
#
# Stress axis : x y z
#
# Youngs Moduli (GPa) = 120.01446 132.08633 51.62884
#
# Poissons Ratio (x) = 0.39680 0.13177
# Poissons Ratio (y) = 0.36053 0.11257
# Poissons Ratio (z) = 0.30630 0.28800
#
# Static dielectric constant tensor:
#      x y z
#    x 4.059860 0.000000 0.000000 
#    y 0.000000 4.009700 0.000000 
#    z 0.000000 0.000000 4.148630 
# 
# 
# High freq. dielectric constant tensor:
#      x y z
#    x 1.924860 0.000000 0.000000 
#    y 0.000000 1.922070 0.000000 
#    z 0.000000 0.000000 1.922360 
# 
# From -- ./inp_files/3722.got.cif
#   From: 2010.03.12/outbox.cif.g09.slc.cpg/sg29_2_cif.got.tgz:3722.got - 2010.04.14 03:43:10.
