data_PCOD8168791
_publ_section_title
;
Structure prediction by ZEFSAII (Michael W. Deem and Ramdas Pophale) SiO2 
 PCOD8168791
Probable space group: P C A 21
;
_chemical_formula_sum "Si O2"
_cell_formula_units_Z 16
_cell_length_a 16.793232
_cell_length_b 8.668346
_cell_length_c 4.952084
_cell_angle_alpha 90.000000
_cell_angle_beta 90.000000
_cell_angle_gamma 90.000000
_cell_volume 720.872617
_symmetry_space_group_name_H-M "P C A 21"
_symmetry_group_IT_number 29
_symmetry_cell_setting 'orthorhombic'
loop_
_space_group_symop_operation_xyz
x,y,z
-x,-y,1/2+z
1/2-x,y,1/2+z
1/2+x,-y,z
loop_
_atom_site_type_symbol
_atom_site_label
_atom_site_fract_x
_atom_site_fract_y
_atom_site_fract_z
Si Si1 0.698683 0.470222 0.121380
Si Si2 0.800609 0.829684 0.600462
Si Si3 0.526888 0.408620 0.967450
Si Si4 0.032326 0.080263 0.278264
O O1 0.731707 0.424433 0.413639
O O2 0.676463 0.650213 0.116310
O O3 0.617659 0.378732 0.059784
O O4 0.772161 0.870807 0.300105
O O5 0.877164 0.930448 0.674520
O O6 0.525035 0.525539 0.715218
O O7 0.487903 0.248762 0.885200
O O8 0.023598 0.960349 0.524171
#
# Coordination Sequence:
#
# PCOD8168791 Si02
#       4
#     4   4   4   4
#     4  10  21  38  64  99 127 163 220 280 323 378
#     4  10  21  40  66  94 125 173 223 266 319 398
#     4  12  24  42  69  97 130 171 224 272 329 385
#     4  12  26  44  65 100 138 175 217 272 333 395
#
# _framework density 22.195323999999999
#
# number of rings (size 3 to 8) (size 9 to 14) (size 15 to 20)
#    0.000    1.000    2.500    4.500    7.000    0.000 
#    0.000    7.500    0.000    0.000    0.000    0.000 
#    0.000    0.000    0.000    0.000    0.000    0.000 
#
# Total GULP energy -198506.614084 kJ/mol
# GULP energy per Si atom -12406.663380 kJ/mol
# Density = 2.214481 g / cm^3
# Si number density = 22.195324 Si / 1000 Ang^3
#
#
#
# Elastic Constant Matrix: (Units=GPa)
#
#
# Indices 1 2 3 4 5 6 
#
# 1 103.5979 34.7428 18.8536 0.0000 0.0000 0.0000
# 2 34.7428 41.3845 20.6980 0.0000 0.0000 0.0000
# 3 18.8536 20.6980 115.9320 0.0000 0.0000 0.0000
# 4 0.0000 0.0000 0.0000 34.5804 0.0000 0.0000
# 5 0.0000 0.0000 0.0000 0.0000 27.1334 0.0000
# 6 0.0000 0.0000 0.0000 0.0000 0.0000 20.4515
#
#
#
# Elastic Compliance Matrix: (Units=1/GPa)
#
#
# Indices 1 2 3 4 5 6 
#
# 1 0.013439 -0.011188 -0.000188 0.000000 0.000000 0.000000
# 2 -0.011188 0.035847 -0.004580 0.000000 0.000000 0.000000
# 3 -0.000188 -0.004580 0.009474 0.000000 0.000000 0.000000
# 4 0.000000 0.000000 0.000000 0.028918 0.000000 0.000000
# 5 0.000000 0.000000 0.000000 0.000000 0.036855 0.000000
# 6 0.000000 0.000000 0.000000 0.000000 0.000000 0.048896
#
#
# Mechanical properties :
#
#
# Convention : Reuss Voigt Hill
#
# Bulk Modulus (GPa) = 37.24836 45.50036 41.37436
# Shear Modulus (GPa) = 23.33265 28.87439 26.10352
#
# Velocity S-wave (km/s) = 3.24580 3.61074 3.43313
# Velocity P-wave (km/s) = 5.55567 6.15855 5.86486
#
# Compressibility (1/GPa) = 0.02684682
#
# Stress axis : x y z
#
# Youngs Moduli (GPa) = 74.41014 27.89623 105.55085
#
# Poissons Ratio (x) = 0.31211 0.01985
# Poissons Ratio (y) = 0.83251 0.48347
# Poissons Ratio (z) = 0.01399 0.12778
#
# Static dielectric constant tensor:
#      x y z
#    x 3.994200 0.000000 0.000000 
#    y 0.000000 3.643890 0.000000 
#    z 0.000000 0.000000 4.355450 
# 
# 
# High freq. dielectric constant tensor:
#      x y z
#    x 1.882110 0.000000 0.000000 
#    y 0.000000 1.837190 0.000000 
#    z 0.000000 0.000000 1.898640 
# 
# From -- ./inp_files/135.got.cif
#   From: 2010.03.12/outbox.cif.g09.slc.cpg/sg29_1_cif.got.tgz:135.got - 2010.04.14 03:43:10.
