data_PCOD8168095
_publ_section_title
;
Structure prediction by ZEFSAII (Michael W. Deem and Ramdas Pophale) SiO2 
 PCOD8168095
Probable space group: P M A 2
;
_chemical_formula_sum "Si O2"
_cell_formula_units_Z 32
_cell_length_a 8.937728
_cell_length_b 14.256048
_cell_length_c 15.634720
_cell_angle_alpha 90.000000
_cell_angle_beta 90.000000
_cell_angle_gamma 90.000000
_cell_volume 1992.124105
_symmetry_space_group_name_H-M "P M A 2"
_symmetry_group_IT_number 28
_symmetry_cell_setting 'orthorhombic'
loop_
_space_group_symop_operation_xyz
x,y,z
-x,-y,z
1/2-x,y,z
1/2+x,-y,z
loop_
_atom_site_type_symbol
_atom_site_label
_atom_site_fract_x
_atom_site_fract_y
_atom_site_fract_z
Si Si1 0.072259 0.294003 0.237560
Si Si2 0.925011 0.276005 0.557640
Si Si3 0.578105 0.402361 0.898408
Si Si4 0.924890 0.906228 0.304085
Si Si5 0.072835 0.602665 0.084452
Si Si6 0.426280 0.094433 0.499542
Si Si7 0.074353 0.600878 0.714009
Si Si8 0.426118 0.599083 0.393731
O O1 0.250000 0.307686 0.240337
O O2 0.027128 0.185217 0.250495
O O3 0.005896 0.324412 0.147079
O O4 0.999810 0.358221 0.309706
O O5 0.750000 0.253910 0.564283
O O6 0.986344 0.330466 0.640789
O O7 0.962830 0.335194 0.473598
O O8 0.014699 0.179494 0.556252
O O9 0.500000 0.500000 0.898487
O O10 0.750000 0.427399 0.897332
O O11 0.536896 0.351812 0.807912
O O12 0.540392 0.352830 0.989243
O O13 0.750000 0.922958 0.299880
O O14 0.977895 0.889984 0.401519
O O15 0.000000 0.000000 0.265284
O O16 0.250000 0.595114 0.103452
O O17 0.000000 0.500000 0.095354
O O18 0.250000 0.086965 0.508184
O O19 0.500000 0.000000 0.535970
O O20 0.250000 0.585970 0.701147
O O21 0.000000 0.500000 0.703639
O O22 0.500000 0.500000 0.414020
O O23 0.250000 0.586876 0.378609
#
# Coordination Sequence:
#
# PCOD8168095 Si02
#       8
#     4   4   4   4   4   4   4   4
#     4  11  21  34  48  67  93 123 157 192 232 276
#     4  10  20  32  47  69  95 125 159 192 232 276
#     4   8  15  28  46  66  91 120 154 193 234 275
#     4   9  19  33  50  69  89 116 150 191 234 275
#     4  10  19  31  47  69  94 125 159 194 234 276
#     4  10  19  33  51  70  92 120 155 196 238 279
#     4   9  17  30  47  69  96 126 158 194 232 275
#     4  11  22  33  45  63  92 129 162 192 223 266
#
# _framework density 16.063255999999999
#
# number of rings (size 3 to 8) (size 9 to 14) (size 15 to 20)
#    0.000    2.250    1.250    2.250    0.000    3.000 
#    0.000    0.000    0.000    0.000    0.000    0.875 
#    0.000    2.000    0.000    0.000    0.000    0.000 
#
# Total GULP energy -396611.110830 kJ/mol
# GULP energy per Si atom -12394.097213 kJ/mol
# Density = 1.602670 g / cm^3
# Si number density = 16.063256 Si / 1000 Ang^3
#
#
#
# Elastic Constant Matrix: (Units=GPa)
#
#
# Indices 1 2 3 4 5 6 
#
# 1 56.8789 43.1024 37.9354 0.0000 0.0000 0.0000
# 2 43.1024 110.6916 54.4554 0.0000 0.0000 0.0000
# 3 37.9354 54.4554 118.9458 0.0000 0.0000 0.0000
# 4 0.0000 0.0000 0.0000 10.8118 0.0000 0.0000
# 5 0.0000 0.0000 0.0000 0.0000 16.4640 0.0000
# 6 0.0000 0.0000 0.0000 0.0000 0.0000 28.9471
#
#
#
# Elastic Compliance Matrix: (Units=1/GPa)
#
#
# Indices 1 2 3 4 5 6 
#
# 1 0.026985 -0.008098 -0.004899 0.000000 0.000000 0.000000
# 2 -0.008098 0.014090 -0.003868 0.000000 0.000000 0.000000
# 3 -0.004899 -0.003868 0.011741 0.000000 0.000000 0.000000
# 4 0.000000 0.000000 0.000000 0.092492 0.000000 0.000000
# 5 0.000000 0.000000 0.000000 0.000000 0.060738 0.000000
# 6 0.000000 0.000000 0.000000 0.000000 0.000000 0.034546
#
#
# Mechanical properties :
#
#
# Convention : Reuss Voigt Hill
#
# Bulk Modulus (GPa) = 52.39435 61.94475 57.16955
# Shear Modulus (GPa) = 17.81366 21.31279 19.56322
#
# Velocity S-wave (km/s) = 3.33373 3.64648 3.49361
# Velocity P-wave (km/s) = 6.89251 7.50839 7.20703
#
# Compressibility (1/GPa) = 0.01908603
#
# Stress axis : x y z
#
# Youngs Moduli (GPa) = 37.05768 70.97120 85.17476
#
# Poissons Ratio (x) = 0.57470 0.41728
# Poissons Ratio (y) = 0.30008 0.32947
# Poissons Ratio (z) = 0.18155 0.27453
#
# Static dielectric constant tensor:
#      x y z
#    x 3.101590 0.000000 0.000000 
#    y 0.000000 2.914930 0.000000 
#    z 0.000000 0.000000 3.541570 
# 
# 
# High freq. dielectric constant tensor:
#      x y z
#    x 1.627920 0.000000 0.000000 
#    y 0.000000 1.595000 0.000000 
#    z 0.000000 0.000000 1.613960 
# 
# From -- ./inp_files/6392.got.cif
#   From: 2010.03.12/outbox.cif.g09.slc.cpg/sg28_4_cif.got.tgz:6392.got - 2010.04.14 03:39:34.
