data_PCOD8168559
_publ_section_title
;
Structure prediction by ZEFSAII (Michael W. Deem and Ramdas Pophale) SiO2 
 PCOD8168559
Probable space group: P C A 21
;
_chemical_formula_sum "Si O2"
_cell_formula_units_Z 24
_cell_length_a 23.707531
_cell_length_b 10.715321
_cell_length_c 5.213186
_cell_angle_alpha 90.000000
_cell_angle_beta 90.000000
_cell_angle_gamma 90.000000
_cell_volume 1324.325475
_symmetry_space_group_name_H-M "P C A 21"
_symmetry_group_IT_number 29
_symmetry_cell_setting 'orthorhombic'
loop_
_space_group_symop_operation_xyz
x,y,z
-x,-y,1/2+z
1/2-x,y,1/2+z
1/2+x,-y,z
loop_
_atom_site_type_symbol
_atom_site_label
_atom_site_fract_x
_atom_site_fract_y
_atom_site_fract_z
Si Si1 0.624515 0.557392 0.474480
Si Si2 0.191614 0.087349 0.923654
Si Si3 0.117643 0.607230 0.974304
Si Si4 0.184672 0.194608 0.423352
Si Si5 0.215522 0.796511 0.940109
Si Si6 0.003090 0.424991 0.386901
O O1 0.630675 0.492586 0.750772
O O2 0.674271 0.657741 0.446115
O O3 0.564562 0.633126 0.451327
O O4 0.628941 0.454970 0.250235
O O5 0.155982 0.137092 0.166699
O O6 0.157575 0.119168 0.663857
O O7 0.248886 0.167944 0.898548
O O8 0.205244 0.943093 0.950297
O O9 0.155801 0.728470 0.946553
O O10 0.052642 0.657147 0.950149
O O11 0.247562 0.755344 0.683249
O O12 0.998188 0.542293 0.584640
#
# Coordination Sequence:
#
# PCOD8168559 Si02
#       6
#     4   4   4   4   4   4
#     4  10  19  35  54  82 105 134 164 214 267 307
#     4  10  19  35  51  69  94 144 178 200 247 295
#     4  10  21  35  52  82 106 135 167 213 263 305
#     4  10  18  33  53  71  99 132 177 204 245 306
#     4  12  21  38  54  72 104 142 179 209 246 311
#     4   8  16  32  54  72 104 135 167 198 256 322
#
# _framework density 18.122434999999999
#
# number of rings (size 3 to 8) (size 9 to 14) (size 15 to 20)
#    0.000    2.000    3.333    2.000    0.000    0.000 
#   18.000    0.000    0.000    2.000    0.000    0.000 
#    0.000    0.000    0.000    0.000    0.000    0.000 
#
# Total GULP energy -297322.033721 kJ/mol
# GULP energy per Si atom -12388.418072 kJ/mol
# Density = 1.808119 g / cm^3
# Si number density = 18.122435 Si / 1000 Ang^3
#
#
#
# Elastic Constant Matrix: (Units=GPa)
#
#
# Indices 1 2 3 4 5 6 
#
# 1 52.8931 41.6777 -6.9935 0.0000 0.0000 0.0000
# 2 41.6777 52.5613 3.0792 0.0000 0.0000 0.0000
# 3 -6.9935 3.0792 127.1774 0.0000 0.0000 0.0000
# 4 0.0000 0.0000 0.0000 14.9502 0.0000 0.0000
# 5 0.0000 0.0000 0.0000 0.0000 19.8776 0.0000
# 6 0.0000 0.0000 0.0000 0.0000 0.0000 5.5421
#
#
#
# Elastic Compliance Matrix: (Units=1/GPa)
#
#
# Indices 1 2 3 4 5 6 
#
# 1 0.052235 -0.041646 0.003881 0.000000 0.000000 0.000000
# 2 -0.041646 0.052256 -0.003555 0.000000 0.000000 0.000000
# 3 0.003881 -0.003555 0.008163 0.000000 0.000000 0.000000
# 4 0.000000 0.000000 0.000000 0.066889 0.000000 0.000000
# 5 0.000000 0.000000 0.000000 0.000000 0.050308 0.000000
# 6 0.000000 0.000000 0.000000 0.000000 0.000000 0.180436
#
#
# Mechanical properties :
#
#
# Convention : Reuss Voigt Hill
#
# Bulk Modulus (GPa) = 33.31985 34.23984 33.77985
# Shear Modulus (GPa) = 9.94170 21.06520 15.50345
#
# Velocity S-wave (km/s) = 2.34473 3.41307 2.92804
# Velocity P-wave (km/s) = 5.07506 5.87084 5.48739
#
# Compressibility (1/GPa) = 0.03001214
#
# Stress axis : x y z
#
# Youngs Moduli (GPa) = 19.14434 19.13641 122.51119
#
# Poissons Ratio (x) = 0.79696 -0.47543
# Poissons Ratio (y) = 0.79729 0.43557
# Poissons Ratio (z) = -0.07429 0.06804
#
# Static dielectric constant tensor:
#      x y z
#    x 3.419790 0.000000 0.000000 
#    y 0.000000 2.927540 0.000000 
#    z 0.000000 0.000000 5.002060 
# 
# 
# High freq. dielectric constant tensor:
#      x y z
#    x 1.677280 0.000000 0.000000 
#    y 0.000000 1.658190 0.000000 
#    z 0.000000 0.000000 1.745170 
# 
# From -- ./inp_files/642.got.cif
#   From: 2010.03.12/outbox.cif.g09.slc.cpg/sg29_1_cif.got.tgz:642.got - 2010.04.14 03:43:10.
