data_PCOD8168534
_publ_section_title
;
Structure prediction by ZEFSAII (Michael W. Deem and Ramdas Pophale) SiO2 
 PCOD8168534
Probable space group: P C A 21
;
_chemical_formula_sum "Si O2"
_cell_formula_units_Z 24
_cell_length_a 14.782308
_cell_length_b 14.036700
_cell_length_c 5.248416
_cell_angle_alpha 90.000000
_cell_angle_beta 90.000000
_cell_angle_gamma 90.000000
_cell_volume 1089.019147
_symmetry_space_group_name_H-M "P C A 21"
_symmetry_group_IT_number 29
_symmetry_cell_setting 'orthorhombic'
loop_
_space_group_symop_operation_xyz
x,y,z
-x,-y,1/2+z
1/2-x,y,1/2+z
1/2+x,-y,z
loop_
_atom_site_type_symbol
_atom_site_label
_atom_site_fract_x
_atom_site_fract_y
_atom_site_fract_z
Si Si1 0.595071 0.574994 0.245740
Si Si2 0.306945 0.026396 0.715164
Si Si3 0.642903 0.176434 0.257211
Si Si4 0.808505 0.766055 0.785304
Si Si5 0.615826 0.466284 0.745815
Si Si6 0.844328 0.256947 0.256972
O O1 0.614920 0.686980 0.248783
O O2 0.640057 0.524815 0.491650
O O3 0.488273 0.564234 0.247118
O O4 0.639389 0.528926 0.993463
O O5 0.272124 0.018408 0.425616
O O6 0.354849 0.129132 0.755829
O O7 0.374642 0.937354 0.756954
O O8 0.749959 0.200327 0.256701
O O9 0.598663 0.223901 0.508205
O O10 0.598997 0.226171 0.008243
O O11 0.732529 0.754810 0.567544
O O12 0.674646 0.369881 0.752339
#
# Coordination Sequence:
#
# PCOD8168534 Si02
#       6
#     4   4   4   4   4   4
#     4  10  21  40  54  75 104 142 181 212 257 319
#     4  10  16  30  51  73 101 140 164 201 265 314
#     4  10  17  30  48  76 108 126 162 216 257 306
#     4  10  21  35  55  82 103 135 175 221 261 299
#     4  10  21  37  58  71 104 149 175 209 262 312
#     4  10  18  30  48  77  98 136 169 207 252 308
#
# _framework density 22.038180000000001
#
# number of rings (size 3 to 8) (size 9 to 14) (size 15 to 20)
#    0.000    2.000    3.333    2.000    0.000    0.000 
#   18.000    0.000    0.000    2.000    0.000    0.000 
#    0.000    0.000    0.000    0.000    0.000    0.000 
#
# Total GULP energy -297468.252292 kJ/mol
# GULP energy per Si atom -12394.510512 kJ/mol
# Density = 2.198802 g / cm^3
# Si number density = 22.038180 Si / 1000 Ang^3
#
#
#
# Elastic Constant Matrix: (Units=GPa)
#
#
# Indices 1 2 3 4 5 6 
#
# 1 5.6210 9.3265 1.3389 0.0000 0.0000 0.0000
# 2 9.3265 183.0951 55.0036 0.0000 0.0000 0.0000
# 3 1.3389 55.0036 195.3666 0.0000 0.0000 0.0000
# 4 0.0000 0.0000 0.0000 40.7141 0.0000 0.0000
# 5 0.0000 0.0000 0.0000 0.0000 4.2043 0.0000
# 6 0.0000 0.0000 0.0000 0.0000 0.0000 12.0854
#
#
#
# Elastic Compliance Matrix: (Units=1/GPa)
#
#
# Indices 1 2 3 4 5 6 
#
# 1 0.194782 -0.010400 0.001593 0.000000 0.000000 0.000000
# 2 -0.010400 0.006522 -0.001765 0.000000 0.000000 0.000000
# 3 0.001593 -0.001765 0.005605 0.000000 0.000000 0.000000
# 4 0.000000 0.000000 0.000000 0.024562 0.000000 0.000000
# 5 0.000000 0.000000 0.000000 0.000000 0.237850 0.000000
# 6 0.000000 0.000000 0.000000 0.000000 0.000000 0.082744
#
#
# Mechanical properties :
#
#
# Convention : Reuss Voigt Hill
#
# Bulk Modulus (GPa) = 5.38318 57.26898 31.32608
# Shear Modulus (GPa) = 7.87241 32.62834 20.25038
#
# Velocity S-wave (km/s) = 1.89207 3.85195 3.03459
# Velocity P-wave (km/s) = 2.68723 6.76949 5.15011
#
# Compressibility (1/GPa) = 0.18576380
#
# Stress axis : x y z
#
# Youngs Moduli (GPa) = 5.13395 153.33686 178.42715
#
# Poissons Ratio (x) = 1.59477 -0.28427
# Poissons Ratio (y) = 0.05340 0.31489
# Poissons Ratio (z) = -0.00818 0.27061
#
# Static dielectric constant tensor:
#      x y z
#    x 3.021990 0.000000 0.000000 
#    y 0.000000 4.336540 0.000000 
#    z 0.000000 0.000000 6.473390 
# 
# 
# High freq. dielectric constant tensor:
#      x y z
#    x 1.775440 0.000000 0.000000 
#    y 0.000000 1.890580 0.000000 
#    z 0.000000 0.000000 1.904790 
# 
# From -- ./inp_files/375.got.cif
#   From: 2010.03.12/outbox.cif.g09.slc.cpg/sg29_1_cif.got.tgz:375.got - 2010.04.14 03:43:10.
