data_PCOD8168641
_publ_section_title
;
Structure prediction by ZEFSAII (Michael W. Deem and Ramdas Pophale) SiO2 
 PCOD8168641
Probable space group: P C A 21
;
_chemical_formula_sum "Si O2"
_cell_formula_units_Z 28
_cell_length_a 13.623261
_cell_length_b 7.196235
_cell_length_c 11.863050
_cell_angle_alpha 90.000000
_cell_angle_beta 90.000000
_cell_angle_gamma 90.000000
_cell_volume 1163.008196
_symmetry_space_group_name_H-M "P C A 21"
_symmetry_group_IT_number 29
_symmetry_cell_setting 'orthorhombic'
loop_
_space_group_symop_operation_xyz
x,y,z
-x,-y,1/2+z
1/2-x,y,1/2+z
1/2+x,-y,z
loop_
_atom_site_type_symbol
_atom_site_label
_atom_site_fract_x
_atom_site_fract_y
_atom_site_fract_z
Si Si1 0.188625 0.915853 0.054490
Si Si2 0.095844 0.870113 0.598250
Si Si3 0.061423 0.569768 0.038194
Si Si4 0.953763 0.892476 0.405495
Si Si5 0.003777 0.264654 0.313705
Si Si6 0.400691 0.284533 0.182588
Si Si7 0.679420 0.707545 0.165225
O O1 0.297585 0.830304 0.044967
O O2 0.116474 0.750507 0.087162
O O3 0.181224 0.069567 0.152631
O O4 0.152071 0.016586 0.939181
O O5 0.077556 0.759954 0.714690
O O6 0.010806 0.800253 0.511991
O O7 0.088263 0.091567 0.615865
O O8 0.133348 0.392503 0.053892
O O9 0.963610 0.558172 0.116660
O O10 0.037244 0.590464 0.905874
O O11 0.938571 0.737447 0.310428
O O12 0.023554 0.061337 0.365729
O O13 0.108508 0.342010 0.270078
O O14 0.289668 0.362294 0.185726
#
# Coordination Sequence:
#
# PCOD8168641 Si02
#       7
#     4   4   4   4   4   4   4
#     4  10  21  41  68 101 134 178 232 273 355 418
#     4  10  19  39  70 102 134 183 229 284 346 427
#     4  11  24  47  65  99 140 178 230 297 342 421
#     4  10  19  38  72  99 134 184 224 287 351 414
#     4  10  21  42  65  99 139 175 233 287 346 418
#     4  10  22  40  65 104 138 179 236 287 352 423
#     4  11  24  41  69  98 137 183 230 291 350 419
#
# _framework density 24.075496000000001
#
# number of rings (size 3 to 8) (size 9 to 14) (size 15 to 20)
#    0.000    1.714    4.286    0.857    2.000    2.286 
#    5.143    1.429    0.000    0.000    0.000    0.000 
#    0.000    0.000    0.000    0.000    0.000    0.000 
#
# Total GULP energy -347190.106290 kJ/mol
# GULP energy per Si atom -12399.646653 kJ/mol
# Density = 2.402070 g / cm^3
# Si number density = 24.075496 Si / 1000 Ang^3
#
#
#
# Elastic Constant Matrix: (Units=GPa)
#
#
# Indices 1 2 3 4 5 6 
#
# 1 180.9513 38.8199 74.4757 0.0000 0.0000 0.0000
# 2 38.8199 51.5179 17.7694 0.0000 0.0000 0.0000
# 3 74.4757 17.7694 145.1667 0.0000 0.0000 0.0000
# 4 0.0000 0.0000 0.0000 30.1041 0.0000 0.0000
# 5 0.0000 0.0000 0.0000 0.0000 30.2077 0.0000
# 6 0.0000 0.0000 0.0000 0.0000 0.0000 29.6445
#
#
#
# Elastic Compliance Matrix: (Units=1/GPa)
#
#
# Indices 1 2 3 4 5 6 
#
# 1 0.008009 -0.004821 -0.003519 0.000000 0.000000 0.000000
# 2 -0.004821 0.023169 -0.000363 0.000000 0.000000 0.000000
# 3 -0.003519 -0.000363 0.008738 0.000000 0.000000 0.000000
# 4 0.000000 0.000000 0.000000 0.033218 0.000000 0.000000
# 5 0.000000 0.000000 0.000000 0.000000 0.033104 0.000000
# 6 0.000000 0.000000 0.000000 0.000000 0.000000 0.033733
#
#
# Mechanical properties :
#
#
# Convention : Reuss Voigt Hill
#
# Bulk Modulus (GPa) = 44.42299 71.08510 57.75404
# Shear Modulus (GPa) = 30.32517 34.42932 32.37725
#
# Velocity S-wave (km/s) = 3.55292 3.78571 3.67116
# Velocity P-wave (km/s) = 5.94328 6.97845 6.48156
#
# Compressibility (1/GPa) = 0.02251087
#
# Stress axis : x y z
#
# Youngs Moduli (GPa) = 124.86160 43.16172 114.43973
#
# Poissons Ratio (x) = 0.20809 0.40268
# Poissons Ratio (y) = 0.60198 0.04149
# Poissons Ratio (z) = 0.43935 0.01565
#
# Static dielectric constant tensor:
#      x y z
#    x 4.470180 0.000000 0.000000 
#    y 0.000000 4.235660 0.000000 
#    z 0.000000 0.000000 4.230420 
# 
# 
# High freq. dielectric constant tensor:
#      x y z
#    x 1.951490 0.000000 0.000000 
#    y 0.000000 1.959420 0.000000 
#    z 0.000000 0.000000 1.943600 
# 
# From -- ./inp_files/3414.got.cif
#   From: 2010.03.12/outbox.cif.g09.slc.cpg/sg29_2_cif.got.tgz:3414.got - 2010.04.14 03:43:10.
