data_PCOD8168637
_publ_section_title
;
Structure prediction by ZEFSAII (Michael W. Deem and Ramdas Pophale) SiO2 
 PCOD8168637
Probable space group: P C A 21
;
_chemical_formula_sum "Si O2"
_cell_formula_units_Z 16
_cell_length_a 16.441920
_cell_length_b 8.365517
_cell_length_c 5.283585
_cell_angle_alpha 90.000000
_cell_angle_beta 90.000000
_cell_angle_gamma 90.000000
_cell_volume 726.731551
_symmetry_space_group_name_H-M "P C A 21"
_symmetry_group_IT_number 29
_symmetry_cell_setting 'orthorhombic'
loop_
_space_group_symop_operation_xyz
x,y,z
-x,-y,1/2+z
1/2-x,y,1/2+z
1/2+x,-y,z
loop_
_atom_site_type_symbol
_atom_site_label
_atom_site_fract_x
_atom_site_fract_y
_atom_site_fract_z
Si Si1 0.277685 0.531573 0.309250
Si Si2 0.479628 0.094434 0.814218
Si Si3 0.538797 0.436859 0.862492
Si Si4 0.290867 0.178512 0.819412
O O1 0.253008 0.629721 0.562544
O O2 0.372676 0.496198 0.294792
O O3 0.225202 0.368285 0.321796
O O4 0.537477 0.245787 0.862510
O O5 0.386362 0.147038 0.824162
O O6 0.501000 0.030481 0.535663
O O7 0.480336 0.503354 0.644551
O O8 0.250682 0.100640 0.568525
#
# Coordination Sequence:
#
# PCOD8168637 Si02
#       4
#     4   4   4   4
#     4  10  20  36  61  94 123 160 219 278 321 374
#     4  12  26  44  66 102 143 180 217 274 349 410
#     4  12  23  42  71 100 129 173 229 280 324 396
#     4  10  19  38  64  90 123 173 221 262 322 398
#
# _framework density 22.016383000000001
#
# number of rings (size 3 to 8) (size 9 to 14) (size 15 to 20)
#    0.000    1.000    0.000   10.500    0.000    0.000 
#    0.000    7.500    0.000    0.000    0.000    0.000 
#    0.000    0.000    0.000    0.000    0.000    0.000 
#
# Total GULP energy -198367.244935 kJ/mol
# GULP energy per Si atom -12397.952808 kJ/mol
# Density = 2.196627 g / cm^3
# Si number density = 22.016383 Si / 1000 Ang^3
#
#
#
# Elastic Constant Matrix: (Units=GPa)
#
#
# Indices 1 2 3 4 5 6 
#
# 1 147.1465 19.2964 37.2487 0.0000 0.0000 0.0000
# 2 19.2964 62.9126 7.0051 0.0000 0.0000 0.0000
# 3 37.2487 7.0051 187.6907 0.0000 0.0000 0.0000
# 4 0.0000 0.0000 0.0000 25.6588 0.0000 0.0000
# 5 0.0000 0.0000 0.0000 0.0000 45.8552 0.0000
# 6 0.0000 0.0000 0.0000 0.0000 0.0000 30.2750
#
#
#
# Elastic Compliance Matrix: (Units=1/GPa)
#
#
# Indices 1 2 3 4 5 6 
#
# 1 0.007427 -0.002123 -0.001395 0.000000 0.000000 0.000000
# 2 -0.002123 0.016568 -0.000197 0.000000 0.000000 0.000000
# 3 -0.001395 -0.000197 0.005612 0.000000 0.000000 0.000000
# 4 0.000000 0.000000 0.000000 0.038973 0.000000 0.000000
# 5 0.000000 0.000000 0.000000 0.000000 0.021808 0.000000
# 6 0.000000 0.000000 0.000000 0.000000 0.000000 0.033031
#
#
# Mechanical properties :
#
#
# Convention : Reuss Voigt Hill
#
# Bulk Modulus (GPa) = 45.08924 58.31668 51.70296
# Shear Modulus (GPa) = 36.16872 42.63778 39.40325
#
# Velocity S-wave (km/s) = 4.05756 4.40550 4.23510
# Velocity P-wave (km/s) = 6.51736 7.24039 6.88837
#
# Compressibility (1/GPa) = 0.02217824
#
# Stress axis : x y z
#
# Youngs Moduli (GPa) = 134.63656 60.35689 178.18716
#
# Poissons Ratio (x) = 0.12813 0.24853
# Poissons Ratio (y) = 0.28581 0.03512
# Poissons Ratio (z) = 0.18779 0.01190
#
# Static dielectric constant tensor:
#      x y z
#    x 3.992280 0.000000 0.000000 
#    y 0.000000 3.574950 0.000000 
#    z 0.000000 0.000000 6.343640 
# 
# 
# High freq. dielectric constant tensor:
#      x y z
#    x 1.878760 0.000000 0.000000 
#    y 0.000000 1.816460 0.000000 
#    z 0.000000 0.000000 1.910010 
# 
# From -- ./inp_files/136.got.cif
#   From: 2010.03.12/outbox.cif.g09.slc.cpg/sg29_1_cif.got.tgz:136.got - 2010.04.14 03:43:10.
