data_PCOD8168890
_publ_section_title
;
Structure prediction by ZEFSAII (Michael W. Deem and Ramdas Pophale) SiO2 
 PCOD8168890
Probable space group: P C A 21
;
_chemical_formula_sum "Si O2"
_cell_formula_units_Z 32
_cell_length_a 13.368807
_cell_length_b 6.486984
_cell_length_c 17.116062
_cell_angle_alpha 90.000000
_cell_angle_beta 90.000000
_cell_angle_gamma 90.000000
_cell_volume 1484.360303
_symmetry_space_group_name_H-M "P C A 21"
_symmetry_group_IT_number 29
_symmetry_cell_setting 'orthorhombic'
loop_
_space_group_symop_operation_xyz
x,y,z
-x,-y,1/2+z
1/2-x,y,1/2+z
1/2+x,-y,z
loop_
_atom_site_type_symbol
_atom_site_label
_atom_site_fract_x
_atom_site_fract_y
_atom_site_fract_z
Si Si1 0.519035 0.345843 0.458640
Si Si2 0.519035 0.345843 0.812353
Si Si3 0.947691 0.724618 0.049390
Si Si4 0.310989 0.986395 0.309683
Si Si5 0.447691 0.275382 0.221602
Si Si6 0.810989 0.013606 0.961310
Si Si7 0.882115 0.960652 0.547564
Si Si8 0.117885 0.039347 0.223428
O O1 0.500000 0.500000 0.385496
O O2 0.540024 0.482937 0.534694
O O3 0.424606 0.201200 0.482346
O O4 0.619082 0.211386 0.445156
O O5 0.619082 0.211386 0.825837
O O6 0.540024 0.482937 0.736298
O O7 0.424606 0.201199 0.788647
O O8 0.900989 0.757625 0.135496
O O9 0.877873 0.817915 0.982567
O O10 0.054819 0.831229 0.043162
O O11 0.377873 0.182085 0.288426
O O12 0.250000 0.044933 0.385496
O O13 0.230126 0.961315 0.240666
O O14 0.554819 0.168771 0.227830
O O15 0.730126 0.038685 0.030326
O O16 0.887100 0.866117 0.635496
#
# Coordination Sequence:
#
# PCOD8168890 Si02
#       8
#     4   4   4   4   4   4   4   4
#     4  11  23  40  63  92 126 163 205 256 314 374
#     4  11  23  40  63  92 126 163 205 256 314 374
#     4  10  22  40  62  88 122 163 205 253 310 371
#     4  11  23  39  61  89 121 160 206 255 310 373
#     4  10  22  40  62  88 122 163 205 253 310 371
#     4  11  23  39  61  89 121 160 206 255 310 373
#     4  10  22  41  63  89 124 164 206 257 313 372
#     4  10  22  41  63  89 124 164 206 257 313 372
#
# _framework density 21.558107
#
# number of rings (size 3 to 8) (size 9 to 14) (size 15 to 20)
#    0.000    1.500    0.000    4.500    0.000   12.000 
#    0.000    2.500    0.000    0.000    0.000    0.000 
#    0.000    0.000    0.000    0.000    0.000    0.000 
#
# Total GULP energy -396614.016346 kJ/mol
# GULP energy per Si atom -12394.188011 kJ/mol
# Density = 2.150904 g / cm^3
# Si number density = 21.558107 Si / 1000 Ang^3
#
#
#
# Elastic Constant Matrix: (Units=GPa)
#
#
# Indices 1 2 3 4 5 6 
#
# 1 121.8761 35.5730 37.6990 0.0000 0.0000 0.0000
# 2 35.5730 97.1955 35.5364 0.0000 0.0000 0.0000
# 3 37.6990 35.5364 91.1109 0.0000 0.0000 0.0000
# 4 0.0000 0.0000 0.0000 34.4195 0.0000 0.0000
# 5 0.0000 0.0000 0.0000 0.0000 39.9698 0.0000
# 6 0.0000 0.0000 0.0000 0.0000 0.0000 17.9181
#
#
#
# Elastic Compliance Matrix: (Units=1/GPa)
#
#
# Indices 1 2 3 4 5 6 
#
# 1 0.009896 -0.002478 -0.003128 0.000000 0.000000 0.000000
# 2 -0.002478 0.012620 -0.003897 0.000000 0.000000 0.000000
# 3 -0.003128 -0.003897 0.013790 0.000000 0.000000 0.000000
# 4 0.000000 0.000000 0.000000 0.029053 0.000000 0.000000
# 5 0.000000 0.000000 0.000000 0.000000 0.025019 0.000000
# 6 0.000000 0.000000 0.000000 0.000000 0.000000 0.055810
#
#
# Mechanical properties :
#
#
# Convention : Reuss Voigt Hill
#
# Bulk Modulus (GPa) = 57.80435 58.64437 58.22436
# Shear Modulus (GPa) = 29.24643 31.88642 30.56643
#
# Velocity S-wave (km/s) = 3.68725 3.85007 3.76954
# Velocity P-wave (km/s) = 6.70814 6.85755 6.78326
#
# Compressibility (1/GPa) = 0.01729974
#
# Stress axis : x y z
#
# Youngs Moduli (GPa) = 101.05124 79.23708 72.51684
#
# Poissons Ratio (x) = 0.19636 0.22684
# Poissons Ratio (y) = 0.25042 0.28260
# Poissons Ratio (z) = 0.31610 0.30878
#
# Static dielectric constant tensor:
#      x y z
#    x 4.134490 0.000000 0.000000 
#    y 0.000000 3.805670 0.000000 
#    z 0.000000 0.000000 4.172280 
# 
# 
# High freq. dielectric constant tensor:
#      x y z
#    x 1.849140 0.000000 0.000000 
#    y 0.000000 1.837140 0.000000 
#    z 0.000000 0.000000 1.865930 
# 
# From -- ./inp_files/5271.got.cif
#   From: 2010.03.12/outbox.cif.g09.slc.cpg/sg29_3_cif.got.tgz:5271.got - 2010.04.14 03:43:10.
