data_PCOD8168751
_publ_section_title
;
Structure prediction by ZEFSAII (Michael W. Deem and Ramdas Pophale) SiO2 
 PCOD8168751
Probable space group: P C A 21
;
_chemical_formula_sum "Si O2"
_cell_formula_units_Z 24
_cell_length_a 15.556158
_cell_length_b 5.097374
_cell_length_c 15.366342
_cell_angle_alpha 90.000000
_cell_angle_beta 90.000000
_cell_angle_gamma 90.000000
_cell_volume 1218.482622
_symmetry_space_group_name_H-M "P C A 21"
_symmetry_group_IT_number 29
_symmetry_cell_setting 'orthorhombic'
loop_
_space_group_symop_operation_xyz
x,y,z
-x,-y,1/2+z
1/2-x,y,1/2+z
1/2+x,-y,z
loop_
_atom_site_type_symbol
_atom_site_label
_atom_site_fract_x
_atom_site_fract_y
_atom_site_fract_z
Si Si1 0.404826 0.040053 0.906640
Si Si2 0.654904 0.462962 0.316371
Si Si3 0.845096 0.537037 0.316372
Si Si4 0.595175 0.040052 0.906641
Si Si5 0.500000 0.951601 0.071172
Si Si6 0.500000 0.548705 0.685454
O O1 0.362202 0.321571 0.890985
O O2 0.500001 0.029345 0.862573
O O3 0.347310 0.818459 0.862311
O O4 0.415007 0.993556 0.010721
O O5 0.750000 0.499998 0.276361
O O6 0.586046 0.495604 0.240352
O O7 0.862202 0.321570 0.390985
O O8 0.913954 0.504403 0.240353
O O9 0.847309 0.818457 0.362313
O O10 0.584993 0.993555 0.010722
O O11 0.500000 0.656586 0.106534
O O12 0.500001 0.156308 0.149660
#
# Coordination Sequence:
#
# PCOD8168751 Si02
#       6
#     4   4   4   4   4   4
#     4  10  20  42  62  89 113 161 209 233 298 350
#     4  12  23  39  65  91 119 158 204 248 292 356
#     4  12  23  39  65  91 119 158 204 248 292 356
#     4  10  20  42  62  89 113 161 209 233 298 350
#     4  10  22  36  68  82 120 166 190 244 308 350
#     4  12  20  40  60  90 126 154 192 248 306 358
#
# _framework density 19.696626999999999
#
# number of rings (size 3 to 8) (size 9 to 14) (size 15 to 20)
#    1.000    0.000    3.333    5.000    0.000    0.000 
#    0.000   10.000    0.000    0.000    0.000    0.000 
#    0.000    0.000    0.000    0.000    0.000    0.000 
#
# Total GULP energy -297584.501684 kJ/mol
# GULP energy per Si atom -12399.354237 kJ/mol
# Density = 1.965180 g / cm^3
# Si number density = 19.696627 Si / 1000 Ang^3
#
#
#
# Elastic Constant Matrix: (Units=GPa)
#
#
# Indices 1 2 3 4 5 6 
#
# 1 129.4481 4.4324 27.6832 0.0000 0.0000 0.0000
# 2 4.4324 87.0332 5.6684 0.0000 0.0000 0.0000
# 3 27.6832 5.6684 77.3566 0.0000 0.0000 0.0000
# 4 0.0000 0.0000 0.0000 36.2872 0.0000 0.0000
# 5 0.0000 0.0000 0.0000 0.0000 4.9395 0.0000
# 6 0.0000 0.0000 0.0000 0.0000 0.0000 25.4838
#
#
#
# Elastic Compliance Matrix: (Units=1/GPa)
#
#
# Indices 1 2 3 4 5 6 
#
# 1 0.008370 -0.000232 -0.002978 0.000000 0.000000 0.000000
# 2 -0.000232 0.011551 -0.000763 0.000000 0.000000 0.000000
# 3 -0.002978 -0.000763 0.014049 0.000000 0.000000 0.000000
# 4 0.000000 0.000000 0.000000 0.027558 0.000000 0.000000
# 5 0.000000 0.000000 0.000000 0.000000 0.202449 0.000000
# 6 0.000000 0.000000 0.000000 0.000000 0.000000 0.039241
#
#
# Mechanical properties :
#
#
# Convention : Reuss Voigt Hill
#
# Bulk Modulus (GPa) = 38.42830 41.04510 39.73670
# Shear Modulus (GPa) = 15.63281 30.41236 23.02258
#
# Velocity S-wave (km/s) = 2.82029 3.93369 3.42257
# Velocity P-wave (km/s) = 5.49161 6.44327 5.98638
#
# Compressibility (1/GPa) = 0.02602249
#
# Stress axis : x y z
#
# Youngs Moduli (GPa) = 119.47452 86.56954 71.17987
#
# Poissons Ratio (x) = 0.02011 0.21200
# Poissons Ratio (y) = 0.02775 0.05433
# Poissons Ratio (z) = 0.35583 0.06608
#
# Static dielectric constant tensor:
#      x y z
#    x 3.492610 0.000000 0.000000 
#    y 0.000000 3.613390 0.000000 
#    z 0.000000 0.000000 3.354400 
# 
# 
# High freq. dielectric constant tensor:
#      x y z
#    x 1.752480 0.000000 0.000000 
#    y 0.000000 1.789070 0.000000 
#    z 0.000000 0.000000 1.750830 
# 
# From -- ./inp_files/4624.got.cif
#   From: 2010.03.12/outbox.cif.g09.slc.cpg/sg29_3_cif.got.tgz:4624.got - 2010.04.14 03:43:10.
