data_PCOD8168210
_publ_section_title
;
Structure prediction by ZEFSAII (Michael W. Deem and Ramdas Pophale) SiO2 
 PCOD8168210
Probable space group: P M A 2
;
_chemical_formula_sum "Si O2"
_cell_formula_units_Z 32
_cell_length_a 8.680013
_cell_length_b 14.508616
_cell_length_c 12.355546
_cell_angle_alpha 90.000000
_cell_angle_beta 90.000000
_cell_angle_gamma 90.000000
_cell_volume 1555.995383
_symmetry_space_group_name_H-M "P M A 2"
_symmetry_group_IT_number 28
_symmetry_cell_setting 'orthorhombic'
loop_
_space_group_symop_operation_xyz
x,y,z
-x,-y,z
1/2-x,y,z
1/2+x,-y,z
loop_
_atom_site_type_symbol
_atom_site_label
_atom_site_fract_x
_atom_site_fract_y
_atom_site_fract_z
Si Si1 0.575500 0.863964 0.662920
Si Si2 0.431737 0.592125 0.796129
Si Si3 0.931819 0.602112 0.168279
Si Si4 0.068337 0.908746 0.439424
Si Si5 0.431989 0.904026 0.892561
Si Si6 0.568343 0.292380 0.369898
Si Si7 0.932458 0.722427 0.965094
Si Si8 0.575126 0.656941 0.590181
O O1 0.750000 0.900192 0.677563
O O2 0.499260 0.911670 0.559888
O O3 0.478732 0.889618 0.768154
O O4 0.573348 0.755702 0.645668
O O5 0.500000 0.500000 0.851934
O O6 0.250000 0.594486 0.807600
O O7 0.504341 0.679792 0.854483
O O8 0.483913 0.590057 0.671046
O O9 0.750000 0.592354 0.168519
O O10 0.000000 0.500000 0.166831
O O11 0.983147 0.659590 0.271709
O O12 0.990026 0.660029 0.064838
O O13 0.250000 0.914885 0.445773
O O14 0.018874 0.815574 0.376156
O O15 0.000000 0.000000 0.379303
O O16 0.250000 0.904387 0.902461
O O17 0.498979 0.825089 0.971781
O O18 0.500000 0.000000 0.935984
O O19 0.750000 0.303422 0.356078
O O20 0.515315 0.344705 0.477617
O O21 0.750000 0.728842 0.959692
O O22 0.750000 0.622247 0.572403
#
# Coordination Sequence:
#
# PCOD8168210 Si02
#       8
#     4   4   4   4   4   4   4   4
#     4  10  19  33  55  83 122 166 208 253 301 361
#     4  12  24  38  60  90 125 164 205 251 310 377
#     4  11  25  45  71  96 121 156 204 258 313 374
#     4  10  20  34  55  86 124 165 209 253 302 362
#     4  12  24  38  60  89 125 167 210 256 307 369
#     4  10  22  40  63  91 125 161 207 259 310 369
#     4  11  24  44  66  92 125 160 205 259 313 373
#     4  10  20  36  59  87 125 165 204 253 310 369
#
# _framework density 20.565614
#
# number of rings (size 3 to 8) (size 9 to 14) (size 15 to 20)
#    0.000    1.250    1.250    5.250    0.000    6.000 
#    0.000    3.125    0.000    1.500    0.000    0.000 
#    0.000    0.000    0.000    0.000    0.000    0.000 
#
# Total GULP energy -396874.338871 kJ/mol
# GULP energy per Si atom -12402.323090 kJ/mol
# Density = 2.051881 g / cm^3
# Si number density = 20.565614 Si / 1000 Ang^3
#
#
#
# Elastic Constant Matrix: (Units=GPa)
#
#
# Indices 1 2 3 4 5 6 
#
# 1 93.5067 55.8195 21.1576 0.0000 0.0000 0.0000
# 2 55.8195 140.4098 61.6294 0.0000 0.0000 0.0000
# 3 21.1576 61.6294 89.5969 0.0000 0.0000 0.0000
# 4 0.0000 0.0000 0.0000 19.6879 0.0000 0.0000
# 5 0.0000 0.0000 0.0000 0.0000 23.5951 0.0000
# 6 0.0000 0.0000 0.0000 0.0000 0.0000 36.4867
#
#
#
# Elastic Compliance Matrix: (Units=1/GPa)
#
#
# Indices 1 2 3 4 5 6 
#
# 1 0.014057 -0.005918 0.000751 0.000000 0.000000 0.000000
# 2 -0.005918 0.012694 -0.007334 0.000000 0.000000 0.000000
# 3 0.000751 -0.007334 0.016028 0.000000 0.000000 0.000000
# 4 0.000000 0.000000 0.000000 0.050793 0.000000 0.000000
# 5 0.000000 0.000000 0.000000 0.000000 0.042382 0.000000
# 6 0.000000 0.000000 0.000000 0.000000 0.000000 0.027407
#
#
# Mechanical properties :
#
#
# Convention : Reuss Voigt Hill
#
# Bulk Modulus (GPa) = 56.24973 66.74739 61.49856
# Shear Modulus (GPa) = 25.73488 28.28105 27.00796
#
# Velocity S-wave (km/s) = 3.54129 3.71234 3.62782
# Velocity P-wave (km/s) = 6.64317 7.13453 6.89323
#
# Compressibility (1/GPa) = 0.01777786
#
# Stress axis : x y z
#
# Youngs Moduli (GPa) = 71.13708 78.77835 62.38948
#
# Poissons Ratio (x) = 0.46623 -0.04688
# Poissons Ratio (y) = 0.42101 0.45756
# Poissons Ratio (z) = -0.05345 0.57776
#
# Static dielectric constant tensor:
#      x y z
#    x 3.793050 0.000000 0.000000 
#    y 0.000000 4.231540 0.000000 
#    z 0.000000 0.000000 3.608340 
# 
# 
# High freq. dielectric constant tensor:
#      x y z
#    x 1.818370 0.000000 0.000000 
#    y 0.000000 1.822250 0.000000 
#    z 0.000000 0.000000 1.780950 
# 
# From -- ./inp_files/4977.got.cif
#   From: 2010.03.12/outbox.cif.g09.slc.cpg/sg28_3_cif.got.tgz:4977.got - 2010.04.14 03:39:34.
