data_PCOD8168514
_publ_section_title
;
Structure prediction by ZEFSAII (Michael W. Deem and Ramdas Pophale) SiO2 
 PCOD8168514
Probable space group: P M A 2
;
_chemical_formula_sum "Si O2"
_cell_formula_units_Z 16
_cell_length_a 8.895605
_cell_length_b 13.206408
_cell_length_c 7.769526
_cell_angle_alpha 90.000000
_cell_angle_beta 90.000000
_cell_angle_gamma 90.000000
_cell_volume 912.756060
_symmetry_space_group_name_H-M "P M A 2"
_symmetry_group_IT_number 28
_symmetry_cell_setting 'orthorhombic'
loop_
_space_group_symop_operation_xyz
x,y,z
-x,-y,z
1/2-x,y,z
1/2+x,-y,z
loop_
_atom_site_type_symbol
_atom_site_label
_atom_site_fract_x
_atom_site_fract_y
_atom_site_fract_z
Si Si1 0.919915 0.209368 0.325770
Si Si2 0.572314 0.789409 0.988474
Si Si3 0.419761 0.605471 0.113459
Si Si4 0.572618 0.892321 0.635746
O O1 0.750000 0.167694 0.343761
O O2 0.920282 0.331211 0.293554
O O3 0.013884 0.187250 0.495970
O O4 0.998372 0.157395 0.157532
O O5 0.750000 0.785026 0.009961
O O6 0.522662 0.853203 0.822761
O O7 0.507873 0.674139 0.971634
O O8 0.500000 0.500000 0.145182
O O9 0.250000 0.586919 0.048746
O O10 0.750000 0.901303 0.620335
O O11 0.500000 0.000000 0.597837
#
# Coordination Sequence:
#
# PCOD8168514 Si02
#       4
#     4   4   4   4
#     4   9  20  36  56  81 111 145 181 225 271 320
#     4   9  19  36  56  80 111 145 183 224 270 323
#     4   9  18  33  57  83 108 145 180 222 274 321
#     4  11  23  37  57  81 109 146 183 227 273 322
#
# _framework density 17.529326999999999
#
# number of rings (size 3 to 8) (size 9 to 14) (size 15 to 20)
#    1.500    1.000    0.000    2.250    0.000    5.000 
#    0.000    3.750    0.000    3.000    0.000    0.000 
#    0.000    0.000    0.000    0.000    0.000    0.000 
#
# Total GULP energy -198253.262350 kJ/mol
# GULP energy per Si atom -12390.828897 kJ/mol
# Density = 1.748943 g / cm^3
# Si number density = 17.529327 Si / 1000 Ang^3
#
#
#
# Elastic Constant Matrix: (Units=GPa)
#
#
# Indices 1 2 3 4 5 6 
#
# 1 104.1581 32.4075 48.0385 0.0000 0.0000 0.0000
# 2 32.4075 66.9741 15.4221 0.0000 0.0000 0.0000
# 3 48.0385 15.4221 88.5354 0.0000 0.0000 0.0000
# 4 0.0000 0.0000 0.0000 23.7323 0.0000 0.0000
# 5 0.0000 0.0000 0.0000 0.0000 26.2172 0.0000
# 6 0.0000 0.0000 0.0000 0.0000 0.0000 26.3179
#
#
#
# Elastic Compliance Matrix: (Units=1/GPa)
#
#
# Indices 1 2 3 4 5 6 
#
# 1 0.014471 -0.005411 -0.006909 0.000000 0.000000 0.000000
# 2 -0.005411 0.017579 -0.000126 0.000000 0.000000 0.000000
# 3 -0.006909 -0.000126 0.015066 0.000000 0.000000 0.000000
# 4 0.000000 0.000000 0.000000 0.042137 0.000000 0.000000
# 5 0.000000 0.000000 0.000000 0.000000 0.038143 0.000000
# 6 0.000000 0.000000 0.000000 0.000000 0.000000 0.037997
#
#
# Mechanical properties :
#
#
# Convention : Reuss Voigt Hill
#
# Bulk Modulus (GPa) = 44.99955 50.15596 47.57776
# Shear Modulus (GPa) = 25.29184 26.17345 25.73265
#
# Velocity S-wave (km/s) = 3.80258 3.86829 3.83558
# Velocity P-wave (km/s) = 6.70867 6.97325 6.84224
#
# Compressibility (1/GPa) = 0.02222244
#
# Stress axis : x y z
#
# Youngs Moduli (GPa) = 69.10356 56.88749 66.37574
#
# Poissons Ratio (x) = 0.30783 0.45861
# Poissons Ratio (y) = 0.37394 0.00836
# Poissons Ratio (z) = 0.47745 0.00716
#
# Static dielectric constant tensor:
#      x y z
#    x 3.379620 0.000000 0.000000 
#    y 0.000000 3.029260 0.000000 
#    z 0.000000 0.000000 3.099820 
# 
# 
# High freq. dielectric constant tensor:
#      x y z
#    x 1.699580 0.000000 0.000000 
#    y 0.000000 1.660520 0.000000 
#    z 0.000000 0.000000 1.658520 
# 
# From -- ./inp_files/159.got.cif
#   From: 2010.03.12/outbox.cif.g09.slc.cpg/sg28_1_cif.got.tgz:159.got - 2010.04.14 03:39:34.
