data_PCOD8168704
_publ_section_title
;
Structure prediction by ZEFSAII (Michael W. Deem and Ramdas Pophale) SiO2 
 PCOD8168704
Probable space group: P C A 21
;
_chemical_formula_sum "Si O2"
_cell_formula_units_Z 32
_cell_length_a 13.639423
_cell_length_b 13.928979
_cell_length_c 8.720700
_cell_angle_alpha 90.000000
_cell_angle_beta 90.000000
_cell_angle_gamma 90.000000
_cell_volume 1656.786811
_symmetry_space_group_name_H-M "P C A 21"
_symmetry_group_IT_number 29
_symmetry_cell_setting 'orthorhombic'
loop_
_space_group_symop_operation_xyz
x,y,z
-x,-y,1/2+z
1/2-x,y,1/2+z
1/2+x,-y,z
loop_
_atom_site_type_symbol
_atom_site_label
_atom_site_fract_x
_atom_site_fract_y
_atom_site_fract_z
Si Si1 0.639145 0.497973 0.998010
Si Si2 0.519595 0.665365 0.848816
Si Si3 0.917212 0.967059 0.090323
Si Si4 0.876279 0.809138 0.878308
Si Si5 0.781142 0.879793 0.573990
Si Si6 0.030261 0.111279 0.906551
Si Si7 0.542937 0.628751 0.501165
Si Si8 0.659931 0.470319 0.351110
O O1 0.598901 0.600292 0.938396
O O2 0.561868 0.414757 0.965085
O O3 0.729290 0.453265 0.903212
O O4 0.659062 0.510139 0.178235
O O5 0.520857 0.773623 0.911139
O O6 0.552950 0.668306 0.672618
O O7 0.409033 0.623841 0.865372
O O8 0.798752 0.961831 0.124071
O O9 0.981572 0.933377 0.236531
O O10 0.942034 0.895096 0.948879
O O11 0.949476 0.071303 0.027345
O O12 0.841481 0.832525 0.709476
O O13 0.940499 0.713491 0.878808
O O14 0.779332 0.795905 0.985880
O O15 0.861835 0.923615 0.459645
O O16 0.624312 0.548724 0.472954
#
# Coordination Sequence:
#
# PCOD8168704 Si02
#       8
#     4   4   4   4   4   4   4   4
#     4  10  22  39  59  93 128 167 211 253 316 376
#     4  10  22  41  62  96 122 170 214 258 312 378
#     4  10  22  38  60  91 121 161 200 259 318 367
#     4  10  20  38  60  92 120 155 204 260 310 367
#     4  10  21  38  61  90 122 148 208 258 309 371
#     4  12  22  41  66  88 127 163 208 264 315 376
#     4  10  21  37  63  90 124 162 212 261 308 373
#     4  10  22  38  63  86 134 168 203 261 314 372
#
# _framework density 19.314494
#
# number of rings (size 3 to 8) (size 9 to 14) (size 15 to 20)
#    0.750    1.000    2.500    1.500    3.500    1.000 
#    0.000    1.250    8.250    0.000    0.000    0.000 
#    0.000    0.000    0.000    0.000    0.000    0.000 
#
# Total GULP energy -396554.091205 kJ/mol
# GULP energy per Si atom -12392.315350 kJ/mol
# Density = 1.927053 g / cm^3
# Si number density = 19.314494 Si / 1000 Ang^3
#
#
#
# Elastic Constant Matrix: (Units=GPa)
#
#
# Indices 1 2 3 4 5 6 
#
# 1 98.3479 46.6208 41.8558 0.0000 0.0000 0.0000
# 2 46.6208 99.7619 47.0329 0.0000 0.0000 0.0000
# 3 41.8558 47.0329 89.7272 0.0000 0.0000 0.0000
# 4 0.0000 0.0000 0.0000 33.3006 0.0000 0.0000
# 5 0.0000 0.0000 0.0000 0.0000 33.0651 0.0000
# 6 0.0000 0.0000 0.0000 0.0000 0.0000 20.6223
#
#
#
# Elastic Compliance Matrix: (Units=1/GPa)
#
#
# Indices 1 2 3 4 5 6 
#
# 1 0.014142 -0.004647 -0.004161 0.000000 0.000000 0.000000
# 2 -0.004647 0.014841 -0.005612 0.000000 0.000000 0.000000
# 3 -0.004161 -0.005612 0.016027 0.000000 0.000000 0.000000
# 4 0.000000 0.000000 0.000000 0.030029 0.000000 0.000000
# 5 0.000000 0.000000 0.000000 0.000000 0.030243 0.000000
# 6 0.000000 0.000000 0.000000 0.000000 0.000000 0.048491
#
#
# Mechanical properties :
#
#
# Convention : Reuss Voigt Hill
#
# Bulk Modulus (GPa) = 61.83907 62.09510 61.96709
# Shear Modulus (GPa) = 26.59520 27.55277 27.07399
#
# Velocity S-wave (km/s) = 3.71476 3.78104 3.74805
# Velocity P-wave (km/s) = 7.10533 7.16108 7.13326
#
# Compressibility (1/GPa) = 0.01617101
#
# Stress axis : x y z
#
# Youngs Moduli (GPa) = 70.71281 67.38034 62.39327
#
# Poissons Ratio (x) = 0.31312 0.25961
# Poissons Ratio (y) = 0.32860 0.35013
# Poissons Ratio (z) = 0.29423 0.37811
#
# Static dielectric constant tensor:
#      x y z
#    x 3.586770 0.000000 0.000000 
#    y 0.000000 3.256050 0.000000 
#    z 0.000000 0.000000 3.616970 
# 
# 
# High freq. dielectric constant tensor:
#      x y z
#    x 1.746340 0.000000 0.000000 
#    y 0.000000 1.727210 0.000000 
#    z 0.000000 0.000000 1.767890 
# 
# From -- ./inp_files/1566.got.cif
#   From: 2010.03.12/outbox.cif.g09.slc.cpg/sg29_1_cif.got.tgz:1566.got - 2010.04.14 03:43:10.
