data_PCOD8168549
_publ_section_title
;
Structure prediction by ZEFSAII (Michael W. Deem and Ramdas Pophale) SiO2 
 PCOD8168549
Probable space group: P C A 21
;
_chemical_formula_sum "Si O2"
_cell_formula_units_Z 32
_cell_length_a 28.796426
_cell_length_b 9.766485
_cell_length_c 5.387610
_cell_angle_alpha 90.000000
_cell_angle_beta 90.000000
_cell_angle_gamma 90.000000
_cell_volume 1515.210696
_symmetry_space_group_name_H-M "P C A 21"
_symmetry_group_IT_number 29
_symmetry_cell_setting 'orthorhombic'
loop_
_space_group_symop_operation_xyz
x,y,z
-x,-y,1/2+z
1/2-x,y,1/2+z
1/2+x,-y,z
loop_
_atom_site_type_symbol
_atom_site_label
_atom_site_fract_x
_atom_site_fract_y
_atom_site_fract_z
Si Si1 0.074880 0.403069 0.256430
Si Si2 0.040829 0.690782 0.282768
Si Si3 0.234517 0.407262 0.686415
Si Si4 0.370979 0.458494 0.247498
Si Si5 0.937287 0.088391 0.171868
Si Si6 0.271453 0.714515 0.623100
Si Si7 0.524350 0.838447 0.443966
Si Si8 0.627556 0.255699 0.934722
O O1 0.038420 0.526319 0.310479
O O2 0.108095 0.395312 0.497095
O O3 0.046078 0.261460 0.235902
O O4 0.102845 0.414548 0.999644
O O5 0.049562 0.770027 0.536637
O O6 0.084775 0.717296 0.111733
O O7 0.991903 0.741683 0.170749
O O8 0.240021 0.331090 0.419043
O O9 0.181473 0.409946 0.765229
O O10 0.260097 0.553056 0.629447
O O11 0.369222 0.623670 0.229877
O O12 0.886353 0.112863 0.296114
O O13 0.979894 0.070648 0.364635
O O14 0.935579 0.948897 0.014186
O O15 0.254250 0.781045 0.882366
O O16 0.325792 0.749768 0.596195
#
# Coordination Sequence:
#
# PCOD8168549 Si02
#       8
#     4   4   4   4   4   4   4   4
#     4  11  26  38  62  87 129 164 204 265 312 380
#     4  10  23  37  61  84 126 159 205 265 310 378
#     4  10  18  29  54  85 126 159 192 251 314 379
#     4  11  21  37  55  92 129 157 202 256 324 368
#     4  11  22  41  62  86 125 164 217 264 306 389
#     4  10  20  30  55  88 128 158 196 257 316 382
#     4  11  25  41  62  90 119 175 218 257 325 373
#     4  10  21  35  57  92 124 162 202 259 325 363
#
# _framework density 21.119178000000002
#
# number of rings (size 3 to 8) (size 9 to 14) (size 15 to 20)
#    0.000    1.500    5.000    0.750   10.500    0.000 
#    0.000    0.000    0.000    0.000    0.000    5.250 
#    0.000    0.000    0.000    0.000    0.000    0.000 
#
# Total GULP energy -396469.539573 kJ/mol
# GULP energy per Si atom -12389.673112 kJ/mol
# Density = 2.107111 g / cm^3
# Si number density = 21.119178 Si / 1000 Ang^3
#
#
#
# Elastic Constant Matrix: (Units=GPa)
#
#
# Indices 1 2 3 4 5 6 
#
# 1 60.2415 17.4332 15.3376 0.0000 0.0000 0.0000
# 2 17.4332 75.7654 10.6318 0.0000 0.0000 0.0000
# 3 15.3376 10.6318 121.5834 0.0000 0.0000 0.0000
# 4 0.0000 0.0000 0.0000 20.6282 0.0000 0.0000
# 5 0.0000 0.0000 0.0000 0.0000 23.2036 0.0000
# 6 0.0000 0.0000 0.0000 0.0000 0.0000 15.9582
#
#
#
# Elastic Compliance Matrix: (Units=1/GPa)
#
#
# Indices 1 2 3 4 5 6 
#
# 1 0.018233 -0.003921 -0.001957 0.000000 0.000000 0.000000
# 2 -0.003921 0.014206 -0.000748 0.000000 0.000000 0.000000
# 3 -0.001957 -0.000748 0.008537 0.000000 0.000000 0.000000
# 4 0.000000 0.000000 0.000000 0.048477 0.000000 0.000000
# 5 0.000000 0.000000 0.000000 0.000000 0.043097 0.000000
# 6 0.000000 0.000000 0.000000 0.000000 0.000000 0.062664
#
#
# Mechanical properties :
#
#
# Convention : Reuss Voigt Hill
#
# Bulk Modulus (GPa) = 36.06906 38.26618 37.16762
# Shear Modulus (GPa) = 22.96677 26.23716 24.60197
#
# Velocity S-wave (km/s) = 3.30128 3.52851 3.41678
# Velocity P-wave (km/s) = 5.62558 5.89567 5.76221
#
# Compressibility (1/GPa) = 0.02772459
#
# Stress axis : x y z
#
# Youngs Moduli (GPa) = 54.84637 70.39441 117.13600
#
# Poissons Ratio (x) = 0.27599 0.22926
# Poissons Ratio (y) = 0.21503 0.08757
# Poissons Ratio (z) = 0.10735 0.05263
#
# Static dielectric constant tensor:
#      x y z
#    x 3.947570 0.000000 0.000000 
#    y 0.000000 3.544640 0.000000 
#    z 0.000000 0.000000 4.381210 
# 
# 
# High freq. dielectric constant tensor:
#      x y z
#    x 1.823070 0.000000 0.000000 
#    y 0.000000 1.768340 0.000000 
#    z 0.000000 0.000000 1.849430 
# 
# From -- ./inp_files/891.got.cif
#   From: 2010.03.12/outbox.cif.g09.slc.cpg/sg29_1_cif.got.tgz:891.got - 2010.04.14 03:43:10.
