data_PCOD8168171
_publ_section_title
;
Structure prediction by ZEFSAII (Michael W. Deem and Ramdas Pophale) SiO2 
 PCOD8168171
Probable space group: P M A 2
;
_chemical_formula_sum "Si O2"
_cell_formula_units_Z 24
_cell_length_a 8.563439
_cell_length_b 9.794589
_cell_length_c 15.641193
_cell_angle_alpha 90.000000
_cell_angle_beta 90.000000
_cell_angle_gamma 90.000000
_cell_volume 1311.910779
_symmetry_space_group_name_H-M "P M A 2"
_symmetry_group_IT_number 28
_symmetry_cell_setting 'orthorhombic'
loop_
_space_group_symop_operation_xyz
x,y,z
-x,-y,z
1/2-x,y,z
1/2+x,-y,z
loop_
_atom_site_type_symbol
_atom_site_label
_atom_site_fract_x
_atom_site_fract_y
_atom_site_fract_z
Si Si1 0.434011 0.152412 0.286800
Si Si2 0.568507 0.148172 0.932075
Si Si3 0.433753 0.355687 0.609983
Si Si4 0.434808 0.847536 0.746574
Si Si5 0.934412 0.353720 0.425763
Si Si6 0.565278 0.151870 0.114169
O O1 0.250000 0.150228 0.296746
O O2 0.507296 0.238229 0.362524
O O3 0.482244 0.222486 0.195734
O O4 0.500000 0.000000 0.292176
O O5 0.750000 0.124340 0.936758
O O6 0.526428 0.218718 0.841073
O O7 0.500000 0.000000 0.929595
O O8 0.520634 0.224069 0.021954
O O9 0.500000 0.500000 0.642504
O O10 0.250000 0.368025 0.597797
O O11 0.474393 0.241587 0.678412
O O12 0.508917 0.313773 0.520086
O O13 0.250000 0.846747 0.728268
O O14 0.500000 0.000000 0.739811
O O15 0.750000 0.360812 0.424649
O O16 0.000000 0.500000 0.396783
O O17 0.750000 0.151220 0.130833
O O18 0.500000 0.000000 0.108529
#
# Coordination Sequence:
#
# PCOD8168171 Si02
#       6
#     4   4   4   4   4   4
#     4  11  21  34  52  79 109 139 173 215 259 303
#     4   8  15  26  44  69 101 135 170 208 251 299
#     4  11  22  38  57  78 102 135 173 212 256 310
#     4  10  19  33  52  79 109 139 173 215 259 303
#     4  11  22  39  59  79 102 134 171 211 256 311
#     4   9  15  26  44  70 101 136 171 209 253 302
#
# _framework density 18.293925000000002
#
# number of rings (size 3 to 8) (size 9 to 14) (size 15 to 20)
#    0.000    2.000    0.000    7.500    0.000    2.000 
#    0.000    3.333    0.000    1.000    0.000    4.667 
#    0.000    0.000    0.000    0.000    0.000    0.000 
#
# Total GULP energy -297321.880884 kJ/mol
# GULP energy per Si atom -12388.411704 kJ/mol
# Density = 1.825229 g / cm^3
# Si number density = 18.293925 Si / 1000 Ang^3
#
#
#
# Elastic Constant Matrix: (Units=GPa)
#
#
# Indices 1 2 3 4 5 6 
#
# 1 137.1932 33.6086 57.6075 0.0000 0.0000 0.0000
# 2 33.6086 59.7988 64.5575 0.0000 0.0000 0.0000
# 3 57.6075 64.5575 147.3903 0.0000 0.0000 0.0000
# 4 0.0000 0.0000 0.0000 -8.7410 0.0000 0.0000
# 5 0.0000 0.0000 0.0000 0.0000 20.0593 0.0000
# 6 0.0000 0.0000 0.0000 0.0000 0.0000 24.4919
#
#
#
# Elastic Compliance Matrix: (Units=1/GPa)
#
#
# Indices 1 2 3 4 5 6 
#
# 1 0.008893 -0.002363 -0.002441 0.000000 0.000000 0.000000
# 2 -0.002363 0.032351 -0.013246 0.000000 0.000000 0.000000
# 3 -0.002441 -0.013246 0.013541 0.000000 0.000000 0.000000
# 4 0.000000 0.000000 0.000000 -0.114403 0.000000 0.000000
# 5 0.000000 0.000000 0.000000 0.000000 0.049852 0.000000
# 6 0.000000 0.000000 0.000000 0.000000 0.000000 0.040830
#
#
# Mechanical properties :
#
#
# Convention : Reuss Voigt Hill
#
# Bulk Modulus (GPa) = 53.52054 72.88107 63.20081
# Shear Modulus (GPa) = 68.12704 19.73593 43.93148
#
# Velocity S-wave (km/s) = 6.10910 3.28811 4.90575
# Velocity P-wave (km/s) = 8.89274 7.37163 8.16768
#
# Compressibility (1/GPa) = 0.01868441
#
# Stress axis : x y z
#
# Youngs Moduli (GPa) = 112.45145 30.91056 73.85170
#
# Poissons Ratio (x) = 0.07304 0.18025
# Poissons Ratio (y) = 0.26573 0.97827
# Poissons Ratio (z) = 0.27446 0.40945
#
# Static dielectric constant tensor:
#      x y z
#    x 3.557730 0.000000 0.000000 
#    y 0.000000 2.953060 0.000000 
#    z 0.000000 0.000000 4.304950 
# 
# 
# High freq. dielectric constant tensor:
#      x y z
#    x 1.729860 0.000000 0.000000 
#    y 0.000000 1.654350 0.000000 
#    z 0.000000 0.000000 1.740360 
# 
# From -- ./inp_files/6677.got.cif
#   From: 2010.03.12/outbox.cif.g09.slc.cpg/sg28_4_cif.got.tgz:6677.got - 2010.04.14 03:39:34.
