data_PCOD8168165
_publ_section_title
;
Structure prediction by ZEFSAII (Michael W. Deem and Ramdas Pophale) SiO2 
 PCOD8168165
Probable space group: P M A 2
;
_chemical_formula_sum "Si O2"
_cell_formula_units_Z 32
_cell_length_a 8.821181
_cell_length_b 14.182975
_cell_length_c 15.431249
_cell_angle_alpha 90.000000
_cell_angle_beta 90.000000
_cell_angle_gamma 90.000000
_cell_volume 1930.612661
_symmetry_space_group_name_H-M "P M A 2"
_symmetry_group_IT_number 28
_symmetry_cell_setting 'orthorhombic'
loop_
_space_group_symop_operation_xyz
x,y,z
-x,-y,z
1/2-x,y,z
1/2+x,-y,z
loop_
_atom_site_type_symbol
_atom_site_label
_atom_site_fract_x
_atom_site_fract_y
_atom_site_fract_z
Si Si1 0.077021 0.709099 0.765720
Si Si2 0.074152 0.601255 0.086563
Si Si3 0.426995 0.602751 0.278588
Si Si4 0.427438 0.599618 0.592186
Si Si5 0.925791 0.093411 0.694352
Si Si6 0.071822 0.095753 0.509461
Si Si7 0.927796 0.602672 0.918070
Si Si8 0.928265 0.706686 0.433263
O O1 0.250000 0.684144 0.790682
O O2 0.036273 0.667777 0.672019
O O3 0.051355 0.821353 0.761440
O O4 0.964869 0.668466 0.837038
O O5 0.250000 0.592722 0.064134
O O6 0.048393 0.646004 0.181653
O O7 0.000000 0.500000 0.090345
O O8 0.992316 0.653601 0.005785
O O9 0.500000 0.500000 0.290276
O O10 0.250000 0.592395 0.299907
O O11 0.504180 0.678203 0.340945
O O12 0.500000 0.500000 0.614982
O O13 0.250000 0.587590 0.576102
O O14 0.500241 0.641055 0.506122
O O15 0.750000 0.075585 0.674814
O O16 0.005608 0.117231 0.603886
O O17 0.000000 0.000000 0.736446
O O18 0.250000 0.081804 0.517854
O O19 0.030703 0.183674 0.447958
O O20 0.000000 0.000000 0.469975
O O21 0.750000 0.590764 0.926212
O O22 0.000000 0.500000 0.903535
O O23 0.750000 0.689558 0.433991
#
# Coordination Sequence:
#
# PCOD8168165 Si02
#       8
#     4   4   4   4   4   4   4   4
#     4  10  21  35  50  70  97 131 167 202 242 288
#     4   9  17  31  50  71  96 126 162 202 245 288
#     4  10  20  33  51  73  99 132 166 203 243 288
#     4  11  22  35  48  65  95 133 170 202 237 282
#     4  10  19  33  52  73  96 125 161 204 249 290
#     4  10  20  33  51  72  95 125 162 204 248 290
#     4  11  21  32  50  73 100 132 165 203 245 290
#     4  11  22  34  49  71  98 130 165 202 243 290
#
# _framework density 16.575049
#
# number of rings (size 3 to 8) (size 9 to 14) (size 15 to 20)
#    0.000    1.750    1.250    5.625    0.000    6.000 
#    0.000    0.000    0.000    0.000    0.000    0.875 
#    0.000    6.000    0.000    0.000    0.000    0.000 
#
# Total GULP energy -396757.096538 kJ/mol
# GULP energy per Si atom -12398.659267 kJ/mol
# Density = 1.653732 g / cm^3
# Si number density = 16.575049 Si / 1000 Ang^3
#
#
#
# Elastic Constant Matrix: (Units=GPa)
#
#
# Indices 1 2 3 4 5 6 
#
# 1 112.6145 44.5667 45.0701 0.0000 0.0000 0.0000
# 2 44.5667 87.0750 35.3119 0.0000 0.0000 0.0000
# 3 45.0701 35.3119 91.1602 0.0000 0.0000 0.0000
# 4 0.0000 0.0000 0.0000 8.9854 0.0000 0.0000
# 5 0.0000 0.0000 0.0000 0.0000 23.8053 0.0000
# 6 0.0000 0.0000 0.0000 0.0000 0.0000 25.2758
#
#
#
# Elastic Compliance Matrix: (Units=1/GPa)
#
#
# Indices 1 2 3 4 5 6 
#
# 1 0.012450 -0.004598 -0.004374 0.000000 0.000000 0.000000
# 2 -0.004598 0.015323 -0.003662 0.000000 0.000000 0.000000
# 3 -0.004374 -0.003662 0.014551 0.000000 0.000000 0.000000
# 4 0.000000 0.000000 0.000000 0.111291 0.000000 0.000000
# 5 0.000000 0.000000 0.000000 0.000000 0.042007 0.000000
# 6 0.000000 0.000000 0.000000 0.000000 0.000000 0.039564
#
#
# Mechanical properties :
#
#
# Convention : Reuss Voigt Hill
#
# Bulk Modulus (GPa) = 58.63464 60.08300 59.35882
# Shear Modulus (GPa) = 18.78706 22.67338 20.73022
#
# Velocity S-wave (km/s) = 3.37033 3.70256 3.54034
# Velocity P-wave (km/s) = 7.11320 7.38961 7.25272
#
# Compressibility (1/GPa) = 0.01705477
#
# Stress axis : x y z
#
# Youngs Moduli (GPa) = 80.31950 65.26143 68.72427
#
# Poissons Ratio (x) = 0.30010 0.30062
# Poissons Ratio (y) = 0.36934 0.25167
# Poissons Ratio (z) = 0.35134 0.23899
#
# Static dielectric constant tensor:
#      x y z
#    x 3.295910 0.000000 0.000000 
#    y 0.000000 3.064410 0.000000 
#    z 0.000000 0.000000 3.433330 
# 
# 
# High freq. dielectric constant tensor:
#      x y z
#    x 1.659700 0.000000 0.000000 
#    y 0.000000 1.616560 0.000000 
#    z 0.000000 0.000000 1.629080 
# 
# From -- ./inp_files/6440.got.cif
#   From: 2010.03.12/outbox.cif.g09.slc.cpg/sg28_4_cif.got.tgz:6440.got - 2010.04.14 03:39:34.
