data_PCOD8168810
_publ_section_title
;
Structure prediction by ZEFSAII (Michael W. Deem and Ramdas Pophale) SiO2 
 PCOD8168810
Probable space group: P C A 21
;
_chemical_formula_sum "Si O2"
_cell_formula_units_Z 28
_cell_length_a 13.004878
_cell_length_b 10.053248
_cell_length_c 9.070742
_cell_angle_alpha 90.000000
_cell_angle_beta 90.000000
_cell_angle_gamma 90.000000
_cell_volume 1185.920272
_symmetry_space_group_name_H-M "P C A 21"
_symmetry_group_IT_number 29
_symmetry_cell_setting 'orthorhombic'
loop_
_space_group_symop_operation_xyz
x,y,z
-x,-y,1/2+z
1/2-x,y,1/2+z
1/2+x,-y,z
loop_
_atom_site_type_symbol
_atom_site_label
_atom_site_fract_x
_atom_site_fract_y
_atom_site_fract_z
Si Si1 0.381608 0.802769 0.182100
Si Si2 0.517062 0.918288 0.709429
Si Si3 0.331645 0.153165 0.976602
Si Si4 0.284753 0.322172 0.718235
Si Si5 0.309576 0.878179 0.864698
Si Si6 0.017524 0.438646 0.114817
Si Si7 0.071551 0.356290 0.807580
O O1 0.280639 0.795163 0.285601
O O2 0.450466 0.671156 0.203407
O O3 0.444604 0.932066 0.238561
O O4 0.352847 0.802104 0.008100
O O5 0.555698 0.883376 0.543404
O O6 0.395608 0.905271 0.737388
O O7 0.568023 0.804914 0.815486
O O8 0.353075 0.244456 0.837004
O O9 0.270959 0.021242 0.923337
O O10 0.258009 0.221952 0.095365
O O11 0.360921 0.428005 0.646506
O O12 0.191584 0.397386 0.801708
O O13 0.980818 0.586332 0.158507
O O14 0.007558 0.421845 0.939595
#
# Coordination Sequence:
#
# PCOD8168810 Si02
#       7
#     4   4   4   4   4   4   4
#     4  11  26  44  71 105 140 188 233 294 363 422
#     4  10  23  44  71  99 143 181 239 297 353 430
#     4  10  21  39  73 105 136 189 237 289 360 426
#     4  11  23  45  72 103 138 188 245 291 343 448
#     4  11  22  42  67 105 147 179 230 298 361 423
#     4  12  27  48  73 104 145 188 242 297 357 429
#     4  11  26  48  71 103 141 189 240 290 359 422
#
# _framework density 23.610355999999999
#
# number of rings (size 3 to 8) (size 9 to 14) (size 15 to 20)
#    0.000    1.143    2.857    3.429    4.000    4.571 
#    2.571    0.000    0.000    0.000    0.000    0.000 
#    0.000    0.000    0.000    0.000    0.000    0.000 
#
# Total GULP energy -347011.427527 kJ/mol
# GULP energy per Si atom -12393.265269 kJ/mol
# Density = 2.355662 g / cm^3
# Si number density = 23.610356 Si / 1000 Ang^3
#
#
#
# Elastic Constant Matrix: (Units=GPa)
#
#
# Indices 1 2 3 4 5 6 
#
# 1 116.0047 25.1034 18.0591 0.0000 0.0000 0.0000
# 2 25.1034 67.5643 14.0558 0.0000 0.0000 0.0000
# 3 18.0591 14.0558 82.6903 0.0000 0.0000 0.0000
# 4 0.0000 0.0000 0.0000 34.4171 0.0000 0.0000
# 5 0.0000 0.0000 0.0000 0.0000 34.9528 0.0000
# 6 0.0000 0.0000 0.0000 0.0000 0.0000 26.5971
#
#
#
# Elastic Compliance Matrix: (Units=1/GPa)
#
#
# Indices 1 2 3 4 5 6 
#
# 1 0.009559 -0.003232 -0.001538 0.000000 0.000000 0.000000
# 2 -0.003232 0.016436 -0.002088 0.000000 0.000000 0.000000
# 3 -0.001538 -0.002088 0.012784 0.000000 0.000000 0.000000
# 4 0.000000 0.000000 0.000000 0.029055 0.000000 0.000000
# 5 0.000000 0.000000 0.000000 0.000000 0.028610 0.000000
# 6 0.000000 0.000000 0.000000 0.000000 0.000000 0.037598
#
#
# Mechanical properties :
#
#
# Convention : Reuss Voigt Hill
#
# Bulk Modulus (GPa) = 39.89919 42.29954 41.09937
# Shear Modulus (GPa) = 32.02809 33.12947 32.57878
#
# Velocity S-wave (km/s) = 3.68710 3.74996 3.71866
# Velocity P-wave (km/s) = 5.92132 6.05840 5.99025
#
# Compressibility (1/GPa) = 0.02506316
#
# Stress axis : x y z
#
# Youngs Moduli (GPa) = 104.61174 60.84280 78.22152
#
# Poissons Ratio (x) = 0.19662 0.12033
# Poissons Ratio (y) = 0.33807 0.16333
# Poissons Ratio (z) = 0.16093 0.12704
#
# Static dielectric constant tensor:
#      x y z
#    x 4.246760 0.000000 0.000000 
#    y 0.000000 4.093150 0.000000 
#    z 0.000000 0.000000 4.320630 
# 
# 
# High freq. dielectric constant tensor:
#      x y z
#    x 1.932120 0.000000 0.000000 
#    y 0.000000 1.916650 0.000000 
#    z 0.000000 0.000000 1.938370 
# 
# From -- ./inp_files/1471.got.cif
#   From: 2010.03.12/outbox.cif.g09.slc.cpg/sg29_1_cif.got.tgz:1471.got - 2010.04.14 03:43:10.
