data_PCOD8168949
_publ_section_title
;
Structure prediction by ZEFSAII (Michael W. Deem and Ramdas Pophale) SiO2 
 PCOD8168949
Probable space group: P C A 21
;
_chemical_formula_sum "Si O2"
_cell_formula_units_Z 32
_cell_length_a 17.323821
_cell_length_b 6.371134
_cell_length_c 12.992347
_cell_angle_alpha 90.000000
_cell_angle_beta 90.000000
_cell_angle_gamma 90.000000
_cell_volume 1433.996325
_symmetry_space_group_name_H-M "P C A 21"
_symmetry_group_IT_number 29
_symmetry_cell_setting 'orthorhombic'
loop_
_space_group_symop_operation_xyz
x,y,z
-x,-y,1/2+z
1/2-x,y,1/2+z
1/2+x,-y,z
loop_
_atom_site_type_symbol
_atom_site_label
_atom_site_fract_x
_atom_site_fract_y
_atom_site_fract_z
Si Si1 0.232732 0.409994 0.620890
Si Si2 0.504342 0.938401 0.970785
Si Si3 0.488087 0.632840 0.788593
Si Si4 0.086031 0.760185 0.822552
Si Si5 0.158379 0.047146 0.093730
Si Si6 0.765433 0.268903 0.449667
Si Si7 0.823086 0.296274 0.756823
Si Si8 0.408987 0.095814 0.153400
O O1 0.232251 0.533204 0.512925
O O2 0.249201 0.578667 0.711498
O O3 0.156279 0.274198 0.639982
O O4 0.307822 0.267827 0.625666
O O5 0.490577 0.727799 0.904464
O O6 0.522077 0.127708 0.893236
O O7 0.577053 0.900494 0.043641
O O8 0.430555 0.995081 0.042565
O O9 0.543559 0.435776 0.772039
O O10 0.400310 0.562200 0.765429
O O11 0.515370 0.801154 0.703483
O O12 0.154596 0.671710 0.893495
O O13 0.119574 0.912626 0.732098
O O14 0.149456 0.903597 0.192903
O O15 0.219770 0.936476 0.017626
O O16 0.700243 0.208076 0.367928
#
# Coordination Sequence:
#
# PCOD8168949 Si02
#       8
#     4   4   4   4   4   4   4   4
#     4  11  25  40  69  93 131 174 224 282 336 397
#     4  10  23  41  64  98 133 172 233 271 339 400
#     4  11  24  41  69  96 135 176 221 280 332 405
#     4  10  23  43  67  92 135 179 215 283 341 395
#     4  10  22  44  66  91 134 179 213 282 337 393
#     4  10  23  43  62  96 127 169 230 268 338 396
#     4  11  24  41  64  99 131 173 225 272 334 411
#     4  11  24  43  65 103 132 178 227 278 339 407
#
# _framework density 22.315261
#
# number of rings (size 3 to 8) (size 9 to 14) (size 15 to 20)
#    0.000    1.500    1.250    2.250    5.250    5.000 
#    0.000    0.000    0.000    0.000    0.000    0.000 
#    0.000    0.000    0.000    0.000    0.000    0.000 
#
# Total GULP energy -396780.212002 kJ/mol
# GULP energy per Si atom -12399.381625 kJ/mol
# Density = 2.226447 g / cm^3
# Si number density = 22.315261 Si / 1000 Ang^3
#
#
#
# Elastic Constant Matrix: (Units=GPa)
#
#
# Indices 1 2 3 4 5 6 
#
# 1 79.2740 23.4320 41.2645 0.0000 0.0000 0.0000
# 2 23.4320 62.2376 41.4434 0.0000 0.0000 0.0000
# 3 41.2645 41.4434 120.3789 0.0000 0.0000 0.0000
# 4 0.0000 0.0000 0.0000 18.6185 0.0000 0.0000
# 5 0.0000 0.0000 0.0000 0.0000 36.0641 0.0000
# 6 0.0000 0.0000 0.0000 0.0000 0.0000 38.3753
#
#
#
# Elastic Compliance Matrix: (Units=1/GPa)
#
#
# Indices 1 2 3 4 5 6 
#
# 1 0.015784 -0.003036 -0.004366 0.000000 0.000000 0.000000
# 2 -0.003036 0.021430 -0.006337 0.000000 0.000000 0.000000
# 3 -0.004366 -0.006337 0.011985 0.000000 0.000000 0.000000
# 4 0.000000 0.000000 0.000000 0.053710 0.000000 0.000000
# 5 0.000000 0.000000 0.000000 0.000000 0.027728 0.000000
# 6 0.000000 0.000000 0.000000 0.000000 0.000000 0.026058
#
#
# Mechanical properties :
#
#
# Convention : Reuss Voigt Hill
#
# Bulk Modulus (GPa) = 46.03462 52.68560 49.36011
# Shear Modulus (GPa) = 26.12131 28.99496 27.55814
#
# Velocity S-wave (km/s) = 3.42505 3.60854 3.51799
# Velocity P-wave (km/s) = 6.02622 6.40492 6.21845
#
# Compressibility (1/GPa) = 0.02172278
#
# Stress axis : x y z
#
# Youngs Moduli (GPa) = 63.35475 46.66287 83.43535
#
# Poissons Ratio (x) = 0.14165 0.36424
# Poissons Ratio (y) = 0.19232 0.52876
# Poissons Ratio (z) = 0.27658 0.29572
#
# Static dielectric constant tensor:
#      x y z
#    x 3.897310 0.000000 0.000000 
#    y 0.000000 3.826500 0.000000 
#    z 0.000000 0.000000 4.152010 
# 
# 
# High freq. dielectric constant tensor:
#      x y z
#    x 1.884260 0.000000 0.000000 
#    y 0.000000 1.869000 0.000000 
#    z 0.000000 0.000000 1.889310 
# 
# From -- ./inp_files/4773.got.cif
#   From: 2010.03.12/outbox.cif.g09.slc.cpg/sg29_3_cif.got.tgz:4773.got - 2010.04.14 03:43:10.
