data_PCOD8168294
_publ_section_title
;
Structure prediction by ZEFSAII (Michael W. Deem and Ramdas Pophale) SiO2 
 PCOD8168294
Probable space group: P M A 2
;
_chemical_formula_sum "Si O2"
_cell_formula_units_Z 32
_cell_length_a 8.565843
_cell_length_b 14.234215
_cell_length_c 15.463239
_cell_angle_alpha 90.000000
_cell_angle_beta 90.000000
_cell_angle_gamma 90.000000
_cell_volume 1885.402592
_symmetry_space_group_name_H-M "P M A 2"
_symmetry_group_IT_number 28
_symmetry_cell_setting 'orthorhombic'
loop_
_space_group_symop_operation_xyz
x,y,z
-x,-y,z
1/2-x,y,z
1/2+x,-y,z
loop_
_atom_site_type_symbol
_atom_site_label
_atom_site_fract_x
_atom_site_fract_y
_atom_site_fract_z
Si Si1 0.565654 0.397014 0.767310
Si Si2 0.066844 0.720997 0.934563
Si Si3 0.565988 0.099149 0.677840
Si Si4 0.068623 0.604153 0.455086
Si Si5 0.433576 0.394800 0.091145
Si Si6 0.066580 0.098212 0.866018
Si Si7 0.430156 0.601630 0.263983
Si Si8 0.067048 0.282986 0.608632
O O1 0.500000 0.500000 0.781151
O O2 0.750000 0.400264 0.755240
O O3 0.515510 0.338190 0.851053
O O4 0.491551 0.352267 0.682724
O O5 0.250000 0.739411 0.935569
O O6 0.978794 0.820722 0.933371
O O7 0.016917 0.667166 0.019832
O O8 0.750000 0.093025 0.680926
O O9 0.505950 0.123548 0.773347
O O10 0.513680 0.181329 0.613652
O O11 0.500000 0.000000 0.644082
O O12 0.250000 0.599778 0.481759
O O13 0.049974 0.648909 0.358387
O O14 0.000000 0.500000 0.463386
O O15 0.974546 0.673740 0.516368
O O16 0.500000 0.500000 0.086582
O O17 0.250000 0.395311 0.075037
O O18 0.475405 0.349176 0.185243
O O19 0.250000 0.089605 0.855390
O O20 0.000000 0.000000 0.901565
O O21 0.500000 0.500000 0.277056
O O22 0.250000 0.595282 0.236226
O O23 0.250000 0.269245 0.617842
#
# Coordination Sequence:
#
# PCOD8168294 Si02
#       8
#     4   4   4   4   4   4   4   4
#     4  11  23  36  50  68  99 138 176 212 250 298
#     4  11  22  36  53  74 102 136 175 215 256 303
#     4  11  21  36  55  76 101 131 170 214 260 304
#     4  10  20  34  52  75 104 137 174 215 257 306
#     4  11  21  33  51  75 105 138 174 215 257 306
#     4  11  21  35  55  77 102 132 170 213 260 305
#     4   9  17  31  51  73  99 132 170 213 259 303
#     4  12  23  35  52  74 102 136 174 213 255 305
#
# _framework density 16.972503
#
# number of rings (size 3 to 8) (size 9 to 14) (size 15 to 20)
#    0.000    1.250    1.250    8.250    0.000    4.000 
#    0.000    0.000    0.000    0.000    0.000    0.875 
#    0.000    6.000    0.000    0.000    0.000    0.000 
#
# Total GULP energy -396836.063402 kJ/mol
# GULP energy per Si atom -12401.126981 kJ/mol
# Density = 1.693387 g / cm^3
# Si number density = 16.972503 Si / 1000 Ang^3
#
#
#
# Elastic Constant Matrix: (Units=GPa)
#
#
# Indices 1 2 3 4 5 6 
#
# 1 109.2314 37.5169 26.4665 0.0000 0.0000 0.0000
# 2 37.5169 101.6446 41.5473 0.0000 0.0000 0.0000
# 3 26.4665 41.5473 94.9025 0.0000 0.0000 0.0000
# 4 0.0000 0.0000 0.0000 5.6092 0.0000 0.0000
# 5 0.0000 0.0000 0.0000 0.0000 28.7035 0.0000
# 6 0.0000 0.0000 0.0000 0.0000 0.0000 29.1714
#
#
#
# Elastic Compliance Matrix: (Units=1/GPa)
#
#
# Indices 1 2 3 4 5 6 
#
# 1 0.010662 -0.003313 -0.001523 0.000000 0.000000 0.000000
# 2 -0.003313 0.013012 -0.004773 0.000000 0.000000 0.000000
# 3 -0.001523 -0.004773 0.013051 0.000000 0.000000 0.000000
# 4 0.000000 0.000000 0.000000 0.178278 0.000000 0.000000
# 5 0.000000 0.000000 0.000000 0.000000 0.034839 0.000000
# 6 0.000000 0.000000 0.000000 0.000000 0.000000 0.034280
#
#
# Mechanical properties :
#
#
# Convention : Reuss Voigt Hill
#
# Bulk Modulus (GPa) = 57.11654 57.42662 57.27158
# Shear Modulus (GPa) = 16.17211 26.04669 21.10940
#
# Velocity S-wave (km/s) = 3.09016 3.92170 3.53050
# Velocity P-wave (km/s) = 6.81598 7.37664 7.10185
#
# Compressibility (1/GPa) = 0.01750806
#
# Stress axis : x y z
#
# Youngs Moduli (GPa) = 93.79379 76.85408 76.62098
#
# Poissons Ratio (x) = 0.25459 0.11670
# Poissons Ratio (y) = 0.31071 0.36568
# Poissons Ratio (z) = 0.14286 0.36679
#
# Static dielectric constant tensor:
#      x y z
#    x 3.335160 0.000000 0.000000 
#    y 0.000000 3.135510 0.000000 
#    z 0.000000 0.000000 3.428030 
# 
# 
# High freq. dielectric constant tensor:
#      x y z
#    x 1.680210 0.000000 0.000000 
#    y 0.000000 1.634900 0.000000 
#    z 0.000000 0.000000 1.646240 
# 
# From -- ./inp_files/6428.got.cif
#   From: 2010.03.12/outbox.cif.g09.slc.cpg/sg28_4_cif.got.tgz:6428.got - 2010.04.14 03:39:34.
