data_PCOD8168618
_publ_section_title
;
Structure prediction by ZEFSAII (Michael W. Deem and Ramdas Pophale) SiO2 
 PCOD8168618
Probable space group: P C A 21
;
_chemical_formula_sum "Si O2"
_cell_formula_units_Z 32
_cell_length_a 14.563411
_cell_length_b 11.449149
_cell_length_c 8.804856
_cell_angle_alpha 90.000000
_cell_angle_beta 90.000000
_cell_angle_gamma 90.000000
_cell_volume 1468.109913
_symmetry_space_group_name_H-M "P C A 21"
_symmetry_group_IT_number 29
_symmetry_cell_setting 'orthorhombic'
loop_
_space_group_symop_operation_xyz
x,y,z
-x,-y,1/2+z
1/2-x,y,1/2+z
1/2+x,-y,z
loop_
_atom_site_type_symbol
_atom_site_label
_atom_site_fract_x
_atom_site_fract_y
_atom_site_fract_z
Si Si1 0.833583 0.969982 0.610410
Si Si2 0.820180 0.873243 0.925635
Si Si3 0.528909 0.699903 0.415125
Si Si4 0.837640 0.205000 0.433018
Si Si5 0.339838 0.464247 0.064659
Si Si6 0.156468 0.730256 0.597360
Si Si7 0.043145 0.247102 0.065171
Si Si8 0.196204 0.347773 0.872579
O O1 0.835302 0.971482 0.793939
O O2 0.728831 0.937552 0.564964
O O3 0.908221 0.877456 0.553896
O O4 0.860960 0.088188 0.525392
O O5 0.915615 0.813865 0.978569
O O6 0.755579 0.769834 0.863863
O O7 0.422842 0.708307 0.465536
O O8 0.567530 0.577864 0.479236
O O9 0.541006 0.699915 0.233862
O O10 0.830018 0.191626 0.249681
O O11 0.741575 0.256707 0.485913
O O12 0.352156 0.592607 0.133019
O O13 0.323170 0.374656 0.199502
O O14 0.253688 0.452747 0.950290
O O15 0.062736 0.768792 0.511466
O O16 0.099057 0.335352 0.958348
#
# Coordination Sequence:
#
# PCOD8168618 Si02
#       8
#     4   4   4   4   4   4   4   4
#     4  10  19  36  61  84 114 152 182 235 294 332
#     4   9  17  34  60  87 112 143 192 237 281 343
#     4   9  20  39  58  84 118 154 200 246 287 348
#     4  11  24  41  58  85 121 155 197 242 294 358
#     4  11  21  36  61  86 118 158 190 242 301 342
#     4  11  25  41  57  85 121 155 197 244 293 358
#     4   9  21  39  59  86 118 152 199 245 288 349
#     4  10  19  36  62  91 116 149 199 243 290 356
#
# _framework density 21.796734000000001
#
# number of rings (size 3 to 8) (size 9 to 14) (size 15 to 20)
#    0.000    2.000    0.000    5.250    0.000    5.000 
#    0.000   10.000    0.000    0.000    0.000    0.000 
#    0.000    0.000    0.000    0.000    0.000    0.000 
#
# Total GULP energy -396713.882382 kJ/mol
# GULP energy per Si atom -12397.308824 kJ/mol
# Density = 2.174712 g / cm^3
# Si number density = 21.796734 Si / 1000 Ang^3
#
#
#
# Elastic Constant Matrix: (Units=GPa)
#
#
# Indices 1 2 3 4 5 6 
#
# 1 164.9748 6.2908 30.3568 0.0000 0.0000 0.0000
# 2 6.2908 54.7918 16.2098 0.0000 0.0000 0.0000
# 3 30.3568 16.2098 55.0638 0.0000 0.0000 0.0000
# 4 0.0000 0.0000 0.0000 28.7418 0.0000 0.0000
# 5 0.0000 0.0000 0.0000 0.0000 36.2331 0.0000
# 6 0.0000 0.0000 0.0000 0.0000 0.0000 21.8863
#
#
#
# Elastic Compliance Matrix: (Units=1/GPa)
#
#
# Indices 1 2 3 4 5 6 
#
# 1 0.006752 0.000357 -0.003828 0.000000 0.000000 0.000000
# 2 0.000357 0.020011 -0.006088 0.000000 0.000000 0.000000
# 3 -0.003828 -0.006088 0.022063 0.000000 0.000000 0.000000
# 4 0.000000 0.000000 0.000000 0.034793 0.000000 0.000000
# 5 0.000000 0.000000 0.000000 0.000000 0.027599 0.000000
# 6 0.000000 0.000000 0.000000 0.000000 0.000000 0.045691
#
#
# Mechanical properties :
#
#
# Convention : Reuss Voigt Hill
#
# Bulk Modulus (GPa) = 33.65902 42.28278 37.97090
# Shear Modulus (GPa) = 26.89211 32.17045 29.53128
#
# Velocity S-wave (km/s) = 3.51631 3.84595 3.68482
# Velocity P-wave (km/s) = 5.65347 6.25800 5.96340
#
# Compressibility (1/GPa) = 0.02970972
#
# Stress axis : x y z
#
# Youngs Moduli (GPa) = 148.09913 49.97272 45.32463
#
# Poissons Ratio (x) = -0.01785 0.17349
# Poissons Ratio (y) = -0.05289 0.27592
# Poissons Ratio (z) = 0.56687 0.30422
#
# Static dielectric constant tensor:
#      x y z
#    x 4.331000 0.000000 0.000000 
#    y 0.000000 3.685010 0.000000 
#    z 0.000000 0.000000 3.773270 
# 
# 
# High freq. dielectric constant tensor:
#      x y z
#    x 1.868240 0.000000 0.000000 
#    y 0.000000 1.837760 0.000000 
#    z 0.000000 0.000000 1.847720 
# 
# From -- ./inp_files/1820.got.cif
#   From: 2010.03.12/outbox.cif.g09.slc.cpg/sg29_1_cif.got.tgz:1820.got - 2010.04.14 03:43:10.
