data_PCOD8168568
_publ_section_title
;
Structure prediction by ZEFSAII (Michael W. Deem and Ramdas Pophale) SiO2 
 PCOD8168568
Probable space group: P C A 21
;
_chemical_formula_sum "Si O2"
_cell_formula_units_Z 24
_cell_length_a 14.721605
_cell_length_b 8.859126
_cell_length_c 9.141474
_cell_angle_alpha 90.000000
_cell_angle_beta 90.000000
_cell_angle_gamma 90.000000
_cell_volume 1192.236100
_symmetry_space_group_name_H-M "P C A 21"
_symmetry_group_IT_number 29
_symmetry_cell_setting 'orthorhombic'
loop_
_space_group_symop_operation_xyz
x,y,z
-x,-y,1/2+z
1/2-x,y,1/2+z
1/2+x,-y,z
loop_
_atom_site_type_symbol
_atom_site_label
_atom_site_fract_x
_atom_site_fract_y
_atom_site_fract_z
Si Si1 0.542661 0.379578 0.305420
Si Si2 0.448171 0.879160 0.386900
Si Si3 0.590755 0.454969 0.992559
Si Si4 0.084769 0.955875 0.205700
Si Si5 0.221292 0.856609 0.705328
Si Si6 0.719888 0.352790 0.444171
O O1 0.549593 0.473317 0.154692
O O2 0.447689 0.414232 0.386864
O O3 0.550025 0.202394 0.272328
O O4 0.622911 0.433486 0.418002
O O5 0.439578 0.703429 0.422132
O O6 0.445554 0.973311 0.537155
O O7 0.367009 0.933143 0.277948
O O8 0.542132 0.910250 0.302207
O O9 0.701003 0.463847 0.004426
O O10 0.193910 0.971837 0.212018
O O11 0.246778 0.701260 0.785713
O O12 0.205866 0.800197 0.539570
#
# Coordination Sequence:
#
# PCOD8168568 Si02
#       6
#     4   4   4   4   4   4
#     4  10  22  35  58  85 114 146 189 234 276 334
#     4  10  22  35  58  85 114 146 189 234 276 334
#     4  10  21  37  55  88 112 145 192 230 280 331
#     4  10  21  37  55  88 112 145 192 230 280 331
#     4  10  18  36  57  80 109 150 192 225 267 336
#     4  10  18  36  57  80 109 150 192 225 267 336
#
# _framework density 20.130241000000002
#
# number of rings (size 3 to 8) (size 9 to 14) (size 15 to 20)
#    0.000    2.000    6.667    0.000    9.333    0.000 
#    0.000    1.667    0.000    0.000    0.000    0.000 
#    0.000    0.000    0.000    0.000    0.000    0.000 
#
# Total GULP energy -297462.354578 kJ/mol
# GULP energy per Si atom -12394.264774 kJ/mol
# Density = 2.008442 g / cm^3
# Si number density = 20.130241 Si / 1000 Ang^3
#
#
#
# Elastic Constant Matrix: (Units=GPa)
#
#
# Indices 1 2 3 4 5 6 
#
# 1 115.3343 21.8947 60.6914 0.0000 0.0000 0.0000
# 2 21.8947 24.9513 21.5590 0.0000 0.0000 0.0000
# 3 60.6914 21.5590 102.5756 0.0000 0.0000 0.0000
# 4 0.0000 0.0000 0.0000 31.0226 0.0000 0.0000
# 5 0.0000 0.0000 0.0000 0.0000 38.6975 0.0000
# 6 0.0000 0.0000 0.0000 0.0000 0.0000 29.8646
#
#
#
# Elastic Compliance Matrix: (Units=1/GPa)
#
#
# Indices 1 2 3 4 5 6 
#
# 1 0.013274 -0.005941 -0.006605 0.000000 0.000000 0.000000
# 2 -0.005941 0.051630 -0.007336 0.000000 0.000000 0.000000
# 3 -0.006605 -0.007336 0.015199 0.000000 0.000000 0.000000
# 4 0.000000 0.000000 0.000000 0.032235 0.000000 0.000000
# 5 0.000000 0.000000 0.000000 0.000000 0.025841 0.000000
# 6 0.000000 0.000000 0.000000 0.000000 0.000000 0.033485
#
#
# Mechanical properties :
#
#
# Convention : Reuss Voigt Hill
#
# Bulk Modulus (GPa) = 24.79038 50.12793 37.45916
# Shear Modulus (GPa) = 22.23459 29.16468 25.69964
#
# Velocity S-wave (km/s) = 3.32706 3.81044 3.57693
# Velocity P-wave (km/s) = 5.20585 6.65696 5.97562
#
# Compressibility (1/GPa) = 0.04033822
#
# Stress axis : x y z
#
# Youngs Moduli (GPa) = 75.33479 19.36856 65.79354
#
# Poissons Ratio (x) = 0.11506 0.43459
# Poissons Ratio (y) = 0.44754 0.48269
# Poissons Ratio (z) = 0.49761 0.14210
#
# Static dielectric constant tensor:
#      x y z
#    x 3.921400 0.000000 0.000000 
#    y 0.000000 2.961230 0.000000 
#    z 0.000000 0.000000 3.910750 
# 
# 
# High freq. dielectric constant tensor:
#      x y z
#    x 1.789940 0.000000 0.000000 
#    y 0.000000 1.713470 0.000000 
#    z 0.000000 0.000000 1.812220 
# 
# From -- ./inp_files/1429.got.cif
#   From: 2010.03.12/outbox.cif.g09.slc.cpg/sg29_1_cif.got.tgz:1429.got - 2010.04.14 03:43:10.
