data_PCOD8168738
_publ_section_title
;
Structure prediction by ZEFSAII (Michael W. Deem and Ramdas Pophale) SiO2 
 PCOD8168738
Probable space group: P C A 21
;
_chemical_formula_sum "Si O2"
_cell_formula_units_Z 32
_cell_length_a 18.843059
_cell_length_b 7.502288
_cell_length_c 11.107572
_cell_angle_alpha 90.000000
_cell_angle_beta 90.000000
_cell_angle_gamma 90.000000
_cell_volume 1570.233639
_symmetry_space_group_name_H-M "P C A 21"
_symmetry_group_IT_number 29
_symmetry_cell_setting 'orthorhombic'
loop_
_space_group_symop_operation_xyz
x,y,z
-x,-y,1/2+z
1/2-x,y,1/2+z
1/2+x,-y,z
loop_
_atom_site_type_symbol
_atom_site_label
_atom_site_fract_x
_atom_site_fract_y
_atom_site_fract_z
Si Si1 0.856696 0.003292 0.840420
Si Si2 0.530912 0.984743 0.149670
Si Si3 0.056680 0.728898 0.495423
Si Si4 0.217536 0.145241 0.557081
Si Si5 0.651513 0.499828 0.647671
Si Si6 0.858296 0.975644 0.455816
Si Si7 0.947290 0.725481 0.298072
Si Si8 0.283553 0.850582 0.246674
O O1 0.897748 0.119578 0.935493
O O2 0.800691 0.120905 0.764093
O O3 0.914198 0.914308 0.751394
O O4 0.816174 0.858156 0.922658
O O5 0.485312 0.151256 0.197333
O O6 0.482119 0.817203 0.111851
O O7 0.575891 0.052291 0.033350
O O8 0.109263 0.571056 0.531852
O O9 0.001579 0.651798 0.398019
O O10 0.202264 0.336952 0.613611
O O11 0.301952 0.118256 0.544908
O O12 0.187535 0.991605 0.646907
O O13 0.589313 0.555254 0.738847
O O14 0.702356 0.348859 0.702315
O O15 0.884836 0.832068 0.361244
O O16 0.821942 0.130687 0.376546
#
# Coordination Sequence:
#
# PCOD8168738 Si02
#       8
#     4   4   4   4   4   4   4   4
#     4  10  21  41  66  92 125 167 214 256 319 376
#     4  10  20  40  70  90 122 172 214 256 314 384
#     4  10  22  38  59  92 127 164 211 257 312 383
#     4  11  22  41  67  93 126 166 210 264 320 376
#     4  12  24  40  64  94 132 162 212 268 320 374
#     4  10  21  41  66  92 125 167 214 256 319 376
#     4  10  22  38  59  92 127 164 211 257 312 383
#     4  11  22  41  67  93 126 166 210 264 320 376
#
# _framework density 20.379132999999999
#
# number of rings (size 3 to 8) (size 9 to 14) (size 15 to 20)
#    0.000    1.500    3.750    1.500    0.000    3.000 
#    0.000    5.000    0.000    0.000    0.000    0.000 
#    0.000    0.000    0.000    0.000    0.000    0.000 
#
# Total GULP energy -396737.184621 kJ/mol
# GULP energy per Si atom -12398.037019 kJ/mol
# Density = 2.033275 g / cm^3
# Si number density = 20.379133 Si / 1000 Ang^3
#
#
#
# Elastic Constant Matrix: (Units=GPa)
#
#
# Indices 1 2 3 4 5 6 
#
# 1 79.1731 29.1298 31.2222 0.0000 0.0000 0.0000
# 2 29.1298 67.2853 20.5759 0.0000 0.0000 0.0000
# 3 31.2222 20.5759 80.5694 0.0000 0.0000 0.0000
# 4 0.0000 0.0000 0.0000 4.7327 0.0000 0.0000
# 5 0.0000 0.0000 0.0000 0.0000 38.0067 0.0000
# 6 0.0000 0.0000 0.0000 0.0000 0.0000 9.5785
#
#
#
# Elastic Compliance Matrix: (Units=1/GPa)
#
#
# Indices 1 2 3 4 5 6 
#
# 1 0.016706 -0.005698 -0.005019 0.000000 0.000000 0.000000
# 2 -0.005698 0.018064 -0.002405 0.000000 0.000000 0.000000
# 3 -0.005019 -0.002405 0.014971 0.000000 0.000000 0.000000
# 4 0.000000 0.000000 0.000000 0.211294 0.000000 0.000000
# 5 0.000000 0.000000 0.000000 0.000000 0.026311 0.000000
# 6 0.000000 0.000000 0.000000 0.000000 0.000000 0.104401
#
#
# Mechanical properties :
#
#
# Convention : Reuss Voigt Hill
#
# Bulk Modulus (GPa) = 42.55780 43.20929 42.88354
# Shear Modulus (GPa) = 11.74196 20.20358 15.97277
#
# Velocity S-wave (km/s) = 2.40297 3.15204 2.80265
# Velocity P-wave (km/s) = 5.35046 5.87332 5.61798
#
# Compressibility (1/GPa) = 0.02349746
#
# Stress axis : x y z
#
# Youngs Moduli (GPa) = 59.85838 55.35753 66.79663
#
# Poissons Ratio (x) = 0.31542 0.33524
# Poissons Ratio (y) = 0.34106 0.16067
# Poissons Ratio (z) = 0.30042 0.13315
#
# Static dielectric constant tensor:
#      x y z
#    x 4.123710 0.000000 0.000000 
#    y 0.000000 3.226220 0.000000 
#    z 0.000000 0.000000 4.268200 
# 
# 
# High freq. dielectric constant tensor:
#      x y z
#    x 1.816310 0.000000 0.000000 
#    y 0.000000 1.751650 0.000000 
#    z 0.000000 0.000000 1.816600 
# 
# From -- ./inp_files/3831.got.cif
#   From: 2010.03.12/outbox.cif.g09.slc.cpg/sg29_2_cif.got.tgz:3831.got - 2010.04.14 03:43:10.
