data_PCOD8168928
_publ_section_title
;
Structure prediction by ZEFSAII (Michael W. Deem and Ramdas Pophale) SiO2 
 PCOD8168928
Probable space group: P C A 21
;
_chemical_formula_sum "Si O2"
_cell_formula_units_Z 32
_cell_length_a 21.690242
_cell_length_b 5.336777
_cell_length_c 12.808017
_cell_angle_alpha 90.000000
_cell_angle_beta 90.000000
_cell_angle_gamma 90.000000
_cell_volume 1482.604619
_symmetry_space_group_name_H-M "P C A 21"
_symmetry_group_IT_number 29
_symmetry_cell_setting 'orthorhombic'
loop_
_space_group_symop_operation_xyz
x,y,z
-x,-y,1/2+z
1/2-x,y,1/2+z
1/2+x,-y,z
loop_
_atom_site_type_symbol
_atom_site_label
_atom_site_fract_x
_atom_site_fract_y
_atom_site_fract_z
Si Si1 0.702538 0.023065 0.171030
Si Si2 0.592657 0.730899 0.887731
Si Si3 0.548462 0.317579 0.342150
Si Si4 0.600121 0.810314 0.285130
Si Si5 0.647513 0.213101 0.965947
Si Si6 0.319913 0.281883 0.196758
Si Si7 0.746323 0.344424 0.337542
Si Si8 0.145673 0.445888 0.472309
O O1 0.653226 0.802255 0.195123
O O2 0.774613 0.943831 0.158573
O O3 0.694786 0.187142 0.276580
O O4 0.681488 0.195732 0.076220
O O5 0.521453 0.672656 0.878332
O O6 0.621665 0.493469 0.948847
O O7 0.624818 0.785877 0.775946
O O8 0.598684 0.986837 0.955131
O O9 0.559417 0.558817 0.266102
O O10 0.593907 0.342417 0.443583
O O11 0.559360 0.062073 0.277431
O O12 0.628831 0.799019 0.402906
O O13 0.699691 0.162874 0.878491
O O14 0.273886 0.468937 0.252704
O O15 0.353566 0.395785 0.095304
O O16 0.714594 0.476983 0.436284
#
# Coordination Sequence:
#
# PCOD8168928 Si02
#       8
#     4   4   4   4   4   4   4   4
#     4  12  23  40  67 102 133 172 225 277 353 402
#     4  11  25  50  62 101 135 179 223 281 331 395
#     4  10  22  45  71  84 141 174 223 279 319 393
#     4  10  22  42  67  98 125 175 219 278 327 395
#     4  11  27  40  71  95 138 174 218 279 341 402
#     4  11  24  40  67 101 134 176 221 275 346 406
#     4  11  22  43  65 100 137 171 215 286 333 411
#     4  10  23  40  68  99 133 177 222 271 340 400
#
# _framework density 21.583635000000001
#
# number of rings (size 3 to 8) (size 9 to 14) (size 15 to 20)
#    0.750    0.500    3.750    1.500    7.000    1.000 
#    4.500    0.000    0.000    0.000    0.000    0.000 
#    0.000    0.000    0.000    0.000    0.000    0.000 
#
# Total GULP energy -396501.714898 kJ/mol
# GULP energy per Si atom -12390.678591 kJ/mol
# Density = 2.153451 g / cm^3
# Si number density = 21.583635 Si / 1000 Ang^3
#
#
#
# Elastic Constant Matrix: (Units=GPa)
#
#
# Indices 1 2 3 4 5 6 
#
# 1 110.4527 28.8335 30.6622 0.0000 0.0000 0.0000
# 2 28.8335 108.7655 12.7375 0.0000 0.0000 0.0000
# 3 30.6622 12.7375 59.0634 0.0000 0.0000 0.0000
# 4 0.0000 0.0000 0.0000 22.6272 0.0000 0.0000
# 5 0.0000 0.0000 0.0000 0.0000 18.3179 0.0000
# 6 0.0000 0.0000 0.0000 0.0000 0.0000 29.9586
#
#
#
# Elastic Compliance Matrix: (Units=1/GPa)
#
#
# Indices 1 2 3 4 5 6 
#
# 1 0.011126 -0.002332 -0.005273 0.000000 0.000000 0.000000
# 2 -0.002332 0.009921 -0.000929 0.000000 0.000000 0.000000
# 3 -0.005273 -0.000929 0.019869 0.000000 0.000000 0.000000
# 4 0.000000 0.000000 0.000000 0.044195 0.000000 0.000000
# 5 0.000000 0.000000 0.000000 0.000000 0.054591 0.000000
# 6 0.000000 0.000000 0.000000 0.000000 0.000000 0.033379
#
#
# Mechanical properties :
#
#
# Convention : Reuss Voigt Hill
#
# Bulk Modulus (GPa) = 41.93234 46.97201 44.45217
# Shear Modulus (GPa) = 25.23990 27.91731 26.57861
#
# Velocity S-wave (km/s) = 3.42336 3.60036 3.51297
# Velocity P-wave (km/s) = 5.92418 6.25248 6.09054
#
# Compressibility (1/GPa) = 0.02384794
#
# Stress axis : x y z
#
# Youngs Moduli (GPa) = 89.87727 100.79538 50.33014
#
# Poissons Ratio (x) = 0.23506 0.26540
# Poissons Ratio (y) = 0.20960 0.04675
# Poissons Ratio (z) = 0.47394 0.09363
#
# Static dielectric constant tensor:
#      x y z
#    x 3.796680 0.000000 0.000000 
#    y 0.000000 3.855640 0.000000 
#    z 0.000000 0.000000 3.643590 
# 
# 
# High freq. dielectric constant tensor:
#      x y z
#    x 1.843040 0.000000 0.000000 
#    y 0.000000 1.850190 0.000000 
#    z 0.000000 0.000000 1.829850 
# 
# From -- ./inp_files/3962.got.cif
#   From: 2010.03.12/outbox.cif.g09.slc.cpg/sg29_2_cif.got.tgz:3962.got - 2010.04.14 03:43:10.
