data_PCOD8168195
_publ_section_title
;
Structure prediction by ZEFSAII (Michael W. Deem and Ramdas Pophale) SiO2 
 PCOD8168195
Probable space group: P M A 2
;
_chemical_formula_sum "Si O2"
_cell_formula_units_Z 32
_cell_length_a 9.240606
_cell_length_b 16.642443
_cell_length_c 11.109990
_cell_angle_alpha 90.000000
_cell_angle_beta 90.000000
_cell_angle_gamma 90.000000
_cell_volume 1708.563796
_symmetry_space_group_name_H-M "P M A 2"
_symmetry_group_IT_number 28
_symmetry_cell_setting 'orthorhombic'
loop_
_space_group_symop_operation_xyz
x,y,z
-x,-y,z
1/2-x,y,z
1/2+x,-y,z
loop_
_atom_site_type_symbol
_atom_site_label
_atom_site_fract_x
_atom_site_fract_y
_atom_site_fract_z
Si Si1 0.921847 0.723558 0.327120
Si Si2 0.080184 0.917758 0.700778
Si Si3 0.083954 0.577938 0.430921
Si Si4 0.414933 0.580947 0.714386
Si Si5 0.418979 0.863892 0.435084
Si Si6 0.921222 0.250402 0.820392
Si Si7 0.911610 0.236518 0.091853
Si Si8 0.093842 0.932969 0.186299
O O1 0.750000 0.725323 0.332737
O O2 0.986335 0.639834 0.361758
O O3 0.986057 0.783724 0.427303
O O4 0.972546 0.737366 0.190293
O O5 0.250000 0.928538 0.728181
O O6 0.050107 0.910479 0.558054
O O7 0.020793 0.834288 0.762325
O O8 0.000000 0.000000 0.745502
O O9 0.250000 0.578340 0.385674
O O10 0.077680 0.590300 0.572577
O O11 0.000000 0.500000 0.390609
O O12 0.500000 0.500000 0.757350
O O13 0.250000 0.570250 0.759522
O O14 0.481479 0.666068 0.762560
O O15 0.250000 0.839330 0.422882
O O16 0.469932 0.914456 0.319085
O O17 0.750000 0.248401 0.802719
O O18 0.967909 0.257754 0.959356
O O19 0.750000 0.272824 0.116302
O O20 0.899955 0.140800 0.096116
O O21 0.250000 0.971192 0.205834
O O22 0.000000 0.000000 0.120499
#
# Coordination Sequence:
#
# PCOD8168195 Si02
#       8
#     4   4   4   4   4   4   4   4
#     4  11  21  33  52  78 104 132 172 219 267 314
#     4  10  20  34  53  79 110 143 180 220 266 323
#     4  10  19  33  54  81 112 139 165 203 255 316
#     4   9  18  34  58  85 109 136 172 214 260 312
#     4   9  18  33  51  72 102 138 172 209 261 323
#     4   9  18  35  57  76 101 144 187 217 257 317
#     4   9  19  36  53  69  96 138 182 216 254 310
#     4   9  17  28  45  68  93 126 167 212 259 305
#
# _framework density 18.729179999999999
#
# number of rings (size 3 to 8) (size 9 to 14) (size 15 to 20)
#    0.000    2.500    0.000    3.375    0.000    5.500 
#    0.000    2.500    0.000    1.500    0.000    0.000 
#    0.000    0.000    0.000    0.000    0.000    0.000 
#
# Total GULP energy -396457.198526 kJ/mol
# GULP energy per Si atom -12389.287454 kJ/mol
# Density = 1.868655 g / cm^3
# Si number density = 18.729180 Si / 1000 Ang^3
#
#
#
# Elastic Constant Matrix: (Units=GPa)
#
#
# Indices 1 2 3 4 5 6 
#
# 1 83.6943 56.0970 21.1820 0.0000 0.0000 0.0000
# 2 56.0970 146.3744 31.6757 0.0000 0.0000 0.0000
# 3 21.1820 31.6757 18.8767 0.0000 0.0000 0.0000
# 4 0.0000 0.0000 0.0000 14.2312 0.0000 0.0000
# 5 0.0000 0.0000 0.0000 0.0000 18.0166 0.0000
# 6 0.0000 0.0000 0.0000 0.0000 0.0000 36.4207
#
#
#
# Elastic Compliance Matrix: (Units=1/GPa)
#
#
# Indices 1 2 3 4 5 6 
#
# 1 0.018052 -0.003980 -0.013578 0.000000 0.000000 0.000000
# 2 -0.003980 0.011605 -0.015007 0.000000 0.000000 0.000000
# 3 -0.013578 -0.015007 0.093394 0.000000 0.000000 0.000000
# 4 0.000000 0.000000 0.000000 0.070268 0.000000 0.000000
# 5 0.000000 0.000000 0.000000 0.000000 0.055504 0.000000
# 6 0.000000 0.000000 0.000000 0.000000 0.000000 0.027457
#
#
# Mechanical properties :
#
#
# Convention : Reuss Voigt Hill
#
# Bulk Modulus (GPa) = 17.26502 51.87274 34.56888
# Shear Modulus (GPa) = 13.86123 23.06640 18.46382
#
# Velocity S-wave (km/s) = 2.72341 3.51319 3.14320
# Velocity P-wave (km/s) = 4.37350 6.64929 5.62763
#
# Compressibility (1/GPa) = 0.05792057
#
# Stress axis : x y z
#
# Youngs Moduli (GPa) = 55.39413 86.17239 10.70732
#
# Poissons Ratio (x) = 0.34297 0.14539
# Poissons Ratio (y) = 0.22047 0.16068
# Poissons Ratio (z) = 0.75216 1.29317
#
# Static dielectric constant tensor:
#      x y z
#    x 3.354020 0.000000 0.000000 
#    y 0.000000 3.602360 0.000000 
#    z 0.000000 0.000000 3.338010 
# 
# 
# High freq. dielectric constant tensor:
#      x y z
#    x 1.708370 0.000000 0.000000 
#    y 0.000000 1.733310 0.000000 
#    z 0.000000 0.000000 1.713820 
# 
# From -- ./inp_files/5203.got.cif
#   From: 2010.03.12/outbox.cif.g09.slc.cpg/sg28_3_cif.got.tgz:5203.got - 2010.04.14 03:39:34.
