data_PCOD8168227
_publ_section_title
;
Structure prediction by ZEFSAII (Michael W. Deem and Ramdas Pophale) SiO2 
 PCOD8168227
Probable space group: P M A 2
;
_chemical_formula_sum "Si O2"
_cell_formula_units_Z 24
_cell_length_a 8.338585
_cell_length_b 26.551254
_cell_length_c 5.087335
_cell_angle_alpha 90.000000
_cell_angle_beta 90.000000
_cell_angle_gamma 90.000000
_cell_volume 1126.335401
_symmetry_space_group_name_H-M "P M A 2"
_symmetry_group_IT_number 28
_symmetry_cell_setting 'orthorhombic'
loop_
_space_group_symop_operation_xyz
x,y,z
-x,-y,z
1/2-x,y,z
1/2+x,-y,z
loop_
_atom_site_type_symbol
_atom_site_label
_atom_site_fract_x
_atom_site_fract_y
_atom_site_fract_z
Si Si1 0.436326 0.607644 0.709400
Si Si2 0.561226 0.228834 0.172079
Si Si3 0.940796 0.115364 0.111007
Si Si4 0.563288 0.554263 0.207751
Si Si5 0.440120 0.943796 0.609736
Si Si6 0.937746 0.717468 0.671597
O O1 0.250000 0.606387 0.781241
O O2 0.469338 0.570171 0.469191
O O3 0.489218 0.662810 0.620646
O O4 0.534107 0.592492 0.968742
O O5 0.750000 0.232472 0.120834
O O6 0.471677 0.265130 0.968279
O O7 0.495636 0.172279 0.131875
O O8 0.521938 0.244542 0.469133
O O9 0.750000 0.115893 0.121654
O O10 0.009717 0.081390 0.346950
O O11 0.006774 0.090255 0.846459
O O12 0.500000 0.500000 0.116952
O O13 0.750000 0.552712 0.275004
O O14 0.250000 0.944041 0.610285
O O15 0.500000 0.000000 0.641512
O O16 0.750000 0.715826 0.616262
#
# Coordination Sequence:
#
# PCOD8168227 Si02
#       6
#     4   4   4   4   4   4
#     4  12  25  44  67  94 125 166 213 256 301 364
#     4  11  22  41  66  90 116 160 211 252 295 364
#     4   9  19  35  57  80 109 147 193 240 289 347
#     4  12  25  44  67  96 130 167 207 256 311 365
#     4  10  19  34  54  80 110 146 187 236 291 350
#     4  12  25  42  62  92 129 162 196 252 316 366
#
# _framework density 21.308036999999999
#
# number of rings (size 3 to 8) (size 9 to 14) (size 15 to 20)
#    0.000    1.000    0.000    8.000    0.000    2.667 
#    0.000    5.000    0.000    0.000    0.000    0.000 
#    0.000    0.000    0.000    0.000    0.000    0.000 
#
# Total GULP energy -297786.798782 kJ/mol
# GULP energy per Si atom -12407.783283 kJ/mol
# Density = 2.125954 g / cm^3
# Si number density = 21.308037 Si / 1000 Ang^3
#
#
#
# Elastic Constant Matrix: (Units=GPa)
#
#
# Indices 1 2 3 4 5 6 
#
# 1 67.2994 32.9591 13.9845 0.0000 0.0000 0.0000
# 2 32.9591 107.3268 15.2035 0.0000 0.0000 0.0000
# 3 13.9845 15.2035 104.8261 0.0000 0.0000 0.0000
# 4 0.0000 0.0000 0.0000 -15.0560 0.0000 0.0000
# 5 0.0000 0.0000 0.0000 0.0000 47.9893 0.0000
# 6 0.0000 0.0000 0.0000 0.0000 0.0000 30.7653
#
#
#
# Elastic Compliance Matrix: (Units=1/GPa)
#
#
# Indices 1 2 3 4 5 6 
#
# 1 0.017752 -0.005223 -0.001611 0.000000 0.000000 0.000000
# 2 -0.005223 0.011050 -0.000906 0.000000 0.000000 0.000000
# 3 -0.001611 -0.000906 0.009886 0.000000 0.000000 0.000000
# 4 0.000000 0.000000 0.000000 -0.066419 0.000000 0.000000
# 5 0.000000 0.000000 0.000000 0.000000 0.020838 0.000000
# 6 0.000000 0.000000 0.000000 0.000000 0.000000 0.032504
#
#
# Mechanical properties :
#
#
# Convention : Reuss Voigt Hill
#
# Bulk Modulus (GPa) = 43.08883 44.86075 43.97479
# Shear Modulus (GPa) = 102.40522 27.22676 64.81599
#
# Velocity S-wave (km/s) = 6.94001 3.57847 5.52129
# Velocity P-wave (km/s) = 9.19152 6.17843 7.83126
#
# Compressibility (1/GPa) = 0.02320787
#
# Stress axis : x y z
#
# Youngs Moduli (GPa) = 56.33276 90.50057 101.15471
#
# Poissons Ratio (x) = 0.47270 0.16292
# Poissons Ratio (y) = 0.29424 0.09162
# Poissons Ratio (z) = 0.09073 0.08197
#
# Static dielectric constant tensor:
#      x y z
#    x 3.542150 0.000000 0.000000 
#    y 0.000000 6.211960 0.000000 
#    z 0.000000 0.000000 3.993510 
# 
# 
# High freq. dielectric constant tensor:
#      x y z
#    x 1.824160 0.000000 0.000000 
#    y 0.000000 1.851860 0.000000 
#    z 0.000000 0.000000 1.851440 
# 
# From -- ./inp_files/223.got.cif
#   From: 2010.03.12/outbox.cif.g09.slc.cpg/sg28_1_cif.got.tgz:223.got - 2010.04.14 03:39:34.
