data_PCOD8168049
_publ_section_title
;
Structure prediction by ZEFSAII (Michael W. Deem and Ramdas Pophale) SiO2 
 PCOD8168049
Probable space group: P M A 2
;
_chemical_formula_sum "Si O2"
_cell_formula_units_Z 26
_cell_length_a 14.322166
_cell_length_b 9.598076
_cell_length_c 10.610000
_cell_angle_alpha 90.000000
_cell_angle_beta 90.000000
_cell_angle_gamma 90.000000
_cell_volume 1458.506173
_symmetry_space_group_name_H-M "P M A 2"
_symmetry_group_IT_number 28
_symmetry_cell_setting 'orthorhombic'
loop_
_space_group_symop_operation_xyz
x,y,z
-x,-y,z
1/2-x,y,z
1/2+x,-y,z
loop_
_atom_site_type_symbol
_atom_site_label
_atom_site_fract_x
_atom_site_fract_y
_atom_site_fract_z
Si Si1 0.356559 0.631336 0.368960
Si Si2 0.250000 0.537120 0.991225
Si Si3 0.066739 0.615364 0.101673
Si Si4 0.008520 0.157618 0.422767
Si Si5 0.250000 0.363926 0.766744
Si Si6 0.942164 0.865472 0.140589
Si Si7 0.411522 0.410739 0.573988
Si Si8 0.250000 0.226336 0.022953
O O1 0.250000 0.667518 0.338285
O O2 0.408979 0.574759 0.245573
O O3 0.404808 0.777625 0.406964
O O4 0.361445 0.509863 0.472317
O O5 0.160726 0.629546 0.022546
O O6 0.250000 0.388824 0.069625
O O7 0.250000 0.509356 0.842333
O O8 0.000000 0.500000 0.042173
O O9 0.009660 0.753050 0.081803
O O10 0.066169 0.149059 0.291783
O O11 0.062726 0.261771 0.514638
O O12 0.000000 0.000000 0.478615
O O13 0.343414 0.365386 0.685095
O O14 0.250000 0.234383 0.868119
O O15 0.840169 0.855492 0.076572
O O16 0.000000 0.000000 0.101819
O O17 0.500000 0.500000 0.625489
#
# Coordination Sequence:
#
# PCOD8168049 Si02
#       8
#     4   2   4   4   2   4   4   2
#     4  10  18  31  55  82 111 136 175 229 281 332
#     4  10  22  32  57  80 107 143 188 235 270 327
#     4  11  18  33  55  85 110 141 179 225 286 336
#     4   9  20  37  53  84 114 145 179 214 284 341
#     4  10  22  36  54  84 106 142 198 226 270 324
#     4  10  21  37  58  84 119 146 180 226 279 345
#     4  10  20  35  58  79 108 142 181 235 274 320
#     4  10  22  38  55  82 111 149 188 227 276 321
#
# _framework density 17.826457999999999
#
# number of rings (size 3 to 8) (size 9 to 14) (size 15 to 20)
#    0.462    1.538    3.077    2.308    0.000    3.077 
#    9.692    0.769    0.000    3.692    0.000    0.000 
#    0.000    0.000    0.000    0.000    0.000    0.000 
#
# Total GULP energy -322170.614738 kJ/mol
# GULP energy per Si atom -12391.177490 kJ/mol
# Density = 1.778588 g / cm^3
# Si number density = 17.826458 Si / 1000 Ang^3
#
#
#
# Elastic Constant Matrix: (Units=GPa)
#
#
# Indices 1 2 3 4 5 6 
#
# 1 162.7676 56.8533 56.5266 0.0000 0.0000 0.0000
# 2 56.8533 122.0557 40.3697 0.0000 0.0000 0.0000
# 3 56.5266 40.3697 77.4103 0.0000 0.0000 0.0000
# 4 0.0000 0.0000 0.0000 17.9423 0.0000 0.0000
# 5 0.0000 0.0000 0.0000 0.0000 9.4920 0.0000
# 6 0.0000 0.0000 0.0000 0.0000 0.0000 25.3689
#
#
#
# Elastic Compliance Matrix: (Units=1/GPa)
#
#
# Indices 1 2 3 4 5 6 
#
# 1 0.008766 -0.002376 -0.005162 0.000000 0.000000 0.000000
# 2 -0.002376 0.010545 -0.003764 0.000000 0.000000 0.000000
# 3 -0.005162 -0.003764 0.018651 0.000000 0.000000 0.000000
# 4 0.000000 0.000000 0.000000 0.055734 0.000000 0.000000
# 5 0.000000 0.000000 0.000000 0.000000 0.105352 0.000000
# 6 0.000000 0.000000 0.000000 0.000000 0.000000 0.039418
#
#
# Mechanical properties :
#
#
# Convention : Reuss Voigt Hill
#
# Bulk Modulus (GPa) = 65.11650 74.41475 69.76563
# Shear Modulus (GPa) = 18.78356 24.45957 21.62157
#
# Velocity S-wave (km/s) = 3.24958 3.70820 3.48644
# Velocity P-wave (km/s) = 7.11948 7.75686 7.44500
#
# Compressibility (1/GPa) = 0.01535709
#
# Stress axis : x y z
#
# Youngs Moduli (GPa) = 114.07152 94.83472 53.61695
#
# Poissons Ratio (x) = 0.22532 0.27679
# Poissons Ratio (y) = 0.27103 0.20182
# Poissons Ratio (z) = 0.58888 0.35697
#
# Static dielectric constant tensor:
#      x y z
#    x 3.383570 0.000000 0.000000 
#    y 0.000000 3.208800 0.000000 
#    z 0.000000 0.000000 3.088440 
# 
# 
# High freq. dielectric constant tensor:
#      x y z
#    x 1.703560 0.000000 0.000000 
#    y 0.000000 1.679880 0.000000 
#    z 0.000000 0.000000 1.663950 
# 
# From -- ./inp_files/5516.got.cif
#   From: 2010.03.12/outbox.cif.g09.slc.cpg/sg28_3_cif.got.tgz:5516.got - 2010.04.14 03:39:34.
