data_PCOD8168089
_publ_section_title
;
Structure prediction by ZEFSAII (Michael W. Deem and Ramdas Pophale) SiO2 
 PCOD8168089
Probable space group: P M A 2
;
_chemical_formula_sum "Si O2"
_cell_formula_units_Z 32
_cell_length_a 8.882238
_cell_length_b 15.259703
_cell_length_c 15.425156
_cell_angle_alpha 90.000000
_cell_angle_beta 90.000000
_cell_angle_gamma 90.000000
_cell_volume 2090.730486
_symmetry_space_group_name_H-M "P M A 2"
_symmetry_group_IT_number 28
_symmetry_cell_setting 'orthorhombic'
loop_
_space_group_symop_operation_xyz
x,y,z
-x,-y,z
1/2-x,y,z
1/2+x,-y,z
loop_
_atom_site_type_symbol
_atom_site_label
_atom_site_fract_x
_atom_site_fract_y
_atom_site_fract_z
Si Si1 0.928244 0.904393 0.704750
Si Si2 0.075658 0.092613 0.889772
Si Si3 0.927183 0.905561 0.077544
Si Si4 0.081977 0.585332 0.206486
Si Si5 0.570673 0.096259 0.533755
Si Si6 0.920449 0.412774 0.412771
Si Si7 0.425821 0.239163 0.208154
Si Si8 0.927073 0.766399 0.409211
O O1 0.750000 0.909391 0.686272
O O2 0.963434 0.856799 0.798583
O O3 0.010198 0.858074 0.623177
O O4 0.000000 0.000000 0.709866
O O5 0.250000 0.071975 0.888173
O O6 0.033316 0.137411 0.982153
O O7 0.000000 0.000000 0.888978
O O8 0.750000 0.917818 0.088695
O O9 0.990780 0.840658 0.150948
O O10 0.000000 0.000000 0.090797
O O11 0.250000 0.585523 0.169836
O O12 0.079733 0.582164 0.309768
O O13 0.000000 0.500000 0.168044
O O14 0.000742 0.672345 0.173096
O O15 0.750000 0.089649 0.534439
O O16 0.516614 0.155988 0.455017
O O17 0.500000 0.000000 0.522091
O O18 0.750000 0.407247 0.448585
O O19 0.000000 0.500000 0.450880
O O20 0.013098 0.327400 0.443222
O O21 0.250000 0.251043 0.193644
O O22 0.464258 0.221326 0.308020
O O23 0.750000 0.772705 0.428493
#
# Coordination Sequence:
#
# PCOD8168089 Si02
#       8
#     4   4   4   4   4   4   4   4
#     4   9  15  25  41  60  79 101 130 167 209 252
#     4   8  14  24  40  59  79 102 130 165 207 249
#     4   9  17  29  42  59  83 112 143 174 205 241
#     4   9  16  26  42  61  81 104 134 171 212 252
#     4  11  21  32  44  59  81 111 144 178 212 249
#     4   9  16  27  43  63  83 106 135 171 213 254
#     4   9  18  30  43  59  83 113 144 175 207 241
#     4  10  19  31  44  60  83 113 146 179 210 244
#
# _framework density 15.305655
#
# number of rings (size 3 to 8) (size 9 to 14) (size 15 to 20)
#    0.000    2.750    0.000    3.375    0.000    5.000 
#    0.000    1.250    0.000    0.000    0.000    0.000 
#    0.000    1.000    0.000    5.000    0.000    4.000 
#
# Total GULP energy -396428.647426 kJ/mol
# GULP energy per Si atom -12388.395232 kJ/mol
# Density = 1.527082 g / cm^3
# Si number density = 15.305655 Si / 1000 Ang^3
#
#
#
# Elastic Constant Matrix: (Units=GPa)
#
#
# Indices 1 2 3 4 5 6 
#
# 1 85.5368 44.0643 42.4673 0.0000 0.0000 0.0000
# 2 44.0643 93.9804 52.3331 0.0000 0.0000 0.0000
# 3 42.4673 52.3331 79.1643 0.0000 0.0000 0.0000
# 4 0.0000 0.0000 0.0000 0.6468 0.0000 0.0000
# 5 0.0000 0.0000 0.0000 0.0000 16.2651 0.0000
# 6 0.0000 0.0000 0.0000 0.0000 0.0000 25.2996
#
#
#
# Elastic Compliance Matrix: (Units=1/GPa)
#
#
# Indices 1 2 3 4 5 6 
#
# 1 0.017109 -0.004607 -0.006132 0.000000 0.000000 0.000000
# 2 -0.004607 0.018080 -0.009481 0.000000 0.000000 0.000000
# 3 -0.006132 -0.009481 0.022189 0.000000 0.000000 0.000000
# 4 0.000000 0.000000 0.000000 1.546009 0.000000 0.000000
# 5 0.000000 0.000000 0.000000 0.000000 0.061481 0.000000
# 6 0.000000 0.000000 0.000000 0.000000 0.000000 0.039526
#
#
# Mechanical properties :
#
#
# Convention : Reuss Voigt Hill
#
# Bulk Modulus (GPa) = 59.04008 59.60122 59.32065
# Shear Modulus (GPa) = 2.85636 16.43009 9.64323
#
# Velocity S-wave (km/s) = 1.36758 3.27993 2.51279
# Velocity P-wave (km/s) = 6.41494 7.30542 6.87461
#
# Compressibility (1/GPa) = 0.01693765
#
# Stress axis : x y z
#
# Youngs Moduli (GPa) = 58.44976 55.31012 45.06713
#
# Poissons Ratio (x) = 0.25481 0.27637
# Poissons Ratio (y) = 0.26927 0.42727
# Poissons Ratio (z) = 0.35844 0.52438
#
# Static dielectric constant tensor:
#      x y z
#    x 3.027510 0.000000 0.000000 
#    y 0.000000 2.810190 0.000000 
#    z 0.000000 0.000000 3.379890 
# 
# 
# High freq. dielectric constant tensor:
#      x y z
#    x 1.601490 0.000000 0.000000 
#    y 0.000000 1.553390 0.000000 
#    z 0.000000 0.000000 1.567650 
# 
# From -- ./inp_files/6398.got.cif
#   From: 2010.03.12/outbox.cif.g09.slc.cpg/sg28_4_cif.got.tgz:6398.got - 2010.04.14 03:39:34.
