data_PCOD8168269
_publ_section_title
;
Structure prediction by ZEFSAII (Michael W. Deem and Ramdas Pophale) SiO2 
 PCOD8168269
Probable space group: P M A 2
;
_chemical_formula_sum "Si O2"
_cell_formula_units_Z 32
_cell_length_a 8.565489
_cell_length_b 15.412235
_cell_length_c 11.721063
_cell_angle_alpha 90.000000
_cell_angle_beta 90.000000
_cell_angle_gamma 90.000000
_cell_volume 1547.336550
_symmetry_space_group_name_H-M "P M A 2"
_symmetry_group_IT_number 28
_symmetry_cell_setting 'orthorhombic'
loop_
_space_group_symop_operation_xyz
x,y,z
-x,-y,z
1/2-x,y,z
1/2+x,-y,z
loop_
_atom_site_type_symbol
_atom_site_label
_atom_site_fract_x
_atom_site_fract_y
_atom_site_fract_z
Si Si1 0.564403 0.160903 0.585230
Si Si2 0.065568 0.908634 0.346634
Si Si3 0.069984 0.642158 0.570754
Si Si4 0.569933 0.409748 0.825192
Si Si5 0.068652 0.249004 0.955076
Si Si6 0.567390 0.590186 0.343010
Si Si7 0.433638 0.908556 0.823462
Si Si8 0.933378 0.254829 0.200378
O O1 0.750000 0.159055 0.588305
O O2 0.498658 0.112484 0.473042
O O3 0.507561 0.259934 0.584240
O O4 0.496133 0.114985 0.698552
O O5 0.250000 0.912692 0.352001
O O6 0.011575 0.834902 0.258475
O O7 0.000000 0.000000 0.302973
O O8 0.250000 0.640998 0.529542
O O9 0.050035 0.592778 0.689489
O O10 0.962776 0.593766 0.478654
O O11 0.500000 0.500000 0.871231
O O12 0.750000 0.401759 0.861729
O O13 0.475797 0.331477 0.880070
O O14 0.250000 0.230202 0.941113
O O15 0.976120 0.164312 0.914992
O O16 0.028535 0.268715 0.085396
O O17 0.500000 0.500000 0.294021
O O18 0.750000 0.597123 0.315797
O O19 0.472838 0.667791 0.285697
O O20 0.250000 0.915369 0.816546
O O21 0.500000 0.000000 0.865837
O O22 0.750000 0.254365 0.174347
#
# Coordination Sequence:
#
# PCOD8168269 Si02
#       8
#     4   4   4   4   4   4   4   4
#     4   9  17  35  62  92 126 164 202 247 309 371
#     4  10  21  38  63  92 125 161 200 248 305 366
#     4  10  19  38  65  93 128 167 206 252 310 374
#     4  11  23  41  66  95 128 167 209 257 313 377
#     4  12  26  44  65  92 125 163 213 267 317 378
#     4  12  25  41  64  96 129 165 208 257 312 376
#     4  11  22  40  65  95 129 168 210 259 315 377
#     4  11  24  45  68  89 121 166 212 262 317 371
#
# _framework density 20.680696999999999
#
# number of rings (size 3 to 8) (size 9 to 14) (size 15 to 20)
#    0.000    1.250    2.500    4.125    0.000    4.000 
#    0.000    4.375    0.000    0.000    0.000    0.000 
#    0.000    0.000    0.000    0.000    0.000    0.000 
#
# Total GULP energy -396981.177975 kJ/mol
# GULP energy per Si atom -12405.661812 kJ/mol
# Density = 2.063363 g / cm^3
# Si number density = 20.680697 Si / 1000 Ang^3
#
#
#
# Elastic Constant Matrix: (Units=GPa)
#
#
# Indices 1 2 3 4 5 6 
#
# 1 60.6113 25.9524 20.8047 0.0000 0.0000 0.0000
# 2 25.9524 142.9045 17.1584 0.0000 0.0000 0.0000
# 3 20.8047 17.1584 75.6129 0.0000 0.0000 0.0000
# 4 0.0000 0.0000 0.0000 -8.0889 0.0000 0.0000
# 5 0.0000 0.0000 0.0000 0.0000 26.8469 0.0000
# 6 0.0000 0.0000 0.0000 0.0000 0.0000 33.2977
#
#
#
# Elastic Compliance Matrix: (Units=1/GPa)
#
#
# Indices 1 2 3 4 5 6 
#
# 1 0.019363 -0.002957 -0.004657 0.000000 0.000000 0.000000
# 2 -0.002957 0.007645 -0.000921 0.000000 0.000000 0.000000
# 3 -0.004657 -0.000921 0.014716 0.000000 0.000000 0.000000
# 4 0.000000 0.000000 0.000000 -0.123626 0.000000 0.000000
# 5 0.000000 0.000000 0.000000 0.000000 0.037248 0.000000
# 6 0.000000 0.000000 0.000000 0.000000 0.000000 0.030032
#
#
# Mechanical properties :
#
#
# Convention : Reuss Voigt Hill
#
# Bulk Modulus (GPa) = 40.56183 45.21776 42.88979
# Shear Modulus (GPa) = 468.73434 24.75869 246.74652
#
# Velocity S-wave (km/s) = 15.07133 3.46379 10.93488
# Velocity P-wave (km/s) = 17.95873 6.15706 13.42433
#
# Compressibility (1/GPa) = 0.02465372
#
# Stress axis : x y z
#
# Youngs Moduli (GPa) = 51.64427 130.79818 67.95527
#
# Poissons Ratio (x) = 0.38682 0.31644
# Poissons Ratio (y) = 0.15273 0.06260
# Poissons Ratio (z) = 0.24049 0.12049
#
# Static dielectric constant tensor:
#      x y z
#    x 3.548190 0.000000 0.000000 
#    y 0.000000 3.932330 0.000000 
#    z 0.000000 0.000000 3.748910 
# 
# 
# High freq. dielectric constant tensor:
#      x y z
#    x 1.797220 0.000000 0.000000 
#    y 0.000000 1.824880 0.000000 
#    z 0.000000 0.000000 1.806120 
# 
# From -- ./inp_files/5093.got.cif
#   From: 2010.03.12/outbox.cif.g09.slc.cpg/sg28_3_cif.got.tgz:5093.got - 2010.04.14 03:39:34.
