data_PCOD8168068
_publ_section_title
;
Structure prediction by ZEFSAII (Michael W. Deem and Ramdas Pophale) SiO2 
 PCOD8168068
Probable space group: P M A 2
;
_chemical_formula_sum "Si O2"
_cell_formula_units_Z 32
_cell_length_a 8.848756
_cell_length_b 15.504946
_cell_length_c 11.954858
_cell_angle_alpha 90.000000
_cell_angle_beta 90.000000
_cell_angle_gamma 90.000000
_cell_volume 1640.200348
_symmetry_space_group_name_H-M "P M A 2"
_symmetry_group_IT_number 28
_symmetry_cell_setting 'orthorhombic'
loop_
_space_group_symop_operation_xyz
x,y,z
-x,-y,z
1/2-x,y,z
1/2+x,-y,z
loop_
_atom_site_type_symbol
_atom_site_label
_atom_site_fract_x
_atom_site_fract_y
_atom_site_fract_z
Si Si1 0.429296 0.251153 0.740080
Si Si2 0.071077 0.588074 0.130881
Si Si3 0.070284 0.089327 0.599849
Si Si4 0.428773 0.256646 0.995282
Si Si5 0.072744 0.411745 0.599593
Si Si6 0.572044 0.647530 0.353631
Si Si7 0.928099 0.911940 0.129221
Si Si8 0.570710 0.843370 0.363751
O O1 0.250000 0.251429 0.731817
O O2 0.489486 0.163617 0.682999
O O3 0.483888 0.255244 0.867553
O O4 0.494532 0.333422 0.673269
O O5 0.250000 0.582386 0.124205
O O6 0.000000 0.500000 0.082105
O O7 0.019647 0.597780 0.258928
O O8 0.013593 0.667116 0.057437
O O9 0.250000 0.082691 0.601860
O O10 0.009130 0.110280 0.475059
O O11 0.000000 0.000000 0.641665
O O12 0.250000 0.271458 0.007358
O O13 0.478002 0.166078 0.049407
O O14 0.250000 0.417787 0.617951
O O15 0.032148 0.397261 0.470379
O O16 0.000000 0.500000 0.642943
O O17 0.750000 0.643479 0.326082
O O18 0.512642 0.745466 0.358623
O O19 0.750000 0.922666 0.128583
O O20 0.988890 0.893847 0.254766
O O21 0.000000 0.000000 0.083330
O O22 0.750000 0.840992 0.366954
#
# Coordination Sequence:
#
# PCOD8168068 Si02
#       8
#     4   4   4   4   4   4   4   4
#     4   9  19  37  60  82 108 150 196 232 276 335
#     4  12  25  40  60  87 117 149 187 235 287 344
#     4  10  19  34  56  83 114 150 189 231 280 338
#     4  10  21  40  62  82 110 152 199 241 284 334
#     4  10  20  35  58  85 113 145 182 228 278 335
#     4  10  18  35  61  85 114 150 187 228 281 343
#     4  10  20  34  55  81 111 148 187 232 283 335
#     4   9  16  31  56  81 110 149 188 226 279 340
#
# _framework density 19.509813000000001
#
# number of rings (size 3 to 8) (size 9 to 14) (size 15 to 20)
#    0.000    2.000    2.500    1.875    0.000    3.000 
#    0.000    3.750    0.000    0.000    0.000    0.000 
#    0.000    0.000    0.000    0.000    0.000    0.000 
#
# Total GULP energy -396865.152027 kJ/mol
# GULP energy per Si atom -12402.036001 kJ/mol
# Density = 1.946541 g / cm^3
# Si number density = 19.509813 Si / 1000 Ang^3
#
#
#
# Elastic Constant Matrix: (Units=GPa)
#
#
# Indices 1 2 3 4 5 6 
#
# 1 47.8843 47.9935 41.0001 0.0000 0.0000 0.0000
# 2 47.9935 188.9490 77.2788 0.0000 0.0000 0.0000
# 3 41.0001 77.2788 144.0141 0.0000 0.0000 0.0000
# 4 0.0000 0.0000 0.0000 9.3580 0.0000 0.0000
# 5 0.0000 0.0000 0.0000 0.0000 3.6108 0.0000
# 6 0.0000 0.0000 0.0000 0.0000 0.0000 33.0985
#
#
#
# Elastic Compliance Matrix: (Units=1/GPa)
#
#
# Indices 1 2 3 4 5 6 
#
# 1 0.031615 -0.005572 -0.006011 0.000000 0.000000 0.000000
# 2 -0.005572 0.007763 -0.002579 0.000000 0.000000 0.000000
# 3 -0.006011 -0.002579 0.010039 0.000000 0.000000 0.000000
# 4 0.000000 0.000000 0.000000 0.106860 0.000000 0.000000
# 5 0.000000 0.000000 0.000000 0.000000 0.276949 0.000000
# 6 0.000000 0.000000 0.000000 0.000000 0.000000 0.030213
#
#
# Mechanical properties :
#
#
# Convention : Reuss Voigt Hill
#
# Bulk Modulus (GPa) = 47.40930 79.26580 63.33755
# Shear Modulus (GPa) = 10.02420 23.51845 16.77132
#
# Velocity S-wave (km/s) = 2.26918 3.47575 2.93513
# Velocity P-wave (km/s) = 5.58736 7.53821 6.63488
#
# Compressibility (1/GPa) = 0.02109291
#
# Stress axis : x y z
#
# Youngs Moduli (GPa) = 31.63071 128.82328 99.61204
#
# Poissons Ratio (x) = 0.71780 0.59873
# Poissons Ratio (y) = 0.17624 0.25691
# Poissons Ratio (z) = 0.19012 0.33225
#
# Static dielectric constant tensor:
#      x y z
#    x 3.141450 0.000000 0.000000 
#    y 0.000000 3.738510 0.000000 
#    z 0.000000 0.000000 3.712670 
# 
# 
# High freq. dielectric constant tensor:
#      x y z
#    x 1.720200 0.000000 0.000000 
#    y 0.000000 1.778470 0.000000 
#    z 0.000000 0.000000 1.760750 
# 
# From -- ./inp_files/5049.got.cif
#   From: 2010.03.12/outbox.cif.g09.slc.cpg/sg28_3_cif.got.tgz:5049.got - 2010.04.14 03:39:34.
