data_PCOD8168604
_publ_section_title
;
Structure prediction by ZEFSAII (Michael W. Deem and Ramdas Pophale) SiO2 
 PCOD8168604
Probable space group: P C A 21
;
_chemical_formula_sum "Si O2"
_cell_formula_units_Z 32
_cell_length_a 14.271378
_cell_length_b 8.430230
_cell_length_c 14.074438
_cell_angle_alpha 90.000000
_cell_angle_beta 90.000000
_cell_angle_gamma 90.000000
_cell_volume 1693.309696
_symmetry_space_group_name_H-M "P C A 21"
_symmetry_group_IT_number 29
_symmetry_cell_setting 'orthorhombic'
loop_
_space_group_symop_operation_xyz
x,y,z
-x,-y,1/2+z
1/2-x,y,1/2+z
1/2+x,-y,z
loop_
_atom_site_type_symbol
_atom_site_label
_atom_site_fract_x
_atom_site_fract_y
_atom_site_fract_z
Si Si1 0.001291 0.934406 0.049740
Si Si2 0.349785 0.563526 0.701875
Si Si3 0.498709 0.565594 0.549740
Si Si4 0.359701 0.936568 0.198966
Si Si5 0.150215 0.936474 0.201875
Si Si6 0.495930 0.064964 0.343892
Si Si7 0.140299 0.563432 0.698966
Si Si8 0.495930 0.435036 0.343892
O O1 0.000862 0.750000 0.022909
O O2 0.096181 0.982932 0.105079
O O3 0.912279 0.972049 0.114932
O O4 0.996105 0.037543 0.955274
O O5 0.403819 0.517068 0.605079
O O6 0.340219 0.750000 0.710677
O O7 0.245537 0.491698 0.701966
O O8 0.409541 0.501342 0.792269
O O9 0.587721 0.527951 0.614932
O O10 0.503895 0.462457 0.455274
O O11 0.254463 0.008302 0.201966
O O12 0.361125 0.750000 0.177522
O O13 0.407333 0.971416 0.300619
O O14 0.090459 0.998658 0.292269
O O15 0.481861 0.250000 0.321754
O O16 0.092667 0.528584 0.800620
#
# Coordination Sequence:
#
# PCOD8168604 Si02
#       8
#     4   4   4   4   4   4   4   4
#     4  10  20  36  54  77 106 138 172 212 256 306
#     4   8  18  35  54  73 102 139 173 206 256 316
#     4  10  20  36  54  77 106 138 172 212 256 306
#     4  10  19  35  56  77 100 135 175 214 256 306
#     4   8  18  35  54  73 102 139 173 206 256 316
#     4  10  20  36  54  77 106 138 172 212 256 306
#     4  10  19  35  56  77 100 135 175 214 256 306
#     4  10  20  36  54  77 106 138 172 212 256 306
#
# _framework density 18.897901999999998
#
# number of rings (size 3 to 8) (size 9 to 14) (size 15 to 20)
#    0.000    2.500    0.000    3.750    0.000    2.000 
#    0.000   25.000    0.000    0.000    0.000    0.000 
#    0.000    0.000    0.000    0.000    0.000    0.000 
#
# Total GULP energy -396794.193033 kJ/mol
# GULP energy per Si atom -12399.818532 kJ/mol
# Density = 1.885489 g / cm^3
# Si number density = 18.897902 Si / 1000 Ang^3
#
#
#
# Elastic Constant Matrix: (Units=GPa)
#
#
# Indices 1 2 3 4 5 6 
#
# 1 174.7699 18.7312 54.2899 0.0000 0.0000 0.0000
# 2 18.7312 38.7139 7.0241 0.0000 0.0000 0.0000
# 3 54.2899 7.0241 108.8856 0.0000 0.0000 0.0000
# 4 0.0000 0.0000 0.0000 33.3395 0.0000 0.0000
# 5 0.0000 0.0000 0.0000 0.0000 13.1605 0.0000
# 6 0.0000 0.0000 0.0000 0.0000 0.0000 23.5749
#
#
#
# Elastic Compliance Matrix: (Units=1/GPa)
#
#
# Indices 1 2 3 4 5 6 
#
# 1 0.007060 -0.002810 -0.003339 0.000000 0.000000 0.000000
# 2 -0.002810 0.027255 -0.000357 0.000000 0.000000 0.000000
# 3 -0.003339 -0.000357 0.010872 0.000000 0.000000 0.000000
# 4 0.000000 0.000000 0.000000 0.029994 0.000000 0.000000
# 5 0.000000 0.000000 0.000000 0.000000 0.075985 0.000000
# 6 0.000000 0.000000 0.000000 0.000000 0.000000 0.042418
#
#
# Mechanical properties :
#
#
# Convention : Reuss Voigt Hill
#
# Bulk Modulus (GPa) = 31.08039 53.60665 42.34352
# Shear Modulus (GPa) = 23.00739 30.16991 26.58865
#
# Velocity S-wave (km/s) = 3.49299 3.99992 3.75502
# Velocity P-wave (km/s) = 5.72278 7.05411 6.42303
#
# Compressibility (1/GPa) = 0.03217463
#
# Stress axis : x y z
#
# Youngs Moduli (GPa) = 141.63947 36.69057 91.98155
#
# Poissons Ratio (x) = 0.10311 0.30712
# Poissons Ratio (y) = 0.39803 0.03284
# Poissons Ratio (z) = 0.47292 0.01310
#
# Static dielectric constant tensor:
#      x y z
#    x 3.869560 0.000000 0.000000 
#    y 0.000000 3.270620 0.000000 
#    z 0.000000 0.000000 3.375210 
# 
# 
# High freq. dielectric constant tensor:
#      x y z
#    x 1.738970 0.000000 0.000000 
#    y 0.000000 1.722810 0.000000 
#    z 0.000000 0.000000 1.733430 
# 
# From -- ./inp_files/4735.got.cif
#   From: 2010.03.12/outbox.cif.g09.slc.cpg/sg29_3_cif.got.tgz:4735.got - 2010.04.14 03:43:10.
