data_PCOD8168177
_publ_section_title
;
Structure prediction by ZEFSAII (Michael W. Deem and Ramdas Pophale) SiO2 
 PCOD8168177
Probable space group: P M A 2
;
_chemical_formula_sum "Si O2"
_cell_formula_units_Z 28
_cell_length_a 8.911543
_cell_length_b 14.434949
_cell_length_c 12.601028
_cell_angle_alpha 90.000000
_cell_angle_beta 90.000000
_cell_angle_gamma 90.000000
_cell_volume 1620.966865
_symmetry_space_group_name_H-M "P M A 2"
_symmetry_group_IT_number 28
_symmetry_cell_setting 'orthorhombic'
loop_
_space_group_symop_operation_xyz
x,y,z
-x,-y,z
1/2-x,y,z
1/2+x,-y,z
loop_
_atom_site_type_symbol
_atom_site_label
_atom_site_fract_x
_atom_site_fract_y
_atom_site_fract_z
Si Si1 0.923782 0.406636 0.652980
Si Si2 0.072015 0.596747 0.412473
Si Si3 0.573885 0.289849 0.850757
Si Si4 0.426820 0.400865 0.038219
Si Si5 0.572694 0.094539 0.168610
Si Si6 0.927502 0.721692 0.240227
Si Si7 0.424568 0.907523 0.923309
O O1 0.750000 0.428867 0.654902
O O2 0.974496 0.381129 0.533934
O O3 0.963991 0.322193 0.731367
O O4 0.000000 0.500000 0.694965
O O5 0.250000 0.592183 0.395733
O O6 0.000000 0.500000 0.375668
O O7 0.000876 0.677507 0.343674
O O8 0.750000 0.297627 0.877689
O O9 0.519534 0.183393 0.860188
O O10 0.485939 0.355191 0.931043
O O11 0.500000 0.500000 0.056779
O O12 0.250000 0.413638 0.029246
O O13 0.473080 0.336719 0.136791
O O14 0.750000 0.093811 0.187734
O O15 0.496849 0.176688 0.233329
O O16 0.500000 0.000000 0.211870
O O17 0.530521 0.107264 0.045423
O O18 0.750000 0.727882 0.254155
O O19 0.250000 0.922565 0.909258
O O20 0.500000 0.000000 0.875991
#
# Coordination Sequence:
#
# PCOD8168177 Si02
#       7
#     4   4   4   4   4   4   4
#     4   9  19  34  53  75 101 133 173 215 256 304
#     4  10  20  35  54  76 101 135 176 219 262 307
#     4  10  19  34  53  75 103 135 170 209 256 307
#     4  11  23  34  47  71 104 137 168 204 252 307
#     4  10  19  33  53  77 105 138 172 212 258 308
#     4  11  22  35  52  76 104 137 174 215 258 308
#     4   9  18  31  50  74 102 135 168 206 250 301
#
# _framework density 17.273641999999999
#
# number of rings (size 3 to 8) (size 9 to 14) (size 15 to 20)
#    0.000    2.000    1.429    2.571    0.000    6.286 
#    0.000    0.000    0.000    0.857    0.000    2.000 
#    0.000    0.000    0.000    0.000    0.000    0.000 
#
# Total GULP energy -347275.397943 kJ/mol
# GULP energy per Si atom -12402.692784 kJ/mol
# Density = 1.723433 g / cm^3
# Si number density = 17.273642 Si / 1000 Ang^3
#
#
#
# Elastic Constant Matrix: (Units=GPa)
#
#
# Indices 1 2 3 4 5 6 
#
# 1 64.8419 56.0025 38.7064 0.0000 0.0000 0.0000
# 2 56.0025 165.4788 65.9622 0.0000 0.0000 0.0000
# 3 38.7064 65.9622 82.1570 0.0000 0.0000 0.0000
# 4 0.0000 0.0000 0.0000 25.9565 0.0000 0.0000
# 5 0.0000 0.0000 0.0000 0.0000 19.4615 0.0000
# 6 0.0000 0.0000 0.0000 0.0000 0.0000 34.9012
#
#
#
# Elastic Compliance Matrix: (Units=1/GPa)
#
#
# Indices 1 2 3 4 5 6 
#
# 1 0.024340 -0.005392 -0.007138 0.000000 0.000000 0.000000
# 2 -0.005392 0.010082 -0.005554 0.000000 0.000000 0.000000
# 3 -0.007138 -0.005554 0.019994 0.000000 0.000000 0.000000
# 4 0.000000 0.000000 0.000000 0.038526 0.000000 0.000000
# 5 0.000000 0.000000 0.000000 0.000000 0.051383 0.000000
# 6 0.000000 0.000000 0.000000 0.000000 0.000000 0.028652
#
#
# Mechanical properties :
#
#
# Convention : Reuss Voigt Hill
#
# Bulk Modulus (GPa) = 54.80232 70.42444 62.61338
# Shear Modulus (GPa) = 23.23108 26.18430 24.70769
#
# Velocity S-wave (km/s) = 3.67125 3.89762 3.78613
# Velocity P-wave (km/s) = 7.05447 7.81752 7.44578
#
# Compressibility (1/GPa) = 0.01824740
#
# Stress axis : x y z
#
# Youngs Moduli (GPa) = 41.08452 99.18820 50.01461
#
# Poissons Ratio (x) = 0.53482 0.35701
# Poissons Ratio (y) = 0.22153 0.27779
# Poissons Ratio (z) = 0.29327 0.55091
#
# Static dielectric constant tensor:
#      x y z
#    x 3.262180 0.000000 0.000000 
#    y 0.000000 3.403870 0.000000 
#    z 0.000000 0.000000 3.215060 
# 
# 
# High freq. dielectric constant tensor:
#      x y z
#    x 1.675480 0.000000 0.000000 
#    y 0.000000 1.672310 0.000000 
#    z 0.000000 0.000000 1.648110 
# 
# From -- ./inp_files/4806.got.cif
#   From: 2010.03.12/outbox.cif.g09.slc.cpg/sg28_3_cif.got.tgz:4806.got - 2010.04.14 03:39:34.
