data_PCOD8168118
_publ_section_title
;
Structure prediction by ZEFSAII (Michael W. Deem and Ramdas Pophale) SiO2 
 PCOD8168118
Probable space group: P M A 2
;
_chemical_formula_sum "Si O2"
_cell_formula_units_Z 32
_cell_length_a 18.704073
_cell_length_b 18.841976
_cell_length_c 5.095664
_cell_angle_alpha 90.000000
_cell_angle_beta 90.000000
_cell_angle_gamma 90.000000
_cell_volume 1795.822542
_symmetry_space_group_name_H-M "P M A 2"
_symmetry_group_IT_number 28
_symmetry_cell_setting 'orthorhombic'
loop_
_space_group_symop_operation_xyz
x,y,z
-x,-y,z
1/2-x,y,z
1/2+x,-y,z
loop_
_atom_site_type_symbol
_atom_site_label
_atom_site_fract_x
_atom_site_fract_y
_atom_site_fract_z
Si Si1 0.169671 0.523543 0.491990
Si Si2 0.025983 0.581058 0.388150
Si Si3 0.829603 0.568719 0.991707
Si Si4 0.830366 0.912304 0.882090
Si Si5 0.020912 0.889628 0.376529
Si Si6 0.031107 0.181860 0.868541
Si Si7 0.383949 0.015143 0.392087
Si Si8 0.464192 0.347616 0.889945
O O1 0.250000 0.554761 0.459191
O O2 0.157553 0.494267 0.784186
O O3 0.111358 0.584787 0.441668
O O4 0.156565 0.460546 0.283248
O O5 0.986015 0.630129 0.597616
O O6 0.000000 0.500000 0.413032
O O7 0.013331 0.610745 0.097483
O O8 0.750000 0.599504 0.963023
O O9 0.881780 0.633608 0.938368
O O10 0.750000 0.880098 0.901597
O O11 0.887392 0.847873 0.863387
O O12 0.833138 0.964025 0.631998
O O13 0.844860 0.963304 0.126468
O O14 0.012026 0.829460 0.598146
O O15 0.957763 0.944234 0.427280
O O16 0.096813 0.931062 0.394731
O O17 0.015462 0.856160 0.090172
O O18 0.031126 0.264372 0.930342
#
# Coordination Sequence:
#
# PCOD8168118 Si02
#       8
#     4   4   4   4   4   4   4   4
#     4  10  20  34  52  75  97 125 163 213 276 320
#     4  12  21  35  56  76 104 133 174 237 279 303
#     4  10  19  32  49  72 103 133 164 204 254 321
#     4  10  19  32  50  78 112 143 172 202 243 304
#     4   9  17  33  51  73  99 130 172 217 256 278
#     4  10  21  33  49  74 109 141 173 207 251 321
#     4   9  17  30  53  76  98 134 173 216 247 281
#     4  12  22  34  52  79 105 142 181 212 267 326
#
# _framework density 17.819133999999998
#
# number of rings (size 3 to 8) (size 9 to 14) (size 15 to 20)
#    0.000    1.750    2.500    3.000    0.000    3.500 
#    0.000    0.000    0.000    6.000    0.000   17.500 
#    0.000    0.000    0.000    0.000    0.000    0.000 
#
# Total GULP energy -396782.393598 kJ/mol
# GULP energy per Si atom -12399.449800 kJ/mol
# Density = 1.777858 g / cm^3
# Si number density = 17.819134 Si / 1000 Ang^3
#
#
#
# Elastic Constant Matrix: (Units=GPa)
#
#
# Indices 1 2 3 4 5 6 
#
# 1 64.2216 35.8108 5.3773 0.0000 0.0000 0.0000
# 2 35.8108 70.6744 7.6844 0.0000 0.0000 0.0000
# 3 5.3773 7.6844 81.3384 0.0000 0.0000 0.0000
# 4 0.0000 0.0000 0.0000 9.8404 0.0000 0.0000
# 5 0.0000 0.0000 0.0000 0.0000 -17.1742 0.0000
# 6 0.0000 0.0000 0.0000 0.0000 0.0000 13.8210
#
#
#
# Elastic Compliance Matrix: (Units=1/GPa)
#
#
# Indices 1 2 3 4 5 6 
#
# 1 0.021716 -0.010960 -0.000400 0.000000 0.000000 0.000000
# 2 -0.010960 0.019828 -0.001149 0.000000 0.000000 0.000000
# 3 -0.000400 -0.001149 0.012429 0.000000 0.000000 0.000000
# 4 0.000000 0.000000 0.000000 0.101622 0.000000 0.000000
# 5 0.000000 0.000000 0.000000 0.000000 -0.058227 0.000000
# 6 0.000000 0.000000 0.000000 0.000000 0.000000 0.072354
#
#
# Mechanical properties :
#
#
# Convention : Reuss Voigt Hill
#
# Bulk Modulus (GPa) = 34.53600 34.88663 34.71131
# Shear Modulus (GPa) = 24.46287 12.45489 18.45888
#
# Velocity S-wave (km/s) = 3.70921 2.64666 3.22204
# Velocity P-wave (km/s) = 6.14555 5.38149 5.77617
#
# Compressibility (1/GPa) = 0.02895529
#
# Stress axis : x y z
#
# Youngs Moduli (GPa) = 46.04881 50.43433 80.45510
#
# Poissons Ratio (x) = 0.55276 0.03220
# Poissons Ratio (y) = 0.50470 0.09241
# Poissons Ratio (z) = 0.01843 0.05793
#
# Static dielectric constant tensor:
#      x y z
#    x 3.547680 0.000000 0.000000 
#    y 0.000000 3.009150 0.000000 
#    z 0.000000 0.000000 3.520290 
# 
# 
# High freq. dielectric constant tensor:
#      x y z
#    x 1.682640 0.000000 0.000000 
#    y 0.000000 1.650740 0.000000 
#    z 0.000000 0.000000 1.714130 
# 
# From -- ./inp_files/1209.got.cif
#   From: 2010.03.12/outbox.cif.g09.slc.cpg/sg28_1_cif.got.tgz:1209.got - 2010.04.14 03:39:34.
