data_PCOD8168204
_publ_section_title
;
Structure prediction by ZEFSAII (Michael W. Deem and Ramdas Pophale) SiO2 
 PCOD8168204
Probable space group: P M A 2
;
_chemical_formula_sum "Si O2"
_cell_formula_units_Z 28
_cell_length_a 8.854527
_cell_length_b 9.396298
_cell_length_c 18.138017
_cell_angle_alpha 90.000000
_cell_angle_beta 90.000000
_cell_angle_gamma 90.000000
_cell_volume 1509.078921
_symmetry_space_group_name_H-M "P M A 2"
_symmetry_group_IT_number 28
_symmetry_cell_setting 'orthorhombic'
loop_
_space_group_symop_operation_xyz
x,y,z
-x,-y,z
1/2-x,y,z
1/2+x,-y,z
loop_
_atom_site_type_symbol
_atom_site_label
_atom_site_fract_x
_atom_site_fract_y
_atom_site_fract_z
Si Si1 0.075695 0.350349 0.484510
Si Si2 0.072200 0.153164 0.775901
Si Si3 0.426675 0.847078 0.200578
Si Si4 0.928185 0.654689 0.643649
Si Si5 0.428771 0.349777 0.910979
Si Si6 0.427077 0.648543 0.063830
Si Si7 0.071810 0.344096 0.324414
O O1 0.250000 0.383552 0.487057
O O2 0.030214 0.276062 0.562554
O O3 0.036847 0.275289 0.406215
O O4 0.000000 0.500000 0.482390
O O5 0.250000 0.135550 0.769684
O O6 0.007501 0.239150 0.705487
O O7 0.025349 0.235201 0.849910
O O8 0.000000 0.000000 0.777885
O O9 0.250000 0.862339 0.215517
O O10 0.461338 0.764968 0.125288
O O11 0.499591 0.764265 0.268014
O O12 0.500000 0.000000 0.193271
O O13 0.750000 0.636045 0.653837
O O14 0.000000 0.500000 0.653905
O O15 0.500000 0.500000 0.887665
O O16 0.250000 0.367530 0.918288
O O17 0.497207 0.297007 0.988402
O O18 0.500000 0.500000 0.089598
O O19 0.250000 0.624817 0.051151
O O20 0.250000 0.357590 0.309860
O O21 0.000000 0.500000 0.314924
#
# Coordination Sequence:
#
# PCOD8168204 Si02
#       7
#     4   4   4   4   4   4   4
#     4   8  15  28  49  76 104 133 168 213 259 303
#     4  10  22  36  51  74 105 140 175 211 253 304
#     4  11  24  39  55  77 106 141 178 216 262 314
#     4   9  17  32  53  77 104 134 172 215 258 304
#     4  10  20  35  56  81 105 132 169 212 257 304
#     4  10  21  37  58  82 105 133 170 211 257 308
#     4  10  19  33  55  81 108 139 176 218 263 311
#
# _framework density 18.554362999999999
#
# number of rings (size 3 to 8) (size 9 to 14) (size 15 to 20)
#    0.000    2.286    0.000    3.429    0.000    6.286 
#    0.000    3.571    0.000    1.714    0.000    0.000 
#    0.000    0.000    0.000    0.000    0.000    0.000 
#
# Total GULP energy -347005.817331 kJ/mol
# GULP energy per Si atom -12393.064905 kJ/mol
# Density = 1.851213 g / cm^3
# Si number density = 18.554363 Si / 1000 Ang^3
#
#
#
# Elastic Constant Matrix: (Units=GPa)
#
#
# Indices 1 2 3 4 5 6 
#
# 1 79.5976 55.5017 74.7579 0.0000 0.0000 0.0000
# 2 55.5017 127.0909 101.8161 0.0000 0.0000 0.0000
# 3 74.7579 101.8161 177.4462 0.0000 0.0000 0.0000
# 4 0.0000 0.0000 0.0000 0.1302 0.0000 0.0000
# 5 0.0000 0.0000 0.0000 0.0000 21.2893 0.0000
# 6 0.0000 0.0000 0.0000 0.0000 0.0000 31.2828
#
#
#
# Elastic Compliance Matrix: (Units=1/GPa)
#
#
# Indices 1 2 3 4 5 6 
#
# 1 0.021840 -0.004009 -0.006901 0.000000 0.000000 0.000000
# 2 -0.004009 0.015298 -0.007089 0.000000 0.000000 0.000000
# 3 -0.006901 -0.007089 0.012610 0.000000 0.000000 0.000000
# 4 0.000000 0.000000 0.000000 7.680267 0.000000 0.000000
# 5 0.000000 0.000000 0.000000 0.000000 0.046972 0.000000
# 6 0.000000 0.000000 0.000000 0.000000 0.000000 0.031966
#
#
# Mechanical properties :
#
#
# Convention : Reuss Voigt Hill
#
# Bulk Modulus (GPa) = 72.72302 94.25400 83.48851
# Shear Modulus (GPa) = 0.63698 20.67773 10.65736
#
# Velocity S-wave (km/s) = 0.58656 3.34195 2.39923
# Velocity P-wave (km/s) = 6.30384 8.11176 7.26426
#
# Compressibility (1/GPa) = 0.01375080
#
# Stress axis : x y z
#
# Youngs Moduli (GPa) = 45.78785 65.36628 79.30101
#
# Poissons Ratio (x) = 0.26208 0.54722
# Poissons Ratio (y) = 0.18358 0.56215
# Poissons Ratio (z) = 0.31596 0.46337
#
# Static dielectric constant tensor:
#      x y z
#    x 3.503760 0.000000 0.000000 
#    y 0.000000 3.167970 0.000000 
#    z 0.000000 0.000000 4.158520 
# 
# 
# High freq. dielectric constant tensor:
#      x y z
#    x 1.727990 0.000000 0.000000 
#    y 0.000000 1.691790 0.000000 
#    z 0.000000 0.000000 1.747840 
# 
# From -- ./inp_files/6799.got.cif
#   From: 2010.03.12/outbox.cif.g09.slc.cpg/sg28_4_cif.got.tgz:6799.got - 2010.04.14 03:39:34.
