data_PCOD8168870
_publ_section_title
;
Structure prediction by ZEFSAII (Michael W. Deem and Ramdas Pophale) SiO2 
 PCOD8168870
Probable space group: P C A 21
;
_chemical_formula_sum "Si O2"
_cell_formula_units_Z 28
_cell_length_a 12.585218
_cell_length_b 12.035800
_cell_length_c 8.673349
_cell_angle_alpha 90.000000
_cell_angle_beta 90.000000
_cell_angle_gamma 90.000000
_cell_volume 1313.779640
_symmetry_space_group_name_H-M "P C A 21"
_symmetry_group_IT_number 29
_symmetry_cell_setting 'orthorhombic'
loop_
_space_group_symop_operation_xyz
x,y,z
-x,-y,1/2+z
1/2-x,y,1/2+z
1/2+x,-y,z
loop_
_atom_site_type_symbol
_atom_site_label
_atom_site_fract_x
_atom_site_fract_y
_atom_site_fract_z
Si Si1 0.878655 0.875690 0.185770
Si Si2 0.325492 0.355079 0.314180
Si Si3 0.617329 0.400667 0.740450
Si Si4 0.244322 0.999572 0.438917
Si Si5 0.617575 0.600932 0.152059
Si Si6 0.324942 0.643096 0.578059
Si Si7 0.879980 0.124767 0.691199
O O1 0.874354 0.744339 0.215102
O O2 0.821981 0.940238 0.322419
O O3 0.999532 0.916145 0.178088
O O4 0.822990 0.904887 0.024255
O O5 0.383322 0.466593 0.257445
O O6 0.345932 0.337711 0.495563
O O7 0.198399 0.363381 0.287371
O O8 0.499998 0.358314 0.696912
O O9 0.697887 0.365421 0.604704
O O10 0.654765 0.339704 0.896627
O O11 0.165276 0.913994 0.355296
O O12 0.312742 0.928204 0.555317
O O13 0.617336 0.468354 0.134885
O O14 0.374328 0.742354 0.677382
#
# Coordination Sequence:
#
# PCOD8168870 Si02
#       7
#     4   4   4   4   4   4   4
#     4  11  22  41  63  86 118 156 195 249 304 350
#     4  10  22  38  61  89 119 160 207 243 297 368
#     4  10  22  39  59  89 127 160 198 249 296 355
#     4  10  24  40  60  90 116 148 204 250 296 364
#     4  10  22  39  59  89 127 160 198 249 296 355
#     4  10  22  38  61  89 119 160 207 243 297 368
#     4  11  22  41  63  86 118 156 195 249 304 350
#
# _framework density 21.312553000000001
#
# number of rings (size 3 to 8) (size 9 to 14) (size 15 to 20)
#    0.000    1.714    0.000    3.429    0.000   13.714 
#    0.000    7.143    0.000    0.000    0.000    0.000 
#    0.000    0.000    0.000    0.000    0.000    0.000 
#
# Total GULP energy -347349.927000 kJ/mol
# GULP energy per Si atom -12405.354536 kJ/mol
# Density = 2.126405 g / cm^3
# Si number density = 21.312553 Si / 1000 Ang^3
#
#
#
# Elastic Constant Matrix: (Units=GPa)
#
#
# Indices 1 2 3 4 5 6 
#
# 1 150.7082 5.8186 51.9530 0.0000 0.0000 0.0000
# 2 5.8186 83.7329 29.2518 0.0000 0.0000 0.0000
# 3 51.9530 29.2518 113.4462 0.0000 0.0000 0.0000
# 4 0.0000 0.0000 0.0000 -0.5625 0.0000 0.0000
# 5 0.0000 0.0000 0.0000 0.0000 24.1025 0.0000
# 6 0.0000 0.0000 0.0000 0.0000 0.0000 11.3967
#
#
#
# Elastic Compliance Matrix: (Units=1/GPa)
#
#
# Indices 1 2 3 4 5 6 
#
# 1 0.007926 0.000788 -0.003833 0.000000 0.000000 0.000000
# 2 0.000788 0.013203 -0.003765 0.000000 0.000000 0.000000
# 3 -0.003833 -0.003765 0.011541 0.000000 0.000000 0.000000
# 4 0.000000 0.000000 0.000000 -1.777914 0.000000 0.000000
# 5 0.000000 0.000000 0.000000 0.000000 0.041490 0.000000
# 6 0.000000 0.000000 0.000000 0.000000 0.000000 0.087745
#
#
# Mechanical properties :
#
#
# Convention : Reuss Voigt Hill
#
# Bulk Modulus (GPa) = 52.49300 57.99267 55.24283
# Shear Modulus (GPa) = -3.13276 24.37826 10.62275
#
# Velocity S-wave (km/s) = -1.21371 3.38575 2.23497
# Velocity P-wave (km/s) = 4.76649 6.52334 5.71286
#
# Compressibility (1/GPa) = 0.01905016
#
# Stress axis : x y z
#
# Youngs Moduli (GPa) = 126.16263 75.73798 86.64719
#
# Poissons Ratio (x) = -0.05970 0.33213
# Poissons Ratio (y) = -0.09945 0.32627
# Poissons Ratio (z) = 0.48360 0.28519
#
# Static dielectric constant tensor:
#      x y z
#    x 3.827090 0.000000 0.000000 
#    y 0.000000 3.825270 0.000000 
#    z 0.000000 0.000000 3.902630 
# 
# 
# High freq. dielectric constant tensor:
#      x y z
#    x 1.843050 0.000000 0.000000 
#    y 0.000000 1.829490 0.000000 
#    z 0.000000 0.000000 1.839870 
# 
# From -- ./inp_files/1457.got.cif
#   From: 2010.03.12/outbox.cif.g09.slc.cpg/sg29_1_cif.got.tgz:1457.got - 2010.04.14 03:43:10.
