data_PCOD8168421
_publ_section_title
;
Structure prediction by ZEFSAII (Michael W. Deem and Ramdas Pophale) SiO2 
 PCOD8168421
Probable space group: P M A 2
;
_chemical_formula_sum "Si O2"
_cell_formula_units_Z 32
_cell_length_a 9.407272
_cell_length_b 29.319519
_cell_length_c 5.379179
_cell_angle_alpha 90.000000
_cell_angle_beta 90.000000
_cell_angle_gamma 90.000000
_cell_volume 1483.667347
_symmetry_space_group_name_H-M "P M A 2"
_symmetry_group_IT_number 28
_symmetry_cell_setting 'orthorhombic'
loop_
_space_group_symop_operation_xyz
x,y,z
-x,-y,z
1/2-x,y,z
1/2+x,-y,z
loop_
_atom_site_type_symbol
_atom_site_label
_atom_site_fract_x
_atom_site_fract_y
_atom_site_fract_z
Si Si1 0.415364 0.751688 0.616430
Si Si2 0.916467 0.899563 0.122568
Si Si3 0.592827 0.680207 0.855860
Si Si4 0.592766 0.461392 0.921890
Si Si5 0.083285 0.046780 0.622758
Si Si6 0.407890 0.633589 0.203582
Si Si7 0.095881 0.409500 0.598713
Si Si8 0.085495 0.806619 0.118821
O O1 0.250000 0.737028 0.615066
O O2 0.519335 0.707617 0.628256
O O3 0.455635 0.777879 0.364121
O O4 0.452046 0.780534 0.864109
O O5 0.750000 0.889497 0.122165
O O6 0.960923 0.926533 0.372151
O O7 0.995572 0.852056 0.125009
O O8 0.961421 0.926116 0.871883
O O9 0.750000 0.701223 0.921317
O O10 0.619910 0.626017 0.822100
O O11 0.471583 0.678853 0.070369
O O12 0.500000 0.500000 0.070684
O O13 0.750000 0.480754 0.861328
O O14 0.500853 0.452949 0.670038
O O15 0.606669 0.413344 0.052730
O O16 0.250000 0.036135 0.623708
O O17 0.000000 0.000000 0.623855
O O18 0.250000 0.647210 0.298230
O O19 0.516409 0.623965 0.417420
O O20 0.250000 0.426696 0.499213
O O21 0.250000 0.820146 0.126091
#
# Coordination Sequence:
#
# PCOD8168421 Si02
#       8
#     4   4   4   4   4   4   4   4
#     4  10  22  39  58  85 117 152 196 247 296 357
#     4  10  21  37  57  82 116 153 193 243 297 350
#     4  10  22  38  57  83 112 145 187 237 290 346
#     4  10  21  37  56  80 109 144 184 227 278 337
#     4  10  21  36  56  85 117 152 196 243 293 351
#     4  10  21  37  58  82 110 146 186 228 285 348
#     4  10  21  37  57  82 112 144 183 231 282 343
#     4  10  22  39  59  85 116 154 201 244 296 358
#
# _framework density 21.568176999999999
#
# number of rings (size 3 to 8) (size 9 to 14) (size 15 to 20)
#    0.000    2.000    0.000    2.625    1.750    5.500 
#    0.000    1.250    0.000    0.000    0.000    0.000 
#    0.000    0.000    0.000    0.000    0.000    0.000 
#
# Total GULP energy -396446.460168 kJ/mol
# GULP energy per Si atom -12388.951880 kJ/mol
# Density = 2.151909 g / cm^3
# Si number density = 21.568177 Si / 1000 Ang^3
#
#
#
# Elastic Constant Matrix: (Units=GPa)
#
#
# Indices 1 2 3 4 5 6 
#
# 1 131.8643 41.3518 23.1271 0.0000 0.0000 0.0000
# 2 41.3518 87.4755 23.6778 0.0000 0.0000 0.0000
# 3 23.1271 23.6778 109.2993 0.0000 0.0000 0.0000
# 4 0.0000 0.0000 0.0000 18.0639 0.0000 0.0000
# 5 0.0000 0.0000 0.0000 0.0000 22.1521 0.0000
# 6 0.0000 0.0000 0.0000 0.0000 0.0000 38.5551
#
#
#
# Elastic Compliance Matrix: (Units=1/GPa)
#
#
# Indices 1 2 3 4 5 6 
#
# 1 0.009015 -0.003978 -0.001046 0.000000 0.000000 0.000000
# 2 -0.003978 0.013900 -0.002169 0.000000 0.000000 0.000000
# 3 -0.001046 -0.002169 0.009840 0.000000 0.000000 0.000000
# 4 0.000000 0.000000 0.000000 0.055359 0.000000 0.000000
# 5 0.000000 0.000000 0.000000 0.000000 0.045143 0.000000
# 6 0.000000 0.000000 0.000000 0.000000 0.000000 0.025937
#
#
# Mechanical properties :
#
#
# Convention : Reuss Voigt Hill
#
# Bulk Modulus (GPa) = 54.44249 56.10583 55.27416
# Shear Modulus (GPa) = 27.82383 31.78638 29.80510
#
# Velocity S-wave (km/s) = 3.59561 3.84313 3.72143
# Velocity P-wave (km/s) = 6.52187 6.76480 6.64444
#
# Compressibility (1/GPa) = 0.01836801
#
# Stress axis : x y z
#
# Youngs Moduli (GPa) = 110.93205 71.94438 101.62221
#
# Poissons Ratio (x) = 0.28622 0.10625
# Poissons Ratio (y) = 0.44133 0.22045
# Poissons Ratio (z) = 0.11599 0.15607
#
# Static dielectric constant tensor:
#      x y z
#    x 4.247760 0.000000 0.000000 
#    y 0.000000 3.717710 0.000000 
#    z 0.000000 0.000000 4.205750 
# 
# 
# High freq. dielectric constant tensor:
#      x y z
#    x 1.859920 0.000000 0.000000 
#    y 0.000000 1.841620 0.000000 
#    z 0.000000 0.000000 1.841810 
# 
# From -- ./inp_files/249.got.cif
#   From: 2010.03.12/outbox.cif.g09.slc.cpg/sg28_1_cif.got.tgz:249.got - 2010.04.14 03:39:34.
