data_PCOD8168390
_publ_section_title
;
Structure prediction by ZEFSAII (Michael W. Deem and Ramdas Pophale) SiO2 
 PCOD8168390
Probable space group: P M A 2
;
_chemical_formula_sum "Si O2"
_cell_formula_units_Z 20
_cell_length_a 16.605589
_cell_length_b 9.816940
_cell_length_c 5.204059
_cell_angle_alpha 90.000000
_cell_angle_beta 90.000000
_cell_angle_gamma 90.000000
_cell_volume 848.345251
_symmetry_space_group_name_H-M "P M A 2"
_symmetry_group_IT_number 28
_symmetry_cell_setting 'orthorhombic'
loop_
_space_group_symop_operation_xyz
x,y,z
-x,-y,z
1/2-x,y,z
1/2+x,-y,z
loop_
_atom_site_type_symbol
_atom_site_label
_atom_site_fract_x
_atom_site_fract_y
_atom_site_fract_z
Si Si1 0.339068 0.749577 0.846340
Si Si2 0.065991 0.382302 0.456498
Si Si3 0.660250 0.984590 0.106936
Si Si4 0.655300 0.683434 0.974143
Si Si5 0.423346 0.780654 0.340898
O O1 0.250000 0.684154 0.873020
O O2 0.375850 0.707711 0.574484
O O3 0.333998 0.914873 0.861029
O O4 0.395407 0.698770 0.082800
O O5 0.110298 0.378190 0.728635
O O6 0.000000 0.500000 0.452625
O O7 0.018013 0.240585 0.395393
O O8 0.131000 0.400854 0.228719
O O9 0.750000 0.967749 0.230783
O O10 0.627331 0.840029 0.012476
O O11 0.600171 0.058586 0.313305
O O12 0.750000 0.672481 0.926196
#
# Coordination Sequence:
#
# PCOD8168390 Si02
#       5
#     4   4   4   4   4
#     4   9  17  33  57  94 136 169 210 261 332 403
#     4  12  27  48  67  96 141 182 233 288 329 396
#     4   8  19  37  64  98 136 170 216 273 334 408
#     4  11  25  47  73  98 131 180 230 280 346 419
#     4  10  20  37  60  95 131 175 213 274 347 386
#
# _framework density 23.575306999999999
#
# number of rings (size 3 to 8) (size 9 to 14) (size 15 to 20)
#    1.200    0.800    0.000    3.600    2.800    0.800 
#    0.000    8.000    0.000    0.000    0.000    0.000 
#    0.000    0.000    0.000    0.000    0.000    0.000 
#
# Total GULP energy -247776.518235 kJ/mol
# GULP energy per Si atom -12388.825912 kJ/mol
# Density = 2.352165 g / cm^3
# Si number density = 23.575307 Si / 1000 Ang^3
#
#
#
# Elastic Constant Matrix: (Units=GPa)
#
#
# Indices 1 2 3 4 5 6 
#
# 1 95.0636 14.1984 46.1870 0.0000 0.0000 0.0000
# 2 14.1984 62.5330 6.8724 0.0000 0.0000 0.0000
# 3 46.1870 6.8724 173.8220 0.0000 0.0000 0.0000
# 4 0.0000 0.0000 0.0000 16.6995 0.0000 0.0000
# 5 0.0000 0.0000 0.0000 0.0000 46.2550 0.0000
# 6 0.0000 0.0000 0.0000 0.0000 0.0000 35.6613
#
#
#
# Elastic Compliance Matrix: (Units=1/GPa)
#
#
# Indices 1 2 3 4 5 6 
#
# 1 0.012448 -0.002474 -0.003210 0.000000 0.000000 0.000000
# 2 -0.002474 0.016553 0.000003 0.000000 0.000000 0.000000
# 3 -0.003210 0.000003 0.006606 0.000000 0.000000 0.000000
# 4 0.000000 0.000000 0.000000 0.059882 0.000000 0.000000
# 5 0.000000 0.000000 0.000000 0.000000 0.021619 0.000000
# 6 0.000000 0.000000 0.000000 0.000000 0.000000 0.028042
#
#
# Mechanical properties :
#
#
# Convention : Reuss Voigt Hill
#
# Bulk Modulus (GPa) = 41.24465 51.77044 46.50754
# Shear Modulus (GPa) = 30.37793 37.33389 33.85591
#
# Velocity S-wave (km/s) = 3.59353 3.98377 3.79367
# Velocity P-wave (km/s) = 5.89498 6.57022 6.24174
#
# Compressibility (1/GPa) = 0.02424557
#
# Stress axis : x y z
#
# Youngs Moduli (GPa) = 80.33252 60.41235 151.38192
#
# Poissons Ratio (x) = 0.14944 0.48592
# Poissons Ratio (y) = 0.19872 -0.00043
# Poissons Ratio (z) = 0.25786 -0.00017
#
# Static dielectric constant tensor:
#      x y z
#    x 4.299000 0.000000 0.000000 
#    y 0.000000 4.002030 0.000000 
#    z 0.000000 0.000000 4.014840 
# 
# 
# High freq. dielectric constant tensor:
#      x y z
#    x 1.936090 0.000000 0.000000 
#    y 0.000000 1.912600 0.000000 
#    z 0.000000 0.000000 1.926420 
# 
# From -- ./inp_files/708.got.cif
#   From: 2010.03.12/outbox.cif.g09.slc.cpg/sg28_1_cif.got.tgz:708.got - 2010.04.14 03:39:34.
