data_PCOD8168633
_publ_section_title
;
Structure prediction by ZEFSAII (Michael W. Deem and Ramdas Pophale) SiO2 
 PCOD8168633
Probable space group: P C A 21
;
_chemical_formula_sum "Si O2"
_cell_formula_units_Z 28
_cell_length_a 16.100953
_cell_length_b 15.175670
_cell_length_c 5.176792
_cell_angle_alpha 90.000000
_cell_angle_beta 90.000000
_cell_angle_gamma 90.000000
_cell_volume 1264.911590
_symmetry_space_group_name_H-M "P C A 21"
_symmetry_group_IT_number 29
_symmetry_cell_setting 'orthorhombic'
loop_
_space_group_symop_operation_xyz
x,y,z
-x,-y,1/2+z
1/2-x,y,1/2+z
1/2+x,-y,z
loop_
_atom_site_type_symbol
_atom_site_label
_atom_site_fract_x
_atom_site_fract_y
_atom_site_fract_z
Si Si1 0.283687 0.962545 0.958090
Si Si2 0.547841 0.755326 0.987008
Si Si3 0.446125 0.507659 0.571189
Si Si4 0.957750 0.300387 0.481031
Si Si5 0.023141 0.948895 0.540082
Si Si6 0.787749 0.228429 0.434845
Si Si7 0.305831 0.360932 0.547178
O O1 0.258995 0.015917 0.695827
O O2 0.235733 0.872531 0.888769
O O3 0.379963 0.939600 0.980655
O O4 0.523414 0.725020 0.700344
O O5 0.645599 0.732771 0.019200
O O6 0.501499 0.696275 0.202048
O O7 0.527013 0.857450 0.029311
O O8 0.519751 0.497185 0.362473
O O9 0.412442 0.606995 0.533805
O O10 0.371868 0.440078 0.519173
O O11 0.886044 0.227229 0.479415
O O12 0.984585 0.013870 0.328414
O O13 0.738441 0.276358 0.668030
O O14 0.262677 0.367812 0.824566
#
# Coordination Sequence:
#
# PCOD8168633 Si02
#       7
#     4   4   4   4   4   4   4
#     4  10  19  38  62  92 129 164 203 272 351 402
#     4  12  24  45  71  97 132 186 233 288 340 425
#     4  12  23  44  68 104 143 185 231 283 344 410
#     4  12  22  40  73 101 136 180 231 271 349 434
#     4  12  26  45  69 103 136 179 236 289 355 430
#     4  10  20  33  56  94 131 161 206 263 331 402
#     4  12  26  45  69 101 143 189 240 290 338 399
#
# _framework density 22.135936000000001
#
# number of rings (size 3 to 8) (size 9 to 14) (size 15 to 20)
#    0.000    0.571    2.857    7.714    0.000    1.143 
#    0.000    4.286    0.000    0.000    0.000    0.000 
#    0.000    0.000    0.000    0.000    0.000    0.000 
#
# Total GULP energy -347124.943074 kJ/mol
# GULP energy per Si atom -12397.319395 kJ/mol
# Density = 2.208555 g / cm^3
# Si number density = 22.135936 Si / 1000 Ang^3
#
#
#
# Elastic Constant Matrix: (Units=GPa)
#
#
# Indices 1 2 3 4 5 6 
#
# 1 89.2872 2.3898 28.5241 0.0000 0.0000 0.0000
# 2 2.3898 59.9503 15.7999 0.0000 0.0000 0.0000
# 3 28.5241 15.7999 118.1205 0.0000 0.0000 0.0000
# 4 0.0000 0.0000 0.0000 25.0378 0.0000 0.0000
# 5 0.0000 0.0000 0.0000 0.0000 48.5803 0.0000
# 6 0.0000 0.0000 0.0000 0.0000 0.0000 27.2256
#
#
#
# Elastic Compliance Matrix: (Units=1/GPa)
#
#
# Indices 1 2 3 4 5 6 
#
# 1 0.012141 0.000299 -0.002972 0.000000 0.000000 0.000000
# 2 0.000299 0.017297 -0.002386 0.000000 0.000000 0.000000
# 3 -0.002972 -0.002386 0.009503 0.000000 0.000000 0.000000
# 4 0.000000 0.000000 0.000000 0.039940 0.000000 0.000000
# 5 0.000000 0.000000 0.000000 0.000000 0.020584 0.000000
# 6 0.000000 0.000000 0.000000 0.000000 0.000000 0.036730
#
#
# Mechanical properties :
#
#
# Convention : Reuss Voigt Hill
#
# Bulk Modulus (GPa) = 34.69322 40.08727 37.39025
# Shear Modulus (GPa) = 32.06754 34.87835 33.47294
#
# Velocity S-wave (km/s) = 3.81026 3.97374 3.89286
# Velocity P-wave (km/s) = 5.92151 6.26124 6.09374
#
# Compressibility (1/GPa) = 0.02882408
#
# Stress axis : x y z
#
# Youngs Moduli (GPa) = 82.36398 57.81222 105.23264
#
# Poissons Ratio (x) = -0.01730 0.31274
# Poissons Ratio (y) = -0.02465 0.25108
# Poissons Ratio (z) = 0.24478 0.13794
#
# Static dielectric constant tensor:
#      x y z
#    x 4.048450 0.000000 0.000000 
#    y 0.000000 3.894660 0.000000 
#    z 0.000000 0.000000 6.010960 
# 
# 
# High freq. dielectric constant tensor:
#      x y z
#    x 1.868650 0.000000 0.000000 
#    y 0.000000 1.845520 0.000000 
#    z 0.000000 0.000000 1.908730 
# 
# From -- ./inp_files/235.got.cif
#   From: 2010.03.12/outbox.cif.g09.slc.cpg/sg29_1_cif.got.tgz:235.got - 2010.04.14 03:43:10.
