data_PCOD8168196
_publ_section_title
;
Structure prediction by ZEFSAII (Michael W. Deem and Ramdas Pophale) SiO2 
 PCOD8168196
Probable space group: P M A 2
;
_chemical_formula_sum "Si O2"
_cell_formula_units_Z 32
_cell_length_a 8.943133
_cell_length_b 14.517052
_cell_length_c 12.265000
_cell_angle_alpha 90.000000
_cell_angle_beta 90.000000
_cell_angle_gamma 90.000000
_cell_volume 1592.339522
_symmetry_space_group_name_H-M "P M A 2"
_symmetry_group_IT_number 28
_symmetry_cell_setting 'orthorhombic'
loop_
_space_group_symop_operation_xyz
x,y,z
-x,-y,z
1/2-x,y,z
1/2+x,-y,z
loop_
_atom_site_type_symbol
_atom_site_label
_atom_site_fract_x
_atom_site_fract_y
_atom_site_fract_z
Si Si1 0.072666 0.590620 0.710220
Si Si2 0.920018 0.217874 0.615943
Si Si3 0.425738 0.100257 0.434582
Si Si4 0.071364 0.592782 0.164588
Si Si5 0.426994 0.223767 0.230071
Si Si6 0.084599 0.161675 0.997505
Si Si7 0.582660 0.084661 0.806827
Si Si8 0.919336 0.632028 0.937613
O O1 0.250000 0.581824 0.723521
O O2 0.032653 0.675607 0.629811
O O3 0.000000 0.500000 0.654574
O O4 0.999623 0.598825 0.828843
O O5 0.750000 0.208283 0.572941
O O6 0.935313 0.176531 0.736838
O O7 0.028591 0.163195 0.536281
O O8 0.250000 0.084228 0.438249
O O9 0.474907 0.156941 0.327851
O O10 0.500000 0.000000 0.436888
O O11 0.250000 0.589403 0.168884
O O12 0.000000 0.500000 0.216331
O O13 0.013484 0.679029 0.236858
O O14 0.015376 0.598413 0.040260
O O15 0.250000 0.244872 0.227719
O O16 0.477575 0.171773 0.119999
O O17 0.250000 0.118286 0.999983
O O18 0.088158 0.258637 0.936323
O O19 0.978004 0.095763 0.929215
O O20 0.750000 0.052272 0.818251
O O21 0.500000 0.000000 0.746866
O O22 0.750000 0.591632 0.944257
#
# Coordination Sequence:
#
# PCOD8168196 Si02
#       8
#     4   4   4   4   4   4   4   4
#     4  11  22  37  57  86 121 158 201 247 296 356
#     4  10  23  42  62  86 120 155 199 254 298 353
#     4  11  24  43  69  93 118 152 199 252 304 363
#     4  11  21  34  56  86 122 164 205 247 295 352
#     4   9  21  41  61  88 121 154 198 250 300 354
#     4   9  18  34  56  82 117 155 191 237 292 349
#     4  11  22  36  55  83 117 153 193 239 294 356
#     4  10  19  33  54  82 119 162 203 245 290 348
#
# _framework density 20.096215999999998
#
# number of rings (size 3 to 8) (size 9 to 14) (size 15 to 20)
#    0.000    1.750    1.250    4.125    0.000    6.500 
#    0.000    1.875    0.000    1.500    0.000    0.000 
#    0.000    0.000    0.000    0.000    0.000    0.000 
#
# Total GULP energy -396770.689789 kJ/mol
# GULP energy per Si atom -12399.084056 kJ/mol
# Density = 2.005048 g / cm^3
# Si number density = 20.096216 Si / 1000 Ang^3
#
#
#
# Elastic Constant Matrix: (Units=GPa)
#
#
# Indices 1 2 3 4 5 6 
#
# 1 123.9192 66.4976 44.6301 0.0000 0.0000 0.0000
# 2 66.4976 142.4171 54.1621 0.0000 0.0000 0.0000
# 3 44.6301 54.1621 82.4925 0.0000 0.0000 0.0000
# 4 0.0000 0.0000 0.0000 23.4477 0.0000 0.0000
# 5 0.0000 0.0000 0.0000 0.0000 23.2761 0.0000
# 6 0.0000 0.0000 0.0000 0.0000 0.0000 34.9431
#
#
#
# Elastic Compliance Matrix: (Units=1/GPa)
#
#
# Indices 1 2 3 4 5 6 
#
# 1 0.011517 -0.004009 -0.003599 0.000000 0.000000 0.000000
# 2 -0.004009 0.010754 -0.004892 0.000000 0.000000 0.000000
# 3 -0.003599 -0.004892 0.017281 0.000000 0.000000 0.000000
# 4 0.000000 0.000000 0.000000 0.042648 0.000000 0.000000
# 5 0.000000 0.000000 0.000000 0.000000 0.042963 0.000000
# 6 0.000000 0.000000 0.000000 0.000000 0.000000 0.028618
#
#
# Mechanical properties :
#
#
# Convention : Reuss Voigt Hill
#
# Bulk Modulus (GPa) = 68.71402 75.48982 72.10192
# Shear Modulus (GPa) = 27.22851 28.56930 27.89890
#
# Velocity S-wave (km/s) = 3.68490 3.77454 3.72999
# Velocity P-wave (km/s) = 7.23681 7.52608 7.38286
#
# Compressibility (1/GPa) = 0.01455307
#
# Stress axis : x y z
#
# Youngs Moduli (GPa) = 86.82651 92.98987 57.86653
#
# Poissons Ratio (x) = 0.37279 0.20825
# Poissons Ratio (y) = 0.34808 0.28307
# Poissons Ratio (z) = 0.31248 0.45488
#
# Static dielectric constant tensor:
#      x y z
#    x 3.700830 0.000000 0.000000 
#    y 0.000000 3.883840 0.000000 
#    z 0.000000 0.000000 3.424290 
# 
# 
# High freq. dielectric constant tensor:
#      x y z
#    x 1.790260 0.000000 0.000000 
#    y 0.000000 1.798370 0.000000 
#    z 0.000000 0.000000 1.759220 
# 
# From -- ./inp_files/4979.got.cif
#   From: 2010.03.12/outbox.cif.g09.slc.cpg/sg28_3_cif.got.tgz:4979.got - 2010.04.14 03:39:34.
