data_PCOD8168634
_publ_section_title
;
Structure prediction by ZEFSAII (Michael W. Deem and Ramdas Pophale) SiO2 
 PCOD8168634
Probable space group: P C A 21
;
_chemical_formula_sum "Si O2"
_cell_formula_units_Z 32
_cell_length_a 13.733779
_cell_length_b 20.590494
_cell_length_c 5.178692
_cell_angle_alpha 90.000000
_cell_angle_beta 90.000000
_cell_angle_gamma 90.000000
_cell_volume 1464.457940
_symmetry_space_group_name_H-M "P C A 21"
_symmetry_group_IT_number 29
_symmetry_cell_setting 'orthorhombic'
loop_
_space_group_symop_operation_xyz
x,y,z
-x,-y,1/2+z
1/2-x,y,1/2+z
1/2+x,-y,z
loop_
_atom_site_type_symbol
_atom_site_label
_atom_site_fract_x
_atom_site_fract_y
_atom_site_fract_z
Si Si1 0.815379 0.372972 0.254100
Si Si2 0.190452 0.129546 0.823874
Si Si3 0.132792 0.338276 0.321839
Si Si4 0.309820 0.900135 0.197091
Si Si5 0.151675 0.281726 0.822395
Si Si6 0.002001 0.458407 0.340577
Si Si7 0.945357 0.986052 0.347768
Si Si8 0.810811 0.232246 0.334515
O O1 0.738319 0.384651 0.482914
O O2 0.863081 0.300683 0.275287
O O3 0.905117 0.420780 0.266124
O O4 0.234995 0.110219 0.548965
O O5 0.171111 0.205853 0.843326
O O6 0.092152 0.088121 0.859417
O O7 0.090071 0.298744 0.566964
O O8 0.249515 0.325605 0.310030
O O9 0.099164 0.413231 0.337627
O O10 0.087924 0.305461 0.065040
O O11 0.219772 0.898685 0.397319
O O12 0.371896 0.833603 0.262096
O O13 0.365049 0.966377 0.236383
O O14 0.985796 0.485820 0.627424
O O15 0.968529 0.009800 0.637759
O O16 0.781715 0.229880 0.635949
#
# Coordination Sequence:
#
# PCOD8168634 Si02
#       8
#     4   4   4   4   4   4   4   4
#     4  10  21  43  65  90 122 169 216 256 312 386
#     4  12  21  41  70  95 128 177 229 276 329 408
#     4  10  20  40  64  93 136 156 216 276 328 396
#     4  10  19  38  63  86 111 160 213 250 313 372
#     4  10  19  40  66  99 125 169 222 274 338 400
#     4  12  26  45  63  99 139 170 214 271 333 402
#     4  12  26  41  55  91 139 171 212 272 327 393
#     4   8  16  32  60  83 106 140 200 255 284 353
#
# _framework density 21.851087
#
# number of rings (size 3 to 8) (size 9 to 14) (size 15 to 20)
#    0.000    1.500    2.500    3.750    0.000    0.000 
#   18.000    0.000    0.000    0.000    0.000    0.000 
#    0.000    0.000    0.000    0.000    0.000    0.000 
#
# Total GULP energy -396451.991658 kJ/mol
# GULP energy per Si atom -12389.124739 kJ/mol
# Density = 2.180135 g / cm^3
# Si number density = 21.851087 Si / 1000 Ang^3
#
#
#
# Elastic Constant Matrix: (Units=GPa)
#
#
# Indices 1 2 3 4 5 6 
#
# 1 41.3898 43.0294 2.9705 0.0000 0.0000 0.0000
# 2 43.0294 120.2649 17.6736 0.0000 0.0000 0.0000
# 3 2.9705 17.6736 134.5187 0.0000 0.0000 0.0000
# 4 0.0000 0.0000 0.0000 34.8464 0.0000 0.0000
# 5 0.0000 0.0000 0.0000 0.0000 29.1890 0.0000
# 6 0.0000 0.0000 0.0000 0.0000 0.0000 19.7317
#
#
#
# Elastic Compliance Matrix: (Units=1/GPa)
#
#
# Indices 1 2 3 4 5 6 
#
# 1 0.038596 -0.013954 0.000981 0.000000 0.000000 0.000000
# 2 -0.013954 0.013523 -0.001469 0.000000 0.000000 0.000000
# 3 0.000981 -0.001469 0.007605 0.000000 0.000000 0.000000
# 4 0.000000 0.000000 0.000000 0.028697 0.000000 0.000000
# 5 0.000000 0.000000 0.000000 0.000000 0.034259 0.000000
# 6 0.000000 0.000000 0.000000 0.000000 0.000000 0.050680
#
#
# Mechanical properties :
#
#
# Convention : Reuss Voigt Hill
#
# Bulk Modulus (GPa) = 32.42280 47.05783 39.74032
# Shear Modulus (GPa) = 23.52667 32.25342 27.89005
#
# Velocity S-wave (km/s) = 3.28484 3.84611 3.57651
# Velocity P-wave (km/s) = 5.40899 6.42697 5.93983
#
# Compressibility (1/GPa) = 0.03084249
#
# Stress axis : x y z
#
# Youngs Moduli (GPa) = 25.90914 73.94696 131.48903
#
# Poissons Ratio (x) = 1.03182 -0.12898
# Poissons Ratio (y) = 0.36152 0.19310
# Poissons Ratio (z) = -0.02542 0.10860
#
# Static dielectric constant tensor:
#      x y z
#    x 3.419630 0.000000 0.000000 
#    y 0.000000 4.267710 0.000000 
#    z 0.000000 0.000000 5.251040 
# 
# 
# High freq. dielectric constant tensor:
#      x y z
#    x 1.800490 0.000000 0.000000 
#    y 0.000000 1.875560 0.000000 
#    z 0.000000 0.000000 1.897570 
# 
# From -- ./inp_files/275.got.cif
#   From: 2010.03.12/outbox.cif.g09.slc.cpg/sg29_1_cif.got.tgz:275.got - 2010.04.14 03:43:10.
