data_PCOD8168773
_publ_section_title
;
Structure prediction by ZEFSAII (Michael W. Deem and Ramdas Pophale) SiO2 
 PCOD8168773
Probable space group: P C A 21
;
_chemical_formula_sum "Si O2"
_cell_formula_units_Z 32
_cell_length_a 9.858574
_cell_length_b 19.286629
_cell_length_c 8.453763
_cell_angle_alpha 90.000000
_cell_angle_beta 90.000000
_cell_angle_gamma 90.000000
_cell_volume 1607.387162
_symmetry_space_group_name_H-M "P C A 21"
_symmetry_group_IT_number 29
_symmetry_cell_setting 'orthorhombic'
loop_
_space_group_symop_operation_xyz
x,y,z
-x,-y,1/2+z
1/2-x,y,1/2+z
1/2+x,-y,z
loop_
_atom_site_type_symbol
_atom_site_label
_atom_site_fract_x
_atom_site_fract_y
_atom_site_fract_z
Si Si1 0.913642 0.439014 0.460500
Si Si2 0.081774 0.056422 0.879188
Si Si3 0.626832 0.459550 0.329660
Si Si4 0.089314 0.687940 0.464704
Si Si5 0.590472 0.806356 0.461170
Si Si6 0.873046 0.291833 0.333664
Si Si7 0.623263 0.787641 0.825532
Si Si8 0.136975 0.037740 0.519938
O O1 0.786266 0.469147 0.362933
O O2 0.894840 0.453857 0.643979
O O3 0.927356 0.356619 0.435720
O O4 0.049858 0.473809 0.396604
O O5 0.067322 0.139139 0.888961
O O6 0.115095 0.030842 0.704886
O O7 0.202508 0.030324 0.992306
O O8 0.940150 0.024464 0.933842
O O9 0.570094 0.391971 0.418434
O O10 0.113904 0.691517 0.650307
O O11 0.215503 0.722134 0.371871
O O12 0.953365 0.727610 0.418616
O O13 0.455756 0.776608 0.380372
O O14 0.601855 0.779366 0.639411
O O15 0.717798 0.779694 0.360285
O O16 0.581386 0.889474 0.452478
#
# Coordination Sequence:
#
# PCOD8168773 Si02
#       8
#     4   4   4   4   4   4   4   4
#     4  11  22  39  60  85 115 148 186 230 277 329
#     4  10  21  37  58  82 112 146 185 229 278 330
#     4  11  22  39  60  85 115 148 186 230 277 329
#     4  11  22  38  59  84 113 148 186 229 277 329
#     4  10  21  38  58  83 112 146 185 230 278 330
#     4  11  22  38  59  84 113 148 186 229 277 329
#     4  10  21  38  58  83 112 146 185 230 278 330
#     4  10  21  37  58  82 112 146 185 229 278 330
#
# _framework density 19.908083999999999
#
# number of rings (size 3 to 8) (size 9 to 14) (size 15 to 20)
#    0.000    1.500    0.000    7.500    0.000    5.000 
#    0.000    5.000    0.000    0.000    0.000    0.000 
#    0.000    0.000    0.000    0.000    0.000    0.000 
#
# Total GULP energy -397011.032951 kJ/mol
# GULP energy per Si atom -12406.594780 kJ/mol
# Density = 1.986277 g / cm^3
# Si number density = 19.908084 Si / 1000 Ang^3
#
#
#
# Elastic Constant Matrix: (Units=GPa)
#
#
# Indices 1 2 3 4 5 6 
#
# 1 42.4991 18.4634 -3.8520 0.0000 0.0000 0.0000
# 2 18.4634 45.7659 -1.3800 0.0000 0.0000 0.0000
# 3 -3.8520 -1.3800 85.0941 0.0000 0.0000 0.0000
# 4 0.0000 0.0000 0.0000 31.9316 0.0000 0.0000
# 5 0.0000 0.0000 0.0000 0.0000 32.9167 0.0000
# 6 0.0000 0.0000 0.0000 0.0000 0.0000 42.2087
#
#
#
# Elastic Compliance Matrix: (Units=1/GPa)
#
#
# Indices 1 2 3 4 5 6 
#
# 1 0.028635 -0.011519 0.001109 0.000000 0.000000 0.000000
# 2 -0.011519 0.026495 -0.000092 0.000000 0.000000 0.000000
# 3 0.001109 -0.000092 0.011800 0.000000 0.000000 0.000000
# 4 0.000000 0.000000 0.000000 0.031317 0.000000 0.000000
# 5 0.000000 0.000000 0.000000 0.000000 0.030380 0.000000
# 6 0.000000 0.000000 0.000000 0.000000 0.000000 0.023692
#
#
# Mechanical properties :
#
#
# Convention : Reuss Voigt Hill
#
# Bulk Modulus (GPa) = 21.77336 22.20241 21.98789
# Shear Modulus (GPa) = 26.50699 32.08658 29.29679
#
# Velocity S-wave (km/s) = 3.65289 4.01900 3.84031
# Velocity P-wave (km/s) = 5.36210 5.71954 5.54370
#
# Compressibility (1/GPa) = 0.04592768
#
# Stress axis : x y z
#
# Youngs Moduli (GPa) = 34.92265 37.74353 84.74265
#
# Poissons Ratio (x) = 0.43476 -0.09402
# Poissons Ratio (y) = 0.40226 0.00777
# Poissons Ratio (z) = -0.03874 0.00346
#
# Static dielectric constant tensor:
#      x y z
#    x 3.751630 0.000000 0.000000 
#    y 0.000000 3.579830 0.000000 
#    z 0.000000 0.000000 3.737350 
# 
# 
# High freq. dielectric constant tensor:
#      x y z
#    x 1.776560 0.000000 0.000000 
#    y 0.000000 1.770100 0.000000 
#    z 0.000000 0.000000 1.797140 
# 
# From -- ./inp_files/1277.got.cif
#   From: 2010.03.12/outbox.cif.g09.slc.cpg/sg29_1_cif.got.tgz:1277.got - 2010.04.14 03:43:10.
