data_PCOD8168567
_publ_section_title
;
Structure prediction by ZEFSAII (Michael W. Deem and Ramdas Pophale) SiO2 
 PCOD8168567
Probable space group: P C A 21
;
_chemical_formula_sum "Si O2"
_cell_formula_units_Z 24
_cell_length_a 9.187049
_cell_length_b 13.740593
_cell_length_c 9.493893
_cell_angle_alpha 90.000000
_cell_angle_beta 90.000000
_cell_angle_gamma 90.000000
_cell_volume 1198.466341
_symmetry_space_group_name_H-M "P C A 21"
_symmetry_group_IT_number 29
_symmetry_cell_setting 'orthorhombic'
loop_
_space_group_symop_operation_xyz
x,y,z
-x,-y,1/2+z
1/2-x,y,1/2+z
1/2+x,-y,z
loop_
_atom_site_type_symbol
_atom_site_label
_atom_site_fract_x
_atom_site_fract_y
_atom_site_fract_z
Si Si1 0.095346 0.778817 0.366950
Si Si2 0.639869 0.071922 0.129835
Si Si3 0.971335 0.121607 0.126293
Si Si4 0.119870 0.571392 0.281898
Si Si5 0.084208 0.569683 0.954449
Si Si6 0.575997 0.219901 0.912507
O O1 0.100415 0.874334 0.272540
O O2 0.988700 0.807776 0.495325
O O3 0.048338 0.680219 0.287211
O O4 0.253331 0.758716 0.431422
O O5 0.813109 0.072578 0.104116
O O6 0.593491 0.960263 0.139966
O O7 0.543977 0.126981 0.011069
O O8 0.976545 0.193254 0.257949
O O9 0.280662 0.570192 0.346675
O O10 0.028125 0.503967 0.385222
O O11 0.122583 0.538907 0.116657
O O12 0.006322 0.676678 0.957511
#
# Coordination Sequence:
#
# PCOD8168567 Si02
#       6
#     4   4   4   4   4   4
#     4   9  19  34  57  80 109 148 195 230 281 350
#     4  10  18  36  51  82 108 146 189 234 281 340
#     4  10  20  32  57  78 110 146 189 236 283 342
#     4  11  23  40  64  90 120 155 200 248 299 357
#     4  11  23  40  64  90 120 155 200 248 299 357
#     4   9  19  34  57  80 109 148 195 230 281 350
#
# _framework density 20.025590999999999
#
# number of rings (size 3 to 8) (size 9 to 14) (size 15 to 20)
#    0.000    2.000    1.667    2.000    9.333    0.000 
#    0.000    3.333    0.000    0.000    0.000    0.000 
#    0.000    0.000    0.000    0.000    0.000    0.000 
#
# Total GULP energy -297406.512009 kJ/mol
# GULP energy per Si atom -12391.938000 kJ/mol
# Density = 1.998001 g / cm^3
# Si number density = 20.025591 Si / 1000 Ang^3
#
#
#
# Elastic Constant Matrix: (Units=GPa)
#
#
# Indices 1 2 3 4 5 6 
#
# 1 29.5410 18.2893 10.5348 0.0000 0.0000 0.0000
# 2 18.2893 84.0750 5.6813 0.0000 0.0000 0.0000
# 3 10.5348 5.6813 93.9022 0.0000 0.0000 0.0000
# 4 0.0000 0.0000 0.0000 32.7825 0.0000 0.0000
# 5 0.0000 0.0000 0.0000 0.0000 21.2680 0.0000
# 6 0.0000 0.0000 0.0000 0.0000 0.0000 20.6517
#
#
#
# Elastic Compliance Matrix: (Units=1/GPa)
#
#
# Indices 1 2 3 4 5 6 
#
# 1 0.040588 -0.008557 -0.004036 0.000000 0.000000 0.000000
# 2 -0.008557 0.013747 0.000128 0.000000 0.000000 0.000000
# 3 -0.004036 0.000128 0.011094 0.000000 0.000000 0.000000
# 4 0.000000 0.000000 0.000000 0.030504 0.000000 0.000000
# 5 0.000000 0.000000 0.000000 0.000000 0.047019 0.000000
# 6 0.000000 0.000000 0.000000 0.000000 0.000000 0.048422
#
#
# Mechanical properties :
#
#
# Convention : Reuss Voigt Hill
#
# Bulk Modulus (GPa) = 24.69083 30.72546 27.70814
# Shear Modulus (GPa) = 21.75773 26.47462 24.11618
#
# Velocity S-wave (km/s) = 3.29978 3.63993 3.47402
# Velocity P-wave (km/s) = 5.18406 5.74821 5.47341
#
# Compressibility (1/GPa) = 0.04050087
#
# Stress axis : x y z
#
# Youngs Moduli (GPa) = 24.63775 72.74394 90.13562
#
# Poissons Ratio (x) = 0.62244 0.36377
# Poissons Ratio (y) = 0.21082 -0.01156
# Poissons Ratio (z) = 0.09943 -0.00933
#
# Static dielectric constant tensor:
#      x y z
#    x 3.241360 0.000000 0.000000 
#    y 0.000000 3.914550 0.000000 
#    z 0.000000 0.000000 3.806510 
# 
# 
# High freq. dielectric constant tensor:
#      x y z
#    x 1.725430 0.000000 0.000000 
#    y 0.000000 1.792300 0.000000 
#    z 0.000000 0.000000 1.802840 
# 
# From -- ./inp_files/1163.got.cif
#   From: 2010.03.12/outbox.cif.g09.slc.cpg/sg29_1_cif.got.tgz:1163.got - 2010.04.14 03:43:10.
