data_PCOD8168030
_publ_section_title
;
Structure prediction by ZEFSAII (Michael W. Deem and Ramdas Pophale) SiO2 
 PCOD8168030
Probable space group: P M A 2
;
_chemical_formula_sum "Si O2"
_cell_formula_units_Z 32
_cell_length_a 8.648123
_cell_length_b 14.271687
_cell_length_c 15.541898
_cell_angle_alpha 90.000000
_cell_angle_beta 90.000000
_cell_angle_gamma 90.000000
_cell_volume 1918.232411
_symmetry_space_group_name_H-M "P M A 2"
_symmetry_group_IT_number 28
_symmetry_cell_setting 'orthorhombic'
loop_
_space_group_symop_operation_xyz
x,y,z
-x,-y,z
1/2-x,y,z
1/2+x,-y,z
loop_
_atom_site_type_symbol
_atom_site_label
_atom_site_fract_x
_atom_site_fract_y
_atom_site_fract_z
Si Si1 0.432710 0.207236 0.380820
Si Si2 0.568283 0.595731 0.648394
Si Si3 0.567448 0.103156 0.221697
Si Si4 0.930789 0.220367 0.708825
Si Si5 0.432927 0.898445 0.542088
Si Si6 0.567871 0.596134 0.453979
Si Si7 0.433662 0.103935 0.046683
Si Si8 0.933230 0.103117 0.873024
O O1 0.250000 0.197743 0.366482
O O2 0.523263 0.173411 0.297341
O O3 0.480783 0.143409 0.460376
O O4 0.483594 0.314783 0.397373
O O5 0.500000 0.500000 0.687194
O O6 0.750000 0.588850 0.648703
O O7 0.515728 0.680365 0.708691
O O8 0.504353 0.610737 0.551099
O O9 0.750000 0.093711 0.213516
O O10 0.498448 0.149837 0.134384
O O11 0.500000 0.000000 0.240287
O O12 0.750000 0.238979 0.712187
O O13 0.977485 0.162751 0.624530
O O14 0.987589 0.165197 0.792824
O O15 0.250000 0.902229 0.525405
O O16 0.500000 0.000000 0.560625
O O17 0.500000 0.500000 0.414022
O O18 0.750000 0.587180 0.455236
O O19 0.250000 0.105015 0.047305
O O20 0.500000 0.000000 0.045614
O O21 0.497909 0.152119 0.959560
O O22 0.750000 0.096268 0.880546
O O23 0.000000 0.000000 0.858950
#
# Coordination Sequence:
#
# PCOD8168030 Si02
#       8
#     4   4   4   4   4   4   4   4
#     4  11  21  35  50  71  99 130 167 204 245 293
#     4  10  19  33  52  73  96 127 164 208 254 295
#     4  11  21  34  51  73  99 132 167 205 248 292
#     4  10  21  34  49  71  99 132 169 206 246 292
#     4  11  22  34  47  66  96 135 171 204 239 285
#     4   9  19  33  51  72  95 125 161 205 250 291
#     4  10  18  31  50  72  97 128 163 205 249 292
#     4  10  19  32  49  72 101 133 168 207 247 292
#
# _framework density 16.682024999999999
#
# number of rings (size 3 to 8) (size 9 to 14) (size 15 to 20)
#    0.000    1.750    1.250    6.000    0.000    3.000 
#    0.000    0.000    0.000    0.000    0.000    0.875 
#    0.000    2.000    0.000    0.000    0.000    0.000 
#
# Total GULP energy -396816.988188 kJ/mol
# GULP energy per Si atom -12400.530881 kJ/mol
# Density = 1.664406 g / cm^3
# Si number density = 16.682025 Si / 1000 Ang^3
#
#
#
# Elastic Constant Matrix: (Units=GPa)
#
#
# Indices 1 2 3 4 5 6 
#
# 1 78.6675 33.8077 39.5839 0.0000 0.0000 0.0000
# 2 33.8077 106.1032 48.6447 0.0000 0.0000 0.0000
# 3 39.5839 48.6447 121.7880 0.0000 0.0000 0.0000
# 4 0.0000 0.0000 0.0000 13.0602 0.0000 0.0000
# 5 0.0000 0.0000 0.0000 0.0000 22.2913 0.0000
# 6 0.0000 0.0000 0.0000 0.0000 0.0000 28.0402
#
#
#
# Elastic Compliance Matrix: (Units=1/GPa)
#
#
# Indices 1 2 3 4 5 6 
#
# 1 0.016112 -0.003346 -0.003901 0.000000 0.000000 0.000000
# 2 -0.003346 0.012232 -0.003798 0.000000 0.000000 0.000000
# 3 -0.003901 -0.003798 0.010996 0.000000 0.000000 0.000000
# 4 0.000000 0.000000 0.000000 0.076569 0.000000 0.000000
# 5 0.000000 0.000000 0.000000 0.000000 0.044860 0.000000
# 6 0.000000 0.000000 0.000000 0.000000 0.000000 0.035663
#
#
# Mechanical properties :
#
#
# Convention : Reuss Voigt Hill
#
# Bulk Modulus (GPa) = 57.96675 61.18127 59.57401
# Shear Modulus (GPa) = 22.29436 24.97985 23.63710
#
# Velocity S-wave (km/s) = 3.65969 3.87384 3.76828
# Velocity P-wave (km/s) = 7.25818 7.53415 7.39745
#
# Compressibility (1/GPa) = 0.01725127
#
# Stress axis : x y z
#
# Youngs Moduli (GPa) = 62.06490 81.75125 90.94268
#
# Poissons Ratio (x) = 0.27350 0.35473
# Poissons Ratio (y) = 0.20764 0.34544
# Poissons Ratio (z) = 0.24209 0.31053
#
# Static dielectric constant tensor:
#      x y z
#    x 3.203550 0.000000 0.000000 
#    y 0.000000 3.041110 0.000000 
#    z 0.000000 0.000000 3.604690 
# 
# 
# High freq. dielectric constant tensor:
#      x y z
#    x 1.658210 0.000000 0.000000 
#    y 0.000000 1.620710 0.000000 
#    z 0.000000 0.000000 1.636630 
# 
# From -- ./inp_files/6450.got.cif
#   From: 2010.03.12/outbox.cif.g09.slc.cpg/sg28_4_cif.got.tgz:6450.got - 2010.04.14 03:39:34.
