data_PCOD8168006
_publ_section_title
;
Structure prediction by ZEFSAII (Michael W. Deem and Ramdas Pophale) SiO2 
 PCOD8168006
Probable space group: P M A 2
;
_chemical_formula_sum "Si O2"
_cell_formula_units_Z 28
_cell_length_a 20.622757
_cell_length_b 5.240105
_cell_length_c 14.257271
_cell_angle_alpha 90.000000
_cell_angle_beta 90.000000
_cell_angle_gamma 90.000000
_cell_volume 1540.717866
_symmetry_space_group_name_H-M "P M A 2"
_symmetry_group_IT_number 28
_symmetry_cell_setting 'orthorhombic'
loop_
_space_group_symop_operation_xyz
x,y,z
-x,-y,z
1/2-x,y,z
1/2+x,-y,z
loop_
_atom_site_type_symbol
_atom_site_label
_atom_site_fract_x
_atom_site_fract_y
_atom_site_fract_z
Si Si1 0.176716 0.315273 0.870490
Si Si2 0.173546 0.491474 0.072332
Si Si3 0.327374 0.996262 0.387360
Si Si4 0.672577 0.008608 0.174598
Si Si5 0.173474 0.497464 0.490605
Si Si6 0.879246 0.466499 0.696964
Si Si7 0.428954 0.044680 0.772131
O O1 0.250000 0.206086 0.881874
O O2 0.173593 0.505489 0.781164
O O3 0.125765 0.081187 0.853658
O O4 0.155289 0.471447 0.962699
O O5 0.250000 0.497414 0.086181
O O6 0.144924 0.245999 0.126118
O O7 0.144113 0.748569 0.117608
O O8 0.250000 0.998638 0.389472
O O9 0.352965 0.986953 0.280998
O O10 0.355183 0.747755 0.440131
O O11 0.355194 0.246713 0.439656
O O12 0.750000 0.012249 0.171981
O O13 0.250000 0.495473 0.480385
O O14 0.156120 0.502141 0.599060
O O15 0.912155 0.190923 0.704355
O O16 0.931269 0.697186 0.708833
O O17 0.500000 0.000000 0.817340
#
# Coordination Sequence:
#
# PCOD8168006 Si02
#       7
#     4   4   4   4   4   4   4
#     4   9  21  33  52  79 109 142 175 217 264 317
#     4   9  17  27  42  65  96 131 172 206 251 308
#     4   9  17  27  42  63  97 137 172 207 254 309
#     4   9  16  27  41  61  94 137 171 204 249 308
#     4  10  18  29  45  71 101 134 172 209 256 312
#     4  10  21  34  53  72 104 137 173 217 260 311
#     4  10  22  38  55  73 105 147 179 220 258 311
#
# _framework density 18.173348000000001
#
# number of rings (size 3 to 8) (size 9 to 14) (size 15 to 20)
#    0.857    1.714    0.000    2.571    2.000    4.571 
#    0.000    0.000    0.000    0.000    0.000    0.000 
#    0.000   17.143    0.000    0.000    0.000    0.000 
#
# Total GULP energy -346965.362599 kJ/mol
# GULP energy per Si atom -12391.620093 kJ/mol
# Density = 1.813198 g / cm^3
# Si number density = 18.173348 Si / 1000 Ang^3
#
#
#
# Elastic Constant Matrix: (Units=GPa)
#
#
# Indices 1 2 3 4 5 6 
#
# 1 34.2177 16.3041 10.5886 0.0000 0.0000 0.0000
# 2 16.3041 154.3404 66.1550 0.0000 0.0000 0.0000
# 3 10.5886 66.1550 158.2253 0.0000 0.0000 0.0000
# 4 0.0000 0.0000 0.0000 28.9528 0.0000 0.0000
# 5 0.0000 0.0000 0.0000 0.0000 1.5318 0.0000
# 6 0.0000 0.0000 0.0000 0.0000 0.0000 7.8868
#
#
#
# Elastic Compliance Matrix: (Units=1/GPa)
#
#
# Indices 1 2 3 4 5 6 
#
# 1 0.030868 -0.002894 -0.000856 0.000000 0.000000 0.000000
# 2 -0.002894 0.008165 -0.003220 0.000000 0.000000 0.000000
# 3 -0.000856 -0.003220 0.007724 0.000000 0.000000 0.000000
# 4 0.000000 0.000000 0.000000 0.034539 0.000000 0.000000
# 5 0.000000 0.000000 0.000000 0.000000 0.652837 0.000000
# 6 0.000000 0.000000 0.000000 0.000000 0.000000 0.126794
#
#
# Mechanical properties :
#
#
# Convention : Reuss Voigt Hill
#
# Bulk Modulus (GPa) = 30.47170 59.20875 44.84022
# Shear Modulus (GPa) = 5.64457 24.58999 15.11728
#
# Velocity S-wave (km/s) = 1.76429 3.68241 2.88729
# Velocity P-wave (km/s) = 4.57754 7.12257 5.98686
#
# Compressibility (1/GPa) = 0.03281734
#
# Stress axis : x y z
#
# Youngs Moduli (GPa) = 32.39557 122.47092 129.47037
#
# Poissons Ratio (x) = 0.35444 0.11079
# Poissons Ratio (y) = 0.09375 0.41693
# Poissons Ratio (z) = 0.02772 0.39439
#
# Static dielectric constant tensor:
#      x y z
#    x 2.708110 0.000000 0.000000 
#    y 0.000000 3.627360 0.000000 
#    z 0.000000 0.000000 3.347680 
# 
# 
# High freq. dielectric constant tensor:
#      x y z
#    x 1.627090 0.000000 0.000000 
#    y 0.000000 1.720950 0.000000 
#    z 0.000000 0.000000 1.708130 
# 
# From -- ./inp_files/5906.got.cif
#   From: 2010.03.12/outbox.cif.g09.slc.cpg/sg28_3_cif.got.tgz:5906.got - 2010.04.14 03:39:34.
