data_PCOD8168553
_publ_section_title
;
Structure prediction by ZEFSAII (Michael W. Deem and Ramdas Pophale) SiO2 
 PCOD8168553
Probable space group: P C A 21
;
_chemical_formula_sum "Si O2"
_cell_formula_units_Z 28
_cell_length_a 21.655932
_cell_length_b 13.049542
_cell_length_c 5.229183
_cell_angle_alpha 90.000000
_cell_angle_beta 90.000000
_cell_angle_gamma 90.000000
_cell_volume 1477.767085
_symmetry_space_group_name_H-M "P C A 21"
_symmetry_group_IT_number 29
_symmetry_cell_setting 'orthorhombic'
loop_
_space_group_symop_operation_xyz
x,y,z
-x,-y,1/2+z
1/2-x,y,1/2+z
1/2+x,-y,z
loop_
_atom_site_type_symbol
_atom_site_label
_atom_site_fract_x
_atom_site_fract_y
_atom_site_fract_z
Si Si1 0.427937 0.051112 0.506010
Si Si2 0.015982 0.632173 0.994111
Si Si3 0.808785 0.733162 0.903244
Si Si4 0.323247 0.182911 0.402777
Si Si5 0.510191 0.867803 0.505995
Si Si6 0.425548 0.546971 0.993904
Si Si7 0.715340 0.498982 0.451971
O O1 0.354321 0.071461 0.455852
O O2 0.464087 0.116864 0.291558
O O3 0.445502 0.931600 0.480141
O O4 0.443401 0.090676 0.790001
O O5 0.061599 0.594692 0.770933
O O6 0.952237 0.568389 0.975300
O O7 0.002887 0.750357 0.951163
O O8 0.046186 0.616959 0.271293
O O9 0.751041 0.814084 0.874960
O O10 0.845214 0.741481 0.635450
O O11 0.782309 0.621887 0.959377
O O12 0.851606 0.770267 0.138946
O O13 0.353094 0.543470 0.952714
O O14 0.751179 0.456975 0.699218
#
# Coordination Sequence:
#
# PCOD8168553 Si02
#       7
#     4   4   4   4   4   4   4
#     4  10  21  33  54  86 107 144 178 218 273 331
#     4  10  21  40  54  79 114 150 190 230 274 327
#     4  10  19  31  46  78 106 139 168 204 275 330
#     4  10  18  31  47  73 111 135 170 205 260 338
#     4  10  21  36  54  80 113 139 186 223 268 321
#     4  10  23  36  56  83 108 149 192 226 279 335
#     4  12  21  35  53  83 113 138 182 228 283 340
#
# _framework density 18.947503999999999
#
# number of rings (size 3 to 8) (size 9 to 14) (size 15 to 20)
#    0.000    1.714    2.857    2.571    4.000    0.000 
#    0.000    0.000    0.000    0.000   22.286    0.000 
#    0.000    0.000    0.000    0.000    0.000    0.000 
#
# Total GULP energy -346995.249454 kJ/mol
# GULP energy per Si atom -12392.687480 kJ/mol
# Density = 1.890438 g / cm^3
# Si number density = 18.947504 Si / 1000 Ang^3
#
#
#
# Elastic Constant Matrix: (Units=GPa)
#
#
# Indices 1 2 3 4 5 6 
#
# 1 57.7699 9.8892 -2.4700 0.0000 0.0000 0.0000
# 2 9.8892 82.3501 1.6287 0.0000 0.0000 0.0000
# 3 -2.4700 1.6287 133.5846 0.0000 0.0000 0.0000
# 4 0.0000 0.0000 0.0000 18.2942 0.0000 0.0000
# 5 0.0000 0.0000 0.0000 0.0000 22.3006 0.0000
# 6 0.0000 0.0000 0.0000 0.0000 0.0000 18.0852
#
#
#
# Elastic Compliance Matrix: (Units=1/GPa)
#
#
# Indices 1 2 3 4 5 6 
#
# 1 0.017690 -0.002131 0.000353 0.000000 0.000000 0.000000
# 2 -0.002131 0.012403 -0.000191 0.000000 0.000000 0.000000
# 3 0.000353 -0.000191 0.007495 0.000000 0.000000 0.000000
# 4 0.000000 0.000000 0.000000 0.054662 0.000000 0.000000
# 5 0.000000 0.000000 0.000000 0.000000 0.044842 0.000000
# 6 0.000000 0.000000 0.000000 0.000000 0.000000 0.055294
#
#
# Mechanical properties :
#
#
# Convention : Reuss Voigt Hill
#
# Bulk Modulus (GPa) = 29.71770 32.42226 31.06998
# Shear Modulus (GPa) = 24.09172 29.37976 26.73574
#
# Velocity S-wave (km/s) = 3.56968 3.94202 3.76046
# Velocity P-wave (km/s) = 5.71913 6.15371 5.94039
#
# Compressibility (1/GPa) = 0.03364998
#
# Stress axis : x y z
#
# Youngs Moduli (GPa) = 56.52912 80.62566 133.42676
#
# Poissons Ratio (x) = 0.17184 -0.04711
# Poissons Ratio (y) = 0.12048 0.02544
# Poissons Ratio (z) = -0.01996 0.01537
#
# Static dielectric constant tensor:
#      x y z
#    x 3.338430 0.000000 0.000000 
#    y 0.000000 3.170890 0.000000 
#    z 0.000000 0.000000 4.246150 
# 
# 
# High freq. dielectric constant tensor:
#      x y z
#    x 1.718770 0.000000 0.000000 
#    y 0.000000 1.691250 0.000000 
#    z 0.000000 0.000000 1.778470 
# 
# From -- ./inp_files/531.got.cif
#   From: 2010.03.12/outbox.cif.g09.slc.cpg/sg29_1_cif.got.tgz:531.got - 2010.04.14 03:43:10.
