data_PCOD8168347
_publ_section_title
;
Structure prediction by ZEFSAII (Michael W. Deem and Ramdas Pophale) SiO2 
 PCOD8168347
Probable space group: P M A 2
;
_chemical_formula_sum "Si O2"
_cell_formula_units_Z 24
_cell_length_a 8.884843
_cell_length_b 15.523944
_cell_length_c 9.738141
_cell_angle_alpha 90.000000
_cell_angle_beta 90.000000
_cell_angle_gamma 90.000000
_cell_volume 1343.160415
_symmetry_space_group_name_H-M "P M A 2"
_symmetry_group_IT_number 28
_symmetry_cell_setting 'orthorhombic'
loop_
_space_group_symop_operation_xyz
x,y,z
-x,-y,z
1/2-x,y,z
1/2+x,-y,z
loop_
_atom_site_type_symbol
_atom_site_label
_atom_site_fract_x
_atom_site_fract_y
_atom_site_fract_z
Si Si1 0.914147 0.919130 0.553500
Si Si2 0.418436 0.084248 0.228515
Si Si3 0.071751 0.409801 0.057550
Si Si4 0.074755 0.412826 0.741189
Si Si5 0.570563 0.263391 0.241451
Si Si6 0.930186 0.732370 0.533417
O O1 0.750000 0.923132 0.619964
O O2 0.906680 0.928285 0.390522
O O3 0.986856 0.826070 0.587516
O O4 0.000000 0.000000 0.619899
O O5 0.250000 0.092535 0.166318
O O6 0.512598 0.169786 0.193183
O O7 0.500000 0.000000 0.164304
O O8 0.250000 0.410898 0.085930
O O9 0.000000 0.500000 0.106591
O O10 0.992124 0.333099 0.136541
O O11 0.033061 0.393713 0.898208
O O12 0.250000 0.424886 0.721238
O O13 0.015702 0.335228 0.646931
O O14 0.000000 0.500000 0.687496
O O15 0.750000 0.263375 0.241829
O O16 0.509648 0.289957 0.390692
O O17 0.750000 0.733928 0.509609
#
# Coordination Sequence:
#
# PCOD8168347 Si02
#       6
#     4   4   4   4   4   4
#     4   8  14  24  41  64  93 125 156 190 233 281
#     4   9  16  28  46  70 100 133 166 205 248 294
#     4  10  20  36  55  74  96 128 167 208 253 304
#     4   9  19  35  55  74  95 126 164 203 249 301
#     4  11  21  32  49  76 105 135 169 207 248 293
#     4   9  18  33  50  72 101 131 162 203 251 297
#
# _framework density 17.868303999999998
#
# number of rings (size 3 to 8) (size 9 to 14) (size 15 to 20)
#    0.000    2.667    0.000    3.500    0.000    6.000 
#    0.000    1.667    0.000    1.000    0.000    2.333 
#    0.000    0.000    0.000    0.000    0.000    0.000 
#
# Total GULP energy -297505.576724 kJ/mol
# GULP energy per Si atom -12396.065697 kJ/mol
# Density = 1.782764 g / cm^3
# Si number density = 17.868304 Si / 1000 Ang^3
#
#
#
# Elastic Constant Matrix: (Units=GPa)
#
#
# Indices 1 2 3 4 5 6 
#
# 1 97.4308 65.3716 35.3831 0.0000 0.0000 0.0000
# 2 65.3716 179.0582 68.6743 0.0000 0.0000 0.0000
# 3 35.3831 68.6743 54.1767 0.0000 0.0000 0.0000
# 4 0.0000 0.0000 0.0000 -3.7503 0.0000 0.0000
# 5 0.0000 0.0000 0.0000 0.0000 13.6801 0.0000
# 6 0.0000 0.0000 0.0000 0.0000 0.0000 36.2022
#
#
#
# Elastic Compliance Matrix: (Units=1/GPa)
#
#
# Indices 1 2 3 4 5 6 
#
# 1 0.014338 -0.003198 -0.005311 0.000000 0.000000 0.000000
# 2 -0.003198 0.011582 -0.012593 0.000000 0.000000 0.000000
# 3 -0.005311 -0.012593 0.037889 0.000000 0.000000 0.000000
# 4 0.000000 0.000000 0.000000 -0.266644 0.000000 0.000000
# 5 0.000000 0.000000 0.000000 0.000000 0.073099 0.000000
# 6 0.000000 0.000000 0.000000 0.000000 0.000000 0.027623
#
#
# Mechanical properties :
#
#
# Convention : Reuss Voigt Hill
#
# Bulk Modulus (GPa) = 46.28231 74.39152 60.33692
# Shear Modulus (GPa) = -94.86028 19.97550 -37.44239
#
# Velocity S-wave (km/s) = -7.29410 3.34717 -4.58259
# Velocity P-wave (km/s) = 6.70674 7.52740 2.41675
#
# Compressibility (1/GPa) = 0.02160653
#
# Stress axis : x y z
#
# Youngs Moduli (GPa) = 69.74535 86.34129 26.39277
#
# Poissons Ratio (x) = 0.27610 0.14016
# Poissons Ratio (y) = 0.22303 0.33236
# Poissons Ratio (z) = 0.37040 1.08728
#
# Static dielectric constant tensor:
#      x y z
#    x 3.448140 0.000000 0.000000 
#    y 0.000000 3.694970 0.000000 
#    z 0.000000 0.000000 2.982490 
# 
# 
# High freq. dielectric constant tensor:
#      x y z
#    x 1.695650 0.000000 0.000000 
#    y 0.000000 1.710820 0.000000 
#    z 0.000000 0.000000 1.644380 
# 
# From -- ./inp_files/2551.got.cif
#   From: 2010.03.12/outbox.cif.g09.slc.cpg/sg28_2_cif.got.tgz:2551.got - 2010.04.14 03:39:34.
