data_PCOD8168047
_publ_section_title
;
Structure prediction by ZEFSAII (Michael W. Deem and Ramdas Pophale) SiO2 
 PCOD8168047
Probable space group: P M A 2
;
_chemical_formula_sum "Si O2"
_cell_formula_units_Z 32
_cell_length_a 9.172200
_cell_length_b 16.000528
_cell_length_c 10.887980
_cell_angle_alpha 90.000000
_cell_angle_beta 90.000000
_cell_angle_gamma 90.000000
_cell_volume 1597.920412
_symmetry_space_group_name_H-M "P M A 2"
_symmetry_group_IT_number 28
_symmetry_cell_setting 'orthorhombic'
loop_
_space_group_symop_operation_xyz
x,y,z
-x,-y,z
1/2-x,y,z
1/2+x,-y,z
loop_
_atom_site_type_symbol
_atom_site_label
_atom_site_fract_x
_atom_site_fract_y
_atom_site_fract_z
Si Si1 0.921650 0.914013 0.560720
Si Si2 0.907234 0.329239 0.339315
Si Si3 0.905412 0.570810 0.186425
Si Si4 0.087869 0.318595 0.957809
Si Si5 0.919550 0.918005 0.275120
Si Si6 0.919425 0.250190 0.586170
Si Si7 0.424423 0.587568 0.750281
Si Si8 0.911063 0.210941 0.115657
O O1 0.750000 0.920879 0.589623
O O2 0.954421 0.899955 0.417148
O O3 0.988408 0.831721 0.629394
O O4 0.000000 0.000000 0.605330
O O5 0.750000 0.364996 0.383674
O O6 0.962709 0.266029 0.444085
O O7 0.886097 0.287840 0.206805
O O8 0.022671 0.402879 0.317011
O O9 0.750000 0.532022 0.221711
O O10 0.885001 0.645832 0.092886
O O11 0.000000 0.500000 0.120412
O O12 0.250000 0.297181 0.902371
O O13 0.985288 0.237719 0.984762
O O14 0.000187 0.385709 0.877255
O O15 0.750000 0.929124 0.252893
O O16 0.978007 0.848121 0.185362
O O17 0.000000 0.000000 0.230533
O O18 0.750000 0.227374 0.602758
O O19 0.959494 0.335226 0.658826
O O20 0.500000 0.500000 0.706575
O O21 0.250000 0.574333 0.765940
O O22 0.750000 0.171905 0.087498
#
# Coordination Sequence:
#
# PCOD8168047 Si02
#       8
#     4   4   4   4   4   4   4   4
#     4  10  20  33  55  85 119 157 196 237 282 339
#     4   9  18  32  50  73 104 139 173 214 267 328
#     4  10  20  32  49  73 101 133 170 217 270 326
#     4  10  21  37  57  79 105 137 181 234 283 336
#     4  10  19  30  48  79 117 153 189 227 274 333
#     4  10  21  38  58  82 115 151 191 239 291 344
#     4  11  24  41  61  83 110 147 195 248 297 348
#     4  10  18  31  54  80 110 145 180 222 276 336
#
# _framework density 20.026031
#
# number of rings (size 3 to 8) (size 9 to 14) (size 15 to 20)
#    0.000    2.000    1.250    2.625    0.000    6.000 
#    0.000    1.250    0.000    0.750    0.000    1.750 
#    0.000    0.000    0.000    0.000    0.000    0.000 
#
# Total GULP energy -396436.166527 kJ/mol
# GULP energy per Si atom -12388.630204 kJ/mol
# Density = 1.998045 g / cm^3
# Si number density = 20.026031 Si / 1000 Ang^3
#
#
#
# Elastic Constant Matrix: (Units=GPa)
#
#
# Indices 1 2 3 4 5 6 
#
# 1 144.5660 61.1730 31.3038 0.0000 0.0000 0.0000
# 2 61.1730 106.7675 27.9491 0.0000 0.0000 0.0000
# 3 31.3038 27.9491 35.4325 0.0000 0.0000 0.0000
# 4 0.0000 0.0000 0.0000 -22.2470 0.0000 0.0000
# 5 0.0000 0.0000 0.0000 0.0000 16.7091 0.0000
# 6 0.0000 0.0000 0.0000 0.0000 0.0000 40.7616
#
#
#
# Elastic Compliance Matrix: (Units=1/GPa)
#
#
# Indices 1 2 3 4 5 6 
#
# 1 0.009881 -0.004255 -0.005374 0.000000 0.000000 0.000000
# 2 -0.004255 0.013636 -0.006997 0.000000 0.000000 0.000000
# 3 -0.005374 -0.006997 0.038489 0.000000 0.000000 0.000000
# 4 0.000000 0.000000 0.000000 -0.044950 0.000000 0.000000
# 5 0.000000 0.000000 0.000000 0.000000 0.059848 0.000000
# 6 0.000000 0.000000 0.000000 0.000000 0.000000 0.024533
#
#
# Mechanical properties :
#
#
# Convention : Reuss Voigt Hill
#
# Bulk Modulus (GPa) = 34.77579 58.62420 46.70000
# Shear Modulus (GPa) = 34.65673 18.13407 26.39540
#
# Velocity S-wave (km/s) = 4.16454 3.01246 3.63444
# Velocity P-wave (km/s) = 6.36612 6.43719 6.40176
#
# Compressibility (1/GPa) = 0.02875563
#
# Stress axis : x y z
#
# Youngs Moduli (GPa) = 101.20151 73.33780 25.98137
#
# Poissons Ratio (x) = 0.31204 0.13961
# Poissons Ratio (y) = 0.43060 0.18178
# Poissons Ratio (z) = 0.54382 0.51312
#
# Static dielectric constant tensor:
#      x y z
#    x 4.779940 0.000000 0.000000 
#    y 0.000000 4.459090 0.000000 
#    z 0.000000 0.000000 3.267060 
# 
# 
# High freq. dielectric constant tensor:
#      x y z
#    x 1.803240 0.000000 0.000000 
#    y 0.000000 1.771790 0.000000 
#    z 0.000000 0.000000 1.738870 
# 
# From -- ./inp_files/5189.got.cif
#   From: 2010.03.12/outbox.cif.g09.slc.cpg/sg28_3_cif.got.tgz:5189.got - 2010.04.14 03:39:34.
