data_PCOD8168328
_publ_section_title
;
Structure prediction by ZEFSAII (Michael W. Deem and Ramdas Pophale) SiO2 
 PCOD8168328
Probable space group: P M A 2
;
_chemical_formula_sum "Si O2"
_cell_formula_units_Z 24
_cell_length_a 8.638233
_cell_length_b 9.480158
_cell_length_c 15.314033
_cell_angle_alpha 90.000000
_cell_angle_beta 90.000000
_cell_angle_gamma 90.000000
_cell_volume 1254.093937
_symmetry_space_group_name_H-M "P M A 2"
_symmetry_group_IT_number 28
_symmetry_cell_setting 'orthorhombic'
loop_
_space_group_symop_operation_xyz
x,y,z
-x,-y,z
1/2-x,y,z
1/2+x,-y,z
loop_
_atom_site_type_symbol
_atom_site_label
_atom_site_fract_x
_atom_site_fract_y
_atom_site_fract_z
Si Si1 0.566284 0.344034 0.558980
Si Si2 0.432384 0.845246 0.395718
Si Si3 0.065900 0.849042 0.893634
Si Si4 0.067557 0.647935 0.046561
Si Si5 0.566209 0.845419 0.709489
Si Si6 0.933309 0.349599 0.241773
O O1 0.500000 0.500000 0.547555
O O2 0.750000 0.351102 0.568960
O O3 0.514373 0.251823 0.476007
O O4 0.493270 0.271667 0.643321
O O5 0.250000 0.860208 0.393498
O O6 0.494316 0.771842 0.306898
O O7 0.500000 0.000000 0.406160
O O8 0.250000 0.851974 0.882932
O O9 0.991008 0.793189 0.804152
O O10 0.007982 0.757102 0.974936
O O11 0.000000 0.000000 0.916330
O O12 0.250000 0.637751 0.046087
O O13 0.009633 0.689972 0.143899
O O14 0.000000 0.500000 0.017339
O O15 0.750000 0.854865 0.707211
O O16 0.500000 0.000000 0.686179
O O17 0.750000 0.361699 0.247152
O O18 0.000000 0.500000 0.271400
#
# Coordination Sequence:
#
# PCOD8168328 Si02
#       6
#     4   4   4   4   4   4
#     4  11  23  39  58  83 111 143 181 224 271 324
#     4  10  22  37  56  81 111 143 179 220 266 318
#     4  10  20  35  54  79 109 143 181 224 269 320
#     4   9  19  34  54  78 108 142 179 221 267 317
#     4  11  22  38  59  82 109 144 182 226 274 325
#     4   9  18  35  55  79 108 141 179 221 266 316
#
# _framework density 19.137324
#
# number of rings (size 3 to 8) (size 9 to 14) (size 15 to 20)
#    0.000    2.000    0.000    4.500    0.000    6.000 
#    0.000    1.667    0.000    0.000    0.000    0.000 
#    0.000    0.000    0.000    0.000    0.000    0.000 
#
# Total GULP energy -297612.403116 kJ/mol
# GULP energy per Si atom -12400.516796 kJ/mol
# Density = 1.909377 g / cm^3
# Si number density = 19.137324 Si / 1000 Ang^3
#
#
#
# Elastic Constant Matrix: (Units=GPa)
#
#
# Indices 1 2 3 4 5 6 
#
# 1 68.1330 48.5934 48.2874 0.0000 0.0000 0.0000
# 2 48.5934 157.7535 116.4885 0.0000 0.0000 0.0000
# 3 48.2874 116.4885 162.5956 0.0000 0.0000 0.0000
# 4 0.0000 0.0000 0.0000 46.3729 0.0000 0.0000
# 5 0.0000 0.0000 0.0000 0.0000 10.8243 0.0000
# 6 0.0000 0.0000 0.0000 0.0000 0.0000 35.9931
#
#
#
# Elastic Compliance Matrix: (Units=1/GPa)
#
#
# Indices 1 2 3 4 5 6 
#
# 1 0.019548 -0.003683 -0.003167 0.000000 0.000000 0.000000
# 2 -0.003683 0.014153 -0.009046 0.000000 0.000000 0.000000
# 3 -0.003167 -0.009046 0.013572 0.000000 0.000000 0.000000
# 4 0.000000 0.000000 0.000000 0.021564 0.000000 0.000000
# 5 0.000000 0.000000 0.000000 0.000000 0.092384 0.000000
# 6 0.000000 0.000000 0.000000 0.000000 0.000000 0.027783
#
#
# Mechanical properties :
#
#
# Convention : Reuss Voigt Hill
#
# Bulk Modulus (GPa) = 64.59374 90.58006 77.58690
# Shear Modulus (GPa) = 22.12804 30.31225 26.22014
#
# Velocity S-wave (km/s) = 3.40410 3.98418 3.70551
# Velocity P-wave (km/s) = 7.01972 8.28247 7.67710
#
# Compressibility (1/GPa) = 0.01548138
#
# Stress axis : x y z
#
# Youngs Moduli (GPa) = 51.15508 70.65447 73.68350
#
# Poissons Ratio (x) = 0.26024 0.23333
# Poissons Ratio (y) = 0.18842 0.66655
# Poissons Ratio (z) = 0.16199 0.63915
#
# Static dielectric constant tensor:
#      x y z
#    x 3.477610 0.000000 0.000000 
#    y 0.000000 3.728100 0.000000 
#    z 0.000000 0.000000 3.934300 
# 
# 
# High freq. dielectric constant tensor:
#      x y z
#    x 1.745440 0.000000 0.000000 
#    y 0.000000 1.744160 0.000000 
#    z 0.000000 0.000000 1.761340 
# 
# From -- ./inp_files/6067.got.cif
#   From: 2010.03.12/outbox.cif.g09.slc.cpg/sg28_4_cif.got.tgz:6067.got - 2010.04.14 03:39:34.
