data_PCOD8168540
_publ_section_title
;
Structure prediction by ZEFSAII (Michael W. Deem and Ramdas Pophale) SiO2 
 PCOD8168540
Probable space group: P C A 21
;
_chemical_formula_sum "Si O2"
_cell_formula_units_Z 28
_cell_length_a 22.309546
_cell_length_b 15.449616
_cell_length_c 5.045373
_cell_angle_alpha 90.000000
_cell_angle_beta 90.000000
_cell_angle_gamma 90.000000
_cell_volume 1739.008484
_symmetry_space_group_name_H-M "P C A 21"
_symmetry_group_IT_number 29
_symmetry_cell_setting 'orthorhombic'
loop_
_space_group_symop_operation_xyz
x,y,z
-x,-y,1/2+z
1/2-x,y,1/2+z
1/2+x,-y,z
loop_
_atom_site_type_symbol
_atom_site_label
_atom_site_fract_x
_atom_site_fract_y
_atom_site_fract_z
Si Si1 0.482726 0.611192 0.873790
Si Si2 0.710229 0.431427 0.886044
Si Si3 0.407925 0.860970 0.461270
Si Si4 0.576611 0.464499 0.873128
Si Si5 0.033782 0.025052 0.854232
Si Si6 0.520171 0.192591 0.460225
Si Si7 0.712642 0.231875 0.854019
O O1 0.543958 0.556970 0.892361
O O2 0.449079 0.599697 0.595868
O O3 0.501909 0.710248 0.912273
O O4 0.435187 0.581029 0.093223
O O5 0.747101 0.457492 0.627113
O O6 0.647455 0.482744 0.903240
O O7 0.691769 0.330713 0.889310
O O8 0.427655 0.834150 0.755460
O O9 0.340776 0.831970 0.417520
O O10 0.408305 0.966288 0.425518
O O11 0.453381 0.816048 0.254608
O O12 0.037367 0.127995 0.920018
O O13 0.019201 0.012959 0.543864
O O14 0.733107 0.213248 0.555237
#
# Coordination Sequence:
#
# PCOD8168540 Si02
#       7
#     4   4   4   4   4   4   4
#     4  10  19  30  47  66  91 117 142 182 221 267
#     4  10  19  30  44  61  84 114 147 180 211 253
#     4  10  18  29  44  62  90 115 136 174 210 246
#     4  10  20  32  44  66  91 116 148 179 222 262
#     4   8  16  27  41  63  85 106 135 165 201 249
#     4  10  17  28  46  66  85 112 141 168 214 258
#     4  10  19  28  40  60  82 110 145 170 199 247
#
# _framework density 16.101129
#
# number of rings (size 3 to 8) (size 9 to 14) (size 15 to 20)
#    0.000    2.286    0.000    4.286    0.000    2.286 
#    0.000    0.000    0.000    0.000    0.000    2.000 
#    0.000    0.000    0.000    0.000    0.000    0.000 
#
# Total GULP energy -347109.685389 kJ/mol
# GULP energy per Si atom -12396.774478 kJ/mol
# Density = 1.606448 g / cm^3
# Si number density = 16.101129 Si / 1000 Ang^3
#
#
#
# Elastic Constant Matrix: (Units=GPa)
#
#
# Indices 1 2 3 4 5 6 
#
# 1 83.9893 33.6154 12.2532 0.0000 0.0000 0.0000
# 2 33.6154 93.2595 10.1728 0.0000 0.0000 0.0000
# 3 12.2532 10.1728 68.4326 0.0000 0.0000 0.0000
# 4 0.0000 0.0000 0.0000 15.0705 0.0000 0.0000
# 5 0.0000 0.0000 0.0000 0.0000 11.9160 0.0000
# 6 0.0000 0.0000 0.0000 0.0000 0.0000 20.2985
#
#
#
# Elastic Compliance Matrix: (Units=1/GPa)
#
#
# Indices 1 2 3 4 5 6 
#
# 1 0.014129 -0.004896 -0.001802 0.000000 0.000000 0.000000
# 2 -0.004896 0.012596 -0.000996 0.000000 0.000000 0.000000
# 3 -0.001802 -0.000996 0.015084 0.000000 0.000000 0.000000
# 4 0.000000 0.000000 0.000000 0.066355 0.000000 0.000000
# 5 0.000000 0.000000 0.000000 0.000000 0.083921 0.000000
# 6 0.000000 0.000000 0.000000 0.000000 0.000000 0.049265
#
#
# Mechanical properties :
#
#
# Convention : Reuss Voigt Hill
#
# Bulk Modulus (GPa) = 37.84911 39.75157 38.80034
# Shear Modulus (GPa) = 18.82930 22.09967 20.46448
#
# Velocity S-wave (km/s) = 3.42342 3.70882 3.56897
# Velocity P-wave (km/s) = 6.25975 6.56374 6.41355
#
# Compressibility (1/GPa) = 0.02642070
#
# Stress axis : x y z
#
# Youngs Moduli (GPa) = 70.77754 79.38895 66.29711
#
# Poissons Ratio (x) = 0.38870 0.11947
# Poissons Ratio (y) = 0.34654 0.06602
# Poissons Ratio (z) = 0.12754 0.07906
#
# Static dielectric constant tensor:
#      x y z
#    x 2.763730 0.000000 0.000000 
#    y 0.000000 3.128770 0.000000 
#    z 0.000000 0.000000 3.328520 
# 
# 
# High freq. dielectric constant tensor:
#      x y z
#    x 1.582190 0.000000 0.000000 
#    y 0.000000 1.602200 0.000000 
#    z 0.000000 0.000000 1.647980 
# 
# From -- ./inp_files/414.got.cif
#   From: 2010.03.12/outbox.cif.g09.slc.cpg/sg29_1_cif.got.tgz:414.got - 2010.04.14 03:43:10.
