data_PCOD8168226
_publ_section_title
;
Structure prediction by ZEFSAII (Michael W. Deem and Ramdas Pophale) SiO2 
 PCOD8168226
Probable space group: P M A 2
;
_chemical_formula_sum "Si O2"
_cell_formula_units_Z 32
_cell_length_a 8.442684
_cell_length_b 35.380092
_cell_length_c 5.122145
_cell_angle_alpha 90.000000
_cell_angle_beta 90.000000
_cell_angle_gamma 90.000000
_cell_volume 1529.999753
_symmetry_space_group_name_H-M "P M A 2"
_symmetry_group_IT_number 28
_symmetry_cell_setting 'orthorhombic'
loop_
_space_group_symop_operation_xyz
x,y,z
-x,-y,z
1/2-x,y,z
1/2+x,-y,z
loop_
_atom_site_type_symbol
_atom_site_label
_atom_site_fract_x
_atom_site_fract_y
_atom_site_fract_z
Si Si1 0.561749 0.413986 0.563080
Si Si2 0.064087 0.791961 0.158302
Si Si3 0.937831 0.087248 0.624629
Si Si4 0.936225 0.041684 0.123286
Si Si5 0.938063 0.457994 0.063207
Si Si6 0.564445 0.710569 0.149000
Si Si7 0.436372 0.670797 0.649947
Si Si8 0.434424 0.169002 0.663370
O O1 0.750000 0.414197 0.565125
O O2 0.495247 0.432994 0.301169
O O3 0.501350 0.371042 0.579965
O O4 0.494936 0.438636 0.802412
O O5 0.250000 0.789721 0.207590
O O6 0.995745 0.751844 0.068062
O O7 0.982017 0.803678 0.427645
O O8 0.029363 0.821438 0.927022
O O9 0.750000 0.094321 0.618736
O O10 0.993511 0.059301 0.395040
O O11 0.025845 0.126529 0.580730
O O12 0.998177 0.068503 0.891813
O O13 0.750000 0.039264 0.108703
O O14 0.000000 0.000000 0.086669
O O15 0.750000 0.458673 0.064795
O O16 0.000000 0.500000 0.089465
O O17 0.750000 0.710862 0.205712
O O18 0.474512 0.698242 0.410685
O O19 0.526384 0.682800 0.911236
O O20 0.250000 0.671538 0.708044
O O21 0.250000 0.173919 0.721670
#
# Coordination Sequence:
#
# PCOD8168226 Si02
#       8
#     4   4   4   4   4   4   4   4
#     4   9  19  35  57  80 109 147 193 240 285 343
#     4  12  25  44  67  91 122 166 209 246 295 368
#     4  10  21  38  58  84 117 158 200 243 296 363
#     4  10  21  36  57  83 115 153 199 248 297 351
#     4  10  19  34  54  80 110 146 187 236 291 345
#     4  12  25  42  62  92 129 159 193 252 312 356
#     4  11  22  41  66  90 116 160 211 248 291 364
#     4  12  25  42  65  96 127 159 202 259 312 356
#
# _framework density 20.915035
#
# number of rings (size 3 to 8) (size 9 to 14) (size 15 to 20)
#    0.000    1.250    0.000    6.750    0.000    4.000 
#    0.000    3.750    0.000    0.000    0.000    0.000 
#    0.000    0.000    0.000    0.000    0.000    0.000 
#
# Total GULP energy -397009.921313 kJ/mol
# GULP energy per Si atom -12406.560041 kJ/mol
# Density = 2.086743 g / cm^3
# Si number density = 20.915035 Si / 1000 Ang^3
#
#
#
# Elastic Constant Matrix: (Units=GPa)
#
#
# Indices 1 2 3 4 5 6 
#
# 1 46.5626 31.4929 18.8776 0.0000 0.0000 0.0000
# 2 31.4929 102.8540 11.0378 0.0000 0.0000 0.0000
# 3 18.8776 11.0378 111.6746 0.0000 0.0000 0.0000
# 4 0.0000 0.0000 0.0000 38.0667 0.0000 0.0000
# 5 0.0000 0.0000 0.0000 0.0000 -54.8167 0.0000
# 6 0.0000 0.0000 0.0000 0.0000 0.0000 34.6802
#
#
#
# Elastic Compliance Matrix: (Units=1/GPa)
#
#
# Indices 1 2 3 4 5 6 
#
# 1 0.028780 -0.008379 -0.004037 0.000000 0.000000 0.000000
# 2 -0.008379 0.012266 0.000204 0.000000 0.000000 0.000000
# 3 -0.004037 0.000204 0.009617 0.000000 0.000000 0.000000
# 4 0.000000 0.000000 0.000000 0.026270 0.000000 0.000000
# 5 0.000000 0.000000 0.000000 0.000000 -0.018243 0.000000
# 6 0.000000 0.000000 0.000000 0.000000 0.000000 0.028835
#
#
# Mechanical properties :
#
#
# Convention : Reuss Voigt Hill
#
# Bulk Modulus (GPa) = 38.11038 42.65643 40.38341
# Shear Modulus (GPa) = 41.42652 16.89823 29.16238
#
# Velocity S-wave (km/s) = 4.45534 2.84552 3.73812
# Velocity P-wave (km/s) = 6.68789 5.58886 6.16292
#
# Compressibility (1/GPa) = 0.02623957
#
# Stress axis : x y z
#
# Youngs Moduli (GPa) = 34.74593 81.52489 103.98445
#
# Poissons Ratio (x) = 0.68310 0.41977
# Poissons Ratio (y) = 0.29114 -0.02121
# Poissons Ratio (z) = 0.14027 -0.01663
#
# Static dielectric constant tensor:
#      x y z
#    x 3.809370 0.000000 0.000000 
#    y 0.000000 3.887880 0.000000 
#    z 0.000000 0.000000 4.111640 
# 
# 
# High freq. dielectric constant tensor:
#      x y z
#    x 1.803880 0.000000 0.000000 
#    y 0.000000 1.835050 0.000000 
#    z 0.000000 0.000000 1.837520 
# 
# From -- ./inp_files/248.got.cif
#   From: 2010.03.12/outbox.cif.g09.slc.cpg/sg28_1_cif.got.tgz:248.got - 2010.04.14 03:39:34.
