data_PCOD8168471
_publ_section_title
;
Structure prediction by ZEFSAII (Michael W. Deem and Ramdas Pophale) SiO2 
 PCOD8168471
Probable space group: P M A 2
;
_chemical_formula_sum "Si O2"
_cell_formula_units_Z 14
_cell_length_a 9.328046
_cell_length_b 11.243412
_cell_length_c 6.434802
_cell_angle_alpha 90.000000
_cell_angle_beta 90.000000
_cell_angle_gamma 90.000000
_cell_volume 674.876013
_symmetry_space_group_name_H-M "P M A 2"
_symmetry_group_IT_number 28
_symmetry_cell_setting 'orthorhombic'
loop_
_space_group_symop_operation_xyz
x,y,z
-x,-y,z
1/2-x,y,z
1/2+x,-y,z
loop_
_atom_site_type_symbol
_atom_site_label
_atom_site_fract_x
_atom_site_fract_y
_atom_site_fract_z
Si Si1 0.906694 0.814516 0.633160
Si Si2 0.588664 0.200100 0.240325
Si Si3 0.417413 0.377612 0.966967
Si Si4 0.000000 0.000000 0.947361
O O1 0.750000 0.809601 0.525932
O O2 0.939095 0.690938 0.750123
O O3 0.028630 0.839261 0.464219
O O4 0.899454 0.919463 0.802901
O O5 0.750000 0.248634 0.266774
O O6 0.487077 0.304045 0.155434
O O7 0.595687 0.085358 0.091746
O O8 0.500000 0.500000 0.942952
O O9 0.250000 0.398338 0.017151
#
# Coordination Sequence:
#
# PCOD8168471 Si02
#       4
#     4   4   4   2
#     4  10  22  39  59  85 118 155 195 241 292 345
#     4  11  23  38  60  89 120 155 195 240 292 348
#     4  10  22  41  63  86 116 153 195 243 292 345
#     4  10  22  38  60  86 118 156 198 242 288 342
#
# _framework density 20.744551999999999
#
# number of rings (size 3 to 8) (size 9 to 14) (size 15 to 20)
#    0.000    1.714    0.000    3.429    0.000   13.714 
#    0.000    2.857    0.000    0.000    0.000    0.000 
#    0.000    0.000    0.000    0.000    0.000    0.000 
#
# Total GULP energy -173621.544783 kJ/mol
# GULP energy per Si atom -12401.538913 kJ/mol
# Density = 2.069734 g / cm^3
# Si number density = 20.744552 Si / 1000 Ang^3
#
#
#
# Elastic Constant Matrix: (Units=GPa)
#
#
# Indices 1 2 3 4 5 6 
#
# 1 173.6832 58.9429 68.2338 0.0000 0.0000 0.0000
# 2 58.9429 138.0031 45.6778 0.0000 0.0000 0.0000
# 3 68.2338 45.6778 113.7056 0.0000 0.0000 0.0000
# 4 0.0000 0.0000 0.0000 16.1869 0.0000 0.0000
# 5 0.0000 0.0000 0.0000 0.0000 27.6512 0.0000
# 6 0.0000 0.0000 0.0000 0.0000 0.0000 17.0804
#
#
#
# Elastic Compliance Matrix: (Units=1/GPa)
#
#
# Indices 1 2 3 4 5 6 
#
# 1 0.008037 -0.002118 -0.003972 0.000000 0.000000 0.000000
# 2 -0.002118 0.008916 -0.002311 0.000000 0.000000 0.000000
# 3 -0.003972 -0.002311 0.012106 0.000000 0.000000 0.000000
# 4 0.000000 0.000000 0.000000 0.061778 0.000000 0.000000
# 5 0.000000 0.000000 0.000000 0.000000 0.036165 0.000000
# 6 0.000000 0.000000 0.000000 0.000000 0.000000 0.058546
#
#
# Mechanical properties :
#
#
# Convention : Reuss Voigt Hill
#
# Bulk Modulus (GPa) = 81.58118 85.67788 83.62953
# Shear Modulus (GPa) = 24.22066 29.01955 26.62010
#
# Velocity S-wave (km/s) = 3.42068 3.74424 3.58611
# Velocity P-wave (km/s) = 7.41709 7.75136 7.58607
#
# Compressibility (1/GPa) = 0.01225773
#
# Stress axis : x y z
#
# Youngs Moduli (GPa) = 124.42705 112.16291 82.60063
#
# Poissons Ratio (x) = 0.23755 0.32809
# Poissons Ratio (y) = 0.26353 0.19086
# Poissons Ratio (z) = 0.49423 0.25917
#
# Static dielectric constant tensor:
#      x y z
#    x 3.628850 0.000000 0.000000 
#    y 0.000000 3.761610 0.000000 
#    z 0.000000 0.000000 3.688280 
# 
# 
# High freq. dielectric constant tensor:
#      x y z
#    x 1.817460 0.000000 0.000000 
#    y 0.000000 1.812510 0.000000 
#    z 0.000000 0.000000 1.809490 
# 
# From -- ./inp_files/120.got.cif
#   From: 2010.03.12/outbox.cif.g09.slc.cpg/sg28_1_cif.got.tgz:120.got - 2010.04.14 03:39:34.
