data_PCOD8168784
_publ_section_title
;
Structure prediction by ZEFSAII (Michael W. Deem and Ramdas Pophale) SiO2 
 PCOD8168784
Probable space group: P C A 21
;
_chemical_formula_sum "Si O2"
_cell_formula_units_Z 28
_cell_length_a 31.046548
_cell_length_b 5.224790
_cell_length_c 7.696644
_cell_angle_alpha 90.000000
_cell_angle_beta 90.000000
_cell_angle_gamma 90.000000
_cell_volume 1248.485658
_symmetry_space_group_name_H-M "P C A 21"
_symmetry_group_IT_number 29
_symmetry_cell_setting 'orthorhombic'
loop_
_space_group_symop_operation_xyz
x,y,z
-x,-y,1/2+z
1/2-x,y,1/2+z
1/2+x,-y,z
loop_
_atom_site_type_symbol
_atom_site_label
_atom_site_fract_x
_atom_site_fract_y
_atom_site_fract_z
Si Si1 0.461121 0.145784 0.983080
Si Si2 0.141653 0.807991 0.004766
Si Si3 0.688556 0.697677 0.058732
Si Si4 0.170274 0.793916 0.607660
Si Si5 0.716900 0.700525 0.664187
Si Si6 0.051286 0.854608 0.150157
Si Si7 0.919630 0.348262 0.982540
O O1 0.430224 0.371990 0.060008
O O2 0.456037 0.107215 0.772875
O O3 0.445908 0.882444 0.077802
O O4 0.509803 0.210194 0.035033
O O5 0.158334 0.547832 0.097886
O O6 0.090887 0.866163 0.016611
O O7 0.163835 0.042639 0.105461
O O8 0.152625 0.795899 0.802625
O O9 0.731610 0.703742 0.173021
O O10 0.700911 0.702846 0.858773
O O11 0.203308 0.562996 0.572231
O O12 0.130251 0.734568 0.481208
O O13 0.195257 0.057875 0.563081
O O14 0.063093 0.626300 0.283987
#
# Coordination Sequence:
#
# PCOD8168784 Si02
#       7
#     4   4   4   4   4   4   4
#     4  10  25  41  61  90 122 158 207 251 308 367
#     4  10  23  38  62  86 124 156 203 250 303 361
#     4  10  22  39  59  91 118 161 198 247 303 356
#     4  10  21  39  60  90 120 163 199 248 302 358
#     4  10  21  38  61  87 124 156 201 245 299 362
#     4  10  26  40  65  88 126 157 209 252 313 362
#     4  10  24  39  62  90 122 155 211 241 314 354
#
# _framework density 22.427171999999999
#
# number of rings (size 3 to 8) (size 9 to 14) (size 15 to 20)
#    0.857    1.143    0.000    1.714    6.000    2.286 
#    0.000    0.000    0.000    0.000    0.000    0.000 
#    0.000    0.000    0.000    0.000    0.000    0.000 
#
# Total GULP energy -346931.641241 kJ/mol
# GULP energy per Si atom -12390.415759 kJ/mol
# Density = 2.237613 g / cm^3
# Si number density = 22.427172 Si / 1000 Ang^3
#
#
#
# Elastic Constant Matrix: (Units=GPa)
#
#
# Indices 1 2 3 4 5 6 
#
# 1 125.3137 40.7196 22.4979 0.0000 0.0000 0.0000
# 2 40.7196 165.0864 27.8481 0.0000 0.0000 0.0000
# 3 22.4979 27.8481 16.7034 0.0000 0.0000 0.0000
# 4 0.0000 0.0000 0.0000 10.9262 0.0000 0.0000
# 5 0.0000 0.0000 0.0000 0.0000 30.7172 0.0000
# 6 0.0000 0.0000 0.0000 0.0000 0.0000 35.1084
#
#
#
# Elastic Compliance Matrix: (Units=1/GPa)
#
#
# Indices 1 2 3 4 5 6 
#
# 1 0.010535 -0.000285 -0.013714 0.000000 0.000000 0.000000
# 2 -0.000285 0.008435 -0.013679 0.000000 0.000000 0.000000
# 3 -0.013714 -0.013679 0.101146 0.000000 0.000000 0.000000
# 4 0.000000 0.000000 0.000000 0.091523 0.000000 0.000000
# 5 0.000000 0.000000 0.000000 0.000000 0.032555 0.000000
# 6 0.000000 0.000000 0.000000 0.000000 0.000000 0.028483
#
#
# Mechanical properties :
#
#
# Convention : Reuss Voigt Hill
#
# Bulk Modulus (GPa) = 15.44190 54.35942 34.90066
# Shear Modulus (GPa) = 14.30123 29.75288 22.02705
#
# Velocity S-wave (km/s) = 2.52796 3.64626 3.13734
# Velocity P-wave (km/s) = 3.92697 6.48211 5.35905
#
# Compressibility (1/GPa) = 0.06475885
#
# Stress axis : x y z
#
# Youngs Moduli (GPa) = 94.92429 118.54934 9.88672
#
# Poissons Ratio (x) = 0.03380 0.13559
# Poissons Ratio (y) = 0.02706 0.13524
# Poissons Ratio (z) = 1.30179 1.62169
#
# Static dielectric constant tensor:
#      x y z
#    x 4.044510 0.000000 0.000000 
#    y 0.000000 4.326610 0.000000 
#    z 0.000000 0.000000 3.576210 
# 
# 
# High freq. dielectric constant tensor:
#      x y z
#    x 1.889900 0.000000 0.000000 
#    y 0.000000 1.891000 0.000000 
#    z 0.000000 0.000000 1.853060 
# 
# From -- ./inp_files/2528.got.cif
#   From: 2010.03.12/outbox.cif.g09.slc.cpg/sg29_2_cif.got.tgz:2528.got - 2010.04.14 03:43:10.
