data_PCOD8168627
_publ_section_title
;
Structure prediction by ZEFSAII (Michael W. Deem and Ramdas Pophale) SiO2 
 PCOD8168627
Probable space group: P C A 21
;
_chemical_formula_sum "Si O2"
_cell_formula_units_Z 32
_cell_length_a 16.610826
_cell_length_b 8.922620
_cell_length_c 10.944411
_cell_angle_alpha 90.000000
_cell_angle_beta 90.000000
_cell_angle_gamma 90.000000
_cell_volume 1622.094009
_symmetry_space_group_name_H-M "P C A 21"
_symmetry_group_IT_number 29
_symmetry_cell_setting 'orthorhombic'
loop_
_space_group_symop_operation_xyz
x,y,z
-x,-y,1/2+z
1/2-x,y,1/2+z
1/2+x,-y,z
loop_
_atom_site_type_symbol
_atom_site_label
_atom_site_fract_x
_atom_site_fract_y
_atom_site_fract_z
Si Si1 0.402826 0.928280 0.136540
Si Si2 0.028721 0.554372 0.232056
Si Si3 0.945074 0.754508 0.048864
Si Si4 0.875041 0.262689 0.910487
Si Si5 0.227058 0.770973 0.764468
Si Si6 0.442615 0.725172 0.340012
Si Si7 0.203621 0.475969 0.175993
Si Si8 0.697022 0.582409 0.448260
O O1 0.309671 0.905763 0.181871
O O2 0.462185 0.844923 0.232216
O O3 0.423877 0.101748 0.130111
O O4 0.415464 0.845914 0.007828
O O5 0.056209 0.696525 0.312803
O O6 0.106685 0.480382 0.166979
O O7 0.964590 0.613063 0.134396
O O8 0.984674 0.433275 0.315750
O O9 0.869888 0.710677 0.964312
O O10 0.022729 0.791829 0.965854
O O11 0.800438 0.172500 0.848554
O O12 0.842091 0.418409 0.966224
O O13 0.154355 0.703862 0.849585
O O14 0.260148 0.643072 0.674053
O O15 0.236555 0.390662 0.055412
O O16 0.229711 0.401970 0.308069
#
# Coordination Sequence:
#
# PCOD8168627 Si02
#       8
#     4   4   4   4   4   4   4   4
#     4  10  23  38  59  84 130 162 194 255 309 373
#     4  10  22  35  65  94 114 158 216 252 314 359
#     4  12  23  39  62  90 129 161 201 259 317 370
#     4  10  19  39  64  87 115 164 209 254 301 366
#     4   8  19  34  61  85 112 159 206 238 303 369
#     4  10  21  41  60  91 122 159 204 254 303 369
#     4  10  19  37  65  90 116 158 211 260 309 361
#     4  10  20  39  60  91 116 157 207 264 308 357
#
# _framework density 19.727588000000001
#
# number of rings (size 3 to 8) (size 9 to 14) (size 15 to 20)
#    0.750    1.500    3.750    1.500    5.250    0.000 
#    2.250    0.000    2.750    0.000    0.000    0.000 
#    0.000    0.000    0.000    0.000    0.000    0.000 
#
# Total GULP energy -396532.059962 kJ/mol
# GULP energy per Si atom -12391.626874 kJ/mol
# Density = 1.968269 g / cm^3
# Si number density = 19.727588 Si / 1000 Ang^3
#
#
#
# Elastic Constant Matrix: (Units=GPa)
#
#
# Indices 1 2 3 4 5 6 
#
# 1 48.2682 21.0023 17.7839 0.0000 0.0000 0.0000
# 2 21.0023 53.6751 27.6829 0.0000 0.0000 0.0000
# 3 17.7839 27.6829 95.0898 0.0000 0.0000 0.0000
# 4 0.0000 0.0000 0.0000 25.8734 0.0000 0.0000
# 5 0.0000 0.0000 0.0000 0.0000 30.7339 0.0000
# 6 0.0000 0.0000 0.0000 0.0000 0.0000 20.1411
#
#
#
# Elastic Compliance Matrix: (Units=1/GPa)
#
#
# Indices 1 2 3 4 5 6 
#
# 1 0.025347 -0.008793 -0.002181 0.000000 0.000000 0.000000
# 2 -0.008793 0.024973 -0.005626 0.000000 0.000000 0.000000
# 3 -0.002181 -0.005626 0.012562 0.000000 0.000000 0.000000
# 4 0.000000 0.000000 0.000000 0.038650 0.000000 0.000000
# 5 0.000000 0.000000 0.000000 0.000000 0.032537 0.000000
# 6 0.000000 0.000000 0.000000 0.000000 0.000000 0.049650
#
#
# Mechanical properties :
#
#
# Convention : Reuss Voigt Hill
#
# Bulk Modulus (GPa) = 33.68954 36.66349 35.17652
# Shear Modulus (GPa) = 22.04471 24.05395 23.04933
#
# Velocity S-wave (km/s) = 3.34646 3.49564 3.42187
# Velocity P-wave (km/s) = 5.66094 5.90914 5.78637
#
# Compressibility (1/GPa) = 0.02968280
#
# Stress axis : x y z
#
# Youngs Moduli (GPa) = 39.45219 40.04366 79.60565
#
# Poissons Ratio (x) = 0.35212 0.17358
# Poissons Ratio (y) = 0.34692 0.44783
# Poissons Ratio (z) = 0.08603 0.22527
#
# Static dielectric constant tensor:
#      x y z
#    x 3.604210 0.000000 0.000000 
#    y 0.000000 3.104200 0.000000 
#    z 0.000000 0.000000 3.651720 
# 
# 
# High freq. dielectric constant tensor:
#      x y z
#    x 1.763170 0.000000 0.000000 
#    y 0.000000 1.724700 0.000000 
#    z 0.000000 0.000000 1.774900 
# 
# From -- ./inp_files/3688.got.cif
#   From: 2010.03.12/outbox.cif.g09.slc.cpg/sg29_2_cif.got.tgz:3688.got - 2010.04.14 03:43:10.
