data_PCOD8168350
_publ_section_title
;
Structure prediction by ZEFSAII (Michael W. Deem and Ramdas Pophale) SiO2 
 PCOD8168350
Probable space group: P M A 2
;
_chemical_formula_sum "Si O2"
_cell_formula_units_Z 28
_cell_length_a 8.839763
_cell_length_b 9.398831
_cell_length_c 17.991228
_cell_angle_alpha 90.000000
_cell_angle_beta 90.000000
_cell_angle_gamma 90.000000
_cell_volume 1494.773085
_symmetry_space_group_name_H-M "P M A 2"
_symmetry_group_IT_number 28
_symmetry_cell_setting 'orthorhombic'
loop_
_space_group_symop_operation_xyz
x,y,z
-x,-y,z
1/2-x,y,z
1/2+x,-y,z
loop_
_atom_site_type_symbol
_atom_site_label
_atom_site_fract_x
_atom_site_fract_y
_atom_site_fract_z
Si Si1 0.929820 0.343992 0.804370
Si Si2 0.925977 0.653258 0.496427
Si Si3 0.073169 0.346617 0.660002
Si Si4 0.928341 0.653467 0.225395
Si Si5 0.428912 0.154374 0.362934
Si Si6 0.071374 0.149440 0.925707
Si Si7 0.426706 0.147436 0.095387
O O1 0.750000 0.348278 0.806498
O O2 0.000000 0.500000 0.804376
O O3 0.988145 0.265422 0.728190
O O4 0.992266 0.268169 0.876851
O O5 0.750000 0.626851 0.483092
O O6 0.954287 0.722394 0.578609
O O7 0.989451 0.765694 0.436790
O O8 0.000000 0.500000 0.485173
O O9 0.250000 0.357605 0.679328
O O10 0.000000 0.500000 0.653670
O O11 0.750000 0.633808 0.226353
O O12 0.982648 0.753441 0.292569
O O13 0.984033 0.725582 0.148378
O O14 0.000000 0.500000 0.233989
O O15 0.250000 0.136609 0.364471
O O16 0.500000 0.000000 0.357941
O O17 0.250000 0.146061 0.911464
O O18 0.030588 0.186292 0.010850
O O19 0.000000 0.000000 0.902302
O O20 0.250000 0.124651 0.104865
O O21 0.500000 0.000000 0.120890
#
# Coordination Sequence:
#
# PCOD8168350 Si02
#       7
#     4   4   4   4   4   4   4
#     4  11  21  34  53  78 106 138 177 219 265 313
#     4   9  18  32  52  77 103 133 171 215 259 306
#     4   9  16  29  49  73 102 134 170 214 262 309
#     4  10  21  36  54  79 108 136 171 213 255 301
#     4  10  21  36  53  76 106 138 173 211 253 303
#     4  10  20  36  55  77 106 139 176 216 261 313
#     4   9  19  35  55  78 104 136 173 212 255 307
#
# _framework density 18.731940000000002
#
# number of rings (size 3 to 8) (size 9 to 14) (size 15 to 20)
#    0.000    2.286    0.000    3.857    0.000    3.429 
#    0.000    2.143    0.000    1.714    0.000    0.000 
#    0.000    0.000    0.000    0.000    0.000    0.000 
#
# Total GULP energy -347103.978192 kJ/mol
# GULP energy per Si atom -12396.570650 kJ/mol
# Density = 1.868931 g / cm^3
# Si number density = 18.731940 Si / 1000 Ang^3
#
#
#
# Elastic Constant Matrix: (Units=GPa)
#
#
# Indices 1 2 3 4 5 6 
#
# 1 79.4715 42.8865 51.8355 0.0000 0.0000 0.0000
# 2 42.8865 118.3836 79.9290 0.0000 0.0000 0.0000
# 3 51.8355 79.9290 148.6201 0.0000 0.0000 0.0000
# 4 0.0000 0.0000 0.0000 20.3613 0.0000 0.0000
# 5 0.0000 0.0000 0.0000 0.0000 17.5064 0.0000
# 6 0.0000 0.0000 0.0000 0.0000 0.0000 32.3059
#
#
#
# Elastic Compliance Matrix: (Units=1/GPa)
#
#
# Indices 1 2 3 4 5 6 
#
# 1 0.017122 -0.003408 -0.004139 0.000000 0.000000 0.000000
# 2 -0.003408 0.013942 -0.006309 0.000000 0.000000 0.000000
# 3 -0.004139 -0.006309 0.011565 0.000000 0.000000 0.000000
# 4 0.000000 0.000000 0.000000 0.049113 0.000000 0.000000
# 5 0.000000 0.000000 0.000000 0.000000 0.057122 0.000000
# 6 0.000000 0.000000 0.000000 0.000000 0.000000 0.030954
#
#
# Mechanical properties :
#
#
# Convention : Reuss Voigt Hill
#
# Bulk Modulus (GPa) = 67.04099 77.30858 72.17478
# Shear Modulus (GPa) = 23.52920 25.48968 24.50944
#
# Velocity S-wave (km/s) = 3.54800 3.69285 3.62115
# Velocity P-wave (km/s) = 7.25615 7.71644 7.48983
#
# Compressibility (1/GPa) = 0.01491625
#
# Stress axis : x y z
#
# Youngs Moduli (GPa) = 58.40461 71.72787 86.46669
#
# Poissons Ratio (x) = 0.24448 0.35786
# Poissons Ratio (y) = 0.19906 0.54553
# Poissons Ratio (z) = 0.24172 0.45254
#
# Static dielectric constant tensor:
#      x y z
#    x 3.420100 0.000000 0.000000 
#    y 0.000000 3.243860 0.000000 
#    z 0.000000 0.000000 4.236460 
# 
# 
# High freq. dielectric constant tensor:
#      x y z
#    x 1.728670 0.000000 0.000000 
#    y 0.000000 1.702260 0.000000 
#    z 0.000000 0.000000 1.751710 
# 
# From -- ./inp_files/6761.got.cif
#   From: 2010.03.12/outbox.cif.g09.slc.cpg/sg28_4_cif.got.tgz:6761.got - 2010.04.14 03:39:34.
