data_PCOD8168590
_publ_section_title
;
Structure prediction by ZEFSAII (Michael W. Deem and Ramdas Pophale) SiO2 
 PCOD8168590
Probable space group: P C A 21
;
_chemical_formula_sum "Si O2"
_cell_formula_units_Z 32
_cell_length_a 8.597099
_cell_length_b 9.088801
_cell_length_c 20.892509
_cell_angle_alpha 90.000000
_cell_angle_beta 90.000000
_cell_angle_gamma 90.000000
_cell_volume 1632.484703
_symmetry_space_group_name_H-M "P C A 21"
_symmetry_group_IT_number 29
_symmetry_cell_setting 'orthorhombic'
loop_
_space_group_symop_operation_xyz
x,y,z
-x,-y,1/2+z
1/2-x,y,1/2+z
1/2+x,-y,z
loop_
_atom_site_type_symbol
_atom_site_label
_atom_site_fract_x
_atom_site_fract_y
_atom_site_fract_z
Si Si1 0.861559 0.101407 0.900640
Si Si2 0.153793 0.886980 0.678285
Si Si3 0.114975 0.914098 0.539503
Si Si4 0.699448 0.798944 0.180575
Si Si5 0.779830 0.803081 0.541456
Si Si6 0.800021 0.299169 0.785842
Si Si7 0.344709 0.394626 0.287321
Si Si8 0.291902 0.203078 0.402841
O O1 0.770180 0.198547 0.848490
O O2 0.043973 0.124561 0.891120
O O3 0.832570 0.927059 0.891949
O O4 0.812946 0.151768 0.973275
O O5 0.186354 0.840366 0.603908
O O6 0.270409 0.795565 0.722354
O O7 0.975058 0.852923 0.696203
O O8 0.186380 0.060811 0.687193
O O9 0.930487 0.906006 0.539405
O O10 0.133576 0.089307 0.541795
O O11 0.714107 0.719340 0.109815
O O12 0.751093 0.672792 0.228318
O O13 0.776893 0.716422 0.473343
O O14 0.676342 0.430715 0.788143
O O15 0.973413 0.361958 0.782680
O O16 0.267143 0.331252 0.351811
#
# Coordination Sequence:
#
# PCOD8168590 Si02
#       8
#     4   4   4   4   4   4   4   4
#     4   9  18  33  54  78 102 130 166 207 251 300
#     4  10  19  33  55  80 106 135 169 209 252 301
#     4   8  15  29  50  76 103 129 161 204 250 296
#     4  10  19  33  55  80 106 135 169 209 252 301
#     4   8  15  29  50  76 103 129 161 204 250 296
#     4  11  23  37  52  72 102 138 175 214 256 303
#     4  11  23  37  52  72 102 138 175 214 256 303
#     4   9  18  33  54  78 102 130 166 207 251 300
#
# _framework density 19.602021000000001
#
# number of rings (size 3 to 8) (size 9 to 14) (size 15 to 20)
#    0.000    2.500    0.000    2.250    0.000    5.000 
#    0.000    1.250    0.000    3.000    0.000    0.000 
#    0.000    0.000    0.000    0.000    0.000    0.000 
#
# Total GULP energy -396443.775967 kJ/mol
# GULP energy per Si atom -12388.867999 kJ/mol
# Density = 1.955741 g / cm^3
# Si number density = 19.602021 Si / 1000 Ang^3
#
#
#
# Elastic Constant Matrix: (Units=GPa)
#
#
# Indices 1 2 3 4 5 6 
#
# 1 33.2780 -0.3824 19.4330 0.0000 0.0000 0.0000
# 2 -0.3824 49.9225 29.0486 0.0000 0.0000 0.0000
# 3 19.4330 29.0486 134.4161 0.0000 0.0000 0.0000
# 4 0.0000 0.0000 0.0000 5.3346 0.0000 0.0000
# 5 0.0000 0.0000 0.0000 0.0000 27.0388 0.0000
# 6 0.0000 0.0000 0.0000 0.0000 0.0000 25.9395
#
#
#
# Elastic Compliance Matrix: (Units=1/GPa)
#
#
# Indices 1 2 3 4 5 6 
#
# 1 0.033347 0.003501 -0.005578 0.000000 0.000000 0.000000
# 2 0.003501 0.023280 -0.005537 0.000000 0.000000 0.000000
# 3 -0.005578 -0.005537 0.009443 0.000000 0.000000 0.000000
# 4 0.000000 0.000000 0.000000 0.187455 0.000000 0.000000
# 5 0.000000 0.000000 0.000000 0.000000 0.036984 0.000000
# 6 0.000000 0.000000 0.000000 0.000000 0.000000 0.038551
#
#
# Mechanical properties :
#
#
# Convention : Reuss Voigt Hill
#
# Bulk Modulus (GPa) = 19.66882 34.86833 27.26857
# Shear Modulus (GPa) = 13.84141 22.96373 18.40257
#
# Velocity S-wave (km/s) = 2.66018 3.42643 3.06732
# Velocity P-wave (km/s) = 4.41489 5.78625 5.14645
#
# Compressibility (1/GPa) = 0.05084190
#
# Stress axis : x y z
#
# Youngs Moduli (GPa) = 29.98745 42.95576 105.90293
#
# Poissons Ratio (x) = -0.15039 0.59070
# Poissons Ratio (y) = -0.10499 0.58640
# Poissons Ratio (z) = 0.16726 0.23785
#
# Static dielectric constant tensor:
#      x y z
#    x 3.508440 0.000000 0.000000 
#    y 0.000000 3.135390 0.000000 
#    z 0.000000 0.000000 4.226000 
# 
# 
# High freq. dielectric constant tensor:
#      x y z
#    x 1.763380 0.000000 0.000000 
#    y 0.000000 1.709110 0.000000 
#    z 0.000000 0.000000 1.794050 
# 
# From -- ./inp_files/5398.got.cif
#   From: 2010.03.12/outbox.cif.g09.slc.cpg/sg29_3_cif.got.tgz:5398.got - 2010.04.14 03:43:10.
