data_PCOD8168182
_publ_section_title
;
Structure prediction by ZEFSAII (Michael W. Deem and Ramdas Pophale) SiO2 
 PCOD8168182
Probable space group: P M A 2
;
_chemical_formula_sum "Si O2"
_cell_formula_units_Z 28
_cell_length_a 8.722195
_cell_length_b 9.353835
_cell_length_c 18.267395
_cell_angle_alpha 90.000000
_cell_angle_beta 90.000000
_cell_angle_gamma 90.000000
_cell_volume 1490.363193
_symmetry_space_group_name_H-M "P M A 2"
_symmetry_group_IT_number 28
_symmetry_cell_setting 'orthorhombic'
loop_
_space_group_symop_operation_xyz
x,y,z
-x,-y,z
1/2-x,y,z
1/2+x,-y,z
loop_
_atom_site_type_symbol
_atom_site_label
_atom_site_fract_x
_atom_site_fract_y
_atom_site_fract_z
Si Si1 0.927420 0.347810 0.620680
Si Si2 0.568746 0.343123 0.778819
Si Si3 0.931132 0.342635 0.462647
Si Si4 0.068121 0.845661 0.185216
Si Si5 0.931801 0.156513 0.912865
Si Si6 0.568665 0.846633 0.337650
Si Si7 0.430691 0.656251 0.049159
O O1 0.750000 0.376767 0.626579
O O2 0.979724 0.277452 0.698305
O O3 0.962864 0.268315 0.543234
O O4 0.000000 0.500000 0.614524
O O5 0.500000 0.500000 0.791358
O O6 0.750000 0.358166 0.787162
O O7 0.505763 0.233429 0.839403
O O8 0.750000 0.345407 0.444996
O O9 0.000000 0.500000 0.461430
O O10 0.023309 0.256112 0.402903
O O11 0.250000 0.860010 0.191175
O O12 0.016736 0.733461 0.123660
O O13 0.000695 0.787853 0.261701
O O14 0.000000 0.000000 0.165220
O O15 0.750000 0.143431 0.912911
O O16 0.990752 0.249540 0.981378
O O17 0.000000 0.000000 0.918517
O O18 0.750000 0.857423 0.330323
O O19 0.500000 0.000000 0.356134
O O20 0.500000 0.500000 0.045103
O O21 0.250000 0.640934 0.045787
#
# Coordination Sequence:
#
# PCOD8168182 Si02
#       7
#     4   4   4   4   4   4   4
#     4   8  15  28  48  73 102 135 170 212 258 305
#     4   9  17  31  52  77 104 134 172 215 258 304
#     4  10  19  33  53  78 107 139 177 219 264 312
#     4  10  20  36  56  78 104 135 173 213 257 310
#     4  10  21  36  53  76 106 139 174 211 253 303
#     4  11  22  37  56  78 105 139 177 216 263 315
#     4  10  22  37  55  80 107 135 170 212 255 303
#
# _framework density 18.787367
#
# number of rings (size 3 to 8) (size 9 to 14) (size 15 to 20)
#    0.000    2.286    0.000    3.857    0.000    3.429 
#    0.000    2.143    0.000    1.714    0.000    0.000 
#    0.000    0.000    0.000    0.000    0.000    0.000 
#
# Total GULP energy -346978.489925 kJ/mol
# GULP energy per Si atom -12392.088926 kJ/mol
# Density = 1.874461 g / cm^3
# Si number density = 18.787367 Si / 1000 Ang^3
#
#
#
# Elastic Constant Matrix: (Units=GPa)
#
#
# Indices 1 2 3 4 5 6 
#
# 1 58.6265 31.0828 44.5165 0.0000 0.0000 0.0000
# 2 31.0828 111.2881 92.9609 0.0000 0.0000 0.0000
# 3 44.5165 92.9609 185.9948 0.0000 0.0000 0.0000
# 4 0.0000 0.0000 0.0000 17.5342 0.0000 0.0000
# 5 0.0000 0.0000 0.0000 0.0000 1.1577 0.0000
# 6 0.0000 0.0000 0.0000 0.0000 0.0000 31.6059
#
#
#
# Elastic Compliance Matrix: (Units=1/GPa)
#
#
# Indices 1 2 3 4 5 6 
#
# 1 0.021382 -0.002914 -0.003661 0.000000 0.000000 0.000000
# 2 -0.002914 0.015823 -0.007211 0.000000 0.000000 0.000000
# 3 -0.003661 -0.007211 0.009857 0.000000 0.000000 0.000000
# 4 0.000000 0.000000 0.000000 0.057031 0.000000 0.000000
# 5 0.000000 0.000000 0.000000 0.000000 0.863765 0.000000
# 6 0.000000 0.000000 0.000000 0.000000 0.000000 0.031640
#
#
# Mechanical properties :
#
#
# Convention : Reuss Voigt Hill
#
# Bulk Modulus (GPa) = 51.30862 77.00331 64.15596
# Shear Modulus (GPa) = 4.83762 22.54952 13.69357
#
# Velocity S-wave (km/s) = 1.60640 3.46822 2.70269
# Velocity P-wave (km/s) = 5.55069 7.55737 6.63038
#
# Compressibility (1/GPa) = 0.01948990
#
# Stress axis : x y z
#
# Youngs Moduli (GPa) = 46.76816 63.19932 101.45141
#
# Poissons Ratio (x) = 0.18414 0.37146
# Poissons Ratio (y) = 0.13626 0.73157
# Poissons Ratio (z) = 0.17124 0.45573
#
# Static dielectric constant tensor:
#      x y z
#    x 3.441930 0.000000 0.000000 
#    y 0.000000 3.217560 0.000000 
#    z 0.000000 0.000000 4.211230 
# 
# 
# High freq. dielectric constant tensor:
#      x y z
#    x 1.730930 0.000000 0.000000 
#    y 0.000000 1.703180 0.000000 
#    z 0.000000 0.000000 1.759210 
# 
# From -- ./inp_files/6800.got.cif
#   From: 2010.03.12/outbox.cif.g09.slc.cpg/sg28_4_cif.got.tgz:6800.got - 2010.04.14 03:39:34.
