data_PCOD8168877
_publ_section_title
;
Structure prediction by ZEFSAII (Michael W. Deem and Ramdas Pophale) SiO2 
 PCOD8168877
Probable space group: P C A 21
;
_chemical_formula_sum "Si O2"
_cell_formula_units_Z 28
_cell_length_a 24.715097
_cell_length_b 9.768266
_cell_length_c 5.026059
_cell_angle_alpha 90.000000
_cell_angle_beta 90.000000
_cell_angle_gamma 90.000000
_cell_volume 1213.409467
_symmetry_space_group_name_H-M "P C A 21"
_symmetry_group_IT_number 29
_symmetry_cell_setting 'orthorhombic'
loop_
_space_group_symop_operation_xyz
x,y,z
-x,-y,1/2+z
1/2-x,y,1/2+z
1/2+x,-y,z
loop_
_atom_site_type_symbol
_atom_site_label
_atom_site_fract_x
_atom_site_fract_y
_atom_site_fract_z
Si Si1 0.945654 0.041924 0.194240
Si Si2 0.886998 0.681439 0.785994
Si Si3 0.286303 0.501496 0.832585
Si Si4 0.215597 0.811154 0.363382
Si Si5 0.121843 0.006972 0.188392
Si Si6 0.491518 0.220513 0.045218
Si Si7 0.967150 0.484164 0.569687
O O1 0.895036 0.045190 0.397442
O O2 0.985667 0.167194 0.259602
O O3 0.925249 0.036361 0.892637
O O4 0.981439 0.904437 0.249034
O O5 0.834497 0.604170 0.899251
O O6 0.932996 0.704552 0.008814
O O7 0.912895 0.575504 0.566927
O O8 0.868918 0.828842 0.671322
O O9 0.261473 0.474597 0.542529
O O10 0.309013 0.657610 0.838447
O O11 0.232945 0.828942 0.669329
O O12 0.175265 0.931046 0.283319
O O13 0.535931 0.325066 0.174756
O O14 0.011851 0.546279 0.770635
#
# Coordination Sequence:
#
# PCOD8168877 Si02
#       7
#     4   4   4   4   4   4   4
#     4  11  23  39  62  94 133 175 212 266 313 383
#     4  10  23  42  64  97 127 166 209 264 312 378
#     4  10  24  44  65  91 125 163 209 261 326 385
#     4  10  22  44  67  92 124 164 213 271 326 389
#     4  11  24  40  66  96 128 167 221 264 325 379
#     4  10  22  42  62  94 135 175 216 261 319 383
#     4  10  22  39  60  90 130 170 208 253 311 377
#
# _framework density 23.075475000000001
#
# number of rings (size 3 to 8) (size 9 to 14) (size 15 to 20)
#    0.000    1.714    0.000    3.429    2.000    9.143 
#    5.143    0.000    0.000    0.000    0.000    0.000 
#    0.000    0.000    0.000    0.000    0.000    0.000 
#
# Total GULP energy -346891.632124 kJ/mol
# GULP energy per Si atom -12388.986862 kJ/mol
# Density = 2.302295 g / cm^3
# Si number density = 23.075475 Si / 1000 Ang^3
#
#
#
# Elastic Constant Matrix: (Units=GPa)
#
#
# Indices 1 2 3 4 5 6 
#
# 1 93.4749 69.3303 4.5753 0.0000 0.0000 0.0000
# 2 69.3303 129.1409 5.4345 0.0000 0.0000 0.0000
# 3 4.5753 5.4345 56.3961 0.0000 0.0000 0.0000
# 4 0.0000 0.0000 0.0000 28.3343 0.0000 0.0000
# 5 0.0000 0.0000 0.0000 0.0000 21.6261 0.0000
# 6 0.0000 0.0000 0.0000 0.0000 0.0000 49.0674
#
#
#
# Elastic Compliance Matrix: (Units=1/GPa)
#
#
# Indices 1 2 3 4 5 6 
#
# 1 0.017792 -0.009530 -0.000525 0.000000 0.000000 0.000000
# 2 -0.009530 0.012879 -0.000468 0.000000 0.000000 0.000000
# 3 -0.000525 -0.000468 0.017819 0.000000 0.000000 0.000000
# 4 0.000000 0.000000 0.000000 0.035293 0.000000 0.000000
# 5 0.000000 0.000000 0.000000 0.000000 0.046240 0.000000
# 6 0.000000 0.000000 0.000000 0.000000 0.000000 0.020380
#
#
# Mechanical properties :
#
#
# Convention : Reuss Voigt Hill
#
# Bulk Modulus (GPa) = 36.43633 48.63244 42.53438
# Shear Modulus (GPa) = 27.68585 33.11702 30.40144
#
# Velocity S-wave (km/s) = 3.46756 3.79246 3.63365
# Velocity P-wave (km/s) = 5.64414 6.34808 6.00643
#
# Compressibility (1/GPa) = 0.02744514
#
# Stress axis : x y z
#
# Youngs Moduli (GPa) = 56.20550 77.64453 56.11855
#
# Poissons Ratio (x) = 0.73992 0.02947
# Poissons Ratio (y) = 0.53562 0.02626
# Poissons Ratio (z) = 0.02951 0.03633
#
# Static dielectric constant tensor:
#      x y z
#    x 3.836810 0.000000 0.000000 
#    y 0.000000 4.689160 0.000000 
#    z 0.000000 0.000000 3.980990 
# 
# 
# High freq. dielectric constant tensor:
#      x y z
#    x 1.885210 0.000000 0.000000 
#    y 0.000000 1.934110 0.000000 
#    z 0.000000 0.000000 1.906170 
# 
# From -- ./inp_files/784.got.cif
#   From: 2010.03.12/outbox.cif.g09.slc.cpg/sg29_1_cif.got.tgz:784.got - 2010.04.14 03:43:10.
