data_PCOD8168686
_publ_section_title
;
Structure prediction by ZEFSAII (Michael W. Deem and Ramdas Pophale) SiO2 
 PCOD8168686
Probable space group: P C A 21
;
_chemical_formula_sum "Si O2"
_cell_formula_units_Z 28
_cell_length_a 16.821741
_cell_length_b 10.058726
_cell_length_c 8.911716
_cell_angle_alpha 90.000000
_cell_angle_beta 90.000000
_cell_angle_gamma 90.000000
_cell_volume 1507.909433
_symmetry_space_group_name_H-M "P C A 21"
_symmetry_group_IT_number 29
_symmetry_cell_setting 'orthorhombic'
loop_
_space_group_symop_operation_xyz
x,y,z
-x,-y,1/2+z
1/2-x,y,1/2+z
1/2+x,-y,z
loop_
_atom_site_type_symbol
_atom_site_label
_atom_site_fract_x
_atom_site_fract_y
_atom_site_fract_z
Si Si1 0.750000 0.500000 0.387080
Si Si2 0.302379 0.317316 0.640276
Si Si3 0.093851 0.100934 0.020654
Si Si4 0.180844 0.899617 0.213227
Si Si5 0.093851 0.899066 0.520654
Si Si6 0.819156 0.899617 0.213227
Si Si7 0.302379 0.682684 0.140276
O O1 0.689850 0.585735 0.283230
O O2 0.802870 0.596808 0.488626
O O3 0.697130 0.403192 0.488626
O O4 0.810150 0.414265 0.283229
O O5 0.377192 0.217631 0.633365
O O6 0.219377 0.235918 0.650946
O O7 0.000000 0.095353 0.019290
O O8 0.127837 0.960749 0.079612
O O9 0.125860 0.131183 0.855202
O O10 0.125860 0.868818 0.355202
O O11 0.219377 0.764082 0.150946
O O12 0.250000 0.000000 0.265196
O O13 0.122808 0.782369 0.633365
O O14 0.127837 0.039251 0.579612
#
# Coordination Sequence:
#
# PCOD8168686 Si02
#       7
#     4   4   4   4   4   4   4
#     4  10  20  36  62  84 104 146 204 228 266 312
#     4  10  20  37  61  84 107 148 193 234 263 339
#     4  11  22  36  56  88 119 144 177 236 294 330
#     4  10  20  36  59  84 112 147 190 229 274 338
#     4  11  22  36  56  88 119 144 177 236 294 330
#     4  10  20  36  59  84 112 147 190 229 274 338
#     4  10  20  37  61  84 107 148 193 234 263 339
#
# _framework density 18.568753000000001
#
# number of rings (size 3 to 8) (size 9 to 14) (size 15 to 20)
#    0.000    1.714    2.857    3.429    4.000    0.000 
#    0.000    1.429    0.000    0.000    0.000    0.000 
#    0.000    0.000    0.000    0.000    0.000    0.000 
#
# Total GULP energy -347229.906660 kJ/mol
# GULP energy per Si atom -12401.068095 kJ/mol
# Density = 1.852649 g / cm^3
# Si number density = 18.568753 Si / 1000 Ang^3
#
#
#
# Elastic Constant Matrix: (Units=GPa)
#
#
# Indices 1 2 3 4 5 6 
#
# 1 129.3899 42.1805 38.4248 0.0000 0.0000 0.0000
# 2 42.1805 103.7046 46.0815 0.0000 0.0000 0.0000
# 3 38.4248 46.0815 101.8610 0.0000 0.0000 0.0000
# 4 0.0000 0.0000 0.0000 33.5146 0.0000 0.0000
# 5 0.0000 0.0000 0.0000 0.0000 23.3844 0.0000
# 6 0.0000 0.0000 0.0000 0.0000 0.0000 14.0111
#
#
#
# Elastic Compliance Matrix: (Units=1/GPa)
#
#
# Indices 1 2 3 4 5 6 
#
# 1 0.009305 -0.002785 -0.002250 0.000000 0.000000 0.000000
# 2 -0.002785 0.012902 -0.004786 0.000000 0.000000 0.000000
# 3 -0.002250 -0.004786 0.012832 0.000000 0.000000 0.000000
# 4 0.000000 0.000000 0.000000 0.029838 0.000000 0.000000
# 5 0.000000 0.000000 0.000000 0.000000 0.042764 0.000000
# 6 0.000000 0.000000 0.000000 0.000000 0.000000 0.071372
#
#
# Mechanical properties :
#
#
# Convention : Reuss Voigt Hill
#
# Bulk Modulus (GPa) = 64.95301 65.36991 65.16146
# Shear Modulus (GPa) = 24.53553 28.06661 26.30107
#
# Velocity S-wave (km/s) = 3.63896 3.89202 3.76761
# Velocity P-wave (km/s) = 7.26028 7.44834 7.35491
#
# Compressibility (1/GPa) = 0.01539575
#
# Stress axis : x y z
#
# Youngs Moduli (GPa) = 107.47377 77.50567 77.93310
#
# Poissons Ratio (x) = 0.21583 0.17536
# Poissons Ratio (y) = 0.29928 0.37303
# Poissons Ratio (z) = 0.24184 0.37098
#
# Static dielectric constant tensor:
#      x y z
#    x 3.072620 0.000000 0.000000 
#    y 0.000000 3.716940 0.000000 
#    z 0.000000 0.000000 3.535490 
# 
# 
# High freq. dielectric constant tensor:
#      x y z
#    x 1.679050 0.000000 0.000000 
#    y 0.000000 1.731770 0.000000 
#    z 0.000000 0.000000 1.734470 
# 
# From -- ./inp_files/1782.got.cif
#   From: 2010.03.12/outbox.cif.g09.slc.cpg/sg29_1_cif.got.tgz:1782.got - 2010.04.14 03:43:10.
