data_PCOD8168394
_publ_section_title
;
Structure prediction by ZEFSAII (Michael W. Deem and Ramdas Pophale) SiO2 
 PCOD8168394
Probable space group: P M A 2
;
_chemical_formula_sum "Si O2"
_cell_formula_units_Z 32
_cell_length_a 8.985084
_cell_length_b 15.399571
_cell_length_c 11.792953
_cell_angle_alpha 90.000000
_cell_angle_beta 90.000000
_cell_angle_gamma 90.000000
_cell_volume 1631.748912
_symmetry_space_group_name_H-M "P M A 2"
_symmetry_group_IT_number 28
_symmetry_cell_setting 'orthorhombic'
loop_
_space_group_symop_operation_xyz
x,y,z
-x,-y,z
1/2-x,y,z
1/2+x,-y,z
loop_
_atom_site_type_symbol
_atom_site_label
_atom_site_fract_x
_atom_site_fract_y
_atom_site_fract_z
Si Si1 0.423791 0.250436 0.740080
Si Si2 0.422242 0.587016 0.114183
Si Si3 0.076368 0.088149 0.586951
Si Si4 0.573581 0.245866 0.978533
Si Si5 0.075931 0.413316 0.582968
Si Si6 0.423148 0.652171 0.360788
Si Si7 0.922806 0.910315 0.108303
Si Si8 0.578039 0.833372 0.350837
O O1 0.250000 0.248069 0.773458
O O2 0.471277 0.165683 0.669823
O O3 0.527009 0.255201 0.848951
O O4 0.461878 0.333940 0.664841
O O5 0.500000 0.500000 0.069577
O O6 0.250000 0.576428 0.088084
O O7 0.454842 0.599157 0.246704
O O8 0.484766 0.669323 0.045071
O O9 0.250000 0.072006 0.592522
O O10 0.026429 0.111203 0.459279
O O11 0.000000 0.000000 0.628323
O O12 0.750000 0.234974 0.989547
O O13 0.495589 0.163034 0.031953
O O14 0.250000 0.429559 0.572709
O O15 0.000000 0.500000 0.632716
O O16 0.014972 0.394429 0.458298
O O17 0.250000 0.652584 0.392792
O O18 0.474867 0.750044 0.341084
O O19 0.750000 0.916072 0.077220
O O20 0.947314 0.892054 0.240923
O O21 0.000000 0.000000 0.075826
O O22 0.750000 0.803640 0.364032
#
# Coordination Sequence:
#
# PCOD8168394 Si02
#       8
#     4   4   4   4   4   4   4   4
#     4  10  23  43  63  84 119 161 203 251 303 359
#     4  10  23  40  60  89 122 157 196 246 300 358
#     4  10  21  39  61  89 122 155 195 241 296 355
#     4  11  24  43  63  87 121 157 206 259 303 357
#     4  11  23  41  63  90 125 160 201 250 301 362
#     4  11  21  36  61  92 125 159 198 244 302 364
#     4  11  23  39  64  93 124 162 202 246 304 364
#     4  10  20  37  61  90 124 161 195 241 303 363
#
# _framework density 19.610859000000001
#
# number of rings (size 3 to 8) (size 9 to 14) (size 15 to 20)
#    0.000    1.500    2.500    2.250    0.000    6.500 
#    0.000    3.750    0.000    0.000    0.000    0.000 
#    0.000    0.000    0.000    0.000    0.000    0.000 
#
# Total GULP energy -396977.857975 kJ/mol
# GULP energy per Si atom -12405.558062 kJ/mol
# Density = 1.956622 g / cm^3
# Si number density = 19.610859 Si / 1000 Ang^3
#
#
#
# Elastic Constant Matrix: (Units=GPa)
#
#
# Indices 1 2 3 4 5 6 
#
# 1 84.2844 69.6338 51.3885 0.0000 0.0000 0.0000
# 2 69.6338 176.4170 47.8343 0.0000 0.0000 0.0000
# 3 51.3885 47.8343 87.4142 0.0000 0.0000 0.0000
# 4 0.0000 0.0000 0.0000 -19.7397 0.0000 0.0000
# 5 0.0000 0.0000 0.0000 0.0000 28.2204 0.0000
# 6 0.0000 0.0000 0.0000 0.0000 0.0000 39.9407
#
#
#
# Elastic Compliance Matrix: (Units=1/GPa)
#
#
# Indices 1 2 3 4 5 6 
#
# 1 0.023472 -0.006486 -0.010250 0.000000 0.000000 0.000000
# 2 -0.006486 0.008448 -0.000810 0.000000 0.000000 0.000000
# 3 -0.010250 -0.000810 0.017909 0.000000 0.000000 0.000000
# 4 0.000000 0.000000 0.000000 -0.050659 0.000000 0.000000
# 5 0.000000 0.000000 0.000000 0.000000 0.035435 0.000000
# 6 0.000000 0.000000 0.000000 0.000000 0.000000 0.025037
#
#
# Mechanical properties :
#
#
# Convention : Reuss Voigt Hill
#
# Bulk Modulus (GPa) = 67.85202 76.20321 72.02761
# Shear Modulus (GPa) = 50.17818 21.63488 35.90653
#
# Velocity S-wave (km/s) = 5.06384 3.32506 4.28360
# Velocity P-wave (km/s) = 8.29845 7.32690 7.82776
#
# Compressibility (1/GPa) = 0.01473796
#
# Stress axis : x y z
#
# Youngs Moduli (GPa) = 42.60393 118.37132 55.83917
#
# Poissons Ratio (x) = 0.76771 0.57233
# Poissons Ratio (y) = 0.27631 0.04524
# Poissons Ratio (z) = 0.43667 0.09590
#
# Static dielectric constant tensor:
#      x y z
#    x 3.562150 0.000000 0.000000 
#    y 0.000000 3.725470 0.000000 
#    z 0.000000 0.000000 3.613580 
# 
# 
# High freq. dielectric constant tensor:
#      x y z
#    x 1.765650 0.000000 0.000000 
#    y 0.000000 1.778600 0.000000 
#    z 0.000000 0.000000 1.763850 
# 
# From -- ./inp_files/4986.got.cif
#   From: 2010.03.12/outbox.cif.g09.slc.cpg/sg28_3_cif.got.tgz:4986.got - 2010.04.14 03:39:34.
