data_PCOD8168968
_publ_section_title
;
Structure prediction by ZEFSAII (Michael W. Deem and Ramdas Pophale) SiO2 
 PCOD8168968
Probable space group: P C A 21
;
_chemical_formula_sum "Si O2"
_cell_formula_units_Z 32
_cell_length_a 12.180626
_cell_length_b 6.266601
_cell_length_c 18.188967
_cell_angle_alpha 90.000000
_cell_angle_beta 90.000000
_cell_angle_gamma 90.000000
_cell_volume 1388.384279
_symmetry_space_group_name_H-M "P C A 21"
_symmetry_group_IT_number 29
_symmetry_cell_setting 'orthorhombic'
loop_
_space_group_symop_operation_xyz
x,y,z
-x,-y,1/2+z
1/2-x,y,1/2+z
1/2+x,-y,z
loop_
_atom_site_type_symbol
_atom_site_label
_atom_site_fract_x
_atom_site_fract_y
_atom_site_fract_z
Si Si1 0.122782 0.788573 0.411150
Si Si2 0.040325 0.031985 0.536118
Si Si3 0.525880 0.965635 0.282175
Si Si4 0.937554 0.725251 0.173024
Si Si5 0.176115 0.695498 0.827018
Si Si6 0.214361 0.352785 0.233328
Si Si7 0.470391 0.572536 0.451594
Si Si8 0.069273 0.363389 0.101366
O O1 0.243810 0.829314 0.379876
O O2 0.083552 0.543954 0.426327
O O3 0.126821 0.888369 0.492824
O O4 0.035714 0.908705 0.358639
O O5 0.100746 0.179867 0.594946
O O6 0.984641 0.179337 0.472943
O O7 0.959632 0.882915 0.585179
O O8 0.409488 0.838694 0.281003
O O9 0.627688 0.800658 0.274064
O O10 0.530439 0.132290 0.214061
O O11 0.837641 0.737975 0.230199
O O12 0.979932 0.485738 0.154161
O O13 0.266881 0.574326 0.776657
O O14 0.108049 0.541983 0.881266
O O15 0.180348 0.385923 0.148293
O O16 0.412941 0.468821 0.522423
#
# Coordination Sequence:
#
# PCOD8168968 Si02
#       8
#     4   4   4   4   4   4   4   4
#     4  11  24  43  71 101 137 187 235 288 356 429
#     4  10  22  46  70  98 146 184 232 292 356 418
#     4  12  24  48  68 102 152 184 238 310 364 434
#     4  11  24  43  71 101 137 187 235 288 356 429
#     4  12  25  43  72 104 139 192 239 295 366 435
#     4  12  25  43  72 104 139 192 239 295 366 435
#     4  10  23  45  69 102 147 185 238 302 355 427
#     4  10  23  45  69 102 147 185 238 302 355 427
#
# _framework density 23.048373999999999
#
# number of rings (size 3 to 8) (size 9 to 14) (size 15 to 20)
#    0.000    1.000    2.500    3.750    0.000    4.000 
#    0.000    0.000    0.000    0.000    0.000    0.000 
#    0.000    0.000    0.000    0.000    0.000    0.000 
#
# Total GULP energy -396438.826640 kJ/mol
# GULP energy per Si atom -12388.713333 kJ/mol
# Density = 2.299591 g / cm^3
# Si number density = 23.048374 Si / 1000 Ang^3
#
#
#
# Elastic Constant Matrix: (Units=GPa)
#
#
# Indices 1 2 3 4 5 6 
#
# 1 73.6164 31.2335 9.6899 0.0000 0.0000 0.0000
# 2 31.2335 107.1293 27.8705 0.0000 0.0000 0.0000
# 3 9.6899 27.8705 84.0724 0.0000 0.0000 0.0000
# 4 0.0000 0.0000 0.0000 45.8741 0.0000 0.0000
# 5 0.0000 0.0000 0.0000 0.0000 45.3973 0.0000
# 6 0.0000 0.0000 0.0000 0.0000 0.0000 25.7733
#
#
#
# Elastic Compliance Matrix: (Units=1/GPa)
#
#
# Indices 1 2 3 4 5 6 
#
# 1 0.015509 -0.004440 -0.000316 0.000000 0.000000 0.000000
# 2 -0.004440 0.011486 -0.003296 0.000000 0.000000 0.000000
# 3 -0.000316 -0.003296 0.013024 0.000000 0.000000 0.000000
# 4 0.000000 0.000000 0.000000 0.021799 0.000000 0.000000
# 5 0.000000 0.000000 0.000000 0.000000 0.022028 0.000000
# 6 0.000000 0.000000 0.000000 0.000000 0.000000 0.038800
#
#
# Mechanical properties :
#
#
# Convention : Reuss Voigt Hill
#
# Bulk Modulus (GPa) = 41.81271 44.71177 43.26224
# Shear Modulus (GPa) = 34.07843 36.47720 35.27782
#
# Velocity S-wave (km/s) = 3.84938 3.98255 3.91653
# Velocity P-wave (km/s) = 6.15935 6.37094 6.26604
#
# Compressibility (1/GPa) = 0.02391617
#
# Stress axis : x y z
#
# Youngs Moduli (GPa) = 64.47843 87.05976 76.78372
#
# Poissons Ratio (x) = 0.38650 0.02425
# Poissons Ratio (y) = 0.28625 0.25309
# Poissons Ratio (z) = 0.02036 0.28696
#
# Static dielectric constant tensor:
#      x y z
#    x 3.784650 0.000000 0.000000 
#    y 0.000000 4.306590 0.000000 
#    z 0.000000 0.000000 4.362290 
# 
# 
# High freq. dielectric constant tensor:
#      x y z
#    x 1.880060 0.000000 0.000000 
#    y 0.000000 1.913310 0.000000 
#    z 0.000000 0.000000 1.937810 
# 
# From -- ./inp_files/5555.got.cif
#   From: 2010.03.12/outbox.cif.g09.slc.cpg/sg29_3_cif.got.tgz:5555.got - 2010.04.14 03:43:10.
