data_PCOD8168606
_publ_section_title
;
Structure prediction by ZEFSAII (Michael W. Deem and Ramdas Pophale) SiO2 
 PCOD8168606
Probable space group: P C A 21
;
_chemical_formula_sum "Si O2"
_cell_formula_units_Z 32
_cell_length_a 19.283546
_cell_length_b 8.694523
_cell_length_c 10.280511
_cell_angle_alpha 90.000000
_cell_angle_beta 90.000000
_cell_angle_gamma 90.000000
_cell_volume 1723.643163
_symmetry_space_group_name_H-M "P C A 21"
_symmetry_group_IT_number 29
_symmetry_cell_setting 'orthorhombic'
loop_
_space_group_symop_operation_xyz
x,y,z
-x,-y,1/2+z
1/2-x,y,1/2+z
1/2+x,-y,z
loop_
_atom_site_type_symbol
_atom_site_label
_atom_site_fract_x
_atom_site_fract_y
_atom_site_fract_z
Si Si1 0.806316 0.889240 0.574850
Si Si2 0.023410 0.870726 0.799479
Si Si3 0.023410 0.129274 0.584673
Si Si4 0.397616 0.324360 0.731223
Si Si5 0.693684 0.110760 0.309302
Si Si6 0.664384 0.172870 0.910712
Si Si7 0.102384 0.675640 0.152930
Si Si8 0.335616 0.172870 0.973441
O O1 0.783965 0.000000 0.692076
O O2 0.834320 0.995074 0.458039
O O3 0.868086 0.774313 0.611250
O O4 0.738864 0.788440 0.535833
O O5 0.103342 0.815704 0.803368
O O6 0.976321 0.724673 0.761432
O O7 0.011049 0.000000 0.692076
O O8 0.000000 0.932429 0.942076
O O9 0.103342 0.184296 0.580785
O O10 0.976321 0.275327 0.622720
O O11 0.395906 0.500000 0.692076
O O12 0.349476 0.292850 0.856999
O O13 0.761136 0.211560 0.348319
O O14 0.631914 0.225687 0.272903
O O15 0.665680 0.004926 0.426114
O O16 0.650524 0.292850 0.027154
#
# Coordination Sequence:
#
# PCOD8168606 Si02
#       8
#     4   4   4   4   4   4   4   4
#     4   9  17  33  55  78 100 129 174 227 275 314
#     4  10  19  35  56  79 104 137 180 224 268 317
#     4  10  19  35  56  79 104 137 180 224 268 317
#     4  10  20  33  48  72 109 143 170 212 270 325
#     4   9  17  33  55  78 100 129 174 227 275 314
#     4   9  18  33  55  77  99 133 179 225 266 319
#     4  10  20  33  48  72 109 143 170 212 270 325
#     4   9  18  33  55  77  99 133 179 225 266 319
#
# _framework density 18.565327
#
# number of rings (size 3 to 8) (size 9 to 14) (size 15 to 20)
#    0.000    2.500    0.000    4.500    0.000    1.000 
#    0.000   12.500    0.000    0.000    0.000    0.000 
#    0.000    0.000    0.000    0.000    0.000    0.000 
#
# Total GULP energy -396751.428470 kJ/mol
# GULP energy per Si atom -12398.482140 kJ/mol
# Density = 1.852307 g / cm^3
# Si number density = 18.565327 Si / 1000 Ang^3
#
#
#
# Elastic Constant Matrix: (Units=GPa)
#
#
# Indices 1 2 3 4 5 6 
#
# 1 140.8459 45.8996 40.5584 0.0000 0.0000 0.0000
# 2 45.8996 101.4406 43.4930 0.0000 0.0000 0.0000
# 3 40.5584 43.4930 63.9908 0.0000 0.0000 0.0000
# 4 0.0000 0.0000 0.0000 15.6224 0.0000 0.0000
# 5 0.0000 0.0000 0.0000 0.0000 31.4278 0.0000
# 6 0.0000 0.0000 0.0000 0.0000 0.0000 13.2639
#
#
#
# Elastic Compliance Matrix: (Units=1/GPa)
#
#
# Indices 1 2 3 4 5 6 
#
# 1 0.009053 -0.002309 -0.004168 0.000000 0.000000 0.000000
# 2 -0.002309 0.014501 -0.008393 0.000000 0.000000 0.000000
# 3 -0.004168 -0.008393 0.023974 0.000000 0.000000 0.000000
# 4 0.000000 0.000000 0.000000 0.064011 0.000000 0.000000
# 5 0.000000 0.000000 0.000000 0.000000 0.031819 0.000000
# 6 0.000000 0.000000 0.000000 0.000000 0.000000 0.075393
#
#
# Mechanical properties :
#
#
# Convention : Reuss Voigt Hill
#
# Bulk Modulus (GPa) = 56.21957 62.90881 59.56419
# Shear Modulus (GPa) = 19.65264 23.81790 21.73527
#
# Velocity S-wave (km/s) = 3.25709 3.58568 3.42533
# Velocity P-wave (km/s) = 6.67028 7.14853 6.91354
#
# Compressibility (1/GPa) = 0.01778740
#
# Stress axis : x y z
#
# Youngs Moduli (GPa) = 110.46340 68.96044 41.71264
#
# Poissons Ratio (x) = 0.15922 0.17388
# Poissons Ratio (y) = 0.25505 0.35008
# Poissons Ratio (z) = 0.46046 0.57876
#
# Static dielectric constant tensor:
#      x y z
#    x 3.744280 0.000000 0.000000 
#    y 0.000000 2.996060 0.000000 
#    z 0.000000 0.000000 3.489300 
# 
# 
# High freq. dielectric constant tensor:
#      x y z
#    x 1.736760 0.000000 0.000000 
#    y 0.000000 1.677640 0.000000 
#    z 0.000000 0.000000 1.718020 
# 
# From -- ./inp_files/3918.got.cif
#   From: 2010.03.12/outbox.cif.g09.slc.cpg/sg29_2_cif.got.tgz:3918.got - 2010.04.14 03:43:10.
