data_PCOD8168224
_publ_section_title
;
Structure prediction by ZEFSAII (Michael W. Deem and Ramdas Pophale) SiO2 
 PCOD8168224
Probable space group: P M A 2
;
_chemical_formula_sum "Si O2"
_cell_formula_units_Z 28
_cell_length_a 8.662638
_cell_length_b 14.498438
_cell_length_c 12.701281
_cell_angle_alpha 90.000000
_cell_angle_beta 90.000000
_cell_angle_gamma 90.000000
_cell_volume 1595.213830
_symmetry_space_group_name_H-M "P M A 2"
_symmetry_group_IT_number 28
_symmetry_cell_setting 'orthorhombic'
loop_
_space_group_symop_operation_xyz
x,y,z
-x,-y,z
1/2-x,y,z
1/2+x,-y,z
loop_
_atom_site_type_symbol
_atom_site_label
_atom_site_fract_x
_atom_site_fract_y
_atom_site_fract_z
Si Si1 0.067183 0.398889 0.521260
Si Si2 0.567492 0.903788 0.645170
Si Si3 0.566364 0.714083 0.321220
Si Si4 0.932286 0.282593 0.710943
Si Si5 0.068586 0.403291 0.129492
Si Si6 0.069004 0.094440 0.401831
Si Si7 0.566805 0.598772 0.890179
O O1 0.250000 0.404920 0.522446
O O2 0.004936 0.352320 0.414048
O O3 0.000000 0.500000 0.532669
O O4 0.015408 0.337515 0.618612
O O5 0.750000 0.899655 0.662930
O O6 0.484902 0.823365 0.710140
O O7 0.521880 0.891827 0.523105
O O8 0.500000 0.000000 0.688194
O O9 0.750000 0.716899 0.327108
O O10 0.507352 0.675946 0.208756
O O11 0.502174 0.817961 0.337351
O O12 0.750000 0.291000 0.698167
O O13 0.985853 0.322757 0.822406
O O14 0.250000 0.412813 0.138936
O O15 0.000000 0.500000 0.166972
O O16 0.019425 0.379239 0.010670
O O17 0.250000 0.087383 0.389443
O O18 0.000000 0.000000 0.355238
O O19 0.500000 0.500000 0.855443
O O20 0.750000 0.599024 0.873071
#
# Coordination Sequence:
#
# PCOD8168224 Si02
#       7
#     4   4   4   4   4   4   4
#     4  11  21  34  49  72 106 139 169 207 257 313
#     4  10  19  34  54  78 106 138 171 212 258 308
#     4   9  17  32  52  74 103 136 167 205 257 309
#     4  12  23  35  52  75 103 138 176 216 258 307
#     4   9  18  33  54  76 100 133 173 213 256 306
#     4   9  17  31  50  73 102 135 167 204 248 300
#     4  10  20  35  54  76 101 134 176 220 263 310
#
# _framework density 17.552505
#
# number of rings (size 3 to 8) (size 9 to 14) (size 15 to 20)
#    0.000    2.000    1.429    3.429    0.000    1.143 
#    0.000    1.429    0.000    0.857    0.000    2.000 
#    0.000    0.000    0.000    0.000    0.000    0.000 
#
# Total GULP energy -347229.083614 kJ/mol
# GULP energy per Si atom -12401.038700 kJ/mol
# Density = 1.751255 g / cm^3
# Si number density = 17.552505 Si / 1000 Ang^3
#
#
#
# Elastic Constant Matrix: (Units=GPa)
#
#
# Indices 1 2 3 4 5 6 
#
# 1 48.9653 30.7731 21.3375 0.0000 0.0000 0.0000
# 2 30.7731 157.3088 64.7238 0.0000 0.0000 0.0000
# 3 21.3375 64.7238 89.1091 0.0000 0.0000 0.0000
# 4 0.0000 0.0000 0.0000 29.5213 0.0000 0.0000
# 5 0.0000 0.0000 0.0000 0.0000 12.9609 0.0000
# 6 0.0000 0.0000 0.0000 0.0000 0.0000 31.6654
#
#
#
# Elastic Compliance Matrix: (Units=1/GPa)
#
#
# Indices 1 2 3 4 5 6 
#
# 1 0.023958 -0.003318 -0.003327 0.000000 0.000000 0.000000
# 2 -0.003318 0.009526 -0.006125 0.000000 0.000000 0.000000
# 3 -0.003327 -0.006125 0.016467 0.000000 0.000000 0.000000
# 4 0.000000 0.000000 0.000000 0.033874 0.000000 0.000000
# 5 0.000000 0.000000 0.000000 0.000000 0.077155 0.000000
# 6 0.000000 0.000000 0.000000 0.000000 0.000000 0.031580
#
#
# Mechanical properties :
#
#
# Convention : Reuss Voigt Hill
#
# Bulk Modulus (GPa) = 40.96298 58.78354 49.87326
# Shear Modulus (GPa) = 22.10084 26.73279 24.41681
#
# Velocity S-wave (km/s) = 3.55227 3.90682 3.73376
# Velocity P-wave (km/s) = 6.34136 7.34260 6.86027
#
# Compressibility (1/GPa) = 0.02441229
#
# Stress axis : x y z
#
# Youngs Moduli (GPa) = 41.74057 104.97702 60.72606
#
# Poissons Ratio (x) = 0.34829 0.20203
# Poissons Ratio (y) = 0.13849 0.37192
# Poissons Ratio (z) = 0.13886 0.64294
#
# Static dielectric constant tensor:
#      x y z
#    x 3.186560 0.000000 0.000000 
#    y 0.000000 3.591830 0.000000 
#    z 0.000000 0.000000 3.321550 
# 
# 
# High freq. dielectric constant tensor:
#      x y z
#    x 1.674880 0.000000 0.000000 
#    y 0.000000 1.685760 0.000000 
#    z 0.000000 0.000000 1.660760 
# 
# From -- ./inp_files/4851.got.cif
#   From: 2010.03.12/outbox.cif.g09.slc.cpg/sg28_3_cif.got.tgz:4851.got - 2010.04.14 03:39:34.
