data_PCOD8168206
_publ_section_title
;
Structure prediction by ZEFSAII (Michael W. Deem and Ramdas Pophale) SiO2 
 PCOD8168206
Probable space group: P M A 2
;
_chemical_formula_sum "Si O2"
_cell_formula_units_Z 28
_cell_length_a 8.740506
_cell_length_b 9.331990
_cell_length_c 18.309203
_cell_angle_alpha 90.000000
_cell_angle_beta 90.000000
_cell_angle_gamma 90.000000
_cell_volume 1493.414212
_symmetry_space_group_name_H-M "P M A 2"
_symmetry_group_IT_number 28
_symmetry_cell_setting 'orthorhombic'
loop_
_space_group_symop_operation_xyz
x,y,z
-x,-y,z
1/2-x,y,z
1/2+x,-y,z
loop_
_atom_site_type_symbol
_atom_site_label
_atom_site_fract_x
_atom_site_fract_y
_atom_site_fract_z
Si Si1 0.431460 0.843242 0.567410
Si Si2 0.932289 0.844802 0.991534
Si Si3 0.072248 0.347111 0.281346
Si Si4 0.930258 0.655927 0.124616
Si Si5 0.068577 0.341327 0.440334
Si Si6 0.930085 0.343694 0.704405
Si Si7 0.431811 0.844273 0.841059
O O1 0.250000 0.854896 0.563815
O O2 0.492834 0.770508 0.494407
O O3 0.487665 0.748495 0.635645
O O4 0.500000 0.000000 0.576361
O O5 0.750000 0.850781 0.987144
O O6 0.999043 0.780911 0.916138
O O7 0.994677 0.752023 0.059152
O O8 0.000000 0.000000 0.004275
O O9 0.250000 0.373799 0.282089
O O10 0.026510 0.270531 0.204141
O O11 0.026809 0.276345 0.359188
O O12 0.000000 0.500000 0.278527
O O13 0.750000 0.641227 0.116589
O O14 0.000000 0.500000 0.116897
O O15 0.250000 0.349522 0.453601
O O16 0.000000 0.500000 0.451697
O O17 0.750000 0.360298 0.702370
O O18 0.983688 0.263883 0.777751
O O19 0.000000 0.500000 0.700620
O O20 0.250000 0.857962 0.847172
O O21 0.500000 0.000000 0.823528
#
# Coordination Sequence:
#
# PCOD8168206 Si02
#       7
#     4   4   4   4   4   4   4
#     4  11  23  39  57  79 107 140 177 215 261 313
#     4  10  20  34  52  75 103 137 174 211 255 306
#     4   8  15  29  49  73 102 135 171 212 257 305
#     4   9  18  32  51  75 103 135 173 215 258 305
#     4  10  19  33  55  81 108 139 176 219 264 311
#     4  10  23  39  57  81 107 136 171 211 255 306
#     4  10  20  36  56  78 103 134 172 211 255 306
#
# _framework density 18.748985999999999
#
# number of rings (size 3 to 8) (size 9 to 14) (size 15 to 20)
#    0.000    2.286    0.000    3.429    0.000    5.714 
#    0.000    3.571    0.000    1.714    0.000    0.000 
#    0.000    0.000    0.000    0.000    0.000    0.000 
#
# Total GULP energy -346973.941766 kJ/mol
# GULP energy per Si atom -12391.926492 kJ/mol
# Density = 1.870631 g / cm^3
# Si number density = 18.748986 Si / 1000 Ang^3
#
#
#
# Elastic Constant Matrix: (Units=GPa)
#
#
# Indices 1 2 3 4 5 6 
#
# 1 57.2334 36.3094 52.6575 0.0000 0.0000 0.0000
# 2 36.3094 108.3776 96.1139 0.0000 0.0000 0.0000
# 3 52.6575 96.1139 211.7120 0.0000 0.0000 0.0000
# 4 0.0000 0.0000 0.0000 18.4255 0.0000 0.0000
# 5 0.0000 0.0000 0.0000 0.0000 27.1145 0.0000
# 6 0.0000 0.0000 0.0000 0.0000 0.0000 29.3298
#
#
#
# Elastic Compliance Matrix: (Units=1/GPa)
#
#
# Indices 1 2 3 4 5 6 
#
# 1 0.023946 -0.004588 -0.003873 0.000000 0.000000 0.000000
# 2 -0.004588 0.016325 -0.006270 0.000000 0.000000 0.000000
# 3 -0.003873 -0.006270 0.008533 0.000000 0.000000 0.000000
# 4 0.000000 0.000000 0.000000 0.054273 0.000000 0.000000
# 5 0.000000 0.000000 0.000000 0.000000 0.036881 0.000000
# 6 0.000000 0.000000 0.000000 0.000000 0.000000 0.034095
#
#
# Mechanical properties :
#
#
# Convention : Reuss Voigt Hill
#
# Bulk Modulus (GPa) = 51.70043 83.05384 67.37713
# Shear Modulus (GPa) = 23.81386 27.79010 25.80198
#
# Velocity S-wave (km/s) = 3.56777 3.85414 3.71371
# Velocity P-wave (km/s) = 6.67884 8.01248 7.37586
#
# Compressibility (1/GPa) = 0.01934220
#
# Stress axis : x y z
#
# Youngs Moduli (GPa) = 41.76002 61.25752 117.18868
#
# Poissons Ratio (x) = 0.28103 0.45390
# Poissons Ratio (y) = 0.19158 0.73477
# Poissons Ratio (z) = 0.16175 0.38409
#
# Static dielectric constant tensor:
#      x y z
#    x 3.479640 0.000000 0.000000 
#    y 0.000000 3.274350 0.000000 
#    z 0.000000 0.000000 4.311170 
# 
# 
# High freq. dielectric constant tensor:
#      x y z
#    x 1.733640 0.000000 0.000000 
#    y 0.000000 1.701590 0.000000 
#    z 0.000000 0.000000 1.758530 
# 
# From -- ./inp_files/6844.got.cif
#   From: 2010.03.12/outbox.cif.g09.slc.cpg/sg28_4_cif.got.tgz:6844.got - 2010.04.14 03:39:34.
