data_PCOD8168999
_publ_section_title
;
Structure prediction by ZEFSAII (Michael W. Deem and Ramdas Pophale) SiO2 
 PCOD8168999
Probable space group: P C A 21
;
_chemical_formula_sum "Si O2"
_cell_formula_units_Z 28
_cell_length_a 12.961842
_cell_length_b 10.903837
_cell_length_c 8.570533
_cell_angle_alpha 90.000000
_cell_angle_beta 90.000000
_cell_angle_gamma 90.000000
_cell_volume 1211.306103
_symmetry_space_group_name_H-M "P C A 21"
_symmetry_group_IT_number 29
_symmetry_cell_setting 'orthorhombic'
loop_
_space_group_symop_operation_xyz
x,y,z
-x,-y,1/2+z
1/2-x,y,1/2+z
1/2+x,-y,z
loop_
_atom_site_type_symbol
_atom_site_label
_atom_site_fract_x
_atom_site_fract_y
_atom_site_fract_z
Si Si1 0.968810 0.043932 0.982690
Si Si2 0.357572 0.956965 0.657548
Si Si3 0.809105 0.316748 0.707994
Si Si4 0.397786 0.689686 0.051183
Si Si5 0.886330 0.563173 0.603655
Si Si6 0.746712 0.691847 0.853031
Si Si7 0.177721 0.136751 0.613075
O O1 0.930687 0.030088 0.807828
O O2 0.939766 0.172570 0.061334
O O3 0.928496 0.932953 0.090901
O O4 0.090804 0.019408 0.003250
O O5 0.331867 0.814802 0.629596
O O6 0.255559 0.035279 0.681457
O O7 0.686104 0.341120 0.685816
O O8 0.879357 0.416890 0.619929
O O9 0.837448 0.326032 0.888937
O O10 0.494677 0.598624 0.073602
O O11 0.840589 0.627823 0.759152
O O12 0.815530 0.595344 0.455624
O O13 0.663882 0.751565 0.734073
O O14 0.790521 0.805188 0.949148
#
# Coordination Sequence:
#
# PCOD8168999 Si02
#       7
#     4   4   4   4   4   4   4
#     4  11  24  40  70  99 140 179 236 298 371 437
#     4  11  25  43  66 106 139 190 233 302 370 434
#     4  11  26  49  71 103 144 191 243 302 357 428
#     4  11  26  48  72 105 142 188 245 299 365 433
#     4  11  25  49  72 104 147 193 247 296 358 436
#     4  10  23  42  70 103 143 185 234 298 354 431
#     4  11  21  41  65 100 141 176 228 295 363 429
#
# _framework density 23.115545000000001
#
# number of rings (size 3 to 8) (size 9 to 14) (size 15 to 20)
#    0.000    1.143    2.857    2.571    6.000    3.429 
#    5.143    0.000    0.000    0.000    0.000    0.000 
#    0.000    0.000    0.000    0.000    0.000    0.000 
#
# Total GULP energy -347135.400719 kJ/mol
# GULP energy per Si atom -12397.692883 kJ/mol
# Density = 2.306293 g / cm^3
# Si number density = 23.115545 Si / 1000 Ang^3
#
#
#
# Elastic Constant Matrix: (Units=GPa)
#
#
# Indices 1 2 3 4 5 6 
#
# 1 117.3037 34.6081 45.8464 0.0000 0.0000 0.0000
# 2 34.6081 121.1823 41.9478 0.0000 0.0000 0.0000
# 3 45.8464 41.9478 83.1462 0.0000 0.0000 0.0000
# 4 0.0000 0.0000 0.0000 29.7362 0.0000 0.0000
# 5 0.0000 0.0000 0.0000 0.0000 38.2269 0.0000
# 6 0.0000 0.0000 0.0000 0.0000 0.0000 32.6855
#
#
#
# Elastic Compliance Matrix: (Units=1/GPa)
#
#
# Indices 1 2 3 4 5 6 
#
# 1 0.011025 -0.001265 -0.005441 0.000000 0.000000 0.000000
# 2 -0.001265 0.010143 -0.004420 0.000000 0.000000 0.000000
# 3 -0.005441 -0.004420 0.017257 0.000000 0.000000 0.000000
# 4 0.000000 0.000000 0.000000 0.033629 0.000000 0.000000
# 5 0.000000 0.000000 0.000000 0.000000 0.026160 0.000000
# 6 0.000000 0.000000 0.000000 0.000000 0.000000 0.030595
#
#
# Mechanical properties :
#
#
# Convention : Reuss Voigt Hill
#
# Bulk Modulus (GPa) = 61.82949 62.93742 62.38345
# Shear Modulus (GPa) = 31.95911 33.41169 32.68540
#
# Velocity S-wave (km/s) = 3.72234 3.80599 3.76440
# Velocity P-wave (km/s) = 6.72908 6.82646 6.77794
#
# Compressibility (1/GPa) = 0.01617351
#
# Stress axis : x y z
#
# Youngs Moduli (GPa) = 90.70704 98.58761 57.94852
#
# Poissons Ratio (x) = 0.12473 0.31527
# Poissons Ratio (y) = 0.11476 0.25612
# Poissons Ratio (z) = 0.49350 0.43573
#
# Static dielectric constant tensor:
#      x y z
#    x 4.097300 0.000000 0.000000 
#    y 0.000000 4.303120 0.000000 
#    z 0.000000 0.000000 4.179390 
# 
# 
# High freq. dielectric constant tensor:
#      x y z
#    x 1.909380 0.000000 0.000000 
#    y 0.000000 1.926360 0.000000 
#    z 0.000000 0.000000 1.917380 
# 
# From -- ./inp_files/1461.got.cif
#   From: 2010.03.12/outbox.cif.g09.slc.cpg/sg29_1_cif.got.tgz:1461.got - 2010.04.14 03:43:10.
