data_PCOD8168087
_publ_section_title
;
Structure prediction by ZEFSAII (Michael W. Deem and Ramdas Pophale) SiO2 
 PCOD8168087
Probable space group: P M A 2
;
_chemical_formula_sum "Si O2"
_cell_formula_units_Z 32
_cell_length_a 8.830617
_cell_length_b 14.246054
_cell_length_c 15.520770
_cell_angle_alpha 90.000000
_cell_angle_beta 90.000000
_cell_angle_gamma 90.000000
_cell_volume 1952.535319
_symmetry_space_group_name_H-M "P M A 2"
_symmetry_group_IT_number 28
_symmetry_cell_setting 'orthorhombic'
loop_
_space_group_symop_operation_xyz
x,y,z
-x,-y,z
1/2-x,y,z
1/2+x,-y,z
loop_
_atom_site_type_symbol
_atom_site_label
_atom_site_fract_x
_atom_site_fract_y
_atom_site_fract_z
Si Si1 0.927931 0.096956 0.974760
Si Si2 0.571400 0.719841 0.913598
Si Si3 0.571266 0.602631 0.747907
Si Si4 0.571292 0.097454 0.172731
Si Si5 0.071521 0.398625 0.076611
Si Si6 0.426539 0.602251 0.389304
Si Si7 0.075028 0.600349 0.580279
Si Si8 0.429386 0.280165 0.241063
O O1 0.750000 0.089521 0.963831
O O2 0.991021 0.179656 0.915134
O O3 0.975063 0.116639 0.073658
O O4 0.000000 0.000000 0.942207
O O5 0.750000 0.735731 0.919059
O O6 0.521269 0.668241 0.826539
O O7 0.512909 0.657791 0.993551
O O8 0.500000 0.500000 0.760880
O O9 0.750000 0.591889 0.743438
O O10 0.509587 0.652367 0.659722
O O11 0.750000 0.093422 0.184882
O O12 0.502332 0.178078 0.232252
O O13 0.500000 0.000000 0.204498
O O14 0.250000 0.410353 0.074223
O O15 0.017134 0.344416 0.161625
O O16 0.000000 0.500000 0.076701
O O17 0.500000 0.500000 0.379511
O O18 0.250000 0.593214 0.364935
O O19 0.446009 0.645972 0.485779
O O20 0.510608 0.674961 0.328472
O O21 0.250000 0.590457 0.604712
O O22 0.000000 0.500000 0.573533
O O23 0.250000 0.270104 0.244332
#
# Coordination Sequence:
#
# PCOD8168087 Si02
#       8
#     4   4   4   4   4   4   4   4
#     4  10  20  33  52  73  94 125 161 204 248 288
#     4  10  20  34  48  68  98 130 164 202 241 286
#     4  10  19  30  48  71  98 131 164 203 244 286
#     4  10  20  34  52  73  96 125 162 206 249 292
#     4  10  21  33  45  63  94 132 166 197 232 277
#     4  10  20  33  49  71  99 131 166 205 247 292
#     4   9  17  30  48  68  94 126 161 204 247 288
#     4  11  21  33  50  71  97 132 166 203 244 287
#
# _framework density 16.388947999999999
#
# number of rings (size 3 to 8) (size 9 to 14) (size 15 to 20)
#    0.000    2.000    1.250    3.750    0.000    6.000 
#    0.000    0.000    0.000    0.000    0.000    0.875 
#    0.000    2.000    0.000    0.000    0.000    0.000 
#
# Total GULP energy -396796.554756 kJ/mol
# GULP energy per Si atom -12399.892336 kJ/mol
# Density = 1.635165 g / cm^3
# Si number density = 16.388948 Si / 1000 Ang^3
#
#
#
# Elastic Constant Matrix: (Units=GPa)
#
#
# Indices 1 2 3 4 5 6 
#
# 1 70.8040 43.1191 42.1045 0.0000 0.0000 0.0000
# 2 43.1191 117.5965 58.7681 0.0000 0.0000 0.0000
# 3 42.1045 58.7681 118.1576 0.0000 0.0000 0.0000
# 4 0.0000 0.0000 0.0000 12.9076 0.0000 0.0000
# 5 0.0000 0.0000 0.0000 0.0000 29.1658 0.0000
# 6 0.0000 0.0000 0.0000 0.0000 0.0000 30.8187
#
#
#
# Elastic Compliance Matrix: (Units=1/GPa)
#
#
# Indices 1 2 3 4 5 6 
#
# 1 0.019907 -0.004996 -0.004609 0.000000 0.000000 0.000000
# 2 -0.004996 0.012570 -0.004472 0.000000 0.000000 0.000000
# 3 -0.004609 -0.004472 0.012330 0.000000 0.000000 0.000000
# 4 0.000000 0.000000 0.000000 0.077473 0.000000 0.000000
# 5 0.000000 0.000000 0.000000 0.000000 0.034287 0.000000
# 6 0.000000 0.000000 0.000000 0.000000 0.000000 0.032448
#
#
# Mechanical properties :
#
#
# Convention : Reuss Voigt Hill
#
# Bulk Modulus (GPa) = 60.04706 66.06016 63.05361
# Shear Modulus (GPa) = 22.44983 25.41619 23.93301
#
# Velocity S-wave (km/s) = 3.70512 3.94231 3.82555
# Velocity P-wave (km/s) = 7.41769 7.81778 7.62036
#
# Compressibility (1/GPa) = 0.01665360
#
# Stress axis : x y z
#
# Youngs Moduli (GPa) = 50.23447 79.55271 81.10494
#
# Poissons Ratio (x) = 0.39744 0.37379
# Poissons Ratio (y) = 0.25097 0.36269
# Poissons Ratio (z) = 0.23152 0.35574
#
# Static dielectric constant tensor:
#      x y z
#    x 3.162480 0.000000 0.000000 
#    y 0.000000 2.926000 0.000000 
#    z 0.000000 0.000000 3.484800 
# 
# 
# High freq. dielectric constant tensor:
#      x y z
#    x 1.645880 0.000000 0.000000 
#    y 0.000000 1.608870 0.000000 
#    z 0.000000 0.000000 1.624800 
# 
# From -- ./inp_files/6423.got.cif
#   From: 2010.03.12/outbox.cif.g09.slc.cpg/sg28_4_cif.got.tgz:6423.got - 2010.04.14 03:39:34.
