data_PCOD8168865
_publ_section_title
;
Structure prediction by ZEFSAII (Michael W. Deem and Ramdas Pophale) SiO2 
 PCOD8168865
Probable space group: P C A 21
;
_chemical_formula_sum "Si O2"
_cell_formula_units_Z 20
_cell_length_a 9.502276
_cell_length_b 8.862484
_cell_length_c 10.898762
_cell_angle_alpha 90.000000
_cell_angle_beta 90.000000
_cell_angle_gamma 90.000000
_cell_volume 917.825826
_symmetry_space_group_name_H-M "P C A 21"
_symmetry_group_IT_number 29
_symmetry_cell_setting 'orthorhombic'
loop_
_space_group_symop_operation_xyz
x,y,z
-x,-y,1/2+z
1/2-x,y,1/2+z
1/2+x,-y,z
loop_
_atom_site_type_symbol
_atom_site_label
_atom_site_fract_x
_atom_site_fract_y
_atom_site_fract_z
Si Si1 0.714659 0.411974 0.519730
Si Si2 0.697653 0.110485 0.651134
Si Si3 0.089721 0.791345 0.322371
Si Si4 0.460549 0.985572 0.513033
Si Si5 0.988117 0.669890 0.064331
O O1 0.681125 0.288218 0.623129
O O2 0.648045 0.355185 0.392400
O O3 0.653728 0.574729 0.556091
O O4 0.883342 0.434443 0.515985
O O5 0.774195 0.103902 0.783564
O O6 0.796138 0.029342 0.547344
O O7 0.545132 0.034309 0.638931
O O8 0.008584 0.730738 0.203266
O O9 0.986331 0.893466 0.405642
O O10 0.517849 0.818430 0.477061
#
# Coordination Sequence:
#
# PCOD8168865 Si02
#       5
#     4   4   4   4   4
#     4   9  20  37  55  80 113 146 187 228 275 339
#     4   9  20  36  55  82 111 145 189 231 276 336
#     4   9  19  38  59  79 117 151 179 239 287 316
#     4   9  19  36  58  83 110 144 191 233 276 335
#     4  10  22  37  57  88 115 146 192 229 276 344
#
# _framework density 21.790624999999999
#
# number of rings (size 3 to 8) (size 9 to 14) (size 15 to 20)
#    0.000    3.200    0.000    0.000    0.000   16.000 
#    0.000    8.000    0.000    0.000    0.000    0.000 
#    0.000    0.000    0.000    0.000    0.000    0.000 
#
# Total GULP energy -247769.119744 kJ/mol
# GULP energy per Si atom -12388.455987 kJ/mol
# Density = 2.174103 g / cm^3
# Si number density = 21.790625 Si / 1000 Ang^3
#
#
#
# Elastic Constant Matrix: (Units=GPa)
#
#
# Indices 1 2 3 4 5 6 
#
# 1 43.2715 36.0610 2.8904 0.0000 0.0000 0.0000
# 2 36.0610 64.9033 21.4034 0.0000 0.0000 0.0000
# 3 2.8904 21.4034 90.9074 0.0000 0.0000 0.0000
# 4 0.0000 0.0000 0.0000 27.6962 0.0000 0.0000
# 5 0.0000 0.0000 0.0000 0.0000 18.1040 0.0000
# 6 0.0000 0.0000 0.0000 0.0000 0.0000 37.4082
#
#
#
# Elastic Compliance Matrix: (Units=1/GPa)
#
#
# Indices 1 2 3 4 5 6 
#
# 1 0.044905 -0.026540 0.004821 0.000000 0.000000 0.000000
# 2 -0.026540 0.032390 -0.006782 0.000000 0.000000 0.000000
# 3 0.004821 -0.006782 0.012444 0.000000 0.000000 0.000000
# 4 0.000000 0.000000 0.000000 0.036106 0.000000 0.000000
# 5 0.000000 0.000000 0.000000 0.000000 0.055236 0.000000
# 6 0.000000 0.000000 0.000000 0.000000 0.000000 0.026732
#
#
# Mechanical properties :
#
#
# Convention : Reuss Voigt Hill
#
# Bulk Modulus (GPa) = 30.54664 35.53242 33.03953
# Shear Modulus (GPa) = 18.13389 25.89018 22.01204
#
# Velocity S-wave (km/s) = 2.88790 3.45067 3.18175
# Velocity P-wave (km/s) = 5.01683 5.67608 5.35661
#
# Compressibility (1/GPa) = 0.03273682
#
# Stress axis : x y z
#
# Youngs Moduli (GPa) = 22.26923 30.87396 80.36186
#
# Poissons Ratio (x) = 0.81938 -0.38741
# Poissons Ratio (y) = 0.59101 0.54502
# Poissons Ratio (z) = -0.10735 0.20939
#
# Static dielectric constant tensor:
#      x y z
#    x 3.924210 0.000000 0.000000 
#    y 0.000000 3.794340 0.000000 
#    z 0.000000 0.000000 3.793530 
# 
# 
# High freq. dielectric constant tensor:
#      x y z
#    x 1.849990 0.000000 0.000000 
#    y 0.000000 1.847180 0.000000 
#    z 0.000000 0.000000 1.842430 
# 
# From -- ./inp_files/2763.got.cif
#   From: 2010.03.12/outbox.cif.g09.slc.cpg/sg29_2_cif.got.tgz:2763.got - 2010.04.14 03:43:10.
