data_PCOD8168274
_publ_section_title
;
Structure prediction by ZEFSAII (Michael W. Deem and Ramdas Pophale) SiO2 
 PCOD8168274
Probable space group: P M A 2
;
_chemical_formula_sum "Si O2"
_cell_formula_units_Z 32
_cell_length_a 8.650064
_cell_length_b 24.455442
_cell_length_c 7.812224
_cell_angle_alpha 90.000000
_cell_angle_beta 90.000000
_cell_angle_gamma 90.000000
_cell_volume 1652.606759
_symmetry_space_group_name_H-M "P M A 2"
_symmetry_group_IT_number 28
_symmetry_cell_setting 'orthorhombic'
loop_
_space_group_symop_operation_xyz
x,y,z
-x,-y,z
1/2-x,y,z
1/2+x,-y,z
loop_
_atom_site_type_symbol
_atom_site_label
_atom_site_fract_x
_atom_site_fract_y
_atom_site_fract_z
Si Si1 0.433623 0.060064 0.060010
Si Si2 0.422664 0.253623 0.760232
Si Si3 0.434706 0.134125 0.369021
Si Si4 0.065294 0.134125 0.750998
Si Si5 0.066487 0.367284 0.871041
Si Si6 0.433857 0.439906 0.560010
Si Si7 0.933513 0.632716 0.248979
Si Si8 0.077336 0.253623 0.359789
O O1 0.250000 0.057732 0.060010
O O2 0.495841 0.090993 0.229480
O O3 0.500000 0.000000 0.060010
O O4 0.495841 0.090992 0.890540
O O5 0.250000 0.249737 0.834849
O O6 0.502907 0.194656 0.796859
O O7 0.505679 0.306020 0.847568
O O8 0.419235 0.265518 0.560010
O O9 0.250000 0.137496 0.367513
O O10 0.490402 0.116435 0.560010
O O11 0.502907 0.194656 0.323161
O O12 0.250000 0.137496 0.752507
O O13 0.250000 0.362929 0.847093
O O14 0.001575 0.408847 0.728672
O O15 0.021504 0.389104 0.060010
O O16 0.500000 0.500000 0.560010
O O17 0.250000 0.442640 0.560010
O O18 0.498425 0.408847 0.391348
O O19 0.750000 0.637071 0.272927
O O20 0.005679 0.693979 0.272453
O O21 0.250000 0.249738 0.285171
#
# Coordination Sequence:
#
# PCOD8168274 Si02
#       8
#     4   4   4   4   4   4   4   4
#     4  10  20  32  46  66  92 124 157 186 220 268
#     4   8  12  21  38  62  93 118 138 178 235 280
#     4   8  15  26  41  64  93 119 145 184 231 272
#     4   8  15  26  41  64  93 119 145 184 231 272
#     4   9  16  25  41  66  94 120 146 183 232 275
#     4  10  20  34  48  66  94 126 157 188 220 264
#     4   9  16  25  41  66  94 120 146 183 232 275
#     4   8  12  21  38  62  93 118 138 178 235 280
#
# _framework density 19.363347999999998
#
# number of rings (size 3 to 8) (size 9 to 14) (size 15 to 20)
#    0.000    3.250    1.250    1.500    1.750    1.000 
#    0.000    0.000    0.000    0.000    0.000    1.750 
#    0.000    0.000    0.000    0.000    0.000    0.000 
#
# Total GULP energy -396421.710712 kJ/mol
# GULP energy per Si atom -12388.178460 kJ/mol
# Density = 1.931928 g / cm^3
# Si number density = 19.363348 Si / 1000 Ang^3
#
#
#
# Elastic Constant Matrix: (Units=GPa)
#
#
# Indices 1 2 3 4 5 6 
#
# 1 4.3091 9.2366 9.7740 0.0000 0.0000 0.0000
# 2 9.2366 180.5577 111.9356 0.0000 0.0000 0.0000
# 3 9.7740 111.9356 168.8728 0.0000 0.0000 0.0000
# 4 0.0000 0.0000 0.0000 30.8378 0.0000 0.0000
# 5 0.0000 0.0000 0.0000 0.0000 4.5205 0.0000
# 6 0.0000 0.0000 0.0000 0.0000 0.0000 20.2163
#
#
#
# Elastic Compliance Matrix: (Units=1/GPa)
#
#
# Indices 1 2 3 4 5 6 
#
# 1 0.272337 -0.007062 -0.011081 0.000000 0.000000 0.000000
# 2 -0.007062 0.009585 -0.005945 0.000000 0.000000 0.000000
# 3 -0.011081 -0.005945 0.010503 0.000000 0.000000 0.000000
# 4 0.000000 0.000000 0.000000 0.032428 0.000000 0.000000
# 5 0.000000 0.000000 0.000000 0.000000 0.221214 0.000000
# 6 0.000000 0.000000 0.000000 0.000000 0.000000 0.049465
#
#
# Mechanical properties :
#
#
# Convention : Reuss Voigt Hill
#
# Bulk Modulus (GPa) = 4.09417 68.40356 36.24886
# Shear Modulus (GPa) = 6.89537 25.96782 16.43159
#
# Velocity S-wave (km/s) = 1.88912 3.66605 2.91622
# Velocity P-wave (km/s) = 2.62247 7.30225 5.48636
#
# Compressibility (1/GPa) = 0.24424966
#
# Stress axis : x y z
#
# Youngs Moduli (GPa) = 3.67192 104.33024 95.20839
#
# Poissons Ratio (x) = 0.73676 1.05504
# Poissons Ratio (y) = 0.02593 0.56597
# Poissons Ratio (z) = 0.04069 0.62020
#
# Static dielectric constant tensor:
#      x y z
#    x 2.651250 0.000000 0.000000 
#    y 0.000000 3.745050 0.000000 
#    z 0.000000 0.000000 3.811040 
# 
# 
# High freq. dielectric constant tensor:
#      x y z
#    x 1.653680 0.000000 0.000000 
#    y 0.000000 1.762710 0.000000 
#    z 0.000000 0.000000 1.765330 
# 
# From -- ./inp_files/3161.got.cif
#   From: 2010.03.12/outbox.cif.g09.slc.cpg/sg28_2_cif.got.tgz:3161.got - 2010.04.14 03:39:34.
