data_PCOD8168197
_publ_section_title
;
Structure prediction by ZEFSAII (Michael W. Deem and Ramdas Pophale) SiO2 
 PCOD8168197
Probable space group: P M A 2
;
_chemical_formula_sum "Si O2"
_cell_formula_units_Z 32
_cell_length_a 9.135676
_cell_length_b 14.425783
_cell_length_c 12.300008
_cell_angle_alpha 90.000000
_cell_angle_beta 90.000000
_cell_angle_gamma 90.000000
_cell_volume 1621.009193
_symmetry_space_group_name_H-M "P M A 2"
_symmetry_group_IT_number 28
_symmetry_cell_setting 'orthorhombic'
loop_
_space_group_symop_operation_xyz
x,y,z
-x,-y,z
1/2-x,y,z
1/2+x,-y,z
loop_
_atom_site_type_symbol
_atom_site_label
_atom_site_fract_x
_atom_site_fract_y
_atom_site_fract_z
Si Si1 0.075445 0.399698 0.500000
Si Si2 0.085599 0.154261 0.006531
Si Si3 0.082106 0.673400 0.927147
Si Si4 0.414388 0.586025 0.144836
Si Si5 0.085435 0.088553 0.772219
Si Si6 0.577438 0.906637 0.246531
Si Si7 0.079270 0.292426 0.720412
Si Si8 0.423331 0.727351 0.321392
O O1 0.250000 0.409926 0.480691
O O2 0.040896 0.343999 0.610042
O O3 0.000000 0.500000 0.505721
O O4 0.999547 0.339180 0.408030
O O5 0.250000 0.196447 0.014798
O O6 0.077759 0.085217 0.903627
O O7 0.969128 0.233801 0.986312
O O8 0.045087 0.102642 0.117960
O O9 0.250000 0.685164 0.894727
O O10 0.993601 0.649463 0.818267
O O11 0.058458 0.592618 0.015613
O O12 0.500000 0.500000 0.195395
O O13 0.250000 0.561164 0.173057
O O14 0.455379 0.681736 0.204007
O O15 0.250000 0.077881 0.730051
O O16 0.020274 0.185755 0.724432
O O17 0.000000 0.000000 0.724668
O O18 0.750000 0.909419 0.271553
O O19 0.503609 0.825909 0.318299
O O20 0.500000 0.000000 0.287022
O O21 0.250000 0.290199 0.745503
O O22 0.250000 0.738629 0.345682
#
# Coordination Sequence:
#
# PCOD8168197 Si02
#       8
#     4   4   4   4   4   4   4   4
#     4  11  24  44  68  91 115 150 199 254 309 365
#     4   9  18  32  51  78 116 161 200 236 288 348
#     4  10  19  33  54  83 118 154 194 241 293 350
#     4  10  22  36  54  83 117 153 190 237 294 357
#     4   9  17  31  51  80 115 153 193 232 281 338
#     4  11  22  36  58  88 122 163 205 248 300 357
#     4   9  21  40  59  82 117 155 194 243 297 358
#     4  11  23  42  63  87 121 155 199 253 303 359
#
# _framework density 19.740788999999999
#
# number of rings (size 3 to 8) (size 9 to 14) (size 15 to 20)
#    0.000    2.000    1.250    3.000    0.000    7.000 
#    0.000    3.125    0.000    1.500    0.000    0.000 
#    0.000    0.000    0.000    0.000    0.000    0.000 
#
# Total GULP energy -396692.054510 kJ/mol
# GULP energy per Si atom -12396.626703 kJ/mol
# Density = 1.969586 g / cm^3
# Si number density = 19.740789 Si / 1000 Ang^3
#
#
#
# Elastic Constant Matrix: (Units=GPa)
#
#
# Indices 1 2 3 4 5 6 
#
# 1 97.2264 64.9134 53.6685 0.0000 0.0000 0.0000
# 2 64.9134 131.5304 48.9573 0.0000 0.0000 0.0000
# 3 53.6685 48.9573 90.4795 0.0000 0.0000 0.0000
# 4 0.0000 0.0000 0.0000 -12.9465 0.0000 0.0000
# 5 0.0000 0.0000 0.0000 0.0000 25.9512 0.0000
# 6 0.0000 0.0000 0.0000 0.0000 0.0000 36.4872
#
#
#
# Elastic Compliance Matrix: (Units=1/GPa)
#
#
# Indices 1 2 3 4 5 6 
#
# 1 0.018818 -0.006427 -0.007685 0.000000 0.000000 0.000000
# 2 -0.006427 0.011715 -0.002527 0.000000 0.000000 0.000000
# 3 -0.007685 -0.002527 0.016978 0.000000 0.000000 0.000000
# 4 0.000000 0.000000 0.000000 -0.077241 0.000000 0.000000
# 5 0.000000 0.000000 0.000000 0.000000 0.038534 0.000000
# 6 0.000000 0.000000 0.000000 0.000000 0.000000 0.027407
#
#
# Mechanical properties :
#
#
# Convention : Reuss Voigt Hill
#
# Bulk Modulus (GPa) = 70.25250 72.70162 71.47706
# Shear Modulus (GPa) = 67.35687 20.01152 43.68419
#
# Velocity S-wave (km/s) = 5.84763 3.18734 4.70924
# Velocity P-wave (km/s) = 9.01431 7.10307 8.11515
#
# Compressibility (1/GPa) = 0.01423437
#
# Stress axis : x y z
#
# Youngs Moduli (GPa) = 53.14059 85.35987 58.90123
#
# Poissons Ratio (x) = 0.54860 0.45263
# Poissons Ratio (y) = 0.34153 0.14883
# Poissons Ratio (z) = 0.40836 0.21568
#
# Static dielectric constant tensor:
#      x y z
#    x 3.629120 0.000000 0.000000 
#    y 0.000000 3.533770 0.000000 
#    z 0.000000 0.000000 3.618620 
# 
# 
# High freq. dielectric constant tensor:
#      x y z
#    x 1.775080 0.000000 0.000000 
#    y 0.000000 1.766630 0.000000 
#    z 0.000000 0.000000 1.755280 
# 
# From -- ./inp_files/5064.got.cif
#   From: 2010.03.12/outbox.cif.g09.slc.cpg/sg28_3_cif.got.tgz:5064.got - 2010.04.14 03:39:34.
