data_PCOD8168449
_publ_section_title
;
Structure prediction by ZEFSAII (Michael W. Deem and Ramdas Pophale) SiO2 
 PCOD8168449
Probable space group: P M A 2
;
_chemical_formula_sum "Si O2"
_cell_formula_units_Z 32
_cell_length_a 15.454497
_cell_length_b 8.680230
_cell_length_c 12.039061
_cell_angle_alpha 90.000000
_cell_angle_beta 90.000000
_cell_angle_gamma 90.000000
_cell_volume 1615.023040
_symmetry_space_group_name_H-M "P M A 2"
_symmetry_group_IT_number 28
_symmetry_cell_setting 'orthorhombic'
loop_
_space_group_symop_operation_xyz
x,y,z
-x,-y,z
1/2-x,y,z
1/2+x,-y,z
loop_
_atom_site_type_symbol
_atom_site_label
_atom_site_fract_x
_atom_site_fract_y
_atom_site_fract_z
Si Si1 0.350926 0.660763 0.384620
Si Si2 0.149183 0.172559 0.608822
Si Si3 0.350359 0.814721 0.610026
Si Si4 0.345929 0.305756 0.139947
Si Si5 0.498881 0.319587 0.752884
Si Si6 0.492674 0.180442 0.993161
Si Si7 0.851446 0.685429 0.382773
Si Si8 0.918410 0.387461 0.157762
O O1 0.250000 0.673626 0.360065
O O2 0.377289 0.775871 0.483494
O O3 0.379495 0.487200 0.417798
O O4 0.401154 0.706369 0.271847
O O5 0.250000 0.220674 0.627231
O O6 0.087686 0.274683 0.685985
O O7 0.120637 0.199920 0.480880
O O8 0.134839 0.993967 0.634458
O O9 0.250000 0.767646 0.631244
O O10 0.412453 0.719566 0.689986
O O11 0.250000 0.238180 0.126506
O O12 0.400878 0.231432 0.042128
O O13 0.388781 0.265132 0.261611
O O14 0.340689 0.493284 0.130272
O O15 0.500000 0.500000 0.778590
O O16 0.498050 0.225192 0.865733
O O17 0.570228 0.263685 0.059892
O O18 0.500000 0.000000 0.006786
O O19 0.750000 0.688018 0.364423
O O20 0.000000 0.500000 0.168918
#
# Coordination Sequence:
#
# PCOD8168449 Si02
#       8
#     4   4   4   4   4   4   4   4
#     4   9  17  32  55  84 117 149 187 231 274 329
#     4  10  21  38  61  89 121 152 185 232 289 344
#     4  10  22  39  59  87 121 152 186 234 289 343
#     4   9  18  36  61  85 113 150 191 231 274 330
#     4  12  25  42  63  82 108 151 199 243 284 335
#     4  11  24  41  57  80 115 148 186 237 288 339
#     4   8  15  30  54  85 118 151 186 226 274 333
#     4   9  18  34  56  82 112 149 189 230 276 329
#
# _framework density 19.813958
#
# number of rings (size 3 to 8) (size 9 to 14) (size 15 to 20)
#    0.000    2.250    0.000    4.125    0.000    6.500 
#    0.000    5.625    0.000    0.000    0.000    0.000 
#    0.000    0.000    0.000    0.000    0.000    0.000 
#
# Total GULP energy -396653.840047 kJ/mol
# GULP energy per Si atom -12395.432501 kJ/mol
# Density = 1.976886 g / cm^3
# Si number density = 19.813958 Si / 1000 Ang^3
#
#
#
# Elastic Constant Matrix: (Units=GPa)
#
#
# Indices 1 2 3 4 5 6 
#
# 1 68.5923 21.3096 40.6476 0.0000 0.0000 0.0000
# 2 21.3096 74.3663 29.0875 0.0000 0.0000 0.0000
# 3 40.6476 29.0875 121.2634 0.0000 0.0000 0.0000
# 4 0.0000 0.0000 0.0000 29.6986 0.0000 0.0000
# 5 0.0000 0.0000 0.0000 0.0000 20.2782 0.0000
# 6 0.0000 0.0000 0.0000 0.0000 0.0000 23.2206
#
#
#
# Elastic Compliance Matrix: (Units=1/GPa)
#
#
# Indices 1 2 3 4 5 6 
#
# 1 0.018873 -0.003237 -0.005550 0.000000 0.000000 0.000000
# 2 -0.003237 0.015395 -0.002608 0.000000 0.000000 0.000000
# 3 -0.005550 -0.002608 0.010732 0.000000 0.000000 0.000000
# 4 0.000000 0.000000 0.000000 0.033672 0.000000 0.000000
# 5 0.000000 0.000000 0.000000 0.000000 0.049314 0.000000
# 6 0.000000 0.000000 0.000000 0.000000 0.000000 0.043065
#
#
# Mechanical properties :
#
#
# Convention : Reuss Voigt Hill
#
# Bulk Modulus (GPa) = 45.02325 49.59017 47.30671
# Shear Modulus (GPa) = 24.84542 26.18463 25.51502
#
# Velocity S-wave (km/s) = 3.54494 3.63922 3.59239
# Velocity P-wave (km/s) = 6.28711 6.53765 6.41360
#
# Compressibility (1/GPa) = 0.02221075
#
# Stress axis : x y z
#
# Youngs Moduli (GPa) = 52.98435 64.95809 93.17673
#
# Poissons Ratio (x) = 0.21030 0.51712
# Poissons Ratio (y) = 0.17153 0.24296
# Poissons Ratio (z) = 0.29406 0.16938
#
# Static dielectric constant tensor:
#      x y z
#    x 3.755320 0.000000 0.000000 
#    y 0.000000 3.575450 0.000000 
#    z 0.000000 0.000000 3.664690 
# 
# 
# High freq. dielectric constant tensor:
#      x y z
#    x 1.771110 0.000000 0.000000 
#    y 0.000000 1.760570 0.000000 
#    z 0.000000 0.000000 1.772970 
# 
# From -- ./inp_files/5584.got.cif
#   From: 2010.03.12/outbox.cif.g09.slc.cpg/sg28_3_cif.got.tgz:5584.got - 2010.04.14 03:39:34.
