data_PCOD8168918
_publ_section_title
;
Structure prediction by ZEFSAII (Michael W. Deem and Ramdas Pophale) SiO2 
 PCOD8168918
Probable space group: P C A 21
;
_chemical_formula_sum "Si O2"
_cell_formula_units_Z 32
_cell_length_a 9.167594
_cell_length_b 9.095318
_cell_length_c 17.888331
_cell_angle_alpha 90.000000
_cell_angle_beta 90.000000
_cell_angle_gamma 90.000000
_cell_volume 1491.568084
_symmetry_space_group_name_H-M "P C A 21"
_symmetry_group_IT_number 29
_symmetry_cell_setting 'orthorhombic'
loop_
_space_group_symop_operation_xyz
x,y,z
-x,-y,1/2+z
1/2-x,y,1/2+z
1/2+x,-y,z
loop_
_atom_site_type_symbol
_atom_site_label
_atom_site_fract_x
_atom_site_fract_y
_atom_site_fract_z
Si Si1 0.719421 0.610520 0.821130
Si Si2 0.616364 0.844172 0.245254
Si Si3 0.893540 0.139292 0.480306
Si Si4 0.103232 0.670791 0.332782
Si Si5 0.692816 0.078434 0.815890
Si Si6 0.633679 0.340084 0.503705
Si Si7 0.825065 0.677238 0.980760
Si Si8 0.896026 0.849767 0.572183
O O1 0.836232 0.677403 0.762472
O O2 0.763472 0.441158 0.822047
O O3 0.550723 0.627382 0.794707
O O4 0.732056 0.673352 0.905054
O O5 0.455890 0.877040 0.275488
O O6 0.622292 0.884248 0.158874
O O7 0.750821 0.922487 0.288092
O O8 0.830225 0.070351 0.404482
O O9 0.777911 0.245544 0.520697
O O10 0.022870 0.249067 0.458951
O O11 0.939871 0.003674 0.532950
O O12 0.169175 0.817137 0.295999
O O13 0.074090 0.689982 0.420769
O O14 0.656813 0.514381 0.516396
O O15 0.515624 0.277754 0.561599
O O16 0.754772 0.786024 0.041053
#
# Coordination Sequence:
#
# PCOD8168918 Si02
#       8
#     4   4   4   4   4   4   4   4
#     4  11  21  43  69 102 132 172 228 282 339 407
#     4  12  27  43  65  96 144 181 225 286 348 412
#     4  11  24  41  73  99 129 181 229 286 339 409
#     4  10  22  41  75  99 128 173 227 285 334 406
#     4  11  25  44  66 101 131 181 230 280 341 413
#     4  10  23  41  70 102 130 170 228 285 341 405
#     4  11  22  43  71  98 135 176 229 285 341 413
#     4  12  26  44  65  99 141 180 228 283 351 419
#
# _framework density 21.453931000000001
#
# number of rings (size 3 to 8) (size 9 to 14) (size 15 to 20)
#    0.000    1.000    2.500    3.750   14.000    0.000 
#    4.500    0.000    0.000    0.000    0.000    0.000 
#    0.000    0.000    0.000    0.000    0.000    0.000 
#
# Total GULP energy -396803.084302 kJ/mol
# GULP energy per Si atom -12400.096384 kJ/mol
# Density = 2.140510 g / cm^3
# Si number density = 21.453931 Si / 1000 Ang^3
#
#
#
# Elastic Constant Matrix: (Units=GPa)
#
#
# Indices 1 2 3 4 5 6 
#
# 1 111.9901 17.1785 15.0365 0.0000 0.0000 0.0000
# 2 17.1785 89.7670 29.6184 0.0000 0.0000 0.0000
# 3 15.0365 29.6184 80.9554 0.0000 0.0000 0.0000
# 4 0.0000 0.0000 0.0000 8.3862 0.0000 0.0000
# 5 0.0000 0.0000 0.0000 0.0000 22.8240 0.0000
# 6 0.0000 0.0000 0.0000 0.0000 0.0000 37.1994
#
#
#
# Elastic Compliance Matrix: (Units=1/GPa)
#
#
# Indices 1 2 3 4 5 6 
#
# 1 0.009305 -0.001377 -0.001225 0.000000 0.000000 0.000000
# 2 -0.001377 0.012873 -0.004454 0.000000 0.000000 0.000000
# 3 -0.001225 -0.004454 0.014209 0.000000 0.000000 0.000000
# 4 0.000000 0.000000 0.000000 0.119243 0.000000 0.000000
# 5 0.000000 0.000000 0.000000 0.000000 0.043814 0.000000
# 6 0.000000 0.000000 0.000000 0.000000 0.000000 0.026882
#
#
# Mechanical properties :
#
#
# Convention : Reuss Voigt Hill
#
# Bulk Modulus (GPa) = 44.88956 45.15325 45.02140
# Shear Modulus (GPa) = 20.17248 28.40718 24.28983
#
# Velocity S-wave (km/s) = 3.06971 3.64277 3.36845
# Velocity P-wave (km/s) = 5.79079 6.22779 6.01326
#
# Compressibility (1/GPa) = 0.02227689
#
# Stress axis : x y z
#
# Youngs Moduli (GPa) = 107.46967 77.68205 70.37550
#
# Poissons Ratio (x) = 0.10694 0.08618
# Poissons Ratio (y) = 0.14794 0.31345
# Poissons Ratio (z) = 0.13161 0.34600
#
# Static dielectric constant tensor:
#      x y z
#    x 3.945990 0.000000 0.000000 
#    y 0.000000 3.979980 0.000000 
#    z 0.000000 0.000000 3.517580 
# 
# 
# High freq. dielectric constant tensor:
#      x y z
#    x 1.859580 0.000000 0.000000 
#    y 0.000000 1.857730 0.000000 
#    z 0.000000 0.000000 1.803070 
# 
# From -- ./inp_files/5008.got.cif
#   From: 2010.03.12/outbox.cif.g09.slc.cpg/sg29_3_cif.got.tgz:5008.got - 2010.04.14 03:43:10.
