data_PCOD8168148
_publ_section_title
;
Structure prediction by ZEFSAII (Michael W. Deem and Ramdas Pophale) SiO2 
 PCOD8168148
Probable space group: P M A 2
;
_chemical_formula_sum "Si O2"
_cell_formula_units_Z 32
_cell_length_a 8.880158
_cell_length_b 14.471890
_cell_length_c 12.379459
_cell_angle_alpha 90.000000
_cell_angle_beta 90.000000
_cell_angle_gamma 90.000000
_cell_volume 1590.917326
_symmetry_space_group_name_H-M "P M A 2"
_symmetry_group_IT_number 28
_symmetry_cell_setting 'orthorhombic'
loop_
_space_group_symop_operation_xyz
x,y,z
-x,-y,z
1/2-x,y,z
1/2+x,-y,z
loop_
_atom_site_type_symbol
_atom_site_label
_atom_site_fract_x
_atom_site_fract_y
_atom_site_fract_z
Si Si1 0.419875 0.655168 0.147900
Si Si2 0.071962 0.408164 0.945805
Si Si3 0.427474 0.711837 0.773018
Si Si4 0.425632 0.090223 0.304399
Si Si5 0.573713 0.706674 0.360094
Si Si6 0.072723 0.399246 0.578536
Si Si7 0.920340 0.133917 0.089174
Si Si8 0.574124 0.091890 0.849537
O O1 0.250000 0.615192 0.147693
O O2 0.483777 0.651062 0.268865
O O3 0.422827 0.756798 0.099806
O O4 0.526707 0.593713 0.071896
O O5 0.250000 0.407710 0.930456
O O6 0.000000 0.500000 0.892759
O O7 0.996222 0.322498 0.885504
O O8 0.250000 0.691949 0.769996
O O9 0.507852 0.660547 0.675578
O O10 0.462717 0.821583 0.771129
O O11 0.250000 0.078231 0.315476
O O12 0.478826 0.185547 0.362165
O O13 0.471240 0.089836 0.178480
O O14 0.500000 0.000000 0.361088
O O15 0.750000 0.701405 0.332962
O O16 0.532541 0.658145 0.471772
O O17 0.250000 0.411269 0.594697
O O18 0.000000 0.500000 0.573162
O O19 0.750000 0.097283 0.106509
O O20 0.986025 0.108037 0.971591
O O21 0.750000 0.076329 0.855541
O O22 0.500000 0.000000 0.799369
#
# Coordination Sequence:
#
# PCOD8168148 Si02
#       8
#     4   4   4   4   4   4   4   4
#     4  10  19  35  58  86 123 159 196 243 297 353
#     4  12  24  38  59  87 120 159 199 241 300 363
#     4  11  23  43  64  87 121 156 198 251 302 356
#     4  10  19  32  52  82 117 158 200 243 290 345
#     4   9  21  40  60  85 120 157 199 246 297 358
#     4  11  24  44  68  92 116 150 199 253 306 364
#     4   9  17  32  52  79 116 159 198 239 286 342
#     4  10  21  36  56  84 120 158 198 242 292 349
#
# _framework density 20.114180999999999
#
# number of rings (size 3 to 8) (size 9 to 14) (size 15 to 20)
#    0.000    1.750    1.250    3.375    0.000    5.000 
#    0.000    1.875    0.000    3.000    0.000    0.000 
#    0.000    0.000    0.000    0.000    0.000    0.000 
#
# Total GULP energy -396805.749808 kJ/mol
# GULP energy per Si atom -12400.179681 kJ/mol
# Density = 2.006840 g / cm^3
# Si number density = 20.114181 Si / 1000 Ang^3
#
#
#
# Elastic Constant Matrix: (Units=GPa)
#
#
# Indices 1 2 3 4 5 6 
#
# 1 81.2508 54.2079 49.8102 0.0000 0.0000 0.0000
# 2 54.2079 130.8646 59.5507 0.0000 0.0000 0.0000
# 3 49.8102 59.5507 104.8602 0.0000 0.0000 0.0000
# 4 0.0000 0.0000 0.0000 22.5708 0.0000 0.0000
# 5 0.0000 0.0000 0.0000 0.0000 24.7475 0.0000
# 6 0.0000 0.0000 0.0000 0.0000 0.0000 35.6818
#
#
#
# Elastic Compliance Matrix: (Units=1/GPa)
#
#
# Indices 1 2 3 4 5 6 
#
# 1 0.019737 -0.005272 -0.006381 0.000000 0.000000 0.000000
# 2 -0.005272 0.011712 -0.004147 0.000000 0.000000 0.000000
# 3 -0.006381 -0.004147 0.014923 0.000000 0.000000 0.000000
# 4 0.000000 0.000000 0.000000 0.044305 0.000000 0.000000
# 5 0.000000 0.000000 0.000000 0.000000 0.040408 0.000000
# 6 0.000000 0.000000 0.000000 0.000000 0.000000 0.028026
#
#
# Mechanical properties :
#
#
# Convention : Reuss Voigt Hill
#
# Bulk Modulus (GPa) = 67.69906 71.56817 69.63362
# Shear Modulus (GPa) = 25.55768 26.82714 26.19241
#
# Velocity S-wave (km/s) = 3.56846 3.65601 3.61250
# Velocity P-wave (km/s) = 7.12102 7.31300 7.21765
#
# Compressibility (1/GPa) = 0.01477125
#
# Stress axis : x y z
#
# Youngs Moduli (GPa) = 50.66698 85.37906 67.00980
#
# Poissons Ratio (x) = 0.45008 0.42762
# Poissons Ratio (y) = 0.26710 0.27792
# Poissons Ratio (z) = 0.32333 0.35411
#
# Static dielectric constant tensor:
#      x y z
#    x 3.649260 0.000000 0.000000 
#    y 0.000000 3.906460 0.000000 
#    z 0.000000 0.000000 3.476710 
# 
# 
# High freq. dielectric constant tensor:
#      x y z
#    x 1.788240 0.000000 0.000000 
#    y 0.000000 1.799630 0.000000 
#    z 0.000000 0.000000 1.761470 
# 
# From -- ./inp_files/5058.got.cif
#   From: 2010.03.12/outbox.cif.g09.slc.cpg/sg28_3_cif.got.tgz:5058.got - 2010.04.14 03:39:34.
