data_PCOD8168828
_publ_section_title
;
Structure prediction by ZEFSAII (Michael W. Deem and Ramdas Pophale) SiO2 
 PCOD8168828
Probable space group: P C A 21
;
_chemical_formula_sum "Si O2"
_cell_formula_units_Z 28
_cell_length_a 28.796329
_cell_length_b 7.446790
_cell_length_c 5.189626
_cell_angle_alpha 90.000000
_cell_angle_beta 90.000000
_cell_angle_gamma 90.000000
_cell_volume 1112.864514
_symmetry_space_group_name_H-M "P C A 21"
_symmetry_group_IT_number 29
_symmetry_cell_setting 'orthorhombic'
loop_
_space_group_symop_operation_xyz
x,y,z
-x,-y,1/2+z
1/2-x,y,1/2+z
1/2+x,-y,z
loop_
_atom_site_type_symbol
_atom_site_label
_atom_site_fract_x
_atom_site_fract_y
_atom_site_fract_z
Si Si1 0.415891 0.912777 0.869990
Si Si2 0.772944 0.990851 0.155279
Si Si3 0.380783 0.412560 0.215648
Si Si4 0.538286 0.733771 0.352295
Si Si5 0.054102 0.600089 0.069047
Si Si6 0.724108 0.567021 0.621856
Si Si7 0.130243 0.023746 0.874959
O O1 0.430096 0.704386 0.830622
O O2 0.374270 0.948066 0.664646
O O3 0.454767 0.058389 0.777163
O O4 0.407973 0.948826 0.172350
O O5 0.737527 0.069172 0.371776
O O6 0.768522 0.778446 0.131923
O O7 0.823099 0.050731 0.249303
O O8 0.416830 0.343328 0.002148
O O9 0.402893 0.581505 0.370404
O O10 0.331191 0.479390 0.102082
O O11 0.370611 0.240557 0.400099
O O12 0.488297 0.723254 0.481125
O O13 0.535421 0.602864 0.104806
O O14 0.751312 0.483939 0.376257
#
# Coordination Sequence:
#
# PCOD8168828 Si02
#       7
#     4   4   4   4   4   4   4
#     4  11  26  42  67  96 136 177 224 278 340 405
#     4   9  16  29  57  91 124 166 219 275 334 396
#     4  10  22  40  68  94 138 180 223 286 338 405
#     4  11  25  44  67 101 137 179 236 283 343 415
#     4  12  25  43  71  98 137 185 229 284 348 416
#     4   9  19  33  58  96 129 169 223 274 333 402
#     4  10  21  41  62  96 135 174 226 280 334 411
#
# _framework density 25.160295000000001
#
# number of rings (size 3 to 8) (size 9 to 14) (size 15 to 20)
#    0.000    1.714    2.857    0.857    4.000    6.857 
#    0.000    0.000    0.000    5.143    0.000    0.000 
#    0.000    0.000    0.000    0.000    0.000    0.000 
#
# Total GULP energy -346926.948687 kJ/mol
# GULP energy per Si atom -12390.248167 kJ/mol
# Density = 2.510303 g / cm^3
# Si number density = 25.160295 Si / 1000 Ang^3
#
#
#
# Elastic Constant Matrix: (Units=GPa)
#
#
# Indices 1 2 3 4 5 6 
#
# 1 130.6604 3.5445 23.2628 0.0000 0.0000 0.0000
# 2 3.5445 63.1939 -0.9094 0.0000 0.0000 0.0000
# 3 23.2628 -0.9094 88.1355 0.0000 0.0000 0.0000
# 4 0.0000 0.0000 0.0000 31.1722 0.0000 0.0000
# 5 0.0000 0.0000 0.0000 0.0000 36.4807 0.0000
# 6 0.0000 0.0000 0.0000 0.0000 0.0000 8.5762
#
#
#
# Elastic Compliance Matrix: (Units=1/GPa)
#
#
# Indices 1 2 3 4 5 6 
#
# 1 0.008045 -0.000482 -0.002129 0.000000 0.000000 0.000000
# 2 -0.000482 0.015856 0.000291 0.000000 0.000000 0.000000
# 3 -0.002129 0.000291 0.011911 0.000000 0.000000 0.000000
# 4 0.000000 0.000000 0.000000 0.032080 0.000000 0.000000
# 5 0.000000 0.000000 0.000000 0.000000 0.027412 0.000000
# 6 0.000000 0.000000 0.000000 0.000000 0.000000 0.116602
#
#
# Mechanical properties :
#
#
# Convention : Reuss Voigt Hill
#
# Bulk Modulus (GPa) = 32.07935 37.08731 34.58333
# Shear Modulus (GPa) = 22.03267 32.31862 27.17565
#
# Velocity S-wave (km/s) = 2.96242 3.58789 3.29005
# Velocity P-wave (km/s) = 4.94762 5.65123 5.31109
#
# Compressibility (1/GPa) = 0.03117270
#
# Stress axis : x y z
#
# Youngs Moduli (GPa) = 124.29369 63.06950 83.95622
#
# Poissons Ratio (x) = 0.03039 0.17870
# Poissons Ratio (y) = 0.05990 -0.02441
# Poissons Ratio (z) = 0.26456 -0.01834
#
# Static dielectric constant tensor:
#      x y z
#    x 4.556200 0.000000 0.000000 
#    y 0.000000 4.429900 0.000000 
#    z 0.000000 0.000000 4.616730 
# 
# 
# High freq. dielectric constant tensor:
#      x y z
#    x 2.000910 0.000000 0.000000 
#    y 0.000000 1.987130 0.000000 
#    z 0.000000 0.000000 1.997180 
# 
# From -- ./inp_files/799.got.cif
#   From: 2010.03.12/outbox.cif.g09.slc.cpg/sg29_1_cif.got.tgz:799.got - 2010.04.14 03:43:10.
