data_PCOD8168388
_publ_section_title
;
Structure prediction by ZEFSAII (Michael W. Deem and Ramdas Pophale) SiO2 
 PCOD8168388
Probable space group: P M A 2
;
_chemical_formula_sum "Si O2"
_cell_formula_units_Z 20
_cell_length_a 8.678845
_cell_length_b 9.229546
_cell_length_c 12.634691
_cell_angle_alpha 90.000000
_cell_angle_beta 90.000000
_cell_angle_gamma 90.000000
_cell_volume 1012.061481
_symmetry_space_group_name_H-M "P M A 2"
_symmetry_group_IT_number 28
_symmetry_cell_setting 'orthorhombic'
loop_
_space_group_symop_operation_xyz
x,y,z
-x,-y,z
1/2-x,y,z
1/2+x,-y,z
loop_
_atom_site_type_symbol
_atom_site_label
_atom_site_fract_x
_atom_site_fract_y
_atom_site_fract_z
Si Si1 0.067431 0.345230 0.063470
Si Si2 0.432616 0.341415 0.695261
Si Si3 0.931020 0.843979 0.493048
Si Si4 0.568780 0.651481 0.304283
Si Si5 0.567208 0.157954 0.884489
O O1 0.250000 0.347604 0.046965
O O2 0.019415 0.311958 0.184484
O O3 0.000000 0.500000 0.026967
O O4 0.992353 0.216513 0.996818
O O5 0.500000 0.500000 0.684195
O O6 0.250000 0.346352 0.711915
O O7 0.481597 0.256519 0.590047
O O8 0.509862 0.265891 0.794946
O O9 0.750000 0.860601 0.488394
O O10 0.993806 0.775577 0.383170
O O11 0.000000 0.000000 0.511380
O O12 0.500000 0.500000 0.342256
O O13 0.750000 0.636726 0.314088
O O14 0.750000 0.149449 0.884843
O O15 0.500000 0.000000 0.862480
#
# Coordination Sequence:
#
# PCOD8168388 Si02
#       5
#     4   4   4   4   4
#     4  10  20  37  60  86 117 152 193 237 283 336
#     4  11  23  40  62  87 115 149 191 235 283 339
#     4  10  22  38  57  84 117 151 188 232 283 338
#     4   9  19  36  58  85 115 149 190 234 279 332
#     4  12  25  41  60  84 116 151 190 236 288 341
#
# _framework density 19.761645999999999
#
# number of rings (size 3 to 8) (size 9 to 14) (size 15 to 20)
#    0.000    1.600    0.000    4.800    0.000    5.600 
#    0.000    2.000    0.000    0.000    0.000    0.000 
#    0.000    0.000    0.000    0.000    0.000    0.000 
#
# Total GULP energy -248086.091985 kJ/mol
# GULP energy per Si atom -12404.304599 kJ/mol
# Density = 1.971667 g / cm^3
# Si number density = 19.761646 Si / 1000 Ang^3
#
#
#
# Elastic Constant Matrix: (Units=GPa)
#
#
# Indices 1 2 3 4 5 6 
#
# 1 82.1591 52.7294 46.7318 0.0000 0.0000 0.0000
# 2 52.7294 165.1199 78.0312 0.0000 0.0000 0.0000
# 3 46.7318 78.0312 124.5847 0.0000 0.0000 0.0000
# 4 0.0000 0.0000 0.0000 39.1991 0.0000 0.0000
# 5 0.0000 0.0000 0.0000 0.0000 18.5125 0.0000
# 6 0.0000 0.0000 0.0000 0.0000 0.0000 39.2674
#
#
#
# Elastic Compliance Matrix: (Units=1/GPa)
#
#
# Indices 1 2 3 4 5 6 
#
# 1 0.016696 -0.003369 -0.004152 0.000000 0.000000 0.000000
# 2 -0.003369 0.009282 -0.004550 0.000000 0.000000 0.000000
# 3 -0.004152 -0.004550 0.012434 0.000000 0.000000 0.000000
# 4 0.000000 0.000000 0.000000 0.025511 0.000000 0.000000
# 5 0.000000 0.000000 0.000000 0.000000 0.054017 0.000000
# 6 0.000000 0.000000 0.000000 0.000000 0.000000 0.025466
#
#
# Mechanical properties :
#
#
# Convention : Reuss Voigt Hill
#
# Bulk Modulus (GPa) = 70.08252 80.76094 75.42173
# Shear Modulus (GPa) = 29.01811 32.35391 30.68601
#
# Velocity S-wave (km/s) = 3.83614 4.05063 3.94484
# Velocity P-wave (km/s) = 7.42712 7.92673 7.68099
#
# Compressibility (1/GPa) = 0.01426889
#
# Stress axis : x y z
#
# Youngs Moduli (GPa) = 59.89550 107.73094 80.42488
#
# Poissons Ratio (x) = 0.36299 0.33394
# Poissons Ratio (y) = 0.20181 0.36593
# Poissons Ratio (z) = 0.24870 0.49017
#
# Static dielectric constant tensor:
#      x y z
#    x 3.629120 0.000000 0.000000 
#    y 0.000000 3.547290 0.000000 
#    z 0.000000 0.000000 3.949150 
# 
# 
# High freq. dielectric constant tensor:
#      x y z
#    x 1.774990 0.000000 0.000000 
#    y 0.000000 1.776740 0.000000 
#    z 0.000000 0.000000 1.787610 
# 
# From -- ./inp_files/4548.got.cif
#   From: 2010.03.12/outbox.cif.g09.slc.cpg/sg28_3_cif.got.tgz:4548.got - 2010.04.14 03:39:34.
