data_PCOD8168502
_publ_section_title
;
Structure prediction by ZEFSAII (Michael W. Deem and Ramdas Pophale) SiO2 
 PCOD8168502
Probable space group: P M A 2
;
_chemical_formula_sum "Si O2"
_cell_formula_units_Z 20
_cell_length_a 30.061828
_cell_length_b 5.221711
_cell_length_c 5.010225
_cell_angle_alpha 90.000000
_cell_angle_beta 90.000000
_cell_angle_gamma 90.000000
_cell_volume 786.475951
_symmetry_space_group_name_H-M "P M A 2"
_symmetry_group_IT_number 28
_symmetry_cell_setting 'orthorhombic'
loop_
_space_group_symop_operation_xyz
x,y,z
-x,-y,z
1/2-x,y,z
1/2+x,-y,z
loop_
_atom_site_type_symbol
_atom_site_label
_atom_site_fract_x
_atom_site_fract_y
_atom_site_fract_z
Si Si1 0.153774 0.002669 0.454620
Si Si2 0.250000 0.902096 0.439519
Si Si3 0.971902 0.750282 0.622331
Si Si4 0.087616 0.249335 0.122000
Si Si5 0.654337 0.513217 0.789999
Si Si6 0.250000 0.582662 0.943861
O O1 0.120446 0.008964 0.200694
O O2 0.137460 0.241702 0.627661
O O3 0.205006 0.054339 0.363547
O O4 0.149904 0.740193 0.615407
O O5 0.250000 0.834343 0.753677
O O6 0.250000 0.647935 0.256602
O O7 0.942404 0.664793 0.370399
O O8 0.000000 0.500000 0.703572
O O9 0.943168 0.836891 0.877067
O O10 0.000000 0.000000 0.538557
O O11 0.120175 0.489688 0.040834
O O12 0.704895 0.571321 0.882656
#
# Coordination Sequence:
#
# PCOD8168502 Si02
#       6
#     4   2   4   4   4   2
#     4  11  27  48  76 115 158 205 258 312 371 452
#     4  10  25  45  71 107 160 208 252 305 371 437
#     4  12  30  54  80 113 152 195 250 324 408 478
#     4  12  28  51  84 114 152 200 258 323 388 468
#     4  11  27  48  76 115 158 205 258 312 371 452
#     4  10  25  45  71 107 160 208 252 305 371 437
#
# _framework density 25.429894000000001
#
# number of rings (size 3 to 8) (size 9 to 14) (size 15 to 20)
#    0.000    0.800    2.000    1.800   14.000    4.000 
#    0.000    0.000    0.000    0.000    0.000    0.000 
#    0.000    0.000    0.000    0.000    0.000    0.000 
#
# Total GULP energy -247924.523690 kJ/mol
# GULP energy per Si atom -12396.226185 kJ/mol
# Density = 2.537201 g / cm^3
# Si number density = 25.429894 Si / 1000 Ang^3
#
#
#
# Elastic Constant Matrix: (Units=GPa)
#
#
# Indices 1 2 3 4 5 6 
#
# 1 189.1214 50.2244 73.7205 0.0000 0.0000 0.0000
# 2 50.2244 139.6841 44.7410 0.0000 0.0000 0.0000
# 3 73.7205 44.7410 146.7704 0.0000 0.0000 0.0000
# 4 0.0000 0.0000 0.0000 30.4145 0.0000 0.0000
# 5 0.0000 0.0000 0.0000 0.0000 53.0740 0.0000
# 6 0.0000 0.0000 0.0000 0.0000 0.0000**********
#
#
#
# Elastic Compliance Matrix: (Units=1/GPa)
#
#
# Indices 1 2 3 4 5 6 
#
# 1 0.006850 -0.001508 -0.002981 0.000000 0.000000 0.000000
# 2 -0.001508 0.008266 -0.001762 0.000000 0.000000 0.000000
# 3 -0.002981 -0.001762 0.008848 0.000000 0.000000 0.000000
# 4 0.000000 0.000000 0.000000 0.032879 0.000000 0.000000
# 5 0.000000 0.000000 0.000000 0.000000 0.018842 0.000000
# 6 0.000000 0.000000 0.000000 0.000000 0.000000 -0.000076
#
#
# Mechanical properties :
#
#
# Convention : Reuss Voigt Hill
#
# Bulk Modulus (GPa) = 87.25205 90.32750 88.78977
# Shear Modulus (GPa) = 54.38849 -2592.25558 -1268.93355
#
# Velocity S-wave (km/s) = 4.62969 -31.96226 -22.36238
# Velocity P-wave (km/s) = 7.93499 36.42139 25.13517
#
# Compressibility (1/GPa) = 0.01146105
#
# Stress axis : x y z
#
# Youngs Moduli (GPa) = 145.98253 120.98165 113.02217
#
# Poissons Ratio (x) = 0.18247 0.33691
# Poissons Ratio (y) = 0.22017 0.19916
# Poissons Ratio (z) = 0.43517 0.21319
#
# Static dielectric constant tensor:
#      x y z
#    x 5.147120 0.000000 0.000000 
#    y 0.000000 4.117180 0.000000 
#    z 0.000000 0.000000 4.897120 
# 
# 
# High freq. dielectric constant tensor:
#      x y z
#    x 2.042440 0.000000 0.000000 
#    y 0.000000 1.983960 0.000000 
#    z 0.000000 0.000000 2.028280 
# 
# From -- ./inp_files/1842.got.cif
#   From: 2010.03.12/outbox.cif.g09.slc.cpg/sg28_1_cif.got.tgz:1842.got - 2010.04.14 03:39:34.
