data_PCOD8168523
_publ_section_title
;
Structure prediction by ZEFSAII (Michael W. Deem and Ramdas Pophale) SiO2 
 PCOD8168523
Probable space group: P C A 21
;
_chemical_formula_sum "Si O2"
_cell_formula_units_Z 32
_cell_length_a 5.306191
_cell_length_b 19.256002
_cell_length_c 11.913365
_cell_angle_alpha 90.000000
_cell_angle_beta 90.000000
_cell_angle_gamma 90.000000
_cell_volume 1217.260274
_symmetry_space_group_name_H-M "P C A 21"
_symmetry_group_IT_number 29
_symmetry_cell_setting 'orthorhombic'
loop_
_space_group_symop_operation_xyz
x,y,z
-x,-y,1/2+z
1/2-x,y,1/2+z
1/2+x,-y,z
loop_
_atom_site_type_symbol
_atom_site_label
_atom_site_fract_x
_atom_site_fract_y
_atom_site_fract_z
Si Si1 0.317734 0.825262 0.540840
Si Si2 0.873413 0.969618 0.751819
Si Si3 0.273244 0.323717 0.173084
Si Si4 0.166913 0.973231 0.494750
Si Si5 0.144999 0.471917 0.230955
Si Si6 0.272231 0.678056 0.035353
Si Si7 0.318818 0.177072 0.679199
Si Si8 0.646645 0.470572 0.977361
O O1 0.257342 0.894617 0.470672
O O2 0.279254 0.752284 0.471879
O O3 0.606375 0.829698 0.582206
O O4 0.108267 0.822887 0.638784
O O5 0.790737 0.889082 0.760138
O O6 0.650840 0.017247 0.694491
O O7 0.930345 0.994243 0.878092
O O8 0.225599 0.392099 0.245334
O O9 0.563532 0.325806 0.134251
O O10 0.232207 0.251159 0.241763
O O11 0.063453 0.324000 0.074090
O O12 0.388071 0.020652 0.556500
O O13 0.366394 0.519412 0.287041
O O14 0.095544 0.501243 0.104536
O O15 0.225900 0.609650 0.961752
O O16 0.367849 0.481298 0.922169
#
# Coordination Sequence:
#
# PCOD8168523 Si02
#       8
#     4   4   4   4   4   4   4   4
#     4  10  21  32  48  73 101 129 160 203 254 292
#     4  10  21  37  55  72  93 126 165 208 244 297
#     4  10  16  25  36  57  89 121 157 188 229 277
#     4  10  21  37  55  72  93 126 165 208 244 297
#     4  10  14  20  34  52  77 120 164 178 211 271
#     4  10  16  25  36  57  89 121 157 188 229 277
#     4  10  21  32  48  73 101 129 160 203 254 292
#     4  10  14  20  34  52  77 120 164 178 211 271
#
# _framework density 26.288543000000001
#
# number of rings (size 3 to 8) (size 9 to 14) (size 15 to 20)
#    0.000    2.000    5.000    1.500    0.000    3.000 
#    0.000    0.000    0.000    0.000    0.000    0.000 
#    0.000    0.000    0.000   27.000    0.000    0.000 
#
# Total GULP energy -396501.549624 kJ/mol
# GULP energy per Si atom -12390.673426 kJ/mol
# Density = 2.622871 g / cm^3
# Si number density = 26.288543 Si / 1000 Ang^3
#
#
#
# Elastic Constant Matrix: (Units=GPa)
#
#
# Indices 1 2 3 4 5 6 
#
# 1 191.8471 32.2969 25.1445 0.0000 0.0000 0.0000
# 2 32.2969 253.9762 7.3305 0.0000 0.0000 0.0000
# 3 25.1445 7.3305 41.2192 0.0000 0.0000 0.0000
# 4 0.0000 0.0000 0.0000 23.7198 0.0000 0.0000
# 5 0.0000 0.0000 0.0000 0.0000 29.5012 0.0000
# 6 0.0000 0.0000 0.0000 0.0000 0.0000 45.4679
#
#
#
# Elastic Compliance Matrix: (Units=1/GPa)
#
#
# Indices 1 2 3 4 5 6 
#
# 1 0.005766 -0.000635 -0.003404 0.000000 0.000000 0.000000
# 2 -0.000635 0.004028 -0.000329 0.000000 0.000000 0.000000
# 3 -0.003404 -0.000329 0.026396 0.000000 0.000000 0.000000
# 4 0.000000 0.000000 0.000000 0.042159 0.000000 0.000000
# 5 0.000000 0.000000 0.000000 0.000000 0.033897 0.000000
# 6 0.000000 0.000000 0.000000 0.000000 0.000000 0.021994
#
#
# Mechanical properties :
#
#
# Convention : Reuss Voigt Hill
#
# Bulk Modulus (GPa) = 36.42627 68.50958 52.46793
# Shear Modulus (GPa) = 32.86766 47.88916 40.37841
#
# Velocity S-wave (km/s) = 3.53975 4.27274 3.92340
# Velocity P-wave (km/s) = 5.53108 7.10344 6.36599
#
# Compressibility (1/GPa) = 0.02745271
#
# Stress axis : x y z
#
# Youngs Moduli (GPa) = 173.44422 248.28613 37.88498
#
# Poissons Ratio (x) = 0.15764 0.12897
# Poissons Ratio (y) = 0.11012 0.01246
# Poissons Ratio (z) = 0.59044 0.08168
#
# Static dielectric constant tensor:
#      x y z
#    x 5.732880 0.000000 0.000000 
#    y 0.000000 5.412180 0.000000 
#    z 0.000000 0.000000 4.804460 
# 
# 
# High freq. dielectric constant tensor:
#      x y z
#    x 2.117810 0.000000 0.000000 
#    y 0.000000 2.068140 0.000000 
#    z 0.000000 0.000000 2.026940 
# 
# From -- ./inp_files/4148.got.cif
#   From: 2010.03.12/outbox.cif.g09.slc.cpg/sg29_3_cif.got.tgz:4148.got - 2010.04.14 03:43:10.
