data_PCOD8168573
_publ_section_title
;
Structure prediction by ZEFSAII (Michael W. Deem and Ramdas Pophale) SiO2 
 PCOD8168573
Probable space group: P C A 21
;
_chemical_formula_sum "Si O2"
_cell_formula_units_Z 32
_cell_length_a 10.657910
_cell_length_b 8.921178
_cell_length_c 17.247226
_cell_angle_alpha 90.000000
_cell_angle_beta 90.000000
_cell_angle_gamma 90.000000
_cell_volume 1639.885431
_symmetry_space_group_name_H-M "P C A 21"
_symmetry_group_IT_number 29
_symmetry_cell_setting 'orthorhombic'
loop_
_space_group_symop_operation_xyz
x,y,z
-x,-y,1/2+z
1/2-x,y,1/2+z
1/2+x,-y,z
loop_
_atom_site_type_symbol
_atom_site_label
_atom_site_fract_x
_atom_site_fract_y
_atom_site_fract_z
Si Si1 0.410760 0.815336 0.335190
Si Si2 0.146274 0.059435 0.713286
Si Si3 0.039678 0.610203 0.624156
Si Si4 0.355363 0.283661 0.745783
Si Si5 0.250660 0.593236 0.251435
Si Si6 0.040665 0.703168 0.142386
Si Si7 0.113170 0.898052 0.556570
Si Si8 0.119844 0.906346 0.007851
O O1 0.539923 0.737431 0.311065
O O2 0.292092 0.704040 0.321051
O O3 0.419025 0.840044 0.426188
O O4 0.400518 0.974257 0.290184
O O5 0.281365 0.128090 0.733977
O O6 0.063063 0.195319 0.682650
O O7 0.149285 0.936479 0.645414
O O8 0.140233 0.600767 0.690600
O O9 0.088776 0.717811 0.554733
O O10 0.912356 0.678348 0.661179
O O11 0.017524 0.439841 0.596456
O O12 0.268316 0.420195 0.777322
O O13 0.122432 0.652013 0.214935
O O14 0.119396 0.785583 0.076571
O O15 0.232077 0.954767 0.504748
O O16 0.982049 0.966918 0.527649
#
# Coordination Sequence:
#
# PCOD8168573 Si02
#       8
#     4   4   4   4   4   4   4   4
#     4  11  25  39  60  89 127 164 199 261 320 382
#     4  11  21  35  65  88 116 156 208 255 309 365
#     4  10  18  37  63  90 113 155 207 261 301 365
#     4  10  21  37  60  90 116 151 211 258 305 368
#     4  10  19  39  63  86 120 155 211 254 300 371
#     4  10  21  37  63  92 116 161 210 258 306 368
#     4  11  22  41  63  90 123 166 208 261 310 379
#     4  11  25  41  59  91 131 164 206 258 323 378
#
# _framework density 19.513559000000001
#
# number of rings (size 3 to 8) (size 9 to 14) (size 15 to 20)
#    0.000    1.500    5.000    0.750    5.250    0.000 
#    2.250    1.250    0.000    0.000    0.000    0.000 
#    0.000    0.000    0.000    0.000    0.000    0.000 
#
# Total GULP energy -396627.828472 kJ/mol
# GULP energy per Si atom -12394.619640 kJ/mol
# Density = 1.946915 g / cm^3
# Si number density = 19.513559 Si / 1000 Ang^3
#
#
#
# Elastic Constant Matrix: (Units=GPa)
#
#
# Indices 1 2 3 4 5 6 
#
# 1 70.1925 39.9586 -1.1292 0.0000 0.0000 0.0000
# 2 39.9586 107.9649 3.5236 0.0000 0.0000 0.0000
# 3 -1.1292 3.5236 29.9285 0.0000 0.0000 0.0000
# 4 0.0000 0.0000 0.0000 14.5252 0.0000 0.0000
# 5 0.0000 0.0000 0.0000 0.0000 15.2188 0.0000
# 6 0.0000 0.0000 0.0000 0.0000 0.0000 34.2364
#
#
#
# Elastic Compliance Matrix: (Units=1/GPa)
#
#
# Indices 1 2 3 4 5 6 
#
# 1 0.018114 -0.006753 0.001478 0.000000 0.000000 0.000000
# 2 -0.006753 0.011815 -0.001646 0.000000 0.000000 0.000000
# 3 0.001478 -0.001646 0.033662 0.000000 0.000000 0.000000
# 4 0.000000 0.000000 0.000000 0.068846 0.000000 0.000000
# 5 0.000000 0.000000 0.000000 0.000000 0.065708 0.000000
# 6 0.000000 0.000000 0.000000 0.000000 0.000000 0.029209
#
#
# Mechanical properties :
#
#
# Convention : Reuss Voigt Hill
#
# Bulk Modulus (GPa) = 20.09959 32.53243 26.31601
# Shear Modulus (GPa) = 19.39650 23.84494 21.62072
#
# Velocity S-wave (km/s) = 3.15620 3.49946 3.33225
# Velocity P-wave (km/s) = 4.85848 5.74771 5.32170
#
# Compressibility (1/GPa) = 0.04975226
#
# Stress axis : x y z
#
# Youngs Moduli (GPa) = 55.20494 84.63719 29.70665
#
# Poissons Ratio (x) = 0.57151 -0.04392
# Poissons Ratio (y) = 0.37277 0.04889
# Poissons Ratio (z) = -0.08162 0.13930
#
# Static dielectric constant tensor:
#      x y z
#    x 3.915500 0.000000 0.000000 
#    y 0.000000 4.326140 0.000000 
#    z 0.000000 0.000000 3.261130 
# 
# 
# High freq. dielectric constant tensor:
#      x y z
#    x 1.776600 0.000000 0.000000 
#    y 0.000000 1.772860 0.000000 
#    z 0.000000 0.000000 1.714990 
# 
# From -- ./inp_files/5138.got.cif
#   From: 2010.03.12/outbox.cif.g09.slc.cpg/sg29_3_cif.got.tgz:5138.got - 2010.04.14 03:43:10.
