data_PCOD8168997
_publ_section_title
;
Structure prediction by ZEFSAII (Michael W. Deem and Ramdas Pophale) SiO2 
 PCOD8168997
Probable space group: P C A 21
;
_chemical_formula_sum "Si O2"
_cell_formula_units_Z 16
_cell_length_a 11.085441
_cell_length_b 10.442765
_cell_length_c 4.989458
_cell_angle_alpha 90.000000
_cell_angle_beta 90.000000
_cell_angle_gamma 90.000000
_cell_volume 577.592907
_symmetry_space_group_name_H-M "P C A 21"
_symmetry_group_IT_number 29
_symmetry_cell_setting 'orthorhombic'
loop_
_space_group_symop_operation_xyz
x,y,z
-x,-y,1/2+z
1/2-x,y,1/2+z
1/2+x,-y,z
loop_
_atom_site_type_symbol
_atom_site_label
_atom_site_fract_x
_atom_site_fract_y
_atom_site_fract_z
Si Si1 0.469916 0.808812 0.610550
Si Si2 0.818379 0.704227 0.771574
Si Si3 0.832875 0.960827 0.421934
Si Si4 0.430023 0.540420 0.826722
O O1 0.555764 0.754938 0.377398
O O2 0.541590 0.894339 0.829408
O O3 0.406323 0.689425 0.761923
O O4 0.366754 0.889495 0.455235
O O5 0.796694 0.748499 0.460124
O O6 0.812431 0.549302 0.781068
O O7 0.780507 0.928111 0.723078
O O8 0.531243 0.477508 0.633666
#
# Coordination Sequence:
#
# PCOD8168997 Si02
#       4
#     4   4   4   4
#     4  11  26  49  73 103 151 191 239 302 361 427
#     4  11  23  42  73 107 141 184 233 288 356 435
#     4  12  28  47  73 107 144 196 250 299 359 430
#     4  10  23  42  67  99 136 181 230 289 354 414
#
# _framework density 27.701167999999999
#
# number of rings (size 3 to 8) (size 9 to 14) (size 15 to 20)
#    0.000    1.000    0.000    6.000    0.000   18.000 
#    0.000    0.000    0.000    0.000    0.000    0.000 
#    0.000    0.000    0.000    0.000    0.000    0.000 
#
# Total GULP energy -198320.681938 kJ/mol
# GULP energy per Si atom -12395.042621 kJ/mol
# Density = 2.763812 g / cm^3
# Si number density = 27.701168 Si / 1000 Ang^3
#
#
#
# Elastic Constant Matrix: (Units=GPa)
#
#
# Indices 1 2 3 4 5 6 
#
# 1 53.7118 31.7193 38.5958 0.0000 0.0000 0.0000
# 2 31.7193 195.1922 47.9986 0.0000 0.0000 0.0000
# 3 38.5958 47.9986 137.7249 0.0000 0.0000 0.0000
# 4 0.0000 0.0000 0.0000 54.6637 0.0000 0.0000
# 5 0.0000 0.0000 0.0000 0.0000 28.9450 0.0000
# 6 0.0000 0.0000 0.0000 0.0000 0.0000 40.3894
#
#
#
# Elastic Compliance Matrix: (Units=1/GPa)
#
#
# Indices 1 2 3 4 5 6 
#
# 1 0.024375 -0.002495 -0.005961 0.000000 0.000000 0.000000
# 2 -0.002495 0.005859 -0.001343 0.000000 0.000000 0.000000
# 3 -0.005961 -0.001343 0.009399 0.000000 0.000000 0.000000
# 4 0.000000 0.000000 0.000000 0.018294 0.000000 0.000000
# 5 0.000000 0.000000 0.000000 0.000000 0.034548 0.000000
# 6 0.000000 0.000000 0.000000 0.000000 0.000000 0.024759
#
#
# Mechanical properties :
#
#
# Convention : Reuss Voigt Hill
#
# Bulk Modulus (GPa) = 49.91231 69.25069 59.58150
# Shear Modulus (GPa) = 34.84074 42.68730 38.76402
#
# Velocity S-wave (km/s) = 3.55030 3.92981 3.74487
# Velocity P-wave (km/s) = 5.90453 6.75608 6.34461
#
# Compressibility (1/GPa) = 0.02003514
#
# Stress axis : x y z
#
# Youngs Moduli (GPa) = 41.02580 170.68422 106.39060
#
# Poissons Ratio (x) = 0.42588 0.63422
# Poissons Ratio (y) = 0.10236 0.14284
# Poissons Ratio (z) = 0.24456 0.22916
#
# Static dielectric constant tensor:
#      x y z
#    x 4.630720 0.000000 0.000000 
#    y 0.000000 6.270660 0.000000 
#    z 0.000000 0.000000 5.258130 
# 
# 
# High freq. dielectric constant tensor:
#      x y z
#    x 2.069320 0.000000 0.000000 
#    y 0.000000 2.175250 0.000000 
#    z 0.000000 0.000000 2.141030 
# 
# From -- ./inp_files/65.got.cif
#   From: 2010.03.12/outbox.cif.g09.slc.cpg/sg29_1_cif.got.tgz:65.got - 2010.04.14 03:43:10.
