data_PCOD8168681
_publ_section_title
;
Structure prediction by ZEFSAII (Michael W. Deem and Ramdas Pophale) SiO2 
 PCOD8168681
Probable space group: P C A 21
;
_chemical_formula_sum "Si O2"
_cell_formula_units_Z 32
_cell_length_a 13.889490
_cell_length_b 7.801229
_cell_length_c 13.273725
_cell_angle_alpha 90.000000
_cell_angle_beta 90.000000
_cell_angle_gamma 90.000000
_cell_volume 1438.275696
_symmetry_space_group_name_H-M "P C A 21"
_symmetry_group_IT_number 29
_symmetry_cell_setting 'orthorhombic'
loop_
_space_group_symop_operation_xyz
x,y,z
-x,-y,1/2+z
1/2-x,y,1/2+z
1/2+x,-y,z
loop_
_atom_site_type_symbol
_atom_site_label
_atom_site_fract_x
_atom_site_fract_y
_atom_site_fract_z
Si Si1 0.422828 0.961886 0.443130
Si Si2 0.994916 0.425576 0.955416
Si Si3 0.832245 0.266003 0.835866
Si Si4 0.573066 0.762269 0.557347
Si Si5 0.715291 0.010500 0.504721
Si Si6 0.940908 0.203338 0.128613
Si Si7 0.496007 0.111857 0.247362
Si Si8 0.375865 0.625802 0.315623
O O1 0.509296 0.929820 0.521914
O O2 0.330526 0.005338 0.512295
O O3 0.405989 0.792673 0.377849
O O4 0.455512 0.111939 0.363387
O O5 0.975698 0.591603 0.022013
O O6 0.009039 0.267869 0.035116
O O7 0.895825 0.400291 0.897348
O O8 0.083223 0.459760 0.877417
O O9 0.896838 0.194472 0.743560
O O10 0.739737 0.376552 0.803952
O O11 0.805133 0.095078 0.897011
O O12 0.573681 0.768007 0.679299
O O13 0.677459 0.812122 0.511976
O O14 0.662448 0.122907 0.592375
O O15 0.916300 0.365638 0.201395
O O16 0.000934 0.077159 0.200458
#
# Coordination Sequence:
#
# PCOD8168681 Si02
#       8
#     4   4   4   4   4   4   4   4
#     4   9  18  36  60  86 120 161 209 264 318 358
#     4  10  22  40  58  86 132 169 200 265 329 385
#     4  10  20  38  62  86 119 168 211 256 322 375
#     4  10  20  36  56  89 124 160 209 259 319 382
#     4   9  18  36  59  83 121 163 210 262 301 375
#     4   9  20  38  61  93 124 166 218 258 311 395
#     4  10  20  36  63  91 117 161 219 268 310 374
#     4   9  20  38  63  86 123 168 208 254 322 388
#
# _framework density 22.248864000000001
#
# number of rings (size 3 to 8) (size 9 to 14) (size 15 to 20)
#    0.000    2.500    1.250    0.000    3.500    0.000 
#    2.250    0.000    0.000    1.500    0.000    0.000 
#    0.000    0.000    0.000    0.000    0.000    0.000 
#
# Total GULP energy -396475.668197 kJ/mol
# GULP energy per Si atom -12389.864631 kJ/mol
# Density = 2.219822 g / cm^3
# Si number density = 22.248864 Si / 1000 Ang^3
#
#
#
# Elastic Constant Matrix: (Units=GPa)
#
#
# Indices 1 2 3 4 5 6 
#
# 1 115.6092 7.6607 42.2992 0.0000 0.0000 0.0000
# 2 7.6607 31.2115 12.4927 0.0000 0.0000 0.0000
# 3 42.2992 12.4927 110.5303 0.0000 0.0000 0.0000
# 4 0.0000 0.0000 0.0000 28.3842 0.0000 0.0000
# 5 0.0000 0.0000 0.0000 0.0000 29.0884 0.0000
# 6 0.0000 0.0000 0.0000 0.0000 0.0000 29.5584
#
#
#
# Elastic Compliance Matrix: (Units=1/GPa)
#
#
# Indices 1 2 3 4 5 6 
#
# 1 0.010086 -0.000975 -0.003750 0.000000 0.000000 0.000000
# 2 -0.000975 0.033652 -0.003430 0.000000 0.000000 0.000000
# 3 -0.003750 -0.003430 0.010870 0.000000 0.000000 0.000000
# 4 0.000000 0.000000 0.000000 0.035231 0.000000 0.000000
# 5 0.000000 0.000000 0.000000 0.000000 0.034378 0.000000
# 6 0.000000 0.000000 0.000000 0.000000 0.000000 0.033831
#
#
# Mechanical properties :
#
#
# Convention : Reuss Voigt Hill
#
# Bulk Modulus (GPa) = 26.11093 42.47291 34.29192
# Shear Modulus (GPa) = 26.72018 30.39943 28.55980
#
# Velocity S-wave (km/s) = 3.46926 3.70041 3.58670
# Velocity P-wave (km/s) = 5.27342 6.11463 5.70954
#
# Compressibility (1/GPa) = 0.03829814
#
# Stress axis : x y z
#
# Youngs Moduli (GPa) = 99.14327 29.71613 91.99587
#
# Poissons Ratio (x) = 0.02897 0.34497
# Poissons Ratio (y) = 0.09664 0.31559
# Poissons Ratio (z) = 0.37177 0.10194
#
# Static dielectric constant tensor:
#      x y z
#    x 3.993560 0.000000 0.000000 
#    y 0.000000 3.962840 0.000000 
#    z 0.000000 0.000000 4.203310 
# 
# 
# High freq. dielectric constant tensor:
#      x y z
#    x 1.854030 0.000000 0.000000 
#    y 0.000000 1.869530 0.000000 
#    z 0.000000 0.000000 1.885580 
# 
# From -- ./inp_files/4551.got.cif
#   From: 2010.03.12/outbox.cif.g09.slc.cpg/sg29_3_cif.got.tgz:4551.got - 2010.04.14 03:43:10.
