data_PCOD8168080
_publ_section_title
;
Structure prediction by ZEFSAII (Michael W. Deem and Ramdas Pophale) SiO2 
 PCOD8168080
Probable space group: P M A 2
;
_chemical_formula_sum "Si O2"
_cell_formula_units_Z 32
_cell_length_a 9.261571
_cell_length_b 17.732100
_cell_length_c 11.481801
_cell_angle_alpha 90.000000
_cell_angle_beta 90.000000
_cell_angle_gamma 90.000000
_cell_volume 1885.622917
_symmetry_space_group_name_H-M "P M A 2"
_symmetry_group_IT_number 28
_symmetry_cell_setting 'orthorhombic'
loop_
_space_group_symop_operation_xyz
x,y,z
-x,-y,z
1/2-x,y,z
1/2+x,-y,z
loop_
_atom_site_type_symbol
_atom_site_label
_atom_site_fract_x
_atom_site_fract_y
_atom_site_fract_z
Si Si1 0.581003 0.230296 0.673830
Si Si2 0.919915 0.072082 0.560954
Si Si3 0.921629 0.271232 0.929301
Si Si4 0.420814 0.574747 0.037873
Si Si5 0.090342 0.644919 0.275134
Si Si6 0.910848 0.703464 0.470051
Si Si7 0.412133 0.134670 0.351896
Si Si8 0.088933 0.806216 0.155727
O O1 0.750000 0.247541 0.662786
O O2 0.547295 0.143720 0.642381
O O3 0.521729 0.245113 0.803601
O O4 0.500445 0.288162 0.588801
O O5 0.750000 0.057103 0.548919
O O6 0.987809 0.083069 0.433052
O O7 0.000000 0.000000 0.618512
O O8 0.750000 0.271080 0.935760
O O9 0.975937 0.355808 0.957852
O O10 0.975874 0.211574 0.027144
O O11 0.500000 0.500000 0.992958
O O12 0.250000 0.564207 0.026423
O O13 0.465113 0.590202 0.172327
O O14 0.250000 0.620236 0.316563
O O15 0.099302 0.728962 0.226272
O O16 0.984387 0.641070 0.386293
O O17 0.750000 0.675580 0.500532
O O18 0.906171 0.782155 0.403700
O O19 0.250000 0.101061 0.343982
O O20 0.482735 0.136394 0.222975
O O21 0.250000 0.841846 0.148144
#
# Coordination Sequence:
#
# PCOD8168080 Si02
#       8
#     4   4   4   4   4   4   4   4
#     4   9  17  30  48  67  88 120 161 195 226 272
#     4  10  19  30  46  67  90 117 149 188 233 279
#     4   8  15  29  48  68  90 121 161 196 224 267
#     4   9  17  29  46  68  93 119 149 189 235 280
#     4   8  14  25  41  61  85 113 142 173 215 268
#     4   9  16  25  40  64  90 112 138 180 226 262
#     4   9  16  26  41  63  90 114 138 173 220 269
#     4   8  13  24  43  64  85 110 143 180 216 257
#
# _framework density 16.97052
#
# number of rings (size 3 to 8) (size 9 to 14) (size 15 to 20)
#    0.000    3.250    0.000    2.625    0.000    4.000 
#    0.000    3.125    0.000    1.500    0.000    3.500 
#    0.000    0.000    0.000    0.000    0.000    0.000 
#
# Total GULP energy -396619.183989 kJ/mol
# GULP energy per Si atom -12394.349500 kJ/mol
# Density = 1.693189 g / cm^3
# Si number density = 16.970520 Si / 1000 Ang^3
#
#
#
# Elastic Constant Matrix: (Units=GPa)
#
#
# Indices 1 2 3 4 5 6 
#
# 1 83.1470 31.4735 52.3643 0.0000 0.0000 0.0000
# 2 31.4735 56.6192 40.5369 0.0000 0.0000 0.0000
# 3 52.3643 40.5369 133.0542 0.0000 0.0000 0.0000
# 4 0.0000 0.0000 0.0000 15.2444 0.0000 0.0000
# 5 0.0000 0.0000 0.0000 0.0000 15.8422 0.0000
# 6 0.0000 0.0000 0.0000 0.0000 0.0000 22.2491
#
#
#
# Elastic Compliance Matrix: (Units=1/GPa)
#
#
# Indices 1 2 3 4 5 6 
#
# 1 0.017514 -0.006140 -0.005022 0.000000 0.000000 0.000000
# 2 -0.006140 0.024742 -0.005121 0.000000 0.000000 0.000000
# 3 -0.005022 -0.005121 0.011053 0.000000 0.000000 0.000000
# 4 0.000000 0.000000 0.000000 0.065598 0.000000 0.000000
# 5 0.000000 0.000000 0.000000 0.000000 0.063122 0.000000
# 6 0.000000 0.000000 0.000000 0.000000 0.000000 0.044946
#
#
# Mechanical properties :
#
#
# Convention : Reuss Voigt Hill
#
# Bulk Modulus (GPa) = 48.21370 57.95220 53.08295
# Shear Modulus (GPa) = 18.76491 20.56352 19.66421
#
# Velocity S-wave (km/s) = 3.32887 3.48475 3.40770
# Velocity P-wave (km/s) = 6.57625 7.10030 6.84329
#
# Compressibility (1/GPa) = 0.02074099
#
# Stress axis : x y z
#
# Youngs Moduli (GPa) = 57.09769 40.41751 90.47715
#
# Poissons Ratio (x) = 0.24817 0.45438
# Poissons Ratio (y) = 0.35058 0.46338
# Poissons Ratio (z) = 0.28675 0.20700
#
# Static dielectric constant tensor:
#      x y z
#    x 3.230920 0.000000 0.000000 
#    y 0.000000 2.908040 0.000000 
#    z 0.000000 0.000000 3.300370 
# 
# 
# High freq. dielectric constant tensor:
#      x y z
#    x 1.647880 0.000000 0.000000 
#    y 0.000000 1.616490 0.000000 
#    z 0.000000 0.000000 1.641660 
# 
# From -- ./inp_files/5165.got.cif
#   From: 2010.03.12/outbox.cif.g09.slc.cpg/sg28_3_cif.got.tgz:5165.got - 2010.04.14 03:39:34.
