data_PCOD8168143
_publ_section_title
;
Structure prediction by ZEFSAII (Michael W. Deem and Ramdas Pophale) SiO2 
 PCOD8168143
Probable space group: P M A 2
;
_chemical_formula_sum "Si O2"
_cell_formula_units_Z 28
_cell_length_a 8.873937
_cell_length_b 9.404940
_cell_length_c 18.041093
_cell_angle_alpha 90.000000
_cell_angle_beta 90.000000
_cell_angle_gamma 90.000000
_cell_volume 1505.688785
_symmetry_space_group_name_H-M "P M A 2"
_symmetry_group_IT_number 28
_symmetry_cell_setting 'orthorhombic'
loop_
_space_group_symop_operation_xyz
x,y,z
-x,-y,z
1/2-x,y,z
1/2+x,-y,z
loop_
_atom_site_type_symbol
_atom_site_label
_atom_site_fract_x
_atom_site_fract_y
_atom_site_fract_z
Si Si1 0.572504 0.653789 0.761590
Si Si2 0.072981 0.346175 0.081189
Si Si3 0.072085 0.853489 0.643408
Si Si4 0.070444 0.155325 0.216928
Si Si5 0.424183 0.350297 0.920815
Si Si6 0.071792 0.654750 0.343970
Si Si7 0.574982 0.144554 0.475837
O O1 0.500000 0.500000 0.763544
O O2 0.750000 0.644909 0.745311
O O3 0.491230 0.733329 0.695835
O O4 0.540215 0.730340 0.842611
O O5 0.250000 0.369797 0.089084
O O6 0.017370 0.232909 0.141541
O O7 0.000000 0.500000 0.095139
O O8 0.028764 0.278932 0.999687
O O9 0.250000 0.862801 0.651547
O O10 0.021364 0.818683 0.559197
O O11 0.000000 0.000000 0.670190
O O12 0.250000 0.144536 0.223920
O O13 0.004965 0.245278 0.284080
O O14 0.000000 0.000000 0.217979
O O15 0.500000 0.500000 0.917363
O O16 0.250000 0.383662 0.923717
O O17 0.250000 0.644883 0.329402
O O18 0.034198 0.722124 0.424129
O O19 0.000000 0.500000 0.340250
O O20 0.750000 0.111910 0.474433
O O21 0.500000 0.000000 0.445885
#
# Coordination Sequence:
#
# PCOD8168143 Si02
#       7
#     4   4   4   4   4   4   4
#     4  10  19  32  52  78 107 140 178 220 265 312
#     4   9  18  33  54  78 104 135 173 217 262 310
#     4  10  20  36  55  77 106 140 178 217 262 314
#     4  11  23  38  56  79 108 142 178 216 261 312
#     4   8  15  29  49  73 102 135 172 214 260 310
#     4  11  23  39  58  82 110 139 174 215 260 309
#     4   9  20  37  57  79 104 137 175 215 260 313
#
# _framework density 18.596140999999999
#
# number of rings (size 3 to 8) (size 9 to 14) (size 15 to 20)
#    0.000    2.286    0.000    2.571    0.000    6.286 
#    0.000    2.143    0.000    1.714    0.000    0.000 
#    0.000    0.000    0.000    0.000    0.000    0.000 
#
# Total GULP energy -346963.071488 kJ/mol
# GULP energy per Si atom -12391.538267 kJ/mol
# Density = 1.855382 g / cm^3
# Si number density = 18.596141 Si / 1000 Ang^3
#
#
#
# Elastic Constant Matrix: (Units=GPa)
#
#
# Indices 1 2 3 4 5 6 
#
# 1 68.4898 43.6210 49.7803 0.0000 0.0000 0.0000
# 2 43.6210 116.7967 74.4476 0.0000 0.0000 0.0000
# 3 49.7803 74.4476 138.1075 0.0000 0.0000 0.0000
# 4 0.0000 0.0000 0.0000 4.5384 0.0000 0.0000
# 5 0.0000 0.0000 0.0000 0.0000 112.7125 0.0000
# 6 0.0000 0.0000 0.0000 0.0000 0.0000 34.3707
#
#
#
# Elastic Compliance Matrix: (Units=1/GPa)
#
#
# Indices 1 2 3 4 5 6 
#
# 1 0.021335 -0.004672 -0.005172 0.000000 0.000000 0.000000
# 2 -0.004672 0.014067 -0.005899 0.000000 0.000000 0.000000
# 3 -0.005172 -0.005899 0.012285 0.000000 0.000000 0.000000
# 4 0.000000 0.000000 0.000000 0.220340 0.000000 0.000000
# 5 0.000000 0.000000 0.000000 0.000000 0.008872 0.000000
# 6 0.000000 0.000000 0.000000 0.000000 0.000000 0.029095
#
#
# Mechanical properties :
#
#
# Convention : Reuss Voigt Hill
#
# Bulk Modulus (GPa) = 61.72147 73.23243 67.47695
# Shear Modulus (GPa) = 14.58245 40.69399 27.63822
#
# Velocity S-wave (km/s) = 2.80333 4.68301 3.85935
# Velocity P-wave (km/s) = 6.61368 8.28895 7.49825
#
# Compressibility (1/GPa) = 0.01620182
#
# Stress axis : x y z
#
# Youngs Moduli (GPa) = 46.87106 71.09041 81.40183
#
# Poissons Ratio (x) = 0.33210 0.42100
# Poissons Ratio (y) = 0.21896 0.48018
# Poissons Ratio (z) = 0.24241 0.41935
#
# Static dielectric constant tensor:
#      x y z
#    x 3.495390 0.000000 0.000000 
#    y 0.000000 3.312040 0.000000 
#    z 0.000000 0.000000 4.228460 
# 
# 
# High freq. dielectric constant tensor:
#      x y z
#    x 1.730370 0.000000 0.000000 
#    y 0.000000 1.696250 0.000000 
#    z 0.000000 0.000000 1.747910 
# 
# From -- ./inp_files/6798.got.cif
#   From: 2010.03.12/outbox.cif.g09.slc.cpg/sg28_4_cif.got.tgz:6798.got - 2010.04.14 03:39:34.
