data_PCOD8168821
_publ_section_title
;
Structure prediction by ZEFSAII (Michael W. Deem and Ramdas Pophale) SiO2 
 PCOD8168821
Probable space group: P C A 21
;
_chemical_formula_sum "Si O2"
_cell_formula_units_Z 28
_cell_length_a 15.347586
_cell_length_b 14.850721
_cell_length_c 5.313536
_cell_angle_alpha 90.000000
_cell_angle_beta 90.000000
_cell_angle_gamma 90.000000
_cell_volume 1211.075566
_symmetry_space_group_name_H-M "P C A 21"
_symmetry_group_IT_number 29
_symmetry_cell_setting 'orthorhombic'
loop_
_space_group_symop_operation_xyz
x,y,z
-x,-y,1/2+z
1/2-x,y,1/2+z
1/2+x,-y,z
loop_
_atom_site_type_symbol
_atom_site_label
_atom_site_fract_x
_atom_site_fract_y
_atom_site_fract_z
Si Si1 0.055632 0.987456 0.734820
Si Si2 0.433248 0.406940 0.696455
Si Si3 0.344225 0.238732 0.801374
Si Si4 0.851041 0.835074 0.302227
Si Si5 0.207985 0.869212 0.760060
Si Si6 0.538835 0.390282 0.195635
Si Si7 0.719751 0.330580 0.249073
O O1 0.134830 0.059518 0.756291
O O2 0.104280 0.890802 0.748381
O O3 0.010205 0.000027 0.465519
O O4 0.346375 0.346383 0.744181
O O5 0.469844 0.381369 0.420736
O O6 0.412678 0.512265 0.715026
O O7 0.499688 0.378551 0.918432
O O8 0.248805 0.196588 0.837597
O O9 0.395793 0.190834 0.569573
O O10 0.393885 0.218457 0.065667
O O11 0.252995 0.913174 0.514127
O O12 0.226116 0.762654 0.765551
O O13 0.615467 0.316858 0.232791
O O14 0.745196 0.384492 0.503786
#
# Coordination Sequence:
#
# PCOD8168821 Si02
#       7
#     4   4   4   4   4   4   4
#     4  12  26  46  68 100 128 166 218 274 328 382
#     4  10  21  40  65  97 133 166 213 263 319 370
#     4  10  21  42  63  95 127 179 203 263 312 386
#     4  10  23  41  65  91 133 166 218 252 325 381
#     4  10  23  43  69  91 129 170 210 262 323 391
#     4  10  21  40  66  96 131 170 209 267 319 370
#     4  10  21  42  60  94 125 171 211 255 318 378
#
# _framework density 23.119945000000001
#
# number of rings (size 3 to 8) (size 9 to 14) (size 15 to 20)
#    0.000    1.714    0.000    3.429    4.000    0.000 
#   36.000    0.000    0.000    0.000    0.000    0.000 
#    0.000    0.000    0.000    0.000    0.000    0.000 
#
# Total GULP energy -346868.526272 kJ/mol
# GULP energy per Si atom -12388.161653 kJ/mol
# Density = 2.306732 g / cm^3
# Si number density = 23.119945 Si / 1000 Ang^3
#
#
#
# Elastic Constant Matrix: (Units=GPa)
#
#
# Indices 1 2 3 4 5 6 
#
# 1 66.2865 13.7582 6.4009 0.0000 0.0000 0.0000
# 2 13.7582 57.5620 -6.3124 0.0000 0.0000 0.0000
# 3 6.4009 -6.3124 206.6565 0.0000 0.0000 0.0000
# 4 0.0000 0.0000 0.0000 22.0907 0.0000 0.0000
# 5 0.0000 0.0000 0.0000 0.0000 25.9908 0.0000
# 6 0.0000 0.0000 0.0000 0.0000 0.0000 44.3278
#
#
#
# Elastic Compliance Matrix: (Units=1/GPa)
#
#
# Indices 1 2 3 4 5 6 
#
# 1 0.015950 -0.003880 -0.000613 0.000000 0.000000 0.000000
# 2 -0.003880 0.018375 0.000681 0.000000 0.000000 0.000000
# 3 -0.000613 0.000681 0.004879 0.000000 0.000000 0.000000
# 4 0.000000 0.000000 0.000000 0.045268 0.000000 0.000000
# 5 0.000000 0.000000 0.000000 0.000000 0.038475 0.000000
# 6 0.000000 0.000000 0.000000 0.000000 0.000000 0.022559
#
#
# Mechanical properties :
#
#
# Convention : Reuss Voigt Hill
#
# Bulk Modulus (GPa) = 31.66324 39.79982 35.73153
# Shear Modulus (GPa) = 30.55210 39.59241 35.07226
#
# Velocity S-wave (km/s) = 3.63913 4.14270 3.89905
# Velocity P-wave (km/s) = 5.60202 6.33518 5.97985
#
# Compressibility (1/GPa) = 0.03158236
#
# Stress axis : x y z
#
# Youngs Moduli (GPa) = 62.69435 54.42301 204.97122
#
# Poissons Ratio (x) = 0.21114 0.12555
# Poissons Ratio (y) = 0.24323 -0.13967
# Poissons Ratio (z) = 0.03840 -0.03709
#
# Static dielectric constant tensor:
#      x y z
#    x 3.773500 0.000000 0.000000 
#    y 0.000000 4.022910 0.000000 
#    z 0.000000 0.000000 6.136250 
# 
# 
# High freq. dielectric constant tensor:
#      x y z
#    x 1.878360 0.000000 0.000000 
#    y 0.000000 1.889810 0.000000 
#    z 0.000000 0.000000 1.963200 
# 
# From -- ./inp_files/252.got.cif
#   From: 2010.03.12/outbox.cif.g09.slc.cpg/sg29_1_cif.got.tgz:252.got - 2010.04.14 03:43:10.
