data_PCOD8168067
_publ_section_title
;
Structure prediction by ZEFSAII (Michael W. Deem and Ramdas Pophale) SiO2 
 PCOD8168067
Probable space group: P M A 2
;
_chemical_formula_sum "Si O2"
_cell_formula_units_Z 16
_cell_length_a 5.295977
_cell_length_b 7.259573
_cell_length_c 18.890287
_cell_angle_alpha 90.000000
_cell_angle_beta 90.000000
_cell_angle_gamma 90.000000
_cell_volume 726.266017
_symmetry_space_group_name_H-M "P M A 2"
_symmetry_group_IT_number 28
_symmetry_cell_setting 'orthorhombic'
loop_
_space_group_symop_operation_xyz
x,y,z
-x,-y,z
1/2-x,y,z
1/2+x,-y,z
loop_
_atom_site_type_symbol
_atom_site_label
_atom_site_fract_x
_atom_site_fract_y
_atom_site_fract_z
Si Si1 0.250000 0.119703 0.336251
Si Si2 0.250000 0.705219 0.540967
Si Si3 0.250000 0.880410 0.841306
Si Si4 0.750000 0.708171 0.480820
Si Si5 0.250000 0.296392 0.045327
Si Si6 0.250000 0.879456 0.683701
Si Si7 0.750000 0.616854 0.208432
Si Si8 0.750000 0.293361 0.984965
O O1 0.250000 0.281131 0.395595
O O2 0.250000 0.207939 0.259017
O O3 0.500000 0.000000 0.345980
O O4 0.499394 0.808401 0.511216
O O5 0.250000 0.499255 0.510398
O O6 0.250000 0.713428 0.626597
O O7 0.250000 0.791927 0.762613
O O8 0.500000 0.000000 0.852481
O O9 0.250000 0.718911 0.899730
O O10 0.250000 0.307916 0.129306
O O11 0.502270 0.192855 0.018119
O O12 0.250000 0.496157 0.008885
O O13 0.500000 0.000000 0.672502
O O14 0.500000 0.500000 0.223623
#
# Coordination Sequence:
#
# PCOD8168067 Si02
#       8
#     2   2   2   2   2   2   2   2
#     4  12  28  46  65  99 134 168 213 271 330 391
#     4  10  21  39  62  94 116 168 214 262 312 385
#     4  10  21  37  55  85 125 169 204 248 320 382
#     4  10  23  40  63  88 130 156 210 262 318 383
#     4  10  19  37  61  87 113 152 208 253 307 352
#     4  10  21  37  60  86 124 167 212 263 319 376
#     4  12  23  43  74  93 127 180 215 262 328 393
#     4  10  18  35  58  86 117 152 204 253 296 372
#
# _framework density 22.030497
#
# number of rings (size 3 to 8) (size 9 to 14) (size 15 to 20)
#    0.000    1.500    2.500    3.000    3.500    3.000 
#    0.000    8.750    0.000    0.000    0.000    0.000 
#    0.000    0.000    0.000    0.000    0.000    0.000 
#
# Total GULP energy -198294.916078 kJ/mol
# GULP energy per Si atom -12393.432255 kJ/mol
# Density = 2.198035 g / cm^3
# Si number density = 22.030497 Si / 1000 Ang^3
#
#
#
# Elastic Constant Matrix: (Units=GPa)
#
#
# Indices 1 2 3 4 5 6 
#
# 1 243.4412 21.3594 58.9678 0.0000 0.0000 0.0000
# 2 21.3594 53.1397 72.5952 0.0000 0.0000 0.0000
# 3 58.9678 72.5952 224.4623 0.0000 0.0000 0.0000
# 4 0.0000 0.0000 0.0000 47.1705 0.0000 0.0000
# 5 0.0000 0.0000 0.0000 0.0000 44.7019 0.0000
# 6 0.0000 0.0000 0.0000 0.0000 0.0000 5.0733
#
#
#
# Elastic Compliance Matrix: (Units=1/GPa)
#
#
# Indices 1 2 3 4 5 6 
#
# 1 0.004390 -0.000339 -0.001044 0.000000 0.000000 0.000000
# 2 -0.000339 0.033740 -0.010823 0.000000 0.000000 0.000000
# 3 -0.001044 -0.010823 0.008230 0.000000 0.000000 0.000000
# 4 0.000000 0.000000 0.000000 0.021200 0.000000 0.000000
# 5 0.000000 0.000000 0.000000 0.000000 0.022370 0.000000
# 6 0.000000 0.000000 0.000000 0.000000 0.000000 0.197112
#
#
# Mechanical properties :
#
#
# Convention : Reuss Voigt Hill
#
# Bulk Modulus (GPa) = 45.56051 91.87643 68.71847
# Shear Modulus (GPa) = 15.68529 43.93053 29.80791
#
# Velocity S-wave (km/s) = 2.67119 4.47035 3.68235
# Velocity P-wave (km/s) = 5.49902 8.27286 7.02422
#
# Compressibility (1/GPa) = 0.02194883
#
# Stress axis : x y z
#
# Youngs Moduli (GPa) = 227.77345 29.63817 121.51042
#
# Poissons Ratio (x) = 0.01004 0.12684
# Poissons Ratio (y) = 0.07714 1.31514
# Poissons Ratio (z) = 0.23776 0.32078
#
# Static dielectric constant tensor:
#      x y z
#    x 8.498030 0.000000 0.000000 
#    y 0.000000 3.318790 0.000000 
#    z 0.000000 0.000000 4.177380 
# 
# 
# High freq. dielectric constant tensor:
#      x y z
#    x 1.913870 0.000000 0.000000 
#    y 0.000000 1.818590 0.000000 
#    z 0.000000 0.000000 1.880830 
# 
# From -- ./inp_files/5927.got.cif
#   From: 2010.03.12/outbox.cif.g09.slc.cpg/sg28_3_cif.got.tgz:5927.got - 2010.04.14 03:39:34.
