data_PCOD8168788
_publ_section_title
;
Structure prediction by ZEFSAII (Michael W. Deem and Ramdas Pophale) SiO2 
 PCOD8168788
Probable space group: P C A 21
;
_chemical_formula_sum "Si O2"
_cell_formula_units_Z 32
_cell_length_a 17.198823
_cell_length_b 16.619090
_cell_length_c 5.208984
_cell_angle_alpha 90.000000
_cell_angle_beta 90.000000
_cell_angle_gamma 90.000000
_cell_volume 1488.877580
_symmetry_space_group_name_H-M "P C A 21"
_symmetry_group_IT_number 29
_symmetry_cell_setting 'orthorhombic'
loop_
_space_group_symop_operation_xyz
x,y,z
-x,-y,1/2+z
1/2-x,y,1/2+z
1/2+x,-y,z
loop_
_atom_site_type_symbol
_atom_site_label
_atom_site_fract_x
_atom_site_fract_y
_atom_site_fract_z
Si Si1 0.961536 0.700970 0.994900
Si Si2 0.297512 0.879638 0.696711
Si Si3 0.961796 0.857873 0.737825
Si Si4 0.034289 0.536355 0.106163
Si Si5 0.032065 0.842802 0.235437
Si Si6 0.713824 0.665868 0.394560
Si Si7 0.712077 0.481970 0.272797
Si Si8 0.297295 0.066709 0.690934
O O1 0.971668 0.759919 0.748064
O O2 0.873195 0.671236 0.001139
O O3 0.017902 0.624472 0.990714
O O4 0.986561 0.756750 0.237398
O O5 0.259996 0.855893 0.426165
O O6 0.375814 0.828463 0.729029
O O7 0.320129 0.973298 0.709370
O O8 0.871979 0.879509 0.740198
O O9 0.006279 0.891141 0.488794
O O10 0.004438 0.895544 0.988712
O O11 0.122275 0.527150 0.199527
O O12 0.981285 0.522263 0.361397
O O13 0.768345 0.707024 0.616846
O O14 0.735993 0.574110 0.326802
O O15 0.764798 0.441295 0.046509
O O16 0.264253 0.088536 0.411844
#
# Coordination Sequence:
#
# PCOD8168788 Si02
#       8
#     4   4   4   4   4   4   4   4
#     4  10  26  41  61  93 125 161 213 251 320 377
#     4  10  21  40  66  94 122 165 214 260 309 368
#     4  10  23  39  59  88 128 165 200 258 308 376
#     4  12  25  40  68  91 120 165 210 266 319 378
#     4  10  23  40  61  88 129 161 206 263 306 383
#     4  10  22  36  59  85 117 156 196 245 301 371
#     4  10  21  40  59  87 118 149 198 257 308 367
#     4  10  21  38  63  94 131 166 211 254 301 370
#
# _framework density 21.492699000000002
#
# number of rings (size 3 to 8) (size 9 to 14) (size 15 to 20)
#    0.750    1.000    1.250    2.250    7.000    2.000 
#    0.000    1.250    0.000    0.000    0.000    0.000 
#    0.000    0.000    0.000    0.000    0.000    0.000 
#
# Total GULP energy -396462.976861 kJ/mol
# GULP energy per Si atom -12389.468027 kJ/mol
# Density = 2.144378 g / cm^3
# Si number density = 21.492699 Si / 1000 Ang^3
#
#
#
# Elastic Constant Matrix: (Units=GPa)
#
#
# Indices 1 2 3 4 5 6 
#
# 1 122.7597 19.4275 56.2203 0.0000 0.0000 0.0000
# 2 19.4275 26.7171 26.3766 0.0000 0.0000 0.0000
# 3 56.2203 26.3766 163.1363 0.0000 0.0000 0.0000
# 4 0.0000 0.0000 0.0000 8.2673 0.0000 0.0000
# 5 0.0000 0.0000 0.0000 0.0000 34.4075 0.0000
# 6 0.0000 0.0000 0.0000 0.0000 0.0000 29.7272
#
#
#
# Elastic Compliance Matrix: (Units=1/GPa)
#
#
# Indices 1 2 3 4 5 6 
#
# 1 0.010139 -0.004668 -0.002739 0.000000 0.000000 0.000000
# 2 -0.004668 0.046688 -0.005940 0.000000 0.000000 0.000000
# 3 -0.002739 -0.005940 0.008034 0.000000 0.000000 0.000000
# 4 0.000000 0.000000 0.000000 0.120958 0.000000 0.000000
# 5 0.000000 0.000000 0.000000 0.000000 0.029063 0.000000
# 6 0.000000 0.000000 0.000000 0.000000 0.000000 0.033639
#
#
# Mechanical properties :
#
#
# Convention : Reuss Voigt Hill
#
# Bulk Modulus (GPa) = 26.20113 57.40689 41.80401
# Shear Modulus (GPa) = 17.36472 28.51964 22.94218
#
# Velocity S-wave (km/s) = 2.84550 3.64668 3.27072
# Velocity P-wave (km/s) = 4.79719 6.67075 5.80999
#
# Compressibility (1/GPa) = 0.03816629
#
# Stress axis : x y z
#
# Youngs Moduli (GPa) = 98.62528 21.41873 124.46620
#
# Poissons Ratio (x) = 0.09999 0.34097
# Poissons Ratio (y) = 0.46042 0.73932
# Poissons Ratio (z) = 0.27018 0.12723
#
# Static dielectric constant tensor:
#      x y z
#    x 3.659060 0.000000 0.000000 
#    y 0.000000 3.480190 0.000000 
#    z 0.000000 0.000000 4.408840 
# 
# 
# High freq. dielectric constant tensor:
#      x y z
#    x 1.844130 0.000000 0.000000 
#    y 0.000000 1.800530 0.000000 
#    z 0.000000 0.000000 1.867030 
# 
# From -- ./inp_files/281.got.cif
#   From: 2010.03.12/outbox.cif.g09.slc.cpg/sg29_1_cif.got.tgz:281.got - 2010.04.14 03:43:10.
