data_PCOD8168305
_publ_section_title
;
Structure prediction by ZEFSAII (Michael W. Deem and Ramdas Pophale) SiO2 
 PCOD8168305
Probable space group: P M A 2
;
_chemical_formula_sum "Si O2"
_cell_formula_units_Z 32
_cell_length_a 9.139451
_cell_length_b 14.521735
_cell_length_c 12.157643
_cell_angle_alpha 90.000000
_cell_angle_beta 90.000000
_cell_angle_gamma 90.000000
_cell_volume 1613.570713
_symmetry_space_group_name_H-M "P M A 2"
_symmetry_group_IT_number 28
_symmetry_cell_setting 'orthorhombic'
loop_
_space_group_symop_operation_xyz
x,y,z
-x,-y,z
1/2-x,y,z
1/2+x,-y,z
loop_
_atom_site_type_symbol
_atom_site_label
_atom_site_fract_x
_atom_site_fract_y
_atom_site_fract_z
Si Si1 0.080256 0.587714 0.715190
Si Si2 0.919948 0.214190 0.643448
Si Si3 0.578331 0.098270 0.432069
Si Si4 0.922457 0.590790 0.179959
Si Si5 0.577969 0.221756 0.225222
Si Si6 0.087718 0.168625 0.019678
Si Si7 0.417769 0.088118 0.798757
Si Si8 0.913409 0.632709 0.932022
O O1 0.250000 0.566064 0.720548
O O2 0.047871 0.676345 0.638388
O O3 0.000000 0.500000 0.660508
O O4 0.027059 0.599473 0.840882
O O5 0.750000 0.196063 0.667028
O O6 0.971264 0.163154 0.532852
O O7 0.011800 0.178258 0.746111
O O8 0.750000 0.078910 0.434629
O O9 0.532919 0.154402 0.323748
O O10 0.500000 0.000000 0.436443
O O11 0.750000 0.589876 0.205673
O O12 0.000000 0.500000 0.230717
O O13 0.991492 0.682034 0.235178
O O14 0.954712 0.589825 0.049951
O O15 0.750000 0.243015 0.223913
O O16 0.533791 0.167207 0.114297
O O17 0.250000 0.162705 0.074156
O O18 0.063020 0.087407 0.931510
O O19 0.077825 0.258177 0.943675
O O20 0.250000 0.082375 0.763228
O O21 0.500000 0.000000 0.749114
O O22 0.750000 0.602625 0.896134
#
# Coordination Sequence:
#
# PCOD8168305 Si02
#       8
#     4   4   4   4   4   4   4   4
#     4  11  22  34  54  82 114 152 191 233 281 338
#     4  10  22  41  61  84 115 150 192 242 290 342
#     4  10  23  43  65  88 113 145 192 245 296 347
#     4  10  20  34  54  83 119 158 197 238 285 340
#     4  10  21  37  59  85 115 151 192 242 293 344
#     4   9  19  35  54  79 116 155 188 234 285 340
#     4  11  22  36  56  84 117 152 189 233 289 350
#     4   9  17  32  52  77 112 152 193 232 275 329
#
# _framework density 19.831792
#
# number of rings (size 3 to 8) (size 9 to 14) (size 15 to 20)
#    0.000    2.000    1.250    3.000    0.000    8.000 
#    0.000    3.125    0.000    1.500    0.000    0.000 
#    0.000    0.000    0.000    0.000    0.000    0.000 
#
# Total GULP energy -396756.257508 kJ/mol
# GULP energy per Si atom -12398.633047 kJ/mol
# Density = 1.978665 g / cm^3
# Si number density = 19.831792 Si / 1000 Ang^3
#
#
#
# Elastic Constant Matrix: (Units=GPa)
#
#
# Indices 1 2 3 4 5 6 
#
# 1 107.9039 74.6019 47.5507 0.0000 0.0000 0.0000
# 2 74.6019 137.9042 55.7083 0.0000 0.0000 0.0000
# 3 47.5507 55.7083 85.5434 0.0000 0.0000 0.0000
# 4 0.0000 0.0000 0.0000 22.9841 0.0000 0.0000
# 5 0.0000 0.0000 0.0000 0.0000 20.8348 0.0000
# 6 0.0000 0.0000 0.0000 0.0000 0.0000 33.3670
#
#
#
# Elastic Compliance Matrix: (Units=1/GPa)
#
#
# Indices 1 2 3 4 5 6 
#
# 1 0.015940 -0.006844 -0.004403 0.000000 0.000000 0.000000
# 2 -0.006844 0.012779 -0.004517 0.000000 0.000000 0.000000
# 3 -0.004403 -0.004517 0.017079 0.000000 0.000000 0.000000
# 4 0.000000 0.000000 0.000000 0.043508 0.000000 0.000000
# 5 0.000000 0.000000 0.000000 0.000000 0.047997 0.000000
# 6 0.000000 0.000000 0.000000 0.000000 0.000000 0.029970
#
#
# Mechanical properties :
#
#
# Convention : Reuss Voigt Hill
#
# Bulk Modulus (GPa) = 70.08559 76.34147 73.21353
# Shear Modulus (GPa) = 24.56295 25.66990 25.11643
#
# Velocity S-wave (km/s) = 3.52314 3.60165 3.56261
# Velocity P-wave (km/s) = 7.20880 7.47489 7.34305
#
# Compressibility (1/GPa) = 0.01426827
#
# Stress axis : x y z
#
# Youngs Moduli (GPa) = 62.73606 78.25470 58.54974
#
# Poissons Ratio (x) = 0.53559 0.25781
# Poissons Ratio (y) = 0.42938 0.26450
# Poissons Ratio (z) = 0.27624 0.35351
#
# Static dielectric constant tensor:
#      x y z
#    x 3.578660 0.000000 0.000000 
#    y 0.000000 3.806050 0.000000 
#    z 0.000000 0.000000 3.365710 
# 
# 
# High freq. dielectric constant tensor:
#      x y z
#    x 1.776850 0.000000 0.000000 
#    y 0.000000 1.784680 0.000000 
#    z 0.000000 0.000000 1.746110 
# 
# From -- ./inp_files/5115.got.cif
#   From: 2010.03.12/outbox.cif.g09.slc.cpg/sg28_3_cif.got.tgz:5115.got - 2010.04.14 03:39:34.
