data_PCOD8168937
_publ_section_title
;
Structure prediction by ZEFSAII (Michael W. Deem and Ramdas Pophale) SiO2 
 PCOD8168937
Probable space group: P C A 21
;
_chemical_formula_sum "Si O2"
_cell_formula_units_Z 32
_cell_length_a 5.550107
_cell_length_b 26.759416
_cell_length_c 8.768506
_cell_angle_alpha 90.000000
_cell_angle_beta 90.000000
_cell_angle_gamma 90.000000
_cell_volume 1302.277660
_symmetry_space_group_name_H-M "P C A 21"
_symmetry_group_IT_number 29
_symmetry_cell_setting 'orthorhombic'
loop_
_space_group_symop_operation_xyz
x,y,z
-x,-y,1/2+z
1/2-x,y,1/2+z
1/2+x,-y,z
loop_
_atom_site_type_symbol
_atom_site_label
_atom_site_fract_x
_atom_site_fract_y
_atom_site_fract_z
Si Si1 0.421891 0.664432 0.565960
Si Si2 0.066161 0.530406 0.549641
Si Si3 0.195528 0.596373 0.817529
Si Si4 0.786611 0.750000 0.209858
Si Si5 0.411364 0.750000 0.999659
Si Si6 0.804472 0.096373 0.317529
Si Si7 0.933840 0.030406 0.049640
Si Si8 0.421891 0.835568 0.565960
O O1 0.311014 0.637832 0.711240
O O2 0.491477 0.622722 0.437894
O O3 0.635571 0.699239 0.623603
O O4 0.234941 0.699691 0.475562
O O5 0.316899 0.499238 0.533889
O O6 0.052574 0.555946 0.716501
O O7 0.086573 0.570980 0.414148
O O8 0.860265 0.750000 0.384943
O O9 0.864428 0.800761 0.123603
O O10 0.500479 0.750000 0.178463
O O11 0.265058 0.800309 0.975562
O O12 0.947427 0.055946 0.216500
O O13 0.586572 0.070979 0.414147
O O14 0.688987 0.137832 0.211240
O O15 0.991477 0.122722 0.437895
O O16 0.683102 0.999238 0.033889
#
# Coordination Sequence:
#
# PCOD8168937 Si02
#       8
#     4   4   4   4   4   4   4   4
#     4  10  22  45  60  94 138 172 226 275 336 402
#     4  11  24  47  70  99 136 179 226 285 358 409
#     4  10  22  43  66  96 128 176 226 287 336 420
#     4  11  24  40  65  93 137 181 223 277 344 406
#     4  11  24  40  65  93 137 181 223 277 344 406
#     4  10  22  43  66  96 128 176 226 287 336 420
#     4  11  24  47  70  99 136 179 226 285 358 409
#     4  10  22  45  60  94 138 172 226 275 336 402
#
# _framework density 24.572330999999998
#
# number of rings (size 3 to 8) (size 9 to 14) (size 15 to 20)
#    0.000    1.500    2.500    1.500    3.500    0.000 
#   27.000    0.000    0.000    0.000    0.000    0.000 
#    0.000    0.000    0.000    0.000    0.000    0.000 
#
# Total GULP energy -396430.867071 kJ/mol
# GULP energy per Si atom -12388.464596 kJ/mol
# Density = 2.451640 g / cm^3
# Si number density = 24.572331 Si / 1000 Ang^3
#
#
#
# Elastic Constant Matrix: (Units=GPa)
#
#
# Indices 1 2 3 4 5 6 
#
# 1 55.6106 18.4812 -0.6378 0.0000 0.0000 0.0000
# 2 18.4812 118.4415 40.1967 0.0000 0.0000 0.0000
# 3 -0.6378 40.1967 120.6138 0.0000 0.0000 0.0000
# 4 0.0000 0.0000 0.0000 30.8186 0.0000 0.0000
# 5 0.0000 0.0000 0.0000 0.0000 23.5320 0.0000
# 6 0.0000 0.0000 0.0000 0.0000 0.0000 18.0255
#
#
#
# Elastic Compliance Matrix: (Units=1/GPa)
#
#
# Indices 1 2 3 4 5 6 
#
# 1 0.019128 -0.003404 0.001236 0.000000 0.000000 0.000000
# 2 -0.003404 0.010125 -0.003392 0.000000 0.000000 0.000000
# 3 0.001236 -0.003392 0.009428 0.000000 0.000000 0.000000
# 4 0.000000 0.000000 0.000000 0.032448 0.000000 0.000000
# 5 0.000000 0.000000 0.000000 0.000000 0.042495 0.000000
# 6 0.000000 0.000000 0.000000 0.000000 0.000000 0.055477
#
#
# Mechanical properties :
#
#
# Convention : Reuss Voigt Hill
#
# Bulk Modulus (GPa) = 36.28524 45.63846 40.96185
# Shear Modulus (GPa) = 26.39783 30.25028 28.32405
#
# Velocity S-wave (km/s) = 3.28119 3.51247 3.39880
# Velocity P-wave (km/s) = 5.39942 5.92143 5.66644
#
# Compressibility (1/GPa) = 0.02755941
#
# Stress axis : x y z
#
# Youngs Moduli (GPa) = 52.28048 98.76088 106.06633
#
# Poissons Ratio (x) = 0.33618 -0.13105
# Poissons Ratio (y) = 0.17796 0.35983
# Poissons Ratio (z) = -0.06460 0.33505
#
# Static dielectric constant tensor:
#      x y z
#    x 3.886240 0.000000 0.000000 
#    y 0.000000 4.814290 0.000000 
#    z 0.000000 0.000000 4.702370 
# 
# 
# High freq. dielectric constant tensor:
#      x y z
#    x 1.930100 0.000000 0.000000 
#    y 0.000000 2.001600 0.000000 
#    z 0.000000 0.000000 2.007040 
# 
# From -- ./inp_files/1012.got.cif
#   From: 2010.03.12/outbox.cif.g09.slc.cpg/sg29_1_cif.got.tgz:1012.got - 2010.04.14 03:43:10.
