data_PCOD8168692
_publ_section_title
;
Structure prediction by ZEFSAII (Michael W. Deem and Ramdas Pophale) SiO2 
 PCOD8168692
Probable space group: P C A 21
;
_chemical_formula_sum "Si O2"
_cell_formula_units_Z 32
_cell_length_a 9.542618
_cell_length_b 18.022451
_cell_length_c 8.736296
_cell_angle_alpha 90.000000
_cell_angle_beta 90.000000
_cell_angle_gamma 90.000000
_cell_volume 1502.480114
_symmetry_space_group_name_H-M "P C A 21"
_symmetry_group_IT_number 29
_symmetry_cell_setting 'orthorhombic'
loop_
_space_group_symop_operation_xyz
x,y,z
-x,-y,1/2+z
1/2-x,y,1/2+z
1/2+x,-y,z
loop_
_atom_site_type_symbol
_atom_site_label
_atom_site_fract_x
_atom_site_fract_y
_atom_site_fract_z
Si Si1 0.577098 0.651018 0.656200
Si Si2 0.563230 0.997039 0.573965
Si Si3 0.138286 0.376867 0.003767
Si Si4 0.806646 0.007215 0.772891
Si Si5 0.184566 0.860411 0.467270
Si Si6 0.633579 0.368616 0.683114
Si Si7 0.344342 0.762420 0.697595
Si Si8 0.363883 0.552348 0.500297
O O1 0.716746 0.659588 0.557499
O O2 0.612406 0.648789 0.833173
O O3 0.478304 0.721904 0.624181
O O4 0.491678 0.577280 0.609040
O O5 0.672687 0.964972 0.701718
O O6 0.606836 0.962864 0.406256
O O7 0.573899 0.087903 0.561481
O O8 0.408270 0.974827 0.627236
O O9 0.147478 0.464949 0.011654
O O10 0.016094 0.346267 0.113335
O O11 0.744172 0.083312 0.844250
O O12 0.300046 0.825925 0.578779
O O13 0.113247 0.796046 0.363766
O O14 0.716064 0.294126 0.728480
O O15 0.608188 0.420661 0.828825
O O16 0.716542 0.414398 0.554755
#
# Coordination Sequence:
#
# PCOD8168692 Si02
#       8
#     4   4   4   4   4   4   4   4
#     4  11  25  37  60  86 122 165 206 267 311 375
#     4  10  20  36  63  97 129 158 197 243 304 347
#     4  12  22  39  58  86 124 161 206 271 339 364
#     4  10  20  36  63  97 129 159 198 244 305 348
#     4  10  20  36  67  86 120 162 205 241 288 359
#     4  11  23  37  62  88 122 159 210 268 308 372
#     4  11  21  41  61  88 118 164 221 242 292 379
#     4  11  21  38  58  90 116 162 213 264 325 388
#
# _framework density 21.298119
#
# number of rings (size 3 to 8) (size 9 to 14) (size 15 to 20)
#    0.750    0.500    1.250    7.500    0.000    0.000 
#    0.000    0.000    5.500    1.500    0.000    0.000 
#    0.000    0.000    0.000    0.000    0.000    0.000 
#
# Total GULP energy -396597.082813 kJ/mol
# GULP energy per Si atom -12393.658838 kJ/mol
# Density = 2.124964 g / cm^3
# Si number density = 21.298119 Si / 1000 Ang^3
#
#
#
# Elastic Constant Matrix: (Units=GPa)
#
#
# Indices 1 2 3 4 5 6 
#
# 1 109.3985 18.6140 29.9569 0.0000 0.0000 0.0000
# 2 18.6140 54.6733 25.8915 0.0000 0.0000 0.0000
# 3 29.9569 25.8915 110.1828 0.0000 0.0000 0.0000
# 4 0.0000 0.0000 0.0000 36.9166 0.0000 0.0000
# 5 0.0000 0.0000 0.0000 0.0000 41.9419 0.0000
# 6 0.0000 0.0000 0.0000 0.0000 0.0000 16.5843
#
#
#
# Elastic Compliance Matrix: (Units=1/GPa)
#
#
# Indices 1 2 3 4 5 6 
#
# 1 0.010153 -0.002418 -0.002192 0.000000 0.000000 0.000000
# 2 -0.002418 0.021157 -0.004314 0.000000 0.000000 0.000000
# 3 -0.002192 -0.004314 0.010686 0.000000 0.000000 0.000000
# 4 0.000000 0.000000 0.000000 0.027088 0.000000 0.000000
# 5 0.000000 0.000000 0.000000 0.000000 0.023843 0.000000
# 6 0.000000 0.000000 0.000000 0.000000 0.000000 0.060298
#
#
# Mechanical properties :
#
#
# Convention : Reuss Voigt Hill
#
# Bulk Modulus (GPa) = 41.41481 47.01993 44.21737
# Shear Modulus (GPa) = 27.91401 32.40802 30.16102
#
# Velocity S-wave (km/s) = 3.62419 3.90505 3.76724
# Velocity P-wave (km/s) = 6.08281 6.51594 6.30310
#
# Compressibility (1/GPa) = 0.02414595
#
# Stress axis : x y z
#
# Youngs Moduli (GPa) = 98.49647 47.26605 93.58442
#
# Poissons Ratio (x) = 0.11431 0.20514
# Poissons Ratio (y) = 0.23821 0.40373
# Poissons Ratio (z) = 0.21591 0.20391
#
# Static dielectric constant tensor:
#      x y z
#    x 1.054390 0.000000 0.000000 
#    y 0.000000 3.635220 0.000000 
#    z 0.000000 0.000000 4.117110 
# 
# 
# High freq. dielectric constant tensor:
#      x y z
#    x 1.824390 0.000000 0.000000 
#    y 0.000000 1.803340 0.000000 
#    z 0.000000 0.000000 1.860130 
# 
# From -- ./inp_files/1260.got.cif
#   From: 2010.03.12/outbox.cif.g09.slc.cpg/sg29_1_cif.got.tgz:1260.got - 2010.04.14 03:43:10.
