data_PCOD8168642
_publ_section_title
;
Structure prediction by ZEFSAII (Michael W. Deem and Ramdas Pophale) SiO2 
 PCOD8168642
Probable space group: P C A 21
;
_chemical_formula_sum "Si O2"
_cell_formula_units_Z 28
_cell_length_a 15.110656
_cell_length_b 9.778455
_cell_length_c 9.311078
_cell_angle_alpha 90.000000
_cell_angle_beta 90.000000
_cell_angle_gamma 90.000000
_cell_volume 1375.794361
_symmetry_space_group_name_H-M "P C A 21"
_symmetry_group_IT_number 29
_symmetry_cell_setting 'orthorhombic'
loop_
_space_group_symop_operation_xyz
x,y,z
-x,-y,1/2+z
1/2-x,y,1/2+z
1/2+x,-y,z
loop_
_atom_site_type_symbol
_atom_site_label
_atom_site_fract_x
_atom_site_fract_y
_atom_site_fract_z
Si Si1 0.034543 0.893063 0.336650
Si Si2 0.625967 0.215003 0.071739
Si Si3 0.183006 0.492754 0.161540
Si Si4 0.477804 0.339236 0.543483
Si Si5 0.311533 0.843383 0.028399
Si Si6 0.438746 0.831840 0.280256
Si Si7 0.843825 0.464116 0.980593
O O1 0.055857 0.861632 0.171545
O O2 0.124936 0.931876 0.423777
O O3 0.984115 0.763296 0.407865
O O4 0.970890 0.021985 0.336989
O O5 0.661093 0.347636 0.152369
O O6 0.708956 0.111691 0.036764
O O7 0.580495 0.256979 0.922147
O O8 0.117586 0.408047 0.057495
O O9 0.171034 0.454961 0.329908
O O10 0.282921 0.464559 0.104038
O O11 0.489764 0.249612 0.687346
O O12 0.552961 0.458814 0.529691
O O13 0.349058 0.848784 0.189688
O O14 0.312213 0.691347 0.961230
#
# Coordination Sequence:
#
# PCOD8168642 Si02
#       7
#     4   4   4   4   4   4   4
#     4  10  19  39  56  83 117 152 201 244 289 360
#     4  11  19  32  61  85 110 150 198 250 295 345
#     4  11  22  37  63  86 122 154 197 255 302 363
#     4  10  23  39  60  90 123 157 201 250 304 365
#     4   9  19  34  55  88 111 143 198 253 287 343
#     4  10  21  34  60  81 116 155 198 243 297 350
#     4   9  21  37  57  91 115 155 195 243 298 362
#
# _framework density 20.351877999999999
#
# number of rings (size 3 to 8) (size 9 to 14) (size 15 to 20)
#    0.000    2.286    2.857    2.571   12.000    0.000 
#    0.000    0.000   12.571    0.000    0.000    0.000 
#    0.000    0.000    0.000    0.000    0.000    0.000 
#
# Total GULP energy -347031.526932 kJ/mol
# GULP energy per Si atom -12393.983105 kJ/mol
# Density = 2.030556 g / cm^3
# Si number density = 20.351878 Si / 1000 Ang^3
#
#
#
# Elastic Constant Matrix: (Units=GPa)
#
#
# Indices 1 2 3 4 5 6 
#
# 1 77.3061 31.2908 21.6342 0.0000 0.0000 0.0000
# 2 31.2908 31.8039 14.1866 0.0000 0.0000 0.0000
# 3 21.6342 14.1866 127.7056 0.0000 0.0000 0.0000
# 4 0.0000 0.0000 0.0000 23.8418 0.0000 0.0000
# 5 0.0000 0.0000 0.0000 0.0000 26.0541 0.0000
# 6 0.0000 0.0000 0.0000 0.0000 0.0000 19.8782
#
#
#
# Elastic Compliance Matrix: (Units=1/GPa)
#
#
# Indices 1 2 3 4 5 6 
#
# 1 0.021723 -0.020759 -0.001374 0.000000 0.000000 0.000000
# 2 -0.020759 0.052921 -0.002362 0.000000 0.000000 0.000000
# 3 -0.001374 -0.002362 0.008326 0.000000 0.000000 0.000000
# 4 0.000000 0.000000 0.000000 0.041943 0.000000 0.000000
# 5 0.000000 0.000000 0.000000 0.000000 0.038382 0.000000
# 6 0.000000 0.000000 0.000000 0.000000 0.000000 0.050306
#
#
# Mechanical properties :
#
#
# Convention : Reuss Voigt Hill
#
# Bulk Modulus (GPa) = 29.43043 41.22655 35.32849
# Shear Modulus (GPa) = 18.25366 25.26841 21.76104
#
# Velocity S-wave (km/s) = 2.99808 3.52742 3.27347
# Velocity P-wave (km/s) = 5.14557 6.07381 5.62885
#
# Compressibility (1/GPa) = 0.03397843
#
# Stress axis : x y z
#
# Youngs Moduli (GPa) = 46.03461 18.89613 120.11064
#
# Poissons Ratio (x) = 0.39227 0.16501
# Poissons Ratio (y) = 0.95566 0.28371
# Poissons Ratio (z) = 0.06324 0.04463
#
# Static dielectric constant tensor:
#      x y z
#    x 3.879930 0.000000 0.000000 
#    y 0.000000 3.186590 0.000000 
#    z 0.000000 0.000000 3.859860 
# 
# 
# High freq. dielectric constant tensor:
#      x y z
#    x 1.791460 0.000000 0.000000 
#    y 0.000000 1.736960 0.000000 
#    z 0.000000 0.000000 1.813590 
# 
# From -- ./inp_files/1786.got.cif
#   From: 2010.03.12/outbox.cif.g09.slc.cpg/sg29_1_cif.got.tgz:1786.got - 2010.04.14 03:43:10.
