data_PCOD8168345
_publ_section_title
;
Structure prediction by ZEFSAII (Michael W. Deem and Ramdas Pophale) SiO2 
 PCOD8168345
Probable space group: P M A 2
;
_chemical_formula_sum "Si O2"
_cell_formula_units_Z 32
_cell_length_a 14.866107
_cell_length_b 8.964367
_cell_length_c 10.778272
_cell_angle_alpha 90.000000
_cell_angle_beta 90.000000
_cell_angle_gamma 90.000000
_cell_volume 1436.368994
_symmetry_space_group_name_H-M "P M A 2"
_symmetry_group_IT_number 28
_symmetry_cell_setting 'orthorhombic'
loop_
_space_group_symop_operation_xyz
x,y,z
-x,-y,z
1/2-x,y,z
1/2+x,-y,z
loop_
_atom_site_type_symbol
_atom_site_label
_atom_site_fract_x
_atom_site_fract_y
_atom_site_fract_z
Si Si1 0.852210 0.138822 0.534060
Si Si2 0.522336 0.155741 0.762152
Si Si3 0.405791 0.575013 0.915889
Si Si4 0.352297 0.076517 0.073442
Si Si5 0.852547 0.248446 0.138918
Si Si6 0.649714 0.731285 0.840697
Si Si7 0.914278 0.908634 0.335792
Si Si8 0.461289 0.662417 0.378268
O O1 0.750000 0.151768 0.582950
O O2 0.921922 0.100128 0.642810
O O3 0.883777 0.298665 0.478303
O O4 0.855542 0.010964 0.427940
O O5 0.583302 0.277138 0.832178
O O6 0.423740 0.229270 0.734274
O O7 0.500000 0.000000 0.835521
O O8 0.500000 0.500000 0.951565
O O9 0.345485 0.447927 0.851772
O O10 0.352332 0.622051 0.037838
O O11 0.250000 0.063247 0.034188
O O12 0.360646 0.143499 0.212607
O O13 0.390765 0.906249 0.078761
O O14 0.390587 0.189486 0.967619
O O15 0.750000 0.226790 0.189653
O O16 0.920358 0.303217 0.244073
O O17 0.750000 0.787445 0.804339
O O18 0.950878 0.763599 0.406405
O O19 0.000000 0.000000 0.287252
O O20 0.500000 0.500000 0.394487
#
# Coordination Sequence:
#
# PCOD8168345 Si02
#       8
#     4   4   4   4   4   4   4   4
#     4  11  24  47  71  96 129 175 237 296 340 403
#     4  11  24  43  70  96 130 176 232 282 344 396
#     4  10  23  39  60  92 135 179 220 274 337 404
#     4  10  20  35  60  92 128 174 220 273 334 396
#     4  11  21  36  59  89 131 176 224 277 338 404
#     4  10  23  41  63  98 141 180 226 278 339 416
#     4  10  20  37  64  90 126 170 222 279 339 398
#     4  11  24  39  62  96 135 175 224 278 353 414
#
# _framework density 22.278399
#
# number of rings (size 3 to 8) (size 9 to 14) (size 15 to 20)
#    0.000    1.500    2.500    3.375    5.250    3.500 
#    0.000    1.875    0.000    0.750    0.000    0.000 
#    0.000    0.000    0.000    0.000    0.000    0.000 
#
# Total GULP energy -396436.322990 kJ/mol
# GULP energy per Si atom -12388.635093 kJ/mol
# Density = 2.222769 g / cm^3
# Si number density = 22.278399 Si / 1000 Ang^3
#
#
#
# Elastic Constant Matrix: (Units=GPa)
#
#
# Indices 1 2 3 4 5 6 
#
# 1 108.3399 37.8271 35.5275 0.0000 0.0000 0.0000
# 2 37.8271 140.7712 26.0768 0.0000 0.0000 0.0000
# 3 35.5275 26.0768 61.9157 0.0000 0.0000 0.0000
# 4 0.0000 0.0000 0.0000 19.7459 0.0000 0.0000
# 5 0.0000 0.0000 0.0000 0.0000 31.2501 0.0000
# 6 0.0000 0.0000 0.0000 0.0000 0.0000 26.5130
#
#
#
# Elastic Compliance Matrix: (Units=1/GPa)
#
#
# Indices 1 2 3 4 5 6 
#
# 1 0.011915 -0.002099 -0.005953 0.000000 0.000000 0.000000
# 2 -0.002099 0.008075 -0.002196 0.000000 0.000000 0.000000
# 3 -0.005953 -0.002196 0.020492 0.000000 0.000000 0.000000
# 4 0.000000 0.000000 0.000000 0.050644 0.000000 0.000000
# 5 0.000000 0.000000 0.000000 0.000000 0.032000 0.000000
# 6 0.000000 0.000000 0.000000 0.000000 0.000000 0.037717
#
#
# Mechanical properties :
#
#
# Convention : Reuss Voigt Hill
#
# Bulk Modulus (GPa) = 50.03741 56.65437 53.34589
# Shear Modulus (GPa) = 26.59564 29.60815 28.10190
#
# Velocity S-wave (km/s) = 3.45887 3.64951 3.55547
# Velocity P-wave (km/s) = 6.20165 6.57601 6.39158
#
# Compressibility (1/GPa) = 0.01998505
#
# Stress axis : x y z
#
# Youngs Moduli (GPa) = 83.92620 123.84488 48.79991
#
# Poissons Ratio (x) = 0.25996 0.29050
# Poissons Ratio (y) = 0.17616 0.10718
# Poissons Ratio (z) = 0.49961 0.27200
#
# Static dielectric constant tensor:
#      x y z
#    x 4.054570 0.000000 0.000000 
#    y 0.000000 4.402460 0.000000 
#    z 0.000000 0.000000 3.791350 
# 
# 
# High freq. dielectric constant tensor:
#      x y z
#    x 1.879930 0.000000 0.000000 
#    y 0.000000 1.879150 0.000000 
#    z 0.000000 0.000000 1.850250 
# 
# From -- ./inp_files/5583.got.cif
#   From: 2010.03.12/outbox.cif.g09.slc.cpg/sg28_3_cif.got.tgz:5583.got - 2010.04.14 03:39:34.
