data_PCOD8168491
_publ_section_title
;
Structure prediction by ZEFSAII (Michael W. Deem and Ramdas Pophale) SiO2 
 PCOD8168491
Probable space group: P M A 2
;
_chemical_formula_sum "Si O2"
_cell_formula_units_Z 32
_cell_length_a 9.116806
_cell_length_b 14.434378
_cell_length_c 12.294802
_cell_angle_alpha 90.000000
_cell_angle_beta 90.000000
_cell_angle_gamma 90.000000
_cell_volume 1617.939682
_symmetry_space_group_name_H-M "P M A 2"
_symmetry_group_IT_number 28
_symmetry_cell_setting 'orthorhombic'
loop_
_space_group_symop_operation_xyz
x,y,z
-x,-y,z
1/2-x,y,z
1/2+x,-y,z
loop_
_atom_site_type_symbol
_atom_site_label
_atom_site_fract_x
_atom_site_fract_y
_atom_site_fract_z
Si Si1 0.421800 0.208068 0.836520
Si Si2 0.919324 0.230572 0.448111
Si Si3 0.574261 0.592625 0.377000
Si Si4 0.082092 0.914175 0.268186
Si Si5 0.423398 0.900738 0.647173
Si Si6 0.413771 0.364049 0.140168
Si Si7 0.924145 0.589919 0.906191
Si Si8 0.587272 0.844417 0.077603
O O1 0.250000 0.195862 0.809244
O O2 0.521686 0.155004 0.751585
O O3 0.463685 0.317411 0.838645
O O4 0.460323 0.162916 0.952568
O O5 0.750000 0.260141 0.460433
O O6 0.948108 0.179333 0.334185
O O7 0.966388 0.160918 0.543480
O O8 0.020016 0.321855 0.451101
O O9 0.500000 0.500000 0.425010
O O10 0.750000 0.587892 0.383105
O O11 0.511135 0.604400 0.253231
O O12 0.250000 0.940784 0.267091
O O13 0.026693 0.906640 0.143843
O O14 0.000000 0.000000 0.325945
O O15 0.250000 0.916670 0.655741
O O16 0.500000 0.000000 0.638282
O O17 0.250000 0.403750 0.143070
O O18 0.411936 0.254279 0.135356
O O19 0.489321 0.402451 0.029788
O O20 0.750000 0.578210 0.908509
O O21 0.000000 0.500000 0.850967
O O22 0.750000 0.887972 0.086088
#
# Coordination Sequence:
#
# PCOD8168491 Si02
#       8
#     4   4   4   4   4   4   4   4
#     4   9  20  38  60  85 117 153 193 241 288 341
#     4  10  23  42  60  84 116 149 192 245 291 341
#     4  11  21  34  57  86 119 158 196 237 286 343
#     4  11  22  35  55  83 115 149 188 233 289 353
#     4  11  24  43  67  89 112 144 191 246 297 352
#     4   8  15  29  50  78 113 154 193 228 274 329
#     4   9  17  31  52  81 118 156 193 233 278 334
#     4   9  17  34  56  80 115 154 191 232 283 341
#
# _framework density 19.77824
#
# number of rings (size 3 to 8) (size 9 to 14) (size 15 to 20)
#    0.000    2.250    1.250    3.375    0.000    3.000 
#    0.000    3.125    0.000    1.500    0.000    0.000 
#    0.000    0.000    0.000    0.000    0.000    0.000 
#
# Total GULP energy -396662.116430 kJ/mol
# GULP energy per Si atom -12395.691138 kJ/mol
# Density = 1.973322 g / cm^3
# Si number density = 19.778240 Si / 1000 Ang^3
#
#
#
# Elastic Constant Matrix: (Units=GPa)
#
#
# Indices 1 2 3 4 5 6 
#
# 1 93.1382 69.8694 49.6426 0.0000 0.0000 0.0000
# 2 69.8694 139.1924 52.3798 0.0000 0.0000 0.0000
# 3 49.6426 52.3798 91.7508 0.0000 0.0000 0.0000
# 4 0.0000 0.0000 0.0000 21.7188 0.0000 0.0000
# 5 0.0000 0.0000 0.0000 0.0000 25.8391 0.0000
# 6 0.0000 0.0000 0.0000 0.0000 0.0000 39.3275
#
#
#
# Elastic Compliance Matrix: (Units=1/GPa)
#
#
# Indices 1 2 3 4 5 6 
#
# 1 0.019803 -0.007525 -0.006419 0.000000 0.000000 0.000000
# 2 -0.007525 0.012009 -0.002785 0.000000 0.000000 0.000000
# 3 -0.006419 -0.002785 0.015962 0.000000 0.000000 0.000000
# 4 0.000000 0.000000 0.000000 0.046043 0.000000 0.000000
# 5 0.000000 0.000000 0.000000 0.000000 0.038701 0.000000
# 6 0.000000 0.000000 0.000000 0.000000 0.000000 0.025427
#
#
# Mechanical properties :
#
#
# Convention : Reuss Voigt Hill
#
# Bulk Modulus (GPa) = 69.84411 74.20721 72.02566
# Shear Modulus (GPa) = 25.48754 27.52304 26.50529
#
# Velocity S-wave (km/s) = 3.59369 3.73444 3.66474
# Velocity P-wave (km/s) = 7.25326 7.49638 7.37582
#
# Compressibility (1/GPa) = 0.01431760
#
# Stress axis : x y z
#
# Youngs Moduli (GPa) = 50.49805 83.26798 62.65013
#
# Poissons Ratio (x) = 0.62658 0.40212
# Poissons Ratio (y) = 0.37999 0.17446
# Poissons Ratio (z) = 0.32412 0.23188
#
# Static dielectric constant tensor:
#      x y z
#    x 3.408120 0.000000 0.000000 
#    y 0.000000 3.630250 0.000000 
#    z 0.000000 0.000000 3.502430 
# 
# 
# High freq. dielectric constant tensor:
#      x y z
#    x 1.756920 0.000000 0.000000 
#    y 0.000000 1.780300 0.000000 
#    z 0.000000 0.000000 1.753450 
# 
# From -- ./inp_files/5063.got.cif
#   From: 2010.03.12/outbox.cif.g09.slc.cpg/sg28_3_cif.got.tgz:5063.got - 2010.04.14 03:39:34.
