data_PCOD8168797
_publ_section_title
;
Structure prediction by ZEFSAII (Michael W. Deem and Ramdas Pophale) SiO2 
 PCOD8168797
Probable space group: P C A 21
;
_chemical_formula_sum "Si O2"
_cell_formula_units_Z 32
_cell_length_a 8.667486
_cell_length_b 18.884285
_cell_length_c 9.375195
_cell_angle_alpha 90.000000
_cell_angle_beta 90.000000
_cell_angle_gamma 90.000000
_cell_volume 1534.525129
_symmetry_space_group_name_H-M "P C A 21"
_symmetry_group_IT_number 29
_symmetry_cell_setting 'orthorhombic'
loop_
_space_group_symop_operation_xyz
x,y,z
-x,-y,1/2+z
1/2-x,y,1/2+z
1/2+x,-y,z
loop_
_atom_site_type_symbol
_atom_site_label
_atom_site_fract_x
_atom_site_fract_y
_atom_site_fract_z
Si Si1 0.881162 0.945665 0.368860
Si Si2 0.930032 0.570301 0.245933
Si Si3 0.421477 0.650428 0.502426
Si Si4 0.398556 0.212881 0.377551
Si Si5 0.575416 0.944496 0.539768
Si Si6 0.563329 0.345946 0.487634
Si Si7 0.913370 0.786412 0.051613
Si Si8 0.567718 0.581994 0.243191
O O1 0.959157 0.868314 0.390891
O O2 0.708219 0.942771 0.422690
O O3 0.880519 0.968355 0.201624
O O4 0.953400 0.002123 0.475467
O O5 0.749248 0.576904 0.212871
O O6 0.035882 0.625635 0.160454
O O7 0.963845 0.593395 0.407921
O O8 0.984900 0.491831 0.209884
O O9 0.243535 0.638322 0.465459
O O10 0.457463 0.733798 0.490630
O O11 0.533869 0.603340 0.405033
O O12 0.526814 0.265648 0.440554
O O13 0.239699 0.223193 0.459875
O O14 0.366428 0.232090 0.213473
O O15 0.511111 0.864450 0.544474
O O16 0.512345 0.356041 0.650914
#
# Coordination Sequence:
#
# PCOD8168797 Si02
#       8
#     4   4   4   4   4   4   4   4
#     4  10  21  39  63  94 129 171 217 267 324 388
#     4  12  24  46  66  90 127 164 215 262 322 392
#     4  12  25  42  63  95 129 164 212 267 322 379
#     4  10  22  41  65  92 126 168 214 263 319 386
#     4  10  21  39  63  94 129 171 217 267 324 388
#     4  12  25  42  63  95 129 164 212 267 322 379
#     4  10  22  41  65  92 126 168 214 263 319 386
#     4  12  26  42  68  94 123 170 209 264 324 384
#
# _framework density 20.853356999999999
#
# number of rings (size 3 to 8) (size 9 to 14) (size 15 to 20)
#    0.000    1.000    1.250    6.000    1.750    2.000 
#    0.000    0.000    0.000    0.000    0.000    0.000 
#    0.000    0.000    0.000    0.000    0.000    0.000 
#
# Total GULP energy -396823.215893 kJ/mol
# GULP energy per Si atom -12400.725497 kJ/mol
# Density = 2.080589 g / cm^3
# Si number density = 20.853357 Si / 1000 Ang^3
#
#
#
# Elastic Constant Matrix: (Units=GPa)
#
#
# Indices 1 2 3 4 5 6 
#
# 1 98.9740 45.0452 29.3723 0.0000 0.0000 0.0000
# 2 45.0452 107.3077 28.3702 0.0000 0.0000 0.0000
# 3 29.3723 28.3702 79.6874 0.0000 0.0000 0.0000
# 4 0.0000 0.0000 0.0000 37.5064 0.0000 0.0000
# 5 0.0000 0.0000 0.0000 0.0000 34.6812 0.0000
# 6 0.0000 0.0000 0.0000 0.0000 0.0000 35.6165
#
#
#
# Elastic Compliance Matrix: (Units=1/GPa)
#
#
# Indices 1 2 3 4 5 6 
#
# 1 0.013186 -0.004692 -0.003190 0.000000 0.000000 0.000000
# 2 -0.004692 0.011957 -0.002527 0.000000 0.000000 0.000000
# 3 -0.003190 -0.002527 0.014625 0.000000 0.000000 0.000000
# 4 0.000000 0.000000 0.000000 0.026662 0.000000 0.000000
# 5 0.000000 0.000000 0.000000 0.000000 0.028834 0.000000
# 6 0.000000 0.000000 0.000000 0.000000 0.000000 0.028077
#
#
# Mechanical properties :
#
#
# Convention : Reuss Voigt Hill
#
# Bulk Modulus (GPa) = 52.77337 54.61606 53.69472
# Shear Modulus (GPa) = 33.22831 33.77291 33.50061
#
# Velocity S-wave (km/s) = 3.99611 4.02872 4.01245
# Velocity P-wave (km/s) = 6.83035 6.92013 6.87539
#
# Compressibility (1/GPa) = 0.01894895
#
# Stress axis : x y z
#
# Youngs Moduli (GPa) = 75.84046 83.63537 68.37792
#
# Poissons Ratio (x) = 0.39239 0.21811
# Poissons Ratio (y) = 0.35582 0.17282
# Poissons Ratio (z) = 0.24192 0.21139
#
# Static dielectric constant tensor:
#      x y z
#    x 3.504940 0.000000 0.000000 
#    y 0.000000 4.066390 0.000000 
#    z 0.000000 0.000000 3.894070 
# 
# 
# High freq. dielectric constant tensor:
#      x y z
#    x 1.801140 0.000000 0.000000 
#    y 0.000000 1.828570 0.000000 
#    z 0.000000 0.000000 1.834520 
# 
# From -- ./inp_files/1255.got.cif
#   From: 2010.03.12/outbox.cif.g09.slc.cpg/sg29_1_cif.got.tgz:1255.got - 2010.04.14 03:43:10.
