data_PCOD8168043
_publ_section_title
;
Structure prediction by ZEFSAII (Michael W. Deem and Ramdas Pophale) SiO2 
 PCOD8168043
Probable space group: P M A 2
;
_chemical_formula_sum "Si O2"
_cell_formula_units_Z 32
_cell_length_a 8.818925
_cell_length_b 14.737614
_cell_length_c 12.270860
_cell_angle_alpha 90.000000
_cell_angle_beta 90.000000
_cell_angle_gamma 90.000000
_cell_volume 1594.842601
_symmetry_space_group_name_H-M "P M A 2"
_symmetry_group_IT_number 28
_symmetry_cell_setting 'orthorhombic'
loop_
_space_group_symop_operation_xyz
x,y,z
-x,-y,z
1/2-x,y,z
1/2+x,-y,z
loop_
_atom_site_type_symbol
_atom_site_label
_atom_site_fract_x
_atom_site_fract_y
_atom_site_fract_z
Si Si1 0.570135 0.091676 0.909930
Si Si2 0.573020 0.135088 0.153401
Si Si3 0.423594 0.287980 0.442337
Si Si4 0.923444 0.682045 0.196813
Si Si5 0.574364 0.413450 0.017246
Si Si6 0.073983 0.720236 0.826370
Si Si7 0.929525 0.399942 0.629520
Si Si8 0.428354 0.089352 0.374559
O O1 0.750000 0.089240 0.901750
O O2 0.507093 0.177637 0.839495
O O3 0.500000 0.000000 0.859278
O O4 0.519712 0.098153 0.036141
O O5 0.750000 0.118182 0.174042
O O6 0.539155 0.241337 0.156870
O O7 0.477645 0.086914 0.248237
O O8 0.250000 0.291309 0.483863
O O9 0.437952 0.335830 0.325155
O O10 0.531084 0.345103 0.520575
O O11 0.480302 0.182798 0.433514
O O12 0.750000 0.708374 0.168484
O O13 0.980010 0.594842 0.130137
O O14 0.500000 0.500000 0.956654
O O15 0.750000 0.429745 0.041215
O O16 0.546084 0.327032 0.941731
O O17 0.250000 0.727628 0.799501
O O18 0.001414 0.660613 0.728920
O O19 0.750000 0.412005 0.638836
O O20 0.000000 0.500000 0.629919
O O21 0.250000 0.081962 0.379598
O O22 0.500000 0.000000 0.432768
#
# Coordination Sequence:
#
# PCOD8168043 Si02
#       8
#     4   4   4   4   4   4   4   4
#     4  10  20  35  54  81 116 154 192 231 280 336
#     4  10  18  31  53  79 115 160 196 236 285 338
#     4   9  21  40  59  83 118 151 191 244 290 340
#     4  10  20  35  55  82 117 154 191 236 286 343
#     4  11  21  36  57  83 116 152 188 233 289 352
#     4   9  20  40  60  82 116 151 188 238 291 342
#     4  11  23  41  67  89 110 145 192 245 297 353
#     4  10  20  34  54  83 120 159 198 243 286 342
#
# _framework density 20.064675999999999
#
# number of rings (size 3 to 8) (size 9 to 14) (size 15 to 20)
#    0.000    2.000    1.250    3.375    0.000    5.500 
#    0.000    3.750    0.000    3.000    0.000    0.000 
#    0.000    0.000    0.000    0.000    0.000    0.000 
#
# Total GULP energy -396673.865501 kJ/mol
# GULP energy per Si atom -12396.058297 kJ/mol
# Density = 2.001901 g / cm^3
# Si number density = 20.064676 Si / 1000 Ang^3
#
#
#
# Elastic Constant Matrix: (Units=GPa)
#
#
# Indices 1 2 3 4 5 6 
#
# 1 61.0056 41.9118 36.2375 0.0000 0.0000 0.0000
# 2 41.9118 156.0318 56.7782 0.0000 0.0000 0.0000
# 3 36.2375 56.7782 81.6610 0.0000 0.0000 0.0000
# 4 0.0000 0.0000 0.0000 16.9342 0.0000 0.0000
# 5 0.0000 0.0000 0.0000 0.0000 18.3255 0.0000
# 6 0.0000 0.0000 0.0000 0.0000 0.0000 37.2022
#
#
#
# Elastic Compliance Matrix: (Units=1/GPa)
#
#
# Indices 1 2 3 4 5 6 
#
# 1 0.023514 -0.003372 -0.008090 0.000000 0.000000 0.000000
# 2 -0.003372 0.009063 -0.004805 0.000000 0.000000 0.000000
# 3 -0.008090 -0.004805 0.019177 0.000000 0.000000 0.000000
# 4 0.000000 0.000000 0.000000 0.059052 0.000000 0.000000
# 5 0.000000 0.000000 0.000000 0.000000 0.054569 0.000000
# 6 0.000000 0.000000 0.000000 0.000000 0.000000 0.026880
#
#
# Mechanical properties :
#
#
# Convention : Reuss Voigt Hill
#
# Bulk Modulus (GPa) = 52.03041 63.17260 57.60150
# Shear Modulus (GPa) = 21.62666 25.41045 23.51856
#
# Velocity S-wave (km/s) = 3.28662 3.56255 3.42736
# Velocity P-wave (km/s) = 6.35532 6.96241 6.66578
#
# Compressibility (1/GPa) = 0.01921953
#
# Stress axis : x y z
#
# Youngs Moduli (GPa) = 42.52758 110.33454 52.14684
#
# Poissons Ratio (x) = 0.37209 0.42186
# Poissons Ratio (y) = 0.14342 0.25057
# Poissons Ratio (z) = 0.34404 0.53017
#
# Static dielectric constant tensor:
#      x y z
#    x 3.492840 0.000000 0.000000 
#    y 0.000000 4.003860 0.000000 
#    z 0.000000 0.000000 3.502600 
# 
# 
# High freq. dielectric constant tensor:
#      x y z
#    x 1.772290 0.000000 0.000000 
#    y 0.000000 1.798730 0.000000 
#    z 0.000000 0.000000 1.759520 
# 
# From -- ./inp_files/5106.got.cif
#   From: 2010.03.12/outbox.cif.g09.slc.cpg/sg28_3_cif.got.tgz:5106.got - 2010.04.14 03:39:34.
