data_PCOD8168752
_publ_section_title
;
Structure prediction by ZEFSAII (Michael W. Deem and Ramdas Pophale) SiO2 
 PCOD8168752
Probable space group: P C A 21
;
_chemical_formula_sum "Si O2"
_cell_formula_units_Z 32
_cell_length_a 9.399706
_cell_length_b 13.592829
_cell_length_c 11.841174
_cell_angle_alpha 90.000000
_cell_angle_beta 90.000000
_cell_angle_gamma 90.000000
_cell_volume 1512.930181
_symmetry_space_group_name_H-M "P C A 21"
_symmetry_group_IT_number 29
_symmetry_cell_setting 'orthorhombic'
loop_
_space_group_symop_operation_xyz
x,y,z
-x,-y,1/2+z
1/2-x,y,1/2+z
1/2+x,-y,z
loop_
_atom_site_type_symbol
_atom_site_label
_atom_site_fract_x
_atom_site_fract_y
_atom_site_fract_z
Si Si1 0.671648 0.404937 0.523340
Si Si2 0.781260 0.550962 0.355329
Si Si3 0.128477 0.739879 0.142394
Si Si4 0.127221 0.904531 0.970559
Si Si5 0.538482 0.100792 0.507732
Si Si6 0.000932 0.408402 0.239013
Si Si7 0.013803 0.281132 0.865613
Si Si8 0.411053 0.807675 0.241941
O O1 0.709707 0.508972 0.468778
O O2 0.806902 0.359477 0.588639
O O3 0.539897 0.422013 0.608087
O O4 0.624654 0.327540 0.426966
O O5 0.904325 0.477431 0.316915
O O6 0.664695 0.561126 0.256220
O O7 0.844791 0.656293 0.390612
O O8 0.002864 0.713913 0.229479
O O9 0.244782 0.794296 0.218890
O O10 0.073367 0.812855 0.045599
O O11 0.075902 0.885387 0.842904
O O12 0.296481 0.918845 0.980477
O O13 0.048345 0.000828 0.013241
O O14 0.468520 0.170543 0.411817
O O15 0.514900 0.151578 0.629091
O O16 0.981890 0.295564 0.277240
#
# Coordination Sequence:
#
# PCOD8168752 Si02
#       8
#     4   4   4   4   4   4   4   4
#     4  11  22  45  70  93 133 188 228 276 341 415
#     4  12  27  41  69 103 135 182 228 286 342 412
#     4  10  20  42  72  95 127 184 226 275 343 409
#     4  11  23  42  70  97 130 180 228 276 352 413
#     4  11  25  42  68 100 132 182 221 289 344 410
#     4  11  25  42  66 101 135 177 232 280 343 410
#     4  12  23  45  66 101 143 175 231 287 343 407
#     4  10  21  43  69  92 135 174 232 273 342 412
#
# _framework density 21.151008000000001
#
# number of rings (size 3 to 8) (size 9 to 14) (size 15 to 20)
#    0.000    1.000    6.250    2.250    3.500    1.000 
#    4.500    0.000    0.000    0.000    0.000    0.000 
#    0.000    0.000    0.000    0.000    0.000    0.000 
#
# Total GULP energy -396936.171391 kJ/mol
# GULP energy per Si atom -12404.255356 kJ/mol
# Density = 2.110287 g / cm^3
# Si number density = 21.151008 Si / 1000 Ang^3
#
#
#
# Elastic Constant Matrix: (Units=GPa)
#
#
# Indices 1 2 3 4 5 6 
#
# 1 73.5165 49.6162 35.2598 0.0000 0.0000 0.0000
# 2 49.6162 94.4564 42.8640 0.0000 0.0000 0.0000
# 3 35.2598 42.8640 110.7055 0.0000 0.0000 0.0000
# 4 0.0000 0.0000 0.0000 37.4408 0.0000 0.0000
# 5 0.0000 0.0000 0.0000 0.0000 21.8288 0.0000
# 6 0.0000 0.0000 0.0000 0.0000 0.0000 37.6811
#
#
#
# Elastic Compliance Matrix: (Units=1/GPa)
#
#
# Indices 1 2 3 4 5 6 
#
# 1 0.021894 -0.010113 -0.003058 0.000000 0.000000 0.000000
# 2 -0.010113 0.017515 -0.003561 0.000000 0.000000 0.000000
# 3 -0.003058 -0.003561 0.011385 0.000000 0.000000 0.000000
# 4 0.000000 0.000000 0.000000 0.026709 0.000000 0.000000
# 5 0.000000 0.000000 0.000000 0.000000 0.045811 0.000000
# 6 0.000000 0.000000 0.000000 0.000000 0.000000 0.026539
#
#
# Mechanical properties :
#
#
# Convention : Reuss Voigt Hill
#
# Bulk Modulus (GPa) = 57.69682 59.35092 58.52387
# Shear Modulus (GPa) = 26.44207 29.45271 27.94739
#
# Velocity S-wave (km/s) = 3.53959 3.73567 3.63895
# Velocity P-wave (km/s) = 6.63647 6.83582 6.73688
#
# Compressibility (1/GPa) = 0.01733198
#
# Stress axis : x y z
#
# Youngs Moduli (GPa) = 45.67429 57.09440 87.83140
#
# Poissons Ratio (x) = 0.57740 0.26856
# Poissons Ratio (y) = 0.46191 0.31273
# Poissons Ratio (z) = 0.13966 0.20329
#
# Static dielectric constant tensor:
#      x y z
#    x 3.569670 0.000000 0.000000 
#    y 0.000000 3.823100 0.000000 
#    z 0.000000 0.000000 3.932580 
# 
# 
# High freq. dielectric constant tensor:
#      x y z
#    x 1.803120 0.000000 0.000000 
#    y 0.000000 1.829070 0.000000 
#    z 0.000000 0.000000 1.841740 
# 
# From -- ./inp_files/2954.got.cif
#   From: 2010.03.12/outbox.cif.g09.slc.cpg/sg29_2_cif.got.tgz:2954.got - 2010.04.14 03:43:10.
