data_PCOD8168817
_publ_section_title
;
Structure prediction by ZEFSAII (Michael W. Deem and Ramdas Pophale) SiO2 
 PCOD8168817
Probable space group: P C A 21
;
_chemical_formula_sum "Si O2"
_cell_formula_units_Z 28
_cell_length_a 23.033593
_cell_length_b 5.116351
_cell_length_c 11.191393
_cell_angle_alpha 90.000000
_cell_angle_beta 90.000000
_cell_angle_gamma 90.000000
_cell_volume 1318.882684
_symmetry_space_group_name_H-M "P C A 21"
_symmetry_group_IT_number 29
_symmetry_cell_setting 'orthorhombic'
loop_
_space_group_symop_operation_xyz
x,y,z
-x,-y,1/2+z
1/2-x,y,1/2+z
1/2+x,-y,z
loop_
_atom_site_type_symbol
_atom_site_label
_atom_site_fract_x
_atom_site_fract_y
_atom_site_fract_z
Si Si1 0.834482 0.804958 0.983430
Si Si2 0.295166 0.325516 0.552076
Si Si3 0.566451 0.794466 0.667678
Si Si4 0.649421 0.167593 0.122498
Si Si5 0.902322 0.839039 0.438024
Si Si6 0.516170 0.297378 0.554289
Si Si7 0.116221 0.689537 0.373365
O O1 0.856975 0.598525 0.885674
O O2 0.841122 0.099262 0.935328
O O3 0.768320 0.737413 0.007329
O O4 0.870649 0.775506 0.105789
O O5 0.300647 0.612675 0.608062
O O6 0.341199 0.318081 0.440863
O O7 0.315310 0.102958 0.647452
O O8 0.575294 0.871708 0.804803
O O9 0.533353 0.519756 0.649673
O O10 0.526494 0.016182 0.611765
O O11 0.608592 0.240152 0.234243
O O12 0.609171 0.121682 0.003821
O O13 0.948957 0.679221 0.518060
O O14 0.552948 0.312982 0.432148
#
# Coordination Sequence:
#
# PCOD8168817 Si02
#       7
#     4   4   4   4   4   4   4
#     4  10  21  43  62  90 124 162 209 252 310 376
#     4  10  23  39  59  97 123 161 210 250 319 366
#     4  10  24  42  64  90 125 168 207 259 315 368
#     4  10  23  39  59  96 118 161 202 254 313 367
#     4  10  26  39  65  91 133 158 215 254 321 371
#     4  10  24  40  63  92 120 169 207 257 311 372
#     4  10  21  40  64  88 121 161 208 252 309 368
#
# _framework density 21.230093
#
# number of rings (size 3 to 8) (size 9 to 14) (size 15 to 20)
#    0.857    1.143    0.000    1.714    6.000    2.286 
#    2.571    0.000    0.000    0.000    0.000    0.000 
#    0.000    0.000    0.000    0.000    0.000    0.000 
#
# Total GULP energy -347030.391082 kJ/mol
# GULP energy per Si atom -12393.942539 kJ/mol
# Density = 2.118177 g / cm^3
# Si number density = 21.230093 Si / 1000 Ang^3
#
#
#
# Elastic Constant Matrix: (Units=GPa)
#
#
# Indices 1 2 3 4 5 6 
#
# 1 105.2874 16.4945 24.9508 0.0000 0.0000 0.0000
# 2 16.4945 109.5050 15.7500 0.0000 0.0000 0.0000
# 3 24.9508 15.7500 100.4145 0.0000 0.0000 0.0000
# 4 0.0000 0.0000 0.0000 28.6358 0.0000 0.0000
# 5 0.0000 0.0000 0.0000 0.0000 15.3383 0.0000
# 6 0.0000 0.0000 0.0000 0.0000 0.0000 18.1079
#
#
#
# Elastic Compliance Matrix: (Units=1/GPa)
#
#
# Indices 1 2 3 4 5 6 
#
# 1 0.010245 -0.001204 -0.002357 0.000000 0.000000 0.000000
# 2 -0.001204 0.009484 -0.001188 0.000000 0.000000 0.000000
# 3 -0.002357 -0.001188 0.010731 0.000000 0.000000 0.000000
# 4 0.000000 0.000000 0.000000 0.034921 0.000000 0.000000
# 5 0.000000 0.000000 0.000000 0.000000 0.065196 0.000000
# 6 0.000000 0.000000 0.000000 0.000000 0.000000 0.055225
#
#
# Mechanical properties :
#
#
# Convention : Reuss Voigt Hill
#
# Bulk Modulus (GPa) = 47.70705 47.73307 47.72006
# Shear Modulus (GPa) = 24.71721 29.61716 27.16719
#
# Velocity S-wave (km/s) = 3.41582 3.73910 3.58111
# Velocity P-wave (km/s) = 6.17068 6.41667 6.29488
#
# Compressibility (1/GPa) = 0.02096126
#
# Stress axis : x y z
#
# Youngs Moduli (GPa) = 97.60891 105.43726 93.19031
#
# Poissons Ratio (x) = 0.12697 0.21963
# Poissons Ratio (y) = 0.11754 0.11075
# Poissons Ratio (z) = 0.23004 0.12530
#
# Static dielectric constant tensor:
#      x y z
#    x 3.690830 0.000000 0.000000 
#    y 0.000000 4.000890 0.000000 
#    z 0.000000 0.000000 3.589640 
# 
# 
# High freq. dielectric constant tensor:
#      x y z
#    x 1.828280 0.000000 0.000000 
#    y 0.000000 1.844760 0.000000 
#    z 0.000000 0.000000 1.813590 
# 
# From -- ./inp_files/3938.got.cif
#   From: 2010.03.12/outbox.cif.g09.slc.cpg/sg29_2_cif.got.tgz:3938.got - 2010.04.14 03:43:10.
