data_PCOD8168748
_publ_section_title
;
Structure prediction by ZEFSAII (Michael W. Deem and Ramdas Pophale) SiO2 
 PCOD8168748
Probable space group: P C A 21
;
_chemical_formula_sum "Si O2"
_cell_formula_units_Z 28
_cell_length_a 19.574234
_cell_length_b 6.542294
_cell_length_c 9.940565
_cell_angle_alpha 90.000000
_cell_angle_beta 90.000000
_cell_angle_gamma 90.000000
_cell_volume 1272.992667
_symmetry_space_group_name_H-M "P C A 21"
_symmetry_group_IT_number 29
_symmetry_cell_setting 'orthorhombic'
loop_
_space_group_symop_operation_xyz
x,y,z
-x,-y,1/2+z
1/2-x,y,1/2+z
1/2+x,-y,z
loop_
_atom_site_type_symbol
_atom_site_label
_atom_site_fract_x
_atom_site_fract_y
_atom_site_fract_z
Si Si1 0.629734 0.574689 0.469260
Si Si2 0.681059 0.951436 0.851705
Si Si3 0.069578 0.339747 0.737684
Si Si4 0.614542 0.352854 0.948379
Si Si5 0.419828 0.737120 0.740340
Si Si6 0.676055 0.892535 0.272543
Si Si7 0.724894 0.626228 0.050615
O O1 0.570397 0.585195 0.582027
O O2 0.612706 0.398396 0.360324
O O3 0.641452 0.800878 0.406899
O O4 0.699140 0.531804 0.554076
O O5 0.635451 0.801692 0.761011
O O6 0.751078 0.015419 0.774647
O O7 0.629694 0.127167 0.895941
O O8 0.715089 0.845479 0.980459
O O9 0.999518 0.218216 0.769932
O O10 0.068077 0.534752 0.837467
O O11 0.580141 0.371878 0.095076
O O12 0.686970 0.460857 0.960557
O O13 0.379287 0.948802 0.716624
O O14 0.691370 0.676014 0.195149
#
# Coordination Sequence:
#
# PCOD8168748 Si02
#       7
#     4   4   4   4   4   4   4
#     4  11  24  44  66  99 138 174 228 283 335 405
#     4  10  22  42  67  96 128 172 225 279 335 399
#     4  11  26  43  64  96 139 181 222 273 343 409
#     4  11  23  42  68  94 132 176 219 275 338 404
#     4  12  25  42  67 101 132 182 226 274 342 412
#     4  11  22  42  70  99 130 170 230 286 339 391
#     4  10  20  41  68  97 129 171 222 284 334 388
#
# _framework density 21.995415000000001
#
# number of rings (size 3 to 8) (size 9 to 14) (size 15 to 20)
#    0.000    1.143    4.286    1.714    0.000    4.571 
#    0.000    0.000    0.000    0.000    0.000    0.000 
#    0.000    0.000    0.000    0.000    0.000    0.000 
#
# Total GULP energy -346874.280191 kJ/mol
# GULP energy per Si atom -12388.367150 kJ/mol
# Density = 2.194535 g / cm^3
# Si number density = 21.995415 Si / 1000 Ang^3
#
#
#
# Elastic Constant Matrix: (Units=GPa)
#
#
# Indices 1 2 3 4 5 6 
#
# 1 109.0366 21.7742 30.5382 0.0000 0.0000 0.0000
# 2 21.7742 59.4957 30.3203 0.0000 0.0000 0.0000
# 3 30.5382 30.3203 121.5129 0.0000 0.0000 0.0000
# 4 0.0000 0.0000 0.0000 32.3547 0.0000 0.0000
# 5 0.0000 0.0000 0.0000 0.0000 25.6378 0.0000
# 6 0.0000 0.0000 0.0000 0.0000 0.0000 27.0514
#
#
#
# Elastic Compliance Matrix: (Units=1/GPa)
#
#
# Indices 1 2 3 4 5 6 
#
# 1 0.010256 -0.002795 -0.001880 0.000000 0.000000 0.000000
# 2 -0.002795 0.020019 -0.004293 0.000000 0.000000 0.000000
# 3 -0.001880 -0.004293 0.009773 0.000000 0.000000 0.000000
# 4 0.000000 0.000000 0.000000 0.030907 0.000000 0.000000
# 5 0.000000 0.000000 0.000000 0.000000 0.039005 0.000000
# 6 0.000000 0.000000 0.000000 0.000000 0.000000 0.036967
#
#
# Mechanical properties :
#
#
# Convention : Reuss Voigt Hill
#
# Bulk Modulus (GPa) = 45.22472 50.59008 47.90740
# Shear Modulus (GPa) = 29.03041 30.83628 29.93334
#
# Velocity S-wave (km/s) = 3.63690 3.74831 3.69303
# Velocity P-wave (km/s) = 6.18398 6.46400 6.32554
#
# Compressibility (1/GPa) = 0.02211180
#
# Stress axis : x y z
#
# Youngs Moduli (GPa) = 97.50396 49.95361 102.32123
#
# Poissons Ratio (x) = 0.13964 0.19236
# Poissons Ratio (y) = 0.27256 0.43922
# Poissons Ratio (z) = 0.18331 0.21443
#
# Static dielectric constant tensor:
#      x y z
#    x 3.958370 0.000000 0.000000 
#    y 0.000000 3.626660 0.000000 
#    z 0.000000 0.000000 4.138180 
# 
# 
# High freq. dielectric constant tensor:
#      x y z
#    x 1.868800 0.000000 0.000000 
#    y 0.000000 1.841630 0.000000 
#    z 0.000000 0.000000 1.875460 
# 
# From -- ./inp_files/3751.got.cif
#   From: 2010.03.12/outbox.cif.g09.slc.cpg/sg29_2_cif.got.tgz:3751.got - 2010.04.14 03:43:10.
