data_PCOD8168984
_publ_section_title
;
Structure prediction by ZEFSAII (Michael W. Deem and Ramdas Pophale) SiO2 
 PCOD8168984
Probable space group: P C A 21
;
_chemical_formula_sum "Si O2"
_cell_formula_units_Z 24
_cell_length_a 26.874745
_cell_length_b 7.600172
_cell_length_c 5.215143
_cell_angle_alpha 90.000000
_cell_angle_beta 90.000000
_cell_angle_gamma 90.000000
_cell_volume 1065.206958
_symmetry_space_group_name_H-M "P C A 21"
_symmetry_group_IT_number 29
_symmetry_cell_setting 'orthorhombic'
loop_
_space_group_symop_operation_xyz
x,y,z
-x,-y,1/2+z
1/2-x,y,1/2+z
1/2+x,-y,z
loop_
_atom_site_type_symbol
_atom_site_label
_atom_site_fract_x
_atom_site_fract_y
_atom_site_fract_z
Si Si1 0.630799 0.425984 0.934390
Si Si2 0.729297 0.606553 0.982986
Si Si3 0.772332 0.004151 0.982347
Si Si4 0.476175 0.435367 0.534895
Si Si5 0.516347 0.080457 0.452911
Si Si6 0.370817 0.807744 0.935896
O O1 0.669774 0.588220 0.959019
O O2 0.638556 0.328137 0.665637
O O3 0.577711 0.518275 0.931111
O O4 0.636362 0.288806 0.165408
O O5 0.754149 0.507081 0.742037
O O6 0.752484 0.803085 0.001922
O O7 0.754452 0.099326 0.242719
O O8 0.831774 0.029107 0.954326
O O9 0.515527 0.468913 0.305388
O O10 0.484140 0.231414 0.593529
O O11 0.575106 0.107841 0.457060
O O12 0.503222 0.927607 0.658578
#
# Coordination Sequence:
#
# PCOD8168984 Si02
#       6
#     4   4   4   4   4   4
#     4  12  24  42  72 100 134 188 235 280 355 419
#     4  10  23  41  64  96 136 172 233 285 337 416
#     4  10  23  43  66  92 138 177 224 285 349 404
#     4  12  23  46  72  99 144 183 232 299 341 419
#     4  12  26  43  69 105 143 184 236 286 353 416
#     4  12  25  43  69 100 139 184 230 283 353 418
#
# _framework density 22.530833000000001
#
# number of rings (size 3 to 8) (size 9 to 14) (size 15 to 20)
#    0.000    0.667    3.333    4.000    0.000    9.333 
#    0.000    0.000    0.000    0.000    0.000    0.000 
#    0.000    0.000    0.000    0.000    0.000    0.000 
#
# Total GULP energy -297408.287205 kJ/mol
# GULP energy per Si atom -12392.011967 kJ/mol
# Density = 2.247955 g / cm^3
# Si number density = 22.530833 Si / 1000 Ang^3
#
#
#
# Elastic Constant Matrix: (Units=GPa)
#
#
# Indices 1 2 3 4 5 6 
#
# 1 117.9410 35.7137 3.0583 0.0000 0.0000 0.0000
# 2 35.7137 47.1446 -11.6233 0.0000 0.0000 0.0000
# 3 3.0583 -11.6233 152.7612 0.0000 0.0000 0.0000
# 4 0.0000 0.0000 0.0000 9.8382 0.0000 0.0000
# 5 0.0000 0.0000 0.0000 0.0000 31.6355 0.0000
# 6 0.0000 0.0000 0.0000 0.0000 0.0000 47.6498
#
#
#
# Elastic Compliance Matrix: (Units=1/GPa)
#
#
# Indices 1 2 3 4 5 6 
#
# 1 0.011118 -0.008639 -0.000880 0.000000 0.000000 0.000000
# 2 -0.008639 0.028330 0.002329 0.000000 0.000000 0.000000
# 3 -0.000880 0.002329 0.006741 0.000000 0.000000 0.000000
# 4 0.000000 0.000000 0.000000 0.101645 0.000000 0.000000
# 5 0.000000 0.000000 0.000000 0.000000 0.031610 0.000000
# 6 0.000000 0.000000 0.000000 0.000000 0.000000 0.020986
#
#
# Mechanical properties :
#
#
# Convention : Reuss Voigt Hill
#
# Bulk Modulus (GPa) = 31.43895 41.34933 36.39414
# Shear Modulus (GPa) = 22.18154 37.20458 29.69306
#
# Velocity S-wave (km/s) = 3.14107 4.06800 3.63421
# Velocity P-wave (km/s) = 5.20953 6.36058 5.81361
#
# Compressibility (1/GPa) = 0.03180767
#
# Stress axis : x y z
#
# Youngs Moduli (GPa) = 89.94773 35.29866 148.34699
#
# Poissons Ratio (x) = 0.30494 0.13053
# Poissons Ratio (y) = 0.77705 -0.34543
# Poissons Ratio (z) = 0.07914 -0.08219
#
# Static dielectric constant tensor:
#      x y z
#    x 4.121390 0.000000 0.000000 
#    y 0.000000 3.774190 0.000000 
#    z 0.000000 0.000000 5.546790 
# 
# 
# High freq. dielectric constant tensor:
#      x y z
#    x 1.894500 0.000000 0.000000 
#    y 0.000000 1.866670 0.000000 
#    z 0.000000 0.000000 1.928070 
# 
# From -- ./inp_files/641.got.cif
#   From: 2010.03.12/outbox.cif.g09.slc.cpg/sg29_1_cif.got.tgz:641.got - 2010.04.14 03:43:10.
