data_PCOD8168765
_publ_section_title
;
Structure prediction by ZEFSAII (Michael W. Deem and Ramdas Pophale) SiO2 
 PCOD8168765
Probable space group: P C A 21
;
_chemical_formula_sum "Si O2"
_cell_formula_units_Z 32
_cell_length_a 13.213376
_cell_length_b 4.823321
_cell_length_c 22.719382
_cell_angle_alpha 90.000000
_cell_angle_beta 90.000000
_cell_angle_gamma 90.000000
_cell_volume 1447.959695
_symmetry_space_group_name_H-M "P C A 21"
_symmetry_group_IT_number 29
_symmetry_cell_setting 'orthorhombic'
loop_
_space_group_symop_operation_xyz
x,y,z
-x,-y,1/2+z
1/2-x,y,1/2+z
1/2+x,-y,z
loop_
_atom_site_type_symbol
_atom_site_label
_atom_site_fract_x
_atom_site_fract_y
_atom_site_fract_z
Si Si1 0.425927 0.729807 0.705730
Si Si2 0.985720 0.246730 0.150819
Si Si3 0.193039 0.712761 0.981110
Si Si4 0.425905 0.729750 0.006233
Si Si5 0.693067 0.287165 0.730877
Si Si6 0.101601 0.195867 0.923062
Si Si7 0.485773 0.753275 0.561130
Si Si8 0.398377 0.195924 0.288920
O O1 0.451140 0.401871 0.703262
O O2 0.308603 0.767990 0.715552
O O3 0.490782 0.849071 0.760038
O O4 0.458915 0.932158 0.646888
O O5 0.869846 0.209701 0.171727
O O6 0.999888 0.499915 0.105946
O O7 0.308576 0.767898 0.996430
O O8 0.171212 0.400909 0.961352
O O9 0.159940 0.904838 0.926512
O O10 0.130136 0.790200 0.040268
O O11 0.490752 0.849148 0.951933
O O12 0.451161 0.401815 0.008648
O O13 0.458880 0.932178 0.065073
O O14 0.671238 0.599011 0.750638
O O15 0.659969 0.095093 0.785476
O O16 0.089124 0.292182 0.855991
#
# Coordination Sequence:
#
# PCOD8168765 Si02
#       8
#     4   4   4   4   4   4   4   4
#     4  10  21  38  58  83 115 149 189 238 287 341
#     4  10  21  38  59  85 115 148 191 238 288 346
#     4  10  21  38  57  83 117 150 190 240 289 345
#     4  10  21  38  58  83 115 149 189 238 287 341
#     4  10  21  38  57  83 117 150 190 240 289 345
#     4  10  21  36  56  83 114 149 191 236 284 344
#     4  10  21  38  59  85 115 148 191 238 288 346
#     4  10  21  36  56  83 114 149 191 236 284 344
#
# _framework density 22.100064
#
# number of rings (size 3 to 8) (size 9 to 14) (size 15 to 20)
#    0.000    2.000    0.000    3.000    0.000    3.000 
#    0.000    2.500    0.000    0.000    0.000    0.000 
#    0.000    0.000    0.000    0.000    0.000    0.000 
#
# Total GULP energy -396495.218794 kJ/mol
# GULP energy per Si atom -12390.475587 kJ/mol
# Density = 2.204976 g / cm^3
# Si number density = 22.100064 Si / 1000 Ang^3
#
#
#
# Elastic Constant Matrix: (Units=GPa)
#
#
# Indices 1 2 3 4 5 6 
#
# 1 201.6137 56.5490 49.1454 0.0000 0.0000 0.0000
# 2 56.5490 140.2357 33.4076 0.0000 0.0000 0.0000
# 3 49.1454 33.4076 82.3331 0.0000 0.0000 0.0000
# 4 0.0000 0.0000 0.0000 29.3908 0.0000 0.0000
# 5 0.0000 0.0000 0.0000 0.0000 16.0179 0.0000
# 6 0.0000 0.0000 0.0000 0.0000 0.0000 25.5619
#
#
#
# Elastic Compliance Matrix: (Units=1/GPa)
#
#
# Indices 1 2 3 4 5 6 
#
# 1 0.006184 -0.001787 -0.002966 0.000000 0.000000 0.000000
# 2 -0.001787 0.008410 -0.002346 0.000000 0.000000 0.000000
# 3 -0.002966 -0.002346 0.014868 0.000000 0.000000 0.000000
# 4 0.000000 0.000000 0.000000 0.034024 0.000000 0.000000
# 5 0.000000 0.000000 0.000000 0.000000 0.062430 0.000000
# 6 0.000000 0.000000 0.000000 0.000000 0.000000 0.039121
#
#
# Mechanical properties :
#
#
# Convention : Reuss Voigt Hill
#
# Bulk Modulus (GPa) = 65.51221 78.04293 71.77757
# Shear Modulus (GPa) = 27.12605 33.19949 30.16277
#
# Velocity S-wave (km/s) = 3.50726 3.88007 3.69836
# Velocity P-wave (km/s) = 6.79036 7.44737 7.12644
#
# Compressibility (1/GPa) = 0.01526433
#
# Stress axis : x y z
#
# Youngs Moduli (GPa) = 161.69957 118.90132 67.25730
#
# Poissons Ratio (x) = 0.21249 0.19951
# Poissons Ratio (y) = 0.28898 0.15778
# Poissons Ratio (z) = 0.47965 0.27892
#
# Static dielectric constant tensor:
#      x y z
#    x 3.780200 0.000000 0.000000 
#    y 0.000000 2.139870 0.000000 
#    z 0.000000 0.000000 5.722510 
# 
# 
# High freq. dielectric constant tensor:
#      x y z
#    x 1.853300 0.000000 0.000000 
#    y 0.000000 1.908810 0.000000 
#    z 0.000000 0.000000 1.867020 
# 
# From -- ./inp_files/5708.got.cif
#   From: 2010.03.12/outbox.cif.g09.slc.cpg/sg29_3_cif.got.tgz:5708.got - 2010.04.14 03:43:10.
