data_PCOD8168596
_publ_section_title
;
Structure prediction by ZEFSAII (Michael W. Deem and Ramdas Pophale) SiO2 
 PCOD8168596
Probable space group: P C A 21
;
_chemical_formula_sum "Si O2"
_cell_formula_units_Z 32
_cell_length_a 19.261327
_cell_length_b 9.968108
_cell_length_c 8.997959
_cell_angle_alpha 90.000000
_cell_angle_beta 90.000000
_cell_angle_gamma 90.000000
_cell_volume 1727.599020
_symmetry_space_group_name_H-M "P C A 21"
_symmetry_group_IT_number 29
_symmetry_cell_setting 'orthorhombic'
loop_
_space_group_symop_operation_xyz
x,y,z
-x,-y,1/2+z
1/2-x,y,1/2+z
1/2+x,-y,z
loop_
_atom_site_type_symbol
_atom_site_label
_atom_site_fract_x
_atom_site_fract_y
_atom_site_fract_z
Si Si1 0.814940 0.536126 0.875000
Si Si2 0.687171 0.224130 0.374440
Si Si3 0.825722 0.534558 0.224426
Si Si4 0.029948 0.895499 0.698108
Si Si5 0.050015 0.372059 0.224241
Si Si6 0.541166 0.135141 0.356813
Si Si7 0.826000 0.222799 0.220507
Si Si8 0.461588 0.406899 0.379353
O O1 0.823999 0.380012 0.835115
O O2 0.741914 0.586930 0.810680
O O3 0.873414 0.621220 0.791829
O O4 0.818644 0.563872 0.050152
O O5 0.621973 0.142426 0.306011
O O6 0.759199 0.167928 0.309002
O O7 0.690686 0.203325 0.549088
O O8 0.839373 0.378198 0.256971
O O9 0.889674 0.616800 0.292821
O O10 0.037584 0.916093 0.523829
O O11 0.105251 0.859091 0.768114
O O12 0.974212 0.781278 0.735500
O O13 0.003101 0.036516 0.756529
O O14 0.997861 0.459069 0.322292
O O15 0.050428 0.423416 0.054982
O O16 0.511127 0.283634 0.342804
#
# Coordination Sequence:
#
# PCOD8168596 Si02
#       8
#     4   4   4   4   4   4   4   4
#     4  10  19  34  55  84 116 146 185 234 285 336
#     4   9  18  34  54  80 111 141 180 229 274 329
#     4  10  19  34  55  84 116 146 185 234 285 336
#     4  10  22  39  56  81 115 148 188 233 278 334
#     4  11  21  36  57  83 114 147 187 234 281 334
#     4  10  22  39  56  81 115 148 188 233 278 334
#     4   9  18  34  54  80 111 141 180 229 274 329
#     4  11  21  36  57  83 114 147 187 234 281 334
#
# _framework density 18.522818000000001
#
# number of rings (size 3 to 8) (size 9 to 14) (size 15 to 20)
#    0.000    2.000    2.500    1.500    0.000    4.000 
#    0.000    1.250    0.000    3.000    0.000    0.000 
#    0.000    0.000    0.000    0.000    0.000    0.000 
#
# Total GULP energy -396856.308926 kJ/mol
# GULP energy per Si atom -12401.759654 kJ/mol
# Density = 1.848066 g / cm^3
# Si number density = 18.522818 Si / 1000 Ang^3
#
#
#
# Elastic Constant Matrix: (Units=GPa)
#
#
# Indices 1 2 3 4 5 6 
#
# 1 125.9325 3.7173 30.8539 0.0000 0.0000 0.0000
# 2 3.7173 14.6450 12.7063 0.0000 0.0000 0.0000
# 3 30.8539 12.7063 60.2449 0.0000 0.0000 0.0000
# 4 0.0000 0.0000 0.0000 24.4378 0.0000 0.0000
# 5 0.0000 0.0000 0.0000 0.0000 34.5959 0.0000
# 6 0.0000 0.0000 0.0000 0.0000 0.0000 24.8576
#
#
#
# Elastic Compliance Matrix: (Units=1/GPa)
#
#
# Indices 1 2 3 4 5 6 
#
# 1 0.009134 0.002130 -0.005127 0.000000 0.000000 0.000000
# 2 0.002130 0.084073 -0.018823 0.000000 0.000000 0.000000
# 3 -0.005127 -0.018823 0.023195 0.000000 0.000000 0.000000
# 4 0.000000 0.000000 0.000000 0.040920 0.000000 0.000000
# 5 0.000000 0.000000 0.000000 0.000000 0.028905 0.000000
# 6 0.000000 0.000000 0.000000 0.000000 0.000000 0.040229
#
#
# Mechanical properties :
#
#
# Convention : Reuss Voigt Hill
#
# Bulk Modulus (GPa) = 13.74348 32.81971 23.28160
# Shear Modulus (GPa) = 16.98660 27.01458 22.00059
#
# Velocity S-wave (km/s) = 3.03159 3.82311 3.45012
# Velocity P-wave (km/s) = 4.43733 6.10288 5.33550
#
# Compressibility (1/GPa) = 0.07276175
#
# Stress axis : x y z
#
# Youngs Moduli (GPa) = 109.48027 11.89445 43.11341
#
# Poissons Ratio (x) = -0.02533 0.22105
# Poissons Ratio (y) = -0.23318 0.81151
# Poissons Ratio (z) = 0.56132 0.22388
#
# Static dielectric constant tensor:
#      x y z
#    x 3.820400 0.000000 0.000000 
#    y 0.000000 3.060380 0.000000 
#    z 0.000000 0.000000 3.427740 
# 
# 
# High freq. dielectric constant tensor:
#      x y z
#    x 1.739620 0.000000 0.000000 
#    y 0.000000 1.682460 0.000000 
#    z 0.000000 0.000000 1.722190 
# 
# From -- ./inp_files/2162.got.cif
#   From: 2010.03.12/outbox.cif.g09.slc.cpg/sg29_2_cif.got.tgz:2162.got - 2010.04.14 03:43:10.
