data_PCOD8168967
_publ_section_title
;
Structure prediction by ZEFSAII (Michael W. Deem and Ramdas Pophale) SiO2 
 PCOD8168967
Probable space group: P C A 21
;
_chemical_formula_sum "Si O2"
_cell_formula_units_Z 28
_cell_length_a 22.853659
_cell_length_b 10.862806
_cell_length_c 4.993537
_cell_angle_alpha 90.000000
_cell_angle_beta 90.000000
_cell_angle_gamma 90.000000
_cell_volume 1239.669849
_symmetry_space_group_name_H-M "P C A 21"
_symmetry_group_IT_number 29
_symmetry_cell_setting 'orthorhombic'
loop_
_space_group_symop_operation_xyz
x,y,z
-x,-y,1/2+z
1/2-x,y,1/2+z
1/2+x,-y,z
loop_
_atom_site_type_symbol
_atom_site_label
_atom_site_fract_x
_atom_site_fract_y
_atom_site_fract_z
Si Si1 0.006159 0.827665 0.889860
Si Si2 0.784525 0.591984 0.161732
Si Si3 0.389245 0.785340 0.719149
Si Si4 0.485373 0.570127 0.208238
Si Si5 0.904139 0.998632 0.068271
Si Si6 0.361816 0.637867 0.242119
Si Si7 0.208662 0.138361 0.750928
O O1 0.989694 0.710073 0.705641
O O2 0.944837 0.891272 0.950587
O O3 0.054007 0.915717 0.748196
O O4 0.040459 0.780626 0.156178
O O5 0.725638 0.591328 0.343075
O O6 0.814049 0.466817 0.256107
O O7 0.816251 0.720933 0.234288
O O8 0.350392 0.749402 0.455562
O O9 0.376249 0.923474 0.822933
O O10 0.370870 0.689478 0.946360
O O11 0.520610 0.481064 0.407461
O O12 0.420913 0.571797 0.337003
O O13 0.849246 0.946009 0.233684
O O14 0.257834 0.112396 0.526827
#
# Coordination Sequence:
#
# PCOD8168967 Si02
#       7
#     4   4   4   4   4   4   4
#     4  11  25  42  71 104 136 190 222 286 344 415
#     4  10  22  46  70  96 128 172 236 285 329 404
#     4  11  22  42  65  98 140 168 218 282 332 408
#     4  11  24  41  62  97 139 167 217 269 335 408
#     4  12  24  45  74  99 144 181 241 276 351 417
#     4  11  23  42  66  93 134 175 212 281 346 381
#     4  10  26  48  70 101 137 181 234 293 343 403
#
# _framework density 22.586656999999999
#
# number of rings (size 3 to 8) (size 9 to 14) (size 15 to 20)
#    0.000    1.143    4.286    2.571    4.000    0.000 
#    5.143    4.286    0.000    0.000    0.000    0.000 
#    0.000    0.000    0.000    0.000    0.000    0.000 
#
# Total GULP energy -346918.936684 kJ/mol
# GULP energy per Si atom -12389.962024 kJ/mol
# Density = 2.253525 g / cm^3
# Si number density = 22.586657 Si / 1000 Ang^3
#
#
#
# Elastic Constant Matrix: (Units=GPa)
#
#
# Indices 1 2 3 4 5 6 
#
# 1 56.3352 41.7835 10.4748 0.0000 0.0000 0.0000
# 2 41.7835 116.1528 25.7816 0.0000 0.0000 0.0000
# 3 10.4748 25.7816 103.6802 0.0000 0.0000 0.0000
# 4 0.0000 0.0000 0.0000 39.1284 0.0000 0.0000
# 5 0.0000 0.0000 0.0000 0.0000 22.8236 0.0000
# 6 0.0000 0.0000 0.0000 0.0000 0.0000 36.5178
#
#
#
# Elastic Compliance Matrix: (Units=1/GPa)
#
#
# Indices 1 2 3 4 5 6 
#
# 1 0.024219 -0.008646 -0.000297 0.000000 0.000000 0.000000
# 2 -0.008646 0.012199 -0.002160 0.000000 0.000000 0.000000
# 3 -0.000297 -0.002160 0.010212 0.000000 0.000000 0.000000
# 4 0.000000 0.000000 0.000000 0.025557 0.000000 0.000000
# 5 0.000000 0.000000 0.000000 0.000000 0.043814 0.000000
# 6 0.000000 0.000000 0.000000 0.000000 0.000000 0.027384
#
#
# Mechanical properties :
#
#
# Convention : Reuss Voigt Hill
#
# Bulk Modulus (GPa) = 40.94330 48.02757 44.48544
# Shear Modulus (GPa) = 28.77979 32.90253 30.84116
#
# Velocity S-wave (km/s) = 3.57346 3.82085 3.69922
# Velocity P-wave (km/s) = 5.93234 6.38553 6.16310
#
# Compressibility (1/GPa) = 0.02442402
#
# Stress axis : x y z
#
# Youngs Moduli (GPa) = 41.28977 81.97301 97.92279
#
# Poissons Ratio (x) = 0.70877 0.02906
# Poissons Ratio (y) = 0.35701 0.21151
# Poissons Ratio (z) = 0.01225 0.17706
#
# Static dielectric constant tensor:
#      x y z
#    x 3.716140 0.000000 0.000000 
#    y 0.000000 4.353160 0.000000 
#    z 0.000000 0.000000 4.245420 
# 
# 
# High freq. dielectric constant tensor:
#      x y z
#    x 1.848250 0.000000 0.000000 
#    y 0.000000 1.908920 0.000000 
#    z 0.000000 0.000000 1.905170 
# 
# From -- ./inp_files/653.got.cif
#   From: 2010.03.12/outbox.cif.g09.slc.cpg/sg29_1_cif.got.tgz:653.got - 2010.04.14 03:43:10.
