data_PCOD8168554
_publ_section_title
;
Structure prediction by ZEFSAII (Michael W. Deem and Ramdas Pophale) SiO2 
 PCOD8168554
Probable space group: P C A 21
;
_chemical_formula_sum "Si O2"
_cell_formula_units_Z 32
_cell_length_a 21.812071
_cell_length_b 14.832655
_cell_length_c 5.444788
_cell_angle_alpha 90.000000
_cell_angle_beta 90.000000
_cell_angle_gamma 90.000000
_cell_volume 1761.557293
_symmetry_space_group_name_H-M "P C A 21"
_symmetry_group_IT_number 29
_symmetry_cell_setting 'orthorhombic'
loop_
_space_group_symop_operation_xyz
x,y,z
-x,-y,1/2+z
1/2-x,y,1/2+z
1/2+x,-y,z
loop_
_atom_site_type_symbol
_atom_site_label
_atom_site_fract_x
_atom_site_fract_y
_atom_site_fract_z
Si Si1 0.782593 0.705273 0.765450
Si Si2 0.962281 0.485597 0.137932
Si Si3 0.476740 0.886060 0.412036
Si Si4 0.589351 0.956489 0.118487
Si Si5 0.216211 0.081675 0.288312
Si Si6 0.400448 0.348280 0.979127
Si Si7 0.063070 0.201278 0.798252
Si Si8 0.016726 0.705932 0.684826
O O1 0.752396 0.671741 0.512130
O O2 0.790192 0.811636 0.779039
O O3 0.848805 0.655601 0.770028
O O4 0.006316 0.491664 0.898799
O O5 0.904141 0.552645 0.104423
O O6 0.938944 0.380476 0.141884
O O7 0.523129 0.940044 0.237640
O O8 0.516856 0.859364 0.643881
O O9 0.449014 0.796085 0.281221
O O10 0.418557 0.948965 0.474539
O O11 0.647897 0.962866 0.298231
O O12 0.604231 0.869073 0.950887
O O13 0.249601 0.048568 0.538188
O O14 0.468176 0.326161 0.886892
O O15 0.386372 0.263840 0.162194
O O16 0.020887 0.270960 0.943180
#
# Coordination Sequence:
#
# PCOD8168554 Si02
#       8
#     4   4   4   4   4   4   4   4
#     4  10  22  34  50  73 104 140 184 215 256 310
#     4  10  19  33  52  77 104 136 170 207 257 321
#     4  10  20  32  51  77 105 142 174 225 276 325
#     4  11  21  33  52  77 107 141 187 219 274 330
#     4  10  23  37  53  74 105 147 186 226 264 318
#     4  10  20  32  52  74 103 142 170 214 263 312
#     4  10  18  31  49  72 108 134 171 209 274 318
#     4   9  19  32  49  76 104 136 170 211 266 328
#
# _framework density 18.165745999999999
#
# number of rings (size 3 to 8) (size 9 to 14) (size 15 to 20)
#    0.000    2.000    2.500    2.250    8.750    0.000 
#    0.000    0.000    0.000    0.000    0.000    1.750 
#    0.000    0.000    0.000    0.000    0.000    0.000 
#
# Total GULP energy -396459.075915 kJ/mol
# GULP energy per Si atom -12389.346122 kJ/mol
# Density = 1.812440 g / cm^3
# Si number density = 18.165746 Si / 1000 Ang^3
#
#
#
# Elastic Constant Matrix: (Units=GPa)
#
#
# Indices 1 2 3 4 5 6 
#
# 1 48.0043 34.0691 14.4376 0.0000 0.0000 0.0000
# 2 34.0691 109.2293 24.4276 0.0000 0.0000 0.0000
# 3 14.4376 24.4276 85.7867 0.0000 0.0000 0.0000
# 4 0.0000 0.0000 0.0000 21.0428 0.0000 0.0000
# 5 0.0000 0.0000 0.0000 0.0000 -19.3799 0.0000
# 6 0.0000 0.0000 0.0000 0.0000 0.0000 44.3014
#
#
#
# Elastic Compliance Matrix: (Units=1/GPa)
#
#
# Indices 1 2 3 4 5 6 
#
# 1 0.027175 -0.007960 -0.002307 0.000000 0.000000 0.000000
# 2 -0.007960 0.012109 -0.002108 0.000000 0.000000 0.000000
# 3 -0.002307 -0.002108 0.012645 0.000000 0.000000 0.000000
# 4 0.000000 0.000000 0.000000 0.047522 0.000000 0.000000
# 5 0.000000 0.000000 0.000000 0.000000 -0.051600 0.000000
# 6 0.000000 0.000000 0.000000 0.000000 0.000000 0.022573
#
#
# Mechanical properties :
#
#
# Convention : Reuss Voigt Hill
#
# Bulk Modulus (GPa) = 36.79338 43.20988 40.00163
# Shear Modulus (GPa) = 47.96874 20.53190 34.25032
#
# Velocity S-wave (km/s) = 5.14427 3.36557 4.34687
# Velocity P-wave (km/s) = 7.45539 6.24026 6.87473
#
# Compressibility (1/GPa) = 0.02717881
#
# Stress axis : x y z
#
# Youngs Moduli (GPa) = 36.79915 82.58090 79.07997
#
# Poissons Ratio (x) = 0.65734 0.18242
# Poissons Ratio (y) = 0.29292 0.16674
# Poissons Ratio (z) = 0.08489 0.17412
#
# Static dielectric constant tensor:
#      x y z
#    x 2.939830 0.000000 0.000000 
#    y 0.000000 3.848800 0.000000 
#    z 0.000000 0.000000 3.757500 
# 
# 
# High freq. dielectric constant tensor:
#      x y z
#    x 1.648820 0.000000 0.000000 
#    y 0.000000 1.692880 0.000000 
#    z 0.000000 0.000000 1.723500 
# 
# From -- ./inp_files/580.got.cif
#   From: 2010.03.12/outbox.cif.g09.slc.cpg/sg29_1_cif.got.tgz:580.got - 2010.04.14 03:43:10.
