data_PCOD8168678
_publ_section_title
;
Structure prediction by ZEFSAII (Michael W. Deem and Ramdas Pophale) SiO2 
 PCOD8168678
Probable space group: P C A 21
;
_chemical_formula_sum "Si O2"
_cell_formula_units_Z 32
_cell_length_a 17.684777
_cell_length_b 14.238495
_cell_length_c 5.286603
_cell_angle_alpha 90.000000
_cell_angle_beta 90.000000
_cell_angle_gamma 90.000000
_cell_volume 1331.191001
_symmetry_space_group_name_H-M "P C A 21"
_symmetry_group_IT_number 29
_symmetry_cell_setting 'orthorhombic'
loop_
_space_group_symop_operation_xyz
x,y,z
-x,-y,1/2+z
1/2-x,y,1/2+z
1/2+x,-y,z
loop_
_atom_site_type_symbol
_atom_site_label
_atom_site_fract_x
_atom_site_fract_y
_atom_site_fract_z
Si Si1 0.486299 0.884630 0.877120
Si Si2 0.423390 0.079845 0.872495
Si Si3 0.569280 0.279457 0.097924
Si Si4 0.784613 0.403824 0.159878
Si Si5 0.435973 0.565227 0.957437
Si Si6 0.942296 0.641050 0.784446
Si Si7 0.800329 0.773212 0.795310
Si Si8 0.775736 0.200329 0.541276
O O1 0.549195 0.894948 0.655139
O O2 0.448447 0.783384 0.845300
O O3 0.422918 0.966503 0.847403
O O4 0.520619 0.882252 0.155942
O O5 0.341641 0.125438 0.813848
O O6 0.592533 0.383488 0.200073
O O7 0.496557 0.283103 0.918279
O O8 0.638788 0.226806 0.961987
O O9 0.746868 0.453642 0.404358
O O10 0.875649 0.412464 0.180318
O O11 0.765384 0.294153 0.150228
O O12 0.518832 0.608152 0.021073
O O13 0.437691 0.453358 0.949033
O O14 0.861053 0.689214 0.757323
O O15 0.753985 0.763450 0.054692
O O16 0.734300 0.143970 0.310285
#
# Coordination Sequence:
#
# PCOD8168678 Si02
#       8
#     4   4   4   4   4   4   4   4
#     4  10  22  39  77 105 132 175 224 299 351 441
#     4  10  21  46  70 105 136 170 236 287 363 426
#     4  12  23  41  66  98 134 181 225 300 353 413
#     4  10  20  38  59  84 119 172 211 265 342 403
#     4  12  25  40  68  92 140 184 240 315 340 408
#     4  12  27  43  66 101 134 188 256 295 364 418
#     4  12  28  49  74 102 149 199 240 309 368 443
#     4  10  20  36  56  85 122 167 204 254 339 404
#
# _framework density 24.038623000000001
#
# number of rings (size 3 to 8) (size 9 to 14) (size 15 to 20)
#    0.000    1.000    5.000    3.000    1.750    1.000 
#    0.000    1.250    0.000    0.000    0.000    0.000 
#    0.000    0.000    0.000    0.000    0.000    0.000 
#
# Total GULP energy -396508.627524 kJ/mol
# GULP energy per Si atom -12390.894610 kJ/mol
# Density = 2.398391 g / cm^3
# Si number density = 24.038623 Si / 1000 Ang^3
#
#
#
# Elastic Constant Matrix: (Units=GPa)
#
#
# Indices 1 2 3 4 5 6 
#
# 1 128.5473 33.9778 34.4824 0.0000 0.0000 0.0000
# 2 33.9778 82.3877 13.4129 0.0000 0.0000 0.0000
# 3 34.4824 13.4129 129.0672 0.0000 0.0000 0.0000
# 4 0.0000 0.0000 0.0000 27.7880 0.0000 0.0000
# 5 0.0000 0.0000 0.0000 0.0000 41.5329 0.0000
# 6 0.0000 0.0000 0.0000 0.0000 0.0000 31.6376
#
#
#
# Elastic Compliance Matrix: (Units=1/GPa)
#
#
# Indices 1 2 3 4 5 6 
#
# 1 0.009265 -0.003477 -0.002114 0.000000 0.000000 0.000000
# 2 -0.003477 0.013651 -0.000490 0.000000 0.000000 0.000000
# 3 -0.002114 -0.000490 0.008364 0.000000 0.000000 0.000000
# 4 0.000000 0.000000 0.000000 0.035987 0.000000 0.000000
# 5 0.000000 0.000000 0.000000 0.000000 0.024077 0.000000
# 6 0.000000 0.000000 0.000000 0.000000 0.000000 0.031608
#
#
# Mechanical properties :
#
#
# Convention : Reuss Voigt Hill
#
# Bulk Modulus (GPa) = 52.30454 55.97207 54.13830
# Shear Modulus (GPa) = 35.33894 37.40029 36.36961
#
# Velocity S-wave (km/s) = 3.83833 3.94870 3.89391
# Velocity P-wave (km/s) = 6.43813 6.64262 6.54117
#
# Compressibility (1/GPa) = 0.01911880
#
# Stress axis : x y z
#
# Youngs Moduli (GPa) = 107.92875 73.25237 119.56572
#
# Poissons Ratio (x) = 0.25470 0.25277
# Poissons Ratio (y) = 0.37527 0.05856
# Poissons Ratio (z) = 0.22817 0.03588
#
# Static dielectric constant tensor:
#      x y z
#    x 4.344880 0.000000 0.000000 
#    y 0.000000 4.214980 0.000000 
#    z 0.000000 0.000000 4.675370 
# 
# 
# High freq. dielectric constant tensor:
#      x y z
#    x 1.947180 0.000000 0.000000 
#    y 0.000000 1.927940 0.000000 
#    z 0.000000 0.000000 1.972800 
# 
# From -- ./inp_files/460.got.cif
#   From: 2010.03.12/outbox.cif.g09.slc.cpg/sg29_1_cif.got.tgz:460.got - 2010.04.14 03:43:10.
