data_PCOD8168833
_publ_section_title
;
Structure prediction by ZEFSAII (Michael W. Deem and Ramdas Pophale) SiO2 
 PCOD8168833
Probable space group: P C A 21
;
_chemical_formula_sum "Si O2"
_cell_formula_units_Z 28
_cell_length_a 5.099193
_cell_length_b 13.621822
_cell_length_c 17.152568
_cell_angle_alpha 90.000000
_cell_angle_beta 90.000000
_cell_angle_gamma 90.000000
_cell_volume 1191.422509
_symmetry_space_group_name_H-M "P C A 21"
_symmetry_group_IT_number 29
_symmetry_cell_setting 'orthorhombic'
loop_
_space_group_symop_operation_xyz
x,y,z
-x,-y,1/2+z
1/2-x,y,1/2+z
1/2+x,-y,z
loop_
_atom_site_type_symbol
_atom_site_label
_atom_site_fract_x
_atom_site_fract_y
_atom_site_fract_z
Si Si1 0.977227 0.248730 0.639290
Si Si2 0.408316 0.936556 0.357884
Si Si3 0.878323 0.442167 0.718706
Si Si4 0.969094 0.057515 0.027195
Si Si5 0.014472 0.135995 0.187181
Si Si6 0.630969 0.436568 0.399044
Si Si7 0.205073 0.769295 0.970332
O O1 0.198816 0.184074 0.680910
O O2 0.000803 0.361827 0.661618
O O3 0.698192 0.220154 0.675018
O O4 0.988531 0.236569 0.545416
O O5 0.464624 0.917291 0.267777
O O6 0.442324 0.831216 0.402361
O O7 0.617339 0.022124 0.378257
O O8 0.574866 0.466876 0.702105
O O9 0.887915 0.408290 0.808499
O O10 0.980942 0.052791 0.120831
O O11 0.703724 0.007053 0.993587
O O12 0.965177 0.170130 0.997955
O O13 0.351004 0.483051 0.421885
O O14 0.692809 0.336842 0.444977
#
# Coordination Sequence:
#
# PCOD8168833 Si02
#       7
#     4   4   4   4   4   4   4
#     4  11  24  41  66  97 129 175 222 273 338 398
#     4  12  26  44  67  99 133 177 224 273 331 400
#     4  10  21  41  66  93 124 165 219 277 327 388
#     4  11  22  40  63  92 129 173 217 267 326 392
#     4  11  23  42  66  93 129 176 226 272 320 395
#     4  10  24  43  67  96 132 176 222 275 339 399
#     4  11  26  43  67 100 140 176 220 281 345 408
#
# _framework density 23.501318999999999
#
# number of rings (size 3 to 8) (size 9 to 14) (size 15 to 20)
#    0.000    1.143    0.000    6.000    0.000   10.286 
#    0.000    0.000    0.000    0.000    0.000    0.000 
#    0.000    0.000    0.000    0.000    0.000    0.000 
#
# Total GULP energy -347159.198583 kJ/mol
# GULP energy per Si atom -12398.542807 kJ/mol
# Density = 2.344783 g / cm^3
# Si number density = 23.501319 Si / 1000 Ang^3
#
#
#
# Elastic Constant Matrix: (Units=GPa)
#
#
# Indices 1 2 3 4 5 6 
#
# 1 116.8934 38.7133 43.5328 0.0000 0.0000 0.0000
# 2 38.7133 120.4594 49.3282 0.0000 0.0000 0.0000
# 3 43.5328 49.3282 99.2098 0.0000 0.0000 0.0000
# 4 0.0000 0.0000 0.0000 46.7240 0.0000 0.0000
# 5 0.0000 0.0000 0.0000 0.0000 24.2805 0.0000
# 6 0.0000 0.0000 0.0000 0.0000 0.0000 27.7377
#
#
#
# Elastic Compliance Matrix: (Units=1/GPa)
#
#
# Indices 1 2 3 4 5 6 
#
# 1 0.010554 -0.001878 -0.003697 0.000000 0.000000 0.000000
# 2 -0.001878 0.010758 -0.004525 0.000000 0.000000 0.000000
# 3 -0.003697 -0.004525 0.013952 0.000000 0.000000 0.000000
# 4 0.000000 0.000000 0.000000 0.021402 0.000000 0.000000
# 5 0.000000 0.000000 0.000000 0.000000 0.041185 0.000000
# 6 0.000000 0.000000 0.000000 0.000000 0.000000 0.036052
#
#
# Mechanical properties :
#
#
# Convention : Reuss Voigt Hill
#
# Bulk Modulus (GPa) = 66.38581 66.63456 66.51019
# Shear Modulus (GPa) = 31.42197 33.41433 32.41815
#
# Velocity S-wave (km/s) = 3.66051 3.77478 3.71808
# Velocity P-wave (km/s) = 6.79520 6.88576 6.84063
#
# Compressibility (1/GPa) = 0.01506346
#
# Stress axis : x y z
#
# Youngs Moduli (GPa) = 94.75462 92.95387 71.67474
#
# Poissons Ratio (x) = 0.17454 0.26500
# Poissons Ratio (y) = 0.17792 0.32433
# Poissons Ratio (z) = 0.35033 0.42062
#
# Static dielectric constant tensor:
#      x y z
#    x 4.292850 0.000000 0.000000 
#    y 0.000000 4.050890 0.000000 
#    z 0.000000 0.000000 4.516580 
# 
# 
# High freq. dielectric constant tensor:
#      x y z
#    x 1.935780 0.000000 0.000000 
#    y 0.000000 1.925300 0.000000 
#    z 0.000000 0.000000 1.952370 
# 
# From -- ./inp_files/4889.got.cif
#   From: 2010.03.12/outbox.cif.g09.slc.cpg/sg29_3_cif.got.tgz:4889.got - 2010.04.14 03:43:10.
