data_PCOD8168249
_publ_section_title
;
Structure prediction by ZEFSAII (Michael W. Deem and Ramdas Pophale) SiO2 
 PCOD8168249
Probable space group: P M A 2
;
_chemical_formula_sum "Si O2"
_cell_formula_units_Z 32
_cell_length_a 8.714245
_cell_length_b 14.288657
_cell_length_c 15.467642
_cell_angle_alpha 90.000000
_cell_angle_beta 90.000000
_cell_angle_gamma 90.000000
_cell_volume 1925.951244
_symmetry_space_group_name_H-M "P M A 2"
_symmetry_group_IT_number 28
_symmetry_cell_setting 'orthorhombic'
loop_
_space_group_symop_operation_xyz
x,y,z
-x,-y,z
1/2-x,y,z
1/2+x,-y,z
loop_
_atom_site_type_symbol
_atom_site_label
_atom_site_fract_x
_atom_site_fract_y
_atom_site_fract_z
Si Si1 0.571513 0.601066 0.295970
Si Si2 0.068576 0.601779 0.781359
Si Si3 0.068250 0.603889 0.466849
Si Si4 0.430658 0.710809 0.951813
Si Si5 0.569484 0.095959 0.875781
Si Si6 0.572470 0.601876 0.105158
Si Si7 0.431810 0.902987 0.676605
Si Si8 0.931921 0.715715 0.625357
O O1 0.500000 0.500000 0.286682
O O2 0.750000 0.594555 0.320117
O O3 0.483024 0.651897 0.375260
O O4 0.545998 0.646391 0.201167
O O5 0.250000 0.599765 0.766874
O O6 0.024035 0.638942 0.875973
O O7 0.000000 0.500000 0.767825
O O8 0.995603 0.670728 0.712389
O O9 0.250000 0.600116 0.474493
O O10 0.000000 0.500000 0.472494
O O11 0.000244 0.664147 0.543268
O O12 0.250000 0.713327 0.963981
O O13 0.492482 0.814870 0.929403
O O14 0.505565 0.677947 0.040295
O O15 0.750000 0.088615 0.883230
O O16 0.520115 0.110013 0.776502
O O17 0.500000 0.000000 0.914007
O O18 0.500000 0.500000 0.091897
O O19 0.750000 0.587687 0.085773
O O20 0.250000 0.899444 0.663622
O O21 0.512165 0.822444 0.620862
O O22 0.500000 0.000000 0.641116
O O23 0.750000 0.709148 0.623679
#
# Coordination Sequence:
#
# PCOD8168249 Si02
#       8
#     4   4   4   4   4   4   4   4
#     4   9  17  31  49  71  98 127 163 206 249 294
#     4  11  22  36  48  66  98 135 172 209 244 291
#     4  11  21  34  52  74 101 133 168 208 250 299
#     4  10  20  34  50  70  99 132 167 206 247 293
#     4   9  18  33  51  72  96 126 162 207 252 292
#     4  10  20  32  49  73 101 133 168 206 247 294
#     4  10  19  35  54  75 100 128 166 210 255 297
#     4  12  23  35  51  73  99 134 171 206 250 298
#
# _framework density 16.615165999999999
#
# number of rings (size 3 to 8) (size 9 to 14) (size 15 to 20)
#    0.000    1.750    1.250    5.250    0.000    4.500 
#    0.000    0.000    0.000    0.000    0.000    0.875 
#    0.000    4.000    0.000    0.000    0.000    0.000 
#
# Total GULP energy -396753.674948 kJ/mol
# GULP energy per Si atom -12398.552342 kJ/mol
# Density = 1.657735 g / cm^3
# Si number density = 16.615166 Si / 1000 Ang^3
#
#
#
# Elastic Constant Matrix: (Units=GPa)
#
#
# Indices 1 2 3 4 5 6 
#
# 1 85.8389 41.5858 49.7634 0.0000 0.0000 0.0000
# 2 41.5858 97.2718 40.4615 0.0000 0.0000 0.0000
# 3 49.7634 40.4615 101.0126 0.0000 0.0000 0.0000
# 4 0.0000 0.0000 0.0000 5.7889 0.0000 0.0000
# 5 0.0000 0.0000 0.0000 0.0000 32.9200 0.0000
# 6 0.0000 0.0000 0.0000 0.0000 0.0000 28.3755
#
#
#
# Elastic Compliance Matrix: (Units=1/GPa)
#
#
# Indices 1 2 3 4 5 6 
#
# 1 0.018005 -0.004809 -0.006944 0.000000 0.000000 0.000000
# 2 -0.004809 0.013620 -0.003087 0.000000 0.000000 0.000000
# 3 -0.006944 -0.003087 0.014557 0.000000 0.000000 0.000000
# 4 0.000000 0.000000 0.000000 0.172743 0.000000 0.000000
# 5 0.000000 0.000000 0.000000 0.000000 0.030377 0.000000
# 6 0.000000 0.000000 0.000000 0.000000 0.000000 0.035242
#
#
# Mechanical properties :
#
#
# Convention : Reuss Voigt Hill
#
# Bulk Modulus (GPa) = 60.59362 60.86053 60.72708
# Shear Modulus (GPa) = 15.63850 23.57107 19.60478
#
# Velocity S-wave (km/s) = 3.07126 3.77058 3.43874
# Velocity P-wave (km/s) = 7.00891 7.46092 7.23845
#
# Compressibility (1/GPa) = 0.01650339
#
# Stress axis : x y z
#
# Youngs Moduli (GPa) = 55.53974 73.41922 68.69593
#
# Poissons Ratio (x) = 0.35309 0.47701
# Poissons Ratio (y) = 0.26710 0.21203
# Poissons Ratio (z) = 0.38565 0.22661
#
# Static dielectric constant tensor:
#      x y z
#    x 3.127780 0.000000 0.000000 
#    y 0.000000 3.078690 0.000000 
#    z 0.000000 0.000000 3.592090 
# 
# 
# High freq. dielectric constant tensor:
#      x y z
#    x 1.656080 0.000000 0.000000 
#    y 0.000000 1.620470 0.000000 
#    z 0.000000 0.000000 1.633180 
# 
# From -- ./inp_files/6434.got.cif
#   From: 2010.03.12/outbox.cif.g09.slc.cpg/sg28_4_cif.got.tgz:6434.got - 2010.04.14 03:39:34.
