data_PCOD8168781
_publ_section_title
;
Structure prediction by ZEFSAII (Michael W. Deem and Ramdas Pophale) SiO2 
 PCOD8168781
Probable space group: P C A 21
;
_chemical_formula_sum "Si O2"
_cell_formula_units_Z 28
_cell_length_a 14.213594
_cell_length_b 5.777249
_cell_length_c 14.991018
_cell_angle_alpha 90.000000
_cell_angle_beta 90.000000
_cell_angle_gamma 90.000000
_cell_volume 1230.994515
_symmetry_space_group_name_H-M "P C A 21"
_symmetry_group_IT_number 29
_symmetry_cell_setting 'orthorhombic'
loop_
_space_group_symop_operation_xyz
x,y,z
-x,-y,1/2+z
1/2-x,y,1/2+z
1/2+x,-y,z
loop_
_atom_site_type_symbol
_atom_site_label
_atom_site_fract_x
_atom_site_fract_y
_atom_site_fract_z
Si Si1 0.616892 0.750000 0.994250
Si Si2 0.608530 0.837121 0.703782
Si Si3 0.199763 0.003974 0.155852
Si Si4 0.391470 0.337121 0.784718
Si Si5 0.943067 0.382710 0.620386
Si Si6 0.300237 0.496026 0.332649
Si Si7 0.443067 0.882710 0.368114
O O1 0.682021 0.688046 0.910998
O O2 0.555025 0.971610 0.961109
O O3 0.555025 0.528390 0.027391
O O4 0.682021 0.811954 0.077502
O O5 0.534987 0.781764 0.624047
O O6 0.657631 0.602088 0.739814
O O7 0.687315 0.016936 0.667046
O O8 0.548196 0.949022 0.783262
O O9 0.154629 0.759405 0.128725
O O10 0.157631 0.102088 0.248686
O O11 0.451804 0.449022 0.705238
O O12 0.312685 0.516936 0.821454
O O13 0.465013 0.281764 0.864453
O O14 0.345371 0.740595 0.359775
#
# Coordination Sequence:
#
# PCOD8168781 Si02
#       7
#     4   4   4   4   4   4   4
#     4  10  24  40  60  90 140 170 212 268 332 382
#     4  10  21  37  69  93 121 167 224 260 330 380
#     4  10  21  41  61  91 130 168 213 272 315 397
#     4  10  21  37  69  93 121 167 224 260 330 380
#     4  11  20  41  66  98 127 172 213 278 318 393
#     4  10  21  41  61  91 130 168 213 272 315 397
#     4  11  20  41  66  98 127 172 213 278 318 393
#
# _framework density 22.745836000000001
#
# number of rings (size 3 to 8) (size 9 to 14) (size 15 to 20)
#    0.000    1.714    2.857    1.714    0.000    0.000 
#    5.143    0.000    0.000    0.000    0.000    0.000 
#    0.000    0.000    0.000    0.000    0.000    0.000 
#
# Total GULP energy -347200.121142 kJ/mol
# GULP energy per Si atom -12400.004326 kJ/mol
# Density = 2.269407 g / cm^3
# Si number density = 22.745836 Si / 1000 Ang^3
#
#
#
# Elastic Constant Matrix: (Units=GPa)
#
#
# Indices 1 2 3 4 5 6 
#
# 1 147.1851 40.4393 42.0584 0.0000 0.0000 0.0000
# 2 40.4393 88.4148 18.5073 0.0000 0.0000 0.0000
# 3 42.0584 18.5073 84.5086 0.0000 0.0000 0.0000
# 4 0.0000 0.0000 0.0000 47.0396 0.0000 0.0000
# 5 0.0000 0.0000 0.0000 0.0000 22.9545 0.0000
# 6 0.0000 0.0000 0.0000 0.0000 0.0000 30.3010
#
#
#
# Elastic Compliance Matrix: (Units=1/GPa)
#
#
# Indices 1 2 3 4 5 6 
#
# 1 0.008719 -0.003228 -0.003632 0.000000 0.000000 0.000000
# 2 -0.003228 0.013048 -0.001251 0.000000 0.000000 0.000000
# 3 -0.003632 -0.001251 0.013915 0.000000 0.000000 0.000000
# 4 0.000000 0.000000 0.000000 0.021259 0.000000 0.000000
# 5 0.000000 0.000000 0.000000 0.000000 0.043564 0.000000
# 6 0.000000 0.000000 0.000000 0.000000 0.000000 0.033002
#
#
# Mechanical properties :
#
#
# Convention : Reuss Voigt Hill
#
# Bulk Modulus (GPa) = 51.38800 58.01317 54.70058
# Shear Modulus (GPa) = 32.00681 34.66591 33.33636
#
# Velocity S-wave (km/s) = 3.75527 3.90815 3.83247
# Velocity P-wave (km/s) = 6.43771 6.77681 6.60943
#
# Compressibility (1/GPa) = 0.01945980
#
# Stress axis : x y z
#
# Youngs Moduli (GPa) = 114.69340 76.63741 71.86514
#
# Poissons Ratio (x) = 0.24735 0.26104
# Poissons Ratio (y) = 0.37017 0.08993
# Poissons Ratio (z) = 0.41661 0.09590
#
# Static dielectric constant tensor:
#      x y z
#    x 4.004080 0.000000 0.000000 
#    y 0.000000 4.118370 0.000000 
#    z 0.000000 0.000000 3.998380 
# 
# 
# High freq. dielectric constant tensor:
#      x y z
#    x 1.881230 0.000000 0.000000 
#    y 0.000000 1.896060 0.000000 
#    z 0.000000 0.000000 1.884480 
# 
# From -- ./inp_files/4652.got.cif
#   From: 2010.03.12/outbox.cif.g09.slc.cpg/sg29_3_cif.got.tgz:4652.got - 2010.04.14 03:43:10.
