data_PCOD8168548
_publ_section_title
;
Structure prediction by ZEFSAII (Michael W. Deem and Ramdas Pophale) SiO2 
 PCOD8168548
Probable space group: P C A 21
;
_chemical_formula_sum "Si O2"
_cell_formula_units_Z 24
_cell_length_a 27.567723
_cell_length_b 8.599857
_cell_length_c 4.985741
_cell_angle_alpha 90.000000
_cell_angle_beta 90.000000
_cell_angle_gamma 90.000000
_cell_volume 1182.011876
_symmetry_space_group_name_H-M "P C A 21"
_symmetry_group_IT_number 29
_symmetry_cell_setting 'orthorhombic'
loop_
_space_group_symop_operation_xyz
x,y,z
-x,-y,1/2+z
1/2-x,y,1/2+z
1/2+x,-y,z
loop_
_atom_site_type_symbol
_atom_site_label
_atom_site_fract_x
_atom_site_fract_y
_atom_site_fract_z
Si Si1 0.874885 0.644789 0.767680
Si Si2 0.723799 0.566635 0.469071
Si Si3 0.476893 0.072702 0.434313
Si Si4 0.723799 0.933357 0.564680
Si Si5 0.476894 0.427300 0.599397
Si Si6 0.374883 0.144794 0.266120
O O1 0.830995 0.533365 0.866959
O O2 0.920738 0.541713 0.677659
O O3 0.856460 0.750002 0.516906
O O4 0.892415 0.749994 0.016906
O O5 0.737771 0.493619 0.756109
O O6 0.729627 0.749996 0.516871
O O7 0.485185 0.250004 0.516836
O O8 0.420735 0.041709 0.356113
O O9 0.488647 0.961735 0.683109
O O10 0.737768 0.006371 0.277634
O O11 0.669008 0.966625 0.666823
O O12 0.511359 0.461734 0.850581
#
# Coordination Sequence:
#
# PCOD8168548 Si02
#       6
#     4   4   4   4   4   4
#     4  10  18  29  45  68  99 134 167 205 258 308
#     4   9  15  23  38  62  94 129 160 194 246 311
#     4  11  22  37  55  77 106 140 178 219 263 310
#     4   9  15  23  38  62  94 129 160 194 246 311
#     4  11  22  37  55  77 106 140 178 219 263 310
#     4  10  18  29  45  68  99 134 167 205 258 308
#
# _framework density 20.304364
#
# number of rings (size 3 to 8) (size 9 to 14) (size 15 to 20)
#    0.000    2.000    0.000   10.000    0.000    0.000 
#    0.000    0.000    0.000    0.000    0.000    0.000 
#    0.000   26.667    0.000    0.000    0.000    0.000 
#
# Total GULP energy -297410.012487 kJ/mol
# GULP energy per Si atom -12392.083854 kJ/mol
# Density = 2.025815 g / cm^3
# Si number density = 20.304364 Si / 1000 Ang^3
#
#
#
# Elastic Constant Matrix: (Units=GPa)
#
#
# Indices 1 2 3 4 5 6 
#
# 1 158.2180 41.5116 62.2227 0.0000 0.0000 0.0000
# 2 41.5116 21.0610 19.7060 0.0000 0.0000 0.0000
# 3 62.2227 19.7060 140.0796 0.0000 0.0000 0.0000
# 4 0.0000 0.0000 0.0000 24.0544 0.0000 0.0000
# 5 0.0000 0.0000 0.0000 0.0000 22.3751 0.0000
# 6 0.0000 0.0000 0.0000 0.0000 0.0000 2.8791
#
#
#
# Elastic Compliance Matrix: (Units=1/GPa)
#
#
# Indices 1 2 3 4 5 6 
#
# 1 0.013908 -0.024911 -0.002673 0.000000 0.000000 0.000000
# 2 -0.024911 0.099297 -0.002904 0.000000 0.000000 0.000000
# 3 -0.002673 -0.002904 0.008735 0.000000 0.000000 0.000000
# 4 0.000000 0.000000 0.000000 0.041572 0.000000 0.000000
# 5 0.000000 0.000000 0.000000 0.000000 0.044692 0.000000
# 6 0.000000 0.000000 0.000000 0.000000 0.000000 0.347327
#
#
# Mechanical properties :
#
#
# Convention : Reuss Voigt Hill
#
# Bulk Modulus (GPa) = 16.40307 62.91547 39.65927
# Shear Modulus (GPa) = 7.85142 22.92296 15.38719
#
# Velocity S-wave (km/s) = 1.96857 3.36366 2.75585
# Velocity P-wave (km/s) = 3.64186 6.79257 5.44987
#
# Compressibility (1/GPa) = 0.06096420
#
# Stress axis : x y z
#
# Youngs Moduli (GPa) = 71.90363 10.07079 114.48537
#
# Poissons Ratio (x) = 0.25087 0.30605
# Poissons Ratio (y) = 1.79116 0.33243
# Poissons Ratio (z) = 0.19222 0.02924
#
# Static dielectric constant tensor:
#      x y z
#    x 3.909900 0.000000 0.000000 
#    y 0.000000 2.850580 0.000000 
#    z 0.000000 0.000000 4.447810 
# 
# 
# High freq. dielectric constant tensor:
#      x y z
#    x 1.806870 0.000000 0.000000 
#    y 0.000000 1.688980 0.000000 
#    z 0.000000 0.000000 1.834690 
# 
# From -- ./inp_files/763.got.cif
#   From: 2010.03.12/outbox.cif.g09.slc.cpg/sg29_1_cif.got.tgz:763.got - 2010.04.14 03:43:10.
