data_PCOD8168770
_publ_section_title
;
Structure prediction by ZEFSAII (Michael W. Deem and Ramdas Pophale) SiO2 
 PCOD8168770
Probable space group: P C A 21
;
_chemical_formula_sum "Si O2"
_cell_formula_units_Z 28
_cell_length_a 13.138865
_cell_length_b 10.863367
_cell_length_c 9.319278
_cell_angle_alpha 90.000000
_cell_angle_beta 90.000000
_cell_angle_gamma 90.000000
_cell_volume 1330.162099
_symmetry_space_group_name_H-M "P C A 21"
_symmetry_group_IT_number 29
_symmetry_cell_setting 'orthorhombic'
loop_
_space_group_symop_operation_xyz
x,y,z
-x,-y,1/2+z
1/2-x,y,1/2+z
1/2+x,-y,z
loop_
_atom_site_type_symbol
_atom_site_label
_atom_site_fract_x
_atom_site_fract_y
_atom_site_fract_z
Si Si1 0.946485 0.234075 0.244680
Si Si2 0.467717 0.354102 0.474080
Si Si3 0.245528 0.915972 0.769234
Si Si4 0.851053 0.393892 0.480024
Si Si5 0.665530 0.329687 0.308286
Si Si6 0.947007 0.992221 0.666566
Si Si7 0.590042 0.899675 0.876545
O O1 0.846290 0.157841 0.191729
O O2 0.926535 0.299288 0.397447
O O3 0.036026 0.132968 0.260129
O O4 0.975230 0.333399 0.124949
O O5 0.400916 0.473606 0.492994
O O6 0.553563 0.372008 0.353305
O O7 0.393704 0.241610 0.425549
O O8 0.308876 0.811594 0.858279
O O9 0.327592 0.974550 0.662025
O O10 0.197595 0.029456 0.859468
O O11 0.748956 0.414927 0.386732
O O12 0.825105 0.340445 0.636237
O O13 0.975778 0.967783 0.501032
O O14 0.020407 0.097700 0.732512
#
# Coordination Sequence:
#
# PCOD8168770 Si02
#       7
#     4   4   4   4   4   4   4
#     4   9  22  40  64  94 126 171 216 267 324 390
#     4  11  22  44  64  95 131 167 221 274 323 383
#     4  10  21  36  64  92 126 162 215 256 329 395
#     4  11  24  43  66  94 127 174 226 263 321 395
#     4  11  23  39  71  89 124 173 219 268 327 395
#     4  10  21  38  63  91 133 158 211 265 328 389
#     4  10  23  38  62  97 125 167 206 273 324 387
#
# _framework density 21.050066999999999
#
# number of rings (size 3 to 8) (size 9 to 14) (size 15 to 20)
#    0.000    1.714    1.429    2.571    8.000    1.143 
#    7.714    0.000    0.000    0.000    0.000    0.000 
#    0.000    0.000    0.000    0.000    0.000    0.000 
#
# Total GULP energy -346957.789493 kJ/mol
# GULP energy per Si atom -12391.349625 kJ/mol
# Density = 2.100216 g / cm^3
# Si number density = 21.050067 Si / 1000 Ang^3
#
#
#
# Elastic Constant Matrix: (Units=GPa)
#
#
# Indices 1 2 3 4 5 6 
#
# 1 90.0131 53.5003 24.8323 0.0000 0.0000 0.0000
# 2 53.5003 99.7005 21.0444 0.0000 0.0000 0.0000
# 3 24.8323 21.0444 89.7478 0.0000 0.0000 0.0000
# 4 0.0000 0.0000 0.0000 26.1553 0.0000 0.0000
# 5 0.0000 0.0000 0.0000 0.0000 29.1105 0.0000
# 6 0.0000 0.0000 0.0000 0.0000 0.0000 44.3665
#
#
#
# Elastic Compliance Matrix: (Units=1/GPa)
#
#
# Indices 1 2 3 4 5 6 
#
# 1 0.016905 -0.008505 -0.002683 0.000000 0.000000 0.000000
# 2 -0.008505 0.014831 -0.001124 0.000000 0.000000 0.000000
# 3 -0.002683 -0.001124 0.012148 0.000000 0.000000 0.000000
# 4 0.000000 0.000000 0.000000 0.038233 0.000000 0.000000
# 5 0.000000 0.000000 0.000000 0.000000 0.034352 0.000000
# 6 0.000000 0.000000 0.000000 0.000000 0.000000 0.022540
#
#
# Mechanical properties :
#
#
# Convention : Reuss Voigt Hill
#
# Bulk Modulus (GPa) = 51.92277 53.13506 52.52892
# Shear Modulus (GPa) = 29.40253 31.93210 30.66732
#
# Velocity S-wave (km/s) = 3.74142 3.89904 3.82104
# Velocity P-wave (km/s) = 6.58667 6.75034 6.66900
#
# Compressibility (1/GPa) = 0.01925937
#
# Stress axis : x y z
#
# Youngs Moduli (GPa) = 59.15529 67.42546 82.31551
#
# Poissons Ratio (x) = 0.57345 0.22086
# Poissons Ratio (y) = 0.50311 0.09256
# Poissons Ratio (z) = 0.15872 0.07582
#
# Static dielectric constant tensor:
#      x y z
#    x 3.864380 0.000000 0.000000 
#    y 0.000000 3.833490 0.000000 
#    z 0.000000 0.000000 3.739740 
# 
# 
# High freq. dielectric constant tensor:
#      x y z
#    x 1.815400 0.000000 0.000000 
#    y 0.000000 1.818650 0.000000 
#    z 0.000000 0.000000 1.820150 
# 
# From -- ./inp_files/1467.got.cif
#   From: 2010.03.12/outbox.cif.g09.slc.cpg/sg29_1_cif.got.tgz:1467.got - 2010.04.14 03:43:10.
