data_PCOD8168072
_publ_section_title
;
Structure prediction by ZEFSAII (Michael W. Deem and Ramdas Pophale) SiO2 
 PCOD8168072
Probable space group: P M A 2
;
_chemical_formula_sum "Si O2"
_cell_formula_units_Z 24
_cell_length_a 9.007041
_cell_length_b 13.229957
_cell_length_c 11.470790
_cell_angle_alpha 90.000000
_cell_angle_beta 90.000000
_cell_angle_gamma 90.000000
_cell_volume 1366.891055
_symmetry_space_group_name_H-M "P M A 2"
_symmetry_group_IT_number 28
_symmetry_cell_setting 'orthorhombic'
loop_
_space_group_symop_operation_xyz
x,y,z
-x,-y,z
1/2-x,y,z
1/2+x,-y,z
loop_
_atom_site_type_symbol
_atom_site_label
_atom_site_fract_x
_atom_site_fract_y
_atom_site_fract_z
Si Si1 0.575317 0.604596 0.951950
Si Si2 0.588428 0.409247 0.592662
Si Si3 0.911523 0.248127 0.788447
Si Si4 0.427211 0.891931 0.587472
Si Si5 0.077949 0.398295 0.217388
Si Si6 0.423410 0.269982 0.429746
O O1 0.500000 0.500000 0.908150
O O2 0.750000 0.592434 0.933552
O O3 0.523093 0.705128 0.882909
O O4 0.528693 0.625423 0.085219
O O5 0.500000 0.500000 0.653792
O O6 0.750000 0.441005 0.541045
O O7 0.618513 0.327774 0.688945
O O8 0.477558 0.370940 0.493354
O O9 0.750000 0.223142 0.846354
O O10 0.975435 0.151621 0.715738
O O11 0.250000 0.897948 0.578725
O O12 0.484486 0.825291 0.477981
O O13 0.500000 0.000000 0.573344
O O14 0.250000 0.423759 0.223163
O O15 0.043549 0.297259 0.293952
O O16 0.000000 0.500000 0.264350
O O17 0.250000 0.249656 0.452855
#
# Coordination Sequence:
#
# PCOD8168072 Si02
#       6
#     4   4   4   4   4   4
#     4  10  19  31  48  71 101 136 171 203 237 280
#     4  10  19  29  42  65  97 128 160 198 241 290
#     4   9  19  33  48  69  96 125 159 199 241 289
#     4  10  21  37  56  77  99 123 157 202 253 303
#     4   9  19  32  47  71 102 136 170 203 237 279
#     4  10  19  32  50  71  97 128 163 201 243 291
#
# _framework density 17.558094000000001
#
# number of rings (size 3 to 8) (size 9 to 14) (size 15 to 20)
#    0.000    2.333    0.000    4.000    0.000    8.667 
#    0.000    0.000    0.000    1.000    0.000    2.333 
#    0.000    0.000    0.000    0.000    0.000    0.000 
#
# Total GULP energy -297349.620119 kJ/mol
# GULP energy per Si atom -12389.567505 kJ/mol
# Density = 1.751813 g / cm^3
# Si number density = 17.558094 Si / 1000 Ang^3
#
#
#
# Elastic Constant Matrix: (Units=GPa)
#
#
# Indices 1 2 3 4 5 6 
#
# 1 90.4215 51.3483 40.6458 0.0000 0.0000 0.0000
# 2 51.3483 87.9731 41.5131 0.0000 0.0000 0.0000
# 3 40.6458 41.5131 80.4573 0.0000 0.0000 0.0000
# 4 0.0000 0.0000 0.0000 15.7471 0.0000 0.0000
# 5 0.0000 0.0000 0.0000 0.0000 24.3482 0.0000
# 6 0.0000 0.0000 0.0000 0.0000 0.0000 26.6043
#
#
#
# Elastic Compliance Matrix: (Units=1/GPa)
#
#
# Indices 1 2 3 4 5 6 
#
# 1 0.017850 -0.008147 -0.004814 0.000000 0.000000 0.000000
# 2 -0.008147 0.018744 -0.005555 0.000000 0.000000 0.000000
# 3 -0.004814 -0.005555 0.017727 0.000000 0.000000 0.000000
# 4 0.000000 0.000000 0.000000 0.063504 0.000000 0.000000
# 5 0.000000 0.000000 0.000000 0.000000 0.041071 0.000000
# 6 0.000000 0.000000 0.000000 0.000000 0.000000 0.037588
#
#
# Mechanical properties :
#
#
# Convention : Reuss Voigt Hill
#
# Bulk Modulus (GPa) = 57.84262 58.42960 58.13611
# Shear Modulus (GPa) = 20.89615 21.69623 21.29619
#
# Velocity S-wave (km/s) = 3.45355 3.51904 3.48645
# Velocity P-wave (km/s) = 6.99412 7.06128 7.02778
#
# Compressibility (1/GPa) = 0.01728829
#
# Stress axis : x y z
#
# Youngs Moduli (GPa) = 56.02333 53.35074 56.41025
#
# Poissons Ratio (x) = 0.43465 0.27155
# Poissons Ratio (y) = 0.45642 0.31338
# Poissons Ratio (z) = 0.26969 0.29639
#
# Static dielectric constant tensor:
#      x y z
#    x 3.386290 0.000000 0.000000 
#    y 0.000000 5.714890 0.000000 
#    z 0.000000 0.000000 3.466560 
# 
# 
# High freq. dielectric constant tensor:
#      x y z
#    x 1.693570 0.000000 0.000000 
#    y 0.000000 1.652830 0.000000 
#    z 0.000000 0.000000 1.666750 
# 
# From -- ./inp_files/4684.got.cif
#   From: 2010.03.12/outbox.cif.g09.slc.cpg/sg28_3_cif.got.tgz:4684.got - 2010.04.14 03:39:34.
