data_PCOD8168972
_publ_section_title
;
Structure prediction by ZEFSAII (Michael W. Deem and Ramdas Pophale) SiO2 
 PCOD8168972
Probable space group: P C A 21
;
_chemical_formula_sum "Si O2"
_cell_formula_units_Z 28
_cell_length_a 17.741267
_cell_length_b 5.186986
_cell_length_c 12.632602
_cell_angle_alpha 90.000000
_cell_angle_beta 90.000000
_cell_angle_gamma 90.000000
_cell_volume 1162.498822
_symmetry_space_group_name_H-M "P C A 21"
_symmetry_group_IT_number 29
_symmetry_cell_setting 'orthorhombic'
loop_
_space_group_symop_operation_xyz
x,y,z
-x,-y,1/2+z
1/2-x,y,1/2+z
1/2+x,-y,z
loop_
_atom_site_type_symbol
_atom_site_label
_atom_site_fract_x
_atom_site_fract_y
_atom_site_fract_z
Si Si1 0.109271 0.503956 0.696450
Si Si2 0.027605 0.017858 0.776197
Si Si3 0.344157 0.618804 0.587562
Si Si4 0.238873 0.256997 0.825177
Si Si5 0.141339 0.892136 0.286180
Si Si6 0.185725 0.615583 0.485877
Si Si7 0.613558 0.899748 0.972726
O O1 0.057249 0.250673 0.702694
O O2 0.189104 0.458481 0.757119
O O3 0.122290 0.546964 0.571951
O O4 0.069140 0.750856 0.748232
O O5 0.040005 0.104760 0.898249
O O6 0.938791 0.977981 0.762416
O O7 0.348020 0.629192 0.716058
O O8 0.260950 0.689937 0.548429
O O9 0.379001 0.357631 0.542553
O O10 0.395379 0.857062 0.548909
O O11 0.295772 0.381363 0.908735
O O12 0.183273 0.070474 0.891106
O O13 0.291706 0.086351 0.747707
O O14 0.153005 0.841720 0.411263
#
# Coordination Sequence:
#
# PCOD8168972 Si02
#       7
#     4   4   4   4   4   4   4
#     4  11  27  48  77  99 155 195 240 289 381 430
#     4  11  27  48  71 110 148 198 232 301 363 448
#     4  11  25  42  73 106 141 188 244 302 351 423
#     4  10  24  44  74 105 136 189 247 302 343 430
#     4  12  28  43  77 109 150 178 257 302 358 425
#     4  11  25  44  73 109 139 190 249 303 354 430
#     4  10  22  47  69  98 145 192 233 285 376 422
#
# _framework density 24.086044999999999
#
# number of rings (size 3 to 8) (size 9 to 14) (size 15 to 20)
#    0.000    1.143    1.429    3.429   16.000    2.286 
#    0.000    0.000    0.000    0.000    0.000    0.000 
#    0.000    0.000    0.000    0.000    0.000    0.000 
#
# Total GULP energy -347145.772387 kJ/mol
# GULP energy per Si atom -12398.063300 kJ/mol
# Density = 2.403122 g / cm^3
# Si number density = 24.086045 Si / 1000 Ang^3
#
#
#
# Elastic Constant Matrix: (Units=GPa)
#
#
# Indices 1 2 3 4 5 6 
#
# 1 110.6888 48.0761 37.8986 0.0000 0.0000 0.0000
# 2 48.0761 126.0779 29.0593 0.0000 0.0000 0.0000
# 3 37.8986 29.0593 123.8279 0.0000 0.0000 0.0000
# 4 0.0000 0.0000 0.0000 31.6870 0.0000 0.0000
# 5 0.0000 0.0000 0.0000 0.0000 21.9417 0.0000
# 6 0.0000 0.0000 0.0000 0.0000 0.0000 25.7016
#
#
#
# Elastic Compliance Matrix: (Units=1/GPa)
#
#
# Indices 1 2 3 4 5 6 
#
# 1 0.011599 -0.003811 -0.002656 0.000000 0.000000 0.000000
# 2 -0.003811 0.009637 -0.001095 0.000000 0.000000 0.000000
# 3 -0.002656 -0.001095 0.009146 0.000000 0.000000 0.000000
# 4 0.000000 0.000000 0.000000 0.031559 0.000000 0.000000
# 5 0.000000 0.000000 0.000000 0.000000 0.045575 0.000000
# 6 0.000000 0.000000 0.000000 0.000000 0.000000 0.038908
#
#
# Mechanical properties :
#
#
# Convention : Reuss Voigt Hill
#
# Bulk Modulus (GPa) = 65.53878 65.62919 65.58398
# Shear Modulus (GPa) = 30.00609 32.23677 31.12143
#
# Velocity S-wave (km/s) = 3.53340 3.66238 3.59847
# Velocity P-wave (km/s) = 6.62691 6.72243 6.67484
#
# Compressibility (1/GPa) = 0.01525814
#
# Stress axis : x y z
#
# Youngs Moduli (GPa) = 86.21633 103.76484 109.34303
#
# Poissons Ratio (x) = 0.39542 0.29037
# Poissons Ratio (y) = 0.32855 0.11976
# Poissons Ratio (z) = 0.22896 0.11365
#
# Static dielectric constant tensor:
#      x y z
#    x 4.257450 0.000000 0.000000 
#    y 0.000000 4.154130 0.000000 
#    z 0.000000 0.000000 4.529630 
# 
# 
# High freq. dielectric constant tensor:
#      x y z
#    x 1.945000 0.000000 0.000000 
#    y 0.000000 1.954350 0.000000 
#    z 0.000000 0.000000 1.966390 
# 
# From -- ./inp_files/3620.got.cif
#   From: 2010.03.12/outbox.cif.g09.slc.cpg/sg29_2_cif.got.tgz:3620.got - 2010.04.14 03:43:10.
