data_PCOD8168923
_publ_section_title
;
Structure prediction by ZEFSAII (Michael W. Deem and Ramdas Pophale) SiO2 
 PCOD8168923
Probable space group: P C A 21
;
_chemical_formula_sum "Si O2"
_cell_formula_units_Z 20
_cell_length_a 11.838598
_cell_length_b 7.897668
_cell_length_c 10.317190
_cell_angle_alpha 90.000000
_cell_angle_beta 90.000000
_cell_angle_gamma 90.000000
_cell_volume 964.629580
_symmetry_space_group_name_H-M "P C A 21"
_symmetry_group_IT_number 29
_symmetry_cell_setting 'orthorhombic'
loop_
_space_group_symop_operation_xyz
x,y,z
-x,-y,1/2+z
1/2-x,y,1/2+z
1/2+x,-y,z
loop_
_atom_site_type_symbol
_atom_site_label
_atom_site_fract_x
_atom_site_fract_y
_atom_site_fract_z
Si Si1 0.250000 0.809293 0.454520
Si Si2 0.667594 0.864769 0.847779
Si Si3 0.461638 0.637193 0.850805
Si Si4 0.667593 0.864768 0.561261
Si Si5 0.038363 0.637194 0.058235
O O1 0.167809 0.690230 0.371692
O O2 0.332190 0.690231 0.537348
O O3 0.326129 0.930558 0.361766
O O4 0.173870 0.930558 0.547273
O O5 0.539776 0.803195 0.868331
O O6 0.710802 0.813333 0.704520
O O7 0.750000 0.777009 0.954520
O O8 0.473619 0.564212 0.704520
O O9 0.500001 0.499999 0.954519
O O10 0.539776 0.803195 0.540709
#
# Coordination Sequence:
#
# PCOD8168923 Si02
#       5
#     4   4   4   4   4
#     4  10  22  42  66  92 122 170 214 258 310 380
#     4   9  21  40  65  93 124 162 211 261 312 371
#     4  11  25  43  64  95 132 168 209 264 321 376
#     4   9  21  40  65  93 124 162 211 261 312 371
#     4  11  25  43  64  95 132 168 209 264 321 376
#
# _framework density 20.733346999999998
#
# number of rings (size 3 to 8) (size 9 to 14) (size 15 to 20)
#    1.200    0.800    0.000    2.400    2.800    4.800 
#    0.000    0.000    0.000    0.000    0.000    0.000 
#    0.000    0.000    0.000    0.000    0.000    0.000 
#
# Total GULP energy -247847.572628 kJ/mol
# GULP energy per Si atom -12392.378631 kJ/mol
# Density = 2.068616 g / cm^3
# Si number density = 20.733347 Si / 1000 Ang^3
#
#
#
# Elastic Constant Matrix: (Units=GPa)
#
#
# Indices 1 2 3 4 5 6 
#
# 1 109.7752 45.6526 66.7170 0.0000 0.0000 0.0000
# 2 45.6526 96.8121 56.5562 0.0000 0.0000 0.0000
# 3 66.7170 56.5562 173.1200 0.0000 0.0000 0.0000
# 4 0.0000 0.0000 0.0000 28.1418 0.0000 0.0000
# 5 0.0000 0.0000 0.0000 0.0000 36.3995 0.0000
# 6 0.0000 0.0000 0.0000 0.0000 0.0000 27.9085
#
#
#
# Elastic Compliance Matrix: (Units=1/GPa)
#
#
# Indices 1 2 3 4 5 6 
#
# 1 0.013021 -0.003966 -0.003723 0.000000 0.000000 0.000000
# 2 -0.003966 0.013973 -0.003037 0.000000 0.000000 0.000000
# 3 -0.003723 -0.003037 0.008203 0.000000 0.000000 0.000000
# 4 0.000000 0.000000 0.000000 0.035534 0.000000 0.000000
# 5 0.000000 0.000000 0.000000 0.000000 0.027473 0.000000
# 6 0.000000 0.000000 0.000000 0.000000 0.000000 0.035831
#
#
# Mechanical properties :
#
#
# Convention : Reuss Voigt Hill
#
# Bulk Modulus (GPa) = 72.73895 79.72877 76.23386
# Shear Modulus (GPa) = 31.23672 32.54208 31.88940
#
# Velocity S-wave (km/s) = 3.88570 3.96606 3.92608
# Velocity P-wave (km/s) = 7.43577 7.71431 7.57632
#
# Compressibility (1/GPa) = 0.01374779
#
# Stress axis : x y z
#
# Youngs Moduli (GPa) = 76.79827 71.56540 121.90686
#
# Poissons Ratio (x) = 0.28380 0.45381
# Poissons Ratio (y) = 0.30455 0.37019
# Poissons Ratio (z) = 0.28589 0.21732
#
# Static dielectric constant tensor:
#      x y z
#    x 3.634660 0.000000 0.000000 
#    y 0.000000 3.414350 0.000000 
#    z 0.000000 0.000000 3.818840 
# 
# 
# High freq. dielectric constant tensor:
#      x y z
#    x 1.808550 0.000000 0.000000 
#    y 0.000000 1.784470 0.000000 
#    z 0.000000 0.000000 1.820540 
# 
# From -- ./inp_files/1391.got.cif
#   From: 2010.03.12/outbox.cif.g09.slc.cpg/sg29_1_cif.got.tgz:1391.got - 2010.04.14 03:43:10.
