data_PCOD8168945
_publ_section_title
;
Structure prediction by ZEFSAII (Michael W. Deem and Ramdas Pophale) SiO2 
 PCOD8168945
Probable space group: P C A 21
;
_chemical_formula_sum "Si O2"
_cell_formula_units_Z 28
_cell_length_a 18.688236
_cell_length_b 7.588133
_cell_length_c 9.001145
_cell_angle_alpha 90.000000
_cell_angle_beta 90.000000
_cell_angle_gamma 90.000000
_cell_volume 1276.441754
_symmetry_space_group_name_H-M "P C A 21"
_symmetry_group_IT_number 29
_symmetry_cell_setting 'orthorhombic'
loop_
_space_group_symop_operation_xyz
x,y,z
-x,-y,1/2+z
1/2-x,y,1/2+z
1/2+x,-y,z
loop_
_atom_site_type_symbol
_atom_site_label
_atom_site_fract_x
_atom_site_fract_y
_atom_site_fract_z
Si Si1 0.117031 0.052441 0.947390
Si Si2 0.617537 0.917921 0.271139
Si Si3 0.245623 0.259030 0.861890
Si Si4 0.032037 0.797172 0.438797
Si Si5 0.336436 0.428460 0.097366
Si Si6 0.409314 0.733846 0.249981
Si Si7 0.455635 0.404564 0.885500
O O1 0.186157 0.175142 0.967872
O O2 0.049371 0.165848 0.892443
O O3 0.129791 0.894699 0.831610
O O4 0.105345 0.983014 0.114831
O O5 0.699618 0.895709 0.318699
O O6 0.583412 0.719887 0.264898
O O7 0.580631 0.039334 0.393036
O O8 0.201942 0.304979 0.714287
O O9 0.285357 0.421743 0.948861
O O10 0.038046 0.791096 0.617384
O O11 0.056497 0.614149 0.360019
O O12 0.345642 0.617125 0.177790
O O13 0.416589 0.362886 0.045863
O O14 0.459102 0.636628 0.375778
#
# Coordination Sequence:
#
# PCOD8168945 Si02
#       7
#     4   4   4   4   4   4   4
#     4  12  23  42  69 103 139 185 244 302 374 434
#     4  11  24  46  67 101 142 189 241 302 368 446
#     4  11  24  47  70  97 144 200 240 302 378 446
#     4  11  23  43  73 102 144 186 243 311 360 442
#     4  10  24  46  71  98 145 193 245 302 366 457
#     4  11  24  43  70 112 139 187 250 308 374 446
#     4  10  22  43  72 103 141 182 247 303 374 431
#
# _framework density 21.935980000000001
#
# number of rings (size 3 to 8) (size 9 to 14) (size 15 to 20)
#    0.000    1.143    4.286    0.857    4.000    3.429 
#   12.857    0.000    0.000    0.000    0.000    0.000 
#    0.000    0.000    0.000    0.000    0.000    0.000 
#
# Total GULP energy -346889.470980 kJ/mol
# GULP energy per Si atom -12388.909678 kJ/mol
# Density = 2.188605 g / cm^3
# Si number density = 21.935980 Si / 1000 Ang^3
#
#
#
# Elastic Constant Matrix: (Units=GPa)
#
#
# Indices 1 2 3 4 5 6 
#
# 1 135.6694 64.3834 42.4840 0.0000 0.0000 0.0000
# 2 64.3834 116.6474 53.6542 0.0000 0.0000 0.0000
# 3 42.4840 53.6542 97.6322 0.0000 0.0000 0.0000
# 4 0.0000 0.0000 0.0000 40.1524 0.0000 0.0000
# 5 0.0000 0.0000 0.0000 0.0000 36.3241 0.0000
# 6 0.0000 0.0000 0.0000 0.0000 0.0000 35.9913
#
#
#
# Elastic Compliance Matrix: (Units=1/GPa)
#
#
# Indices 1 2 3 4 5 6 
#
# 1 0.010218 -0.004811 -0.001803 0.000000 0.000000 0.000000
# 2 -0.004811 0.013738 -0.005456 0.000000 0.000000 0.000000
# 3 -0.001803 -0.005456 0.014025 0.000000 0.000000 0.000000
# 4 0.000000 0.000000 0.000000 0.024905 0.000000 0.000000
# 5 0.000000 0.000000 0.000000 0.000000 0.027530 0.000000
# 6 0.000000 0.000000 0.000000 0.000000 0.000000 0.027784
#
#
# Mechanical properties :
#
#
# Convention : Reuss Voigt Hill
#
# Bulk Modulus (GPa) = 72.24314 74.55470 73.39892
# Shear Modulus (GPa) = 34.02400 35.12205 34.57302
#
# Velocity S-wave (km/s) = 3.94262 4.00574 3.97430
# Velocity P-wave (km/s) = 7.33013 7.44686 7.38873
#
# Compressibility (1/GPa) = 0.01384215
#
# Stress axis : x y z
#
# Youngs Moduli (GPa) = 97.86262 72.79104 71.29888
#
# Poissons Ratio (x) = 0.35019 0.12853
# Poissons Ratio (y) = 0.47081 0.38903
# Poissons Ratio (z) = 0.17641 0.39717
#
# Static dielectric constant tensor:
#      x y z
#    x 4.140570 0.000000 0.000000 
#    y 0.000000 3.760830 0.000000 
#    z 0.000000 0.000000 4.005610 
# 
# 
# High freq. dielectric constant tensor:
#      x y z
#    x 1.867910 0.000000 0.000000 
#    y 0.000000 1.841170 0.000000 
#    z 0.000000 0.000000 1.864490 
# 
# From -- ./inp_files/2136.got.cif
#   From: 2010.03.12/outbox.cif.g09.slc.cpg/sg29_2_cif.got.tgz:2136.got - 2010.04.14 03:43:10.
