data_PCOD8168376
_publ_section_title
;
Structure prediction by ZEFSAII (Michael W. Deem and Ramdas Pophale) SiO2 
 PCOD8168376
Probable space group: P M A 2
;
_chemical_formula_sum "Si O2"
_cell_formula_units_Z 32
_cell_length_a 15.206557
_cell_length_b 11.845375
_cell_length_c 9.627828
_cell_angle_alpha 90.000000
_cell_angle_beta 90.000000
_cell_angle_gamma 90.000000
_cell_volume 1734.235338
_symmetry_space_group_name_H-M "P M A 2"
_symmetry_group_IT_number 28
_symmetry_cell_setting 'orthorhombic'
loop_
_space_group_symop_operation_xyz
x,y,z
-x,-y,z
1/2-x,y,z
1/2+x,-y,z
loop_
_atom_site_type_symbol
_atom_site_label
_atom_site_fract_x
_atom_site_fract_y
_atom_site_fract_z
Si Si1 0.647893 0.987797 0.792600
Si Si2 0.007421 0.628762 0.590153
Si Si3 0.848956 0.245073 0.086794
Si Si4 0.007505 0.629397 0.264534
Si Si5 0.149307 0.211023 0.589053
Si Si6 0.098584 0.006927 0.094916
Si Si7 0.352020 0.758334 0.767382
Si Si8 0.847339 0.785684 0.270320
O O1 0.750000 0.983189 0.832660
O O2 0.624315 0.111511 0.734812
O O3 0.621397 0.898682 0.675664
O O4 0.595343 0.958770 0.932721
O O5 0.089570 0.681539 0.669071
O O6 0.000000 0.500000 0.637228
O O7 0.026719 0.639738 0.427279
O O8 0.915210 0.687279 0.631296
O O9 0.750000 0.285387 0.117136
O O10 0.853706 0.111927 0.118296
O O11 0.911879 0.315072 0.185398
O O12 0.874576 0.268574 0.927354
O O13 0.917550 0.692489 0.221559
O O14 0.000000 0.500000 0.217722
O O15 0.250000 0.247572 0.621144
O O16 0.136143 0.178368 0.429031
O O17 0.149456 0.102153 0.179179
O O18 0.000000 0.000000 0.152902
O O19 0.250000 0.733235 0.735156
O O20 0.750000 0.731992 0.253815
#
# Coordination Sequence:
#
# PCOD8168376 Si02
#       8
#     4   4   4   4   4   4   4   4
#     4   9  19  35  54  82 111 141 179 217 267 332
#     4  10  22  37  56  80 108 144 186 228 271 317
#     4  10  21  38  57  81 114 146 179 226 275 324
#     4  10  22  39  56  81 109 143 192 232 269 325
#     4   9  20  36  55  79 110 143 179 224 272 322
#     4  11  20  33  56  85 112 143 178 221 273 331
#     4   9  20  37  56  80 111 143 177 221 273 324
#     4  10  20  37  56  79 112 146 180 226 275 325
#
# _framework density 18.451937999999998
#
# number of rings (size 3 to 8) (size 9 to 14) (size 15 to 20)
#    0.000    2.250    1.250    1.875    3.500    3.000 
#    0.000    3.750    0.000    1.500    0.000    0.000 
#    0.000    0.000    0.000    0.000    0.000    0.000 
#
# Total GULP energy -396868.855611 kJ/mol
# GULP energy per Si atom -12402.151738 kJ/mol
# Density = 1.840994 g / cm^3
# Si number density = 18.451938 Si / 1000 Ang^3
#
#
#
# Elastic Constant Matrix: (Units=GPa)
#
#
# Indices 1 2 3 4 5 6 
#
# 1 113.7572 66.2670 51.5146 0.0000 0.0000 0.0000
# 2 66.2670 140.2255 67.3765 0.0000 0.0000 0.0000
# 3 51.5146 67.3765 65.1135 0.0000 0.0000 0.0000
# 4 0.0000 0.0000 0.0000 4.3469 0.0000 0.0000
# 5 0.0000 0.0000 0.0000 0.0000 33.8559 0.0000
# 6 0.0000 0.0000 0.0000 0.0000 0.0000 22.1096
#
#
#
# Elastic Compliance Matrix: (Units=1/GPa)
#
#
# Indices 1 2 3 4 5 6 
#
# 1 0.014161 -0.002603 -0.008509 0.000000 0.000000 0.000000
# 2 -0.002603 0.014661 -0.013111 0.000000 0.000000 0.000000
# 3 -0.008509 -0.013111 0.035657 0.000000 0.000000 0.000000
# 4 0.000000 0.000000 0.000000 0.230051 0.000000 0.000000
# 5 0.000000 0.000000 0.000000 0.000000 0.029537 0.000000
# 6 0.000000 0.000000 0.000000 0.000000 0.000000 0.045229
#
#
# Mechanical properties :
#
#
# Convention : Reuss Voigt Hill
#
# Bulk Modulus (GPa) = 62.37929 76.60137 69.49033
# Shear Modulus (GPa) = 11.81784 20.99167 16.40476
#
# Velocity S-wave (km/s) = 2.53349 3.37655 2.98493
# Velocity P-wave (km/s) = 6.51443 7.53695 7.04427
#
# Compressibility (1/GPa) = 0.01603096
#
# Stress axis : x y z
#
# Youngs Moduli (GPa) = 70.61837 68.20592 28.04478
#
# Poissons Ratio (x) = 0.17756 0.23865
# Poissons Ratio (y) = 0.18384 0.36771
# Poissons Ratio (z) = 0.60092 0.89428
#
# Static dielectric constant tensor:
#      x y z
#    x 3.485350 0.000000 0.000000 
#    y 0.000000 3.373030 0.000000 
#    z 0.000000 0.000000 3.318420 
# 
# 
# High freq. dielectric constant tensor:
#      x y z
#    x 1.729160 0.000000 0.000000 
#    y 0.000000 1.706950 0.000000 
#    z 0.000000 0.000000 1.709970 
# 
# From -- ./inp_files/3531.got.cif
#   From: 2010.03.12/outbox.cif.g09.slc.cpg/sg28_2_cif.got.tgz:3531.got - 2010.04.14 03:39:34.
