data_PCOD8168739
_publ_section_title
;
Structure prediction by ZEFSAII (Michael W. Deem and Ramdas Pophale) SiO2 
 PCOD8168739
Probable space group: P C A 21
;
_chemical_formula_sum "Si O2"
_cell_formula_units_Z 20
_cell_length_a 13.434679
_cell_length_b 5.196475
_cell_length_c 14.447472
_cell_angle_alpha 90.000000
_cell_angle_beta 90.000000
_cell_angle_gamma 90.000000
_cell_volume 1008.620981
_symmetry_space_group_name_H-M "P C A 21"
_symmetry_group_IT_number 29
_symmetry_cell_setting 'orthorhombic'
loop_
_space_group_symop_operation_xyz
x,y,z
-x,-y,1/2+z
1/2-x,y,1/2+z
1/2+x,-y,z
loop_
_atom_site_type_symbol
_atom_site_label
_atom_site_fract_x
_atom_site_fract_y
_atom_site_fract_z
Si Si1 0.686477 0.086571 0.598770
Si Si2 0.646609 0.648782 0.359810
Si Si3 0.952115 0.143366 0.939276
Si Si4 0.825101 0.796659 0.480697
Si Si5 0.730001 0.593398 0.163634
O O1 0.580701 0.107321 0.546626
O O2 0.706780 0.331094 0.663386
O O3 0.769798 0.057149 0.516759
O O4 0.690995 0.831902 0.663756
O O5 0.584241 0.417938 0.403307
O O6 0.755801 0.656189 0.405186
O O7 0.657202 0.602971 0.250675
O O8 0.588006 0.914658 0.374888
O O9 0.070989 0.134513 0.934325
O O10 0.837374 0.608972 0.570312
#
# Coordination Sequence:
#
# PCOD8168739 Si02
#       5
#     4   4   4   4   4
#     4   9  19  39  59  81 117 158 191 242 296 347
#     4  11  23  40  59  92 121 152 206 243 294 357
#     4  11  21  39  62  85 119 163 196 244 300 354
#     4   9  23  39  63  83 126 157 192 247 301 346
#     4  10  20  41  59  85 123 154 191 256 285 348
#
# _framework density 19.829055
#
# number of rings (size 3 to 8) (size 9 to 14) (size 15 to 20)
#    1.200    0.800    2.000    1.200    2.800    0.000 
#    7.200    0.000    0.000    0.000    0.000    0.000 
#    0.000    0.000    0.000    0.000    0.000    0.000 
#
# Total GULP energy -247880.102209 kJ/mol
# GULP energy per Si atom -12394.005110 kJ/mol
# Density = 1.978392 g / cm^3
# Si number density = 19.829055 Si / 1000 Ang^3
#
#
#
# Elastic Constant Matrix: (Units=GPa)
#
#
# Indices 1 2 3 4 5 6 
#
# 1 112.6547 21.1396 17.8717 0.0000 0.0000 0.0000
# 2 21.1396 122.9867 6.3543 0.0000 0.0000 0.0000
# 3 17.8717 6.3543 64.4334 0.0000 0.0000 0.0000
# 4 0.0000 0.0000 0.0000 30.0756 0.0000 0.0000
# 5 0.0000 0.0000 0.0000 0.0000 9.3610 0.0000
# 6 0.0000 0.0000 0.0000 0.0000 0.0000 19.3943
#
#
#
# Elastic Compliance Matrix: (Units=1/GPa)
#
#
# Indices 1 2 3 4 5 6 
#
# 1 0.009558 -0.001514 -0.002502 0.000000 0.000000 0.000000
# 2 -0.001514 0.008412 -0.000410 0.000000 0.000000 0.000000
# 3 -0.002502 -0.000410 0.016254 0.000000 0.000000 0.000000
# 4 0.000000 0.000000 0.000000 0.033249 0.000000 0.000000
# 5 0.000000 0.000000 0.000000 0.000000 0.106826 0.000000
# 6 0.000000 0.000000 0.000000 0.000000 0.000000 0.051562
#
#
# Mechanical properties :
#
#
# Convention : Reuss Voigt Hill
#
# Bulk Modulus (GPa) = 39.41045 43.42290 41.41667
# Shear Modulus (GPa) = 20.56183 28.74680 24.65431
#
# Velocity S-wave (km/s) = 3.22367 3.81166 3.52993
# Velocity P-wave (km/s) = 5.81157 6.42790 6.12749
#
# Compressibility (1/GPa) = 0.02537398
#
# Stress axis : x y z
#
# Youngs Moduli (GPa) = 104.62908 118.87369 61.52256
#
# Poissons Ratio (x) = 0.17992 0.15391
# Poissons Ratio (y) = 0.15836 0.02521
# Poissons Ratio (z) = 0.26175 0.04871
#
# Static dielectric constant tensor:
#      x y z
#    x 3.230350 0.000000 0.000000 
#    y 0.000000 3.631570 0.000000 
#    z 0.000000 0.000000 3.425440 
# 
# 
# High freq. dielectric constant tensor:
#      x y z
#    x 1.744300 0.000000 0.000000 
#    y 0.000000 1.783810 0.000000 
#    z 0.000000 0.000000 1.761590 
# 
# From -- ./inp_files/3038.got.cif
#   From: 2010.03.12/outbox.cif.g09.slc.cpg/sg29_2_cif.got.tgz:3038.got - 2010.04.14 03:43:10.
