data_PCOD8168777
_publ_section_title
;
Structure prediction by ZEFSAII (Michael W. Deem and Ramdas Pophale) SiO2 
 PCOD8168777
Probable space group: P C A 21
;
_chemical_formula_sum "Si O2"
_cell_formula_units_Z 32
_cell_length_a 34.464068
_cell_length_b 8.879815
_cell_length_c 5.040823
_cell_angle_alpha 90.000000
_cell_angle_beta 90.000000
_cell_angle_gamma 90.000000
_cell_volume 1542.665988
_symmetry_space_group_name_H-M "P C A 21"
_symmetry_group_IT_number 29
_symmetry_cell_setting 'orthorhombic'
loop_
_space_group_symop_operation_xyz
x,y,z
-x,-y,1/2+z
1/2-x,y,1/2+z
1/2+x,-y,z
loop_
_atom_site_type_symbol
_atom_site_label
_atom_site_fract_x
_atom_site_fract_y
_atom_site_fract_z
Si Si1 0.987017 0.911978 0.543100
Si Si2 0.355092 0.671320 0.200098
Si Si3 0.726726 0.474813 0.708462
Si Si4 0.595978 0.978551 0.215430
Si Si5 0.773315 0.831134 0.212857
Si Si6 0.985520 0.418230 0.883339
Si Si7 0.596222 0.330951 0.202739
Si Si8 0.644697 0.977522 0.716102
O O1 0.943455 0.890342 0.650976
O O2 0.003704 0.750129 0.468333
O O3 0.987129 0.017802 0.281396
O O4 0.315836 0.585875 0.264893
O O5 0.387924 0.625612 0.413361
O O6 0.345888 0.847053 0.206332
O O7 0.370525 0.624918 0.912052
O O8 0.743798 0.414862 0.432439
O O9 0.724048 0.652969 0.710907
O O10 0.612313 0.929996 0.500901
O O11 0.585789 0.154881 0.214028
O O12 0.628572 0.933154 0.003170
O O13 0.756058 0.891215 0.488299
O O14 0.815977 0.891105 0.157880
O O15 0.942048 0.425683 0.767949
O O16 0.012764 0.476179 0.643764
#
# Coordination Sequence:
#
# PCOD8168777 Si02
#       8
#     4   4   4   4   4   4   4   4
#     4  12  24  42  72  93 122 178 224 257 314 392
#     4  10  21  37  62  88 114 158 203 245 305 362
#     4  10  21  38  59  84 117 156 200 242 290 375
#     4  10  21  39  63  89 118 159 209 257 298 372
#     4  10  21  38  59  82 119 159 189 240 310 365
#     4  12  26  44  64  96 136 166 213 276 326 375
#     4  10  21  41  62  84 125 165 196 256 319 366
#     4  10  21  37  59  90 121 147 198 259 306 353
#
# _framework density 20.743310000000001
#
# number of rings (size 3 to 8) (size 9 to 14) (size 15 to 20)
#    0.000    1.500    1.250    3.750    3.500    1.000 
#    6.750    0.000    0.000    0.000    0.000    0.000 
#    0.000    0.000    0.000    0.000    0.000    0.000 
#
# Total GULP energy -396936.123451 kJ/mol
# GULP energy per Si atom -12404.253858 kJ/mol
# Density = 2.069610 g / cm^3
# Si number density = 20.743310 Si / 1000 Ang^3
#
#
#
# Elastic Constant Matrix: (Units=GPa)
#
#
# Indices 1 2 3 4 5 6 
#
# 1 112.1045 31.0631 27.0215 0.0000 0.0000 0.0000
# 2 31.0631 38.9646 38.1502 0.0000 0.0000 0.0000
# 3 27.0215 38.1502 127.7684 0.0000 0.0000 0.0000
# 4 0.0000 0.0000 0.0000 25.1929 0.0000 0.0000
# 5 0.0000 0.0000 0.0000 0.0000 26.7486 0.0000
# 6 0.0000 0.0000 0.0000 0.0000 0.0000 24.1090
#
#
#
# Elastic Compliance Matrix: (Units=1/GPa)
#
#
# Indices 1 2 3 4 5 6 
#
# 1 0.011466 -0.009562 0.000430 0.000000 0.000000 0.000000
# 2 -0.009562 0.044241 -0.011188 0.000000 0.000000 0.000000
# 3 0.000430 -0.011188 0.011076 0.000000 0.000000 0.000000
# 4 0.000000 0.000000 0.000000 0.039694 0.000000 0.000000
# 5 0.000000 0.000000 0.000000 0.000000 0.037385 0.000000
# 6 0.000000 0.000000 0.000000 0.000000 0.000000 0.041478
#
#
# Mechanical properties :
#
#
# Convention : Reuss Voigt Hill
#
# Bulk Modulus (GPa) = 38.24926 52.36745 45.30836
# Shear Modulus (GPa) = 21.30429 27.38362 24.34395
#
# Velocity S-wave (km/s) = 3.20823 3.63728 3.42947
# Velocity P-wave (km/s) = 5.67477 6.55287 6.12956
#
# Compressibility (1/GPa) = 0.02614430
#
# Stress axis : x y z
#
# Youngs Moduli (GPa) = 87.21326 22.60338 90.28390
#
# Poissons Ratio (x) = 0.21614 -0.03884
# Poissons Ratio (y) = 0.83395 1.01006
# Poissons Ratio (z) = -0.03752 0.25288
#
# Static dielectric constant tensor:
#      x y z
#    x 3.680230 0.000000 0.000000 
#    y 0.000000 3.508430 0.000000 
#    z 0.000000 0.000000 4.169000 
# 
# 
# High freq. dielectric constant tensor:
#      x y z
#    x 1.820370 0.000000 0.000000 
#    y 0.000000 1.785480 0.000000 
#    z 0.000000 0.000000 1.835190 
# 
# From -- ./inp_files/935.got.cif
#   From: 2010.03.12/outbox.cif.g09.slc.cpg/sg29_1_cif.got.tgz:935.got - 2010.04.14 03:43:10.
