data_PCOD8168936
_publ_section_title
;
Structure prediction by ZEFSAII (Michael W. Deem and Ramdas Pophale) SiO2 
 PCOD8168936
Probable space group: P C A 21
;
_chemical_formula_sum "Si O2"
_cell_formula_units_Z 32
_cell_length_a 13.915499
_cell_length_b 10.750672
_cell_length_c 9.166132
_cell_angle_alpha 90.000000
_cell_angle_beta 90.000000
_cell_angle_gamma 90.000000
_cell_volume 1371.262197
_symmetry_space_group_name_H-M "P C A 21"
_symmetry_group_IT_number 29
_symmetry_cell_setting 'orthorhombic'
loop_
_space_group_symop_operation_xyz
x,y,z
-x,-y,1/2+z
1/2-x,y,1/2+z
1/2+x,-y,z
loop_
_atom_site_type_symbol
_atom_site_label
_atom_site_fract_x
_atom_site_fract_y
_atom_site_fract_z
Si Si1 0.271916 0.194368 0.837290
Si Si2 0.973023 0.555676 0.454795
Si Si3 0.083585 0.088321 0.701535
Si Si4 0.598207 0.020377 0.391514
Si Si5 0.987891 0.339422 0.648543
Si Si6 0.771544 0.631830 0.585539
Si Si7 0.832108 0.377510 0.065188
Si Si8 0.205183 0.742438 0.281989
O O1 0.181612 0.108897 0.789916
O O2 0.287969 0.321005 0.748791
O O3 0.365916 0.109390 0.825861
O O4 0.263334 0.243577 0.002590
O O5 0.974426 0.573218 0.281209
O O6 0.054340 0.641577 0.532502
O O7 0.995827 0.412888 0.496103
O O8 0.870201 0.588576 0.516567
O O9 0.005290 0.048003 0.822400
O O10 0.053578 0.219388 0.631080
O O11 0.092212 0.988589 0.569067
O O12 0.678712 0.122076 0.345062
O O13 0.877835 0.304664 0.674384
O O14 0.694402 0.520638 0.601579
O O15 0.802590 0.274455 0.187156
O O16 0.776659 0.349735 0.915591
#
# Coordination Sequence:
#
# PCOD8168936 Si02
#       8
#     4   4   4   4   4   4   4   4
#     4  12  26  46  74 103 144 186 242 301 356 432
#     4  11  24  39  70 100 143 184 236 284 367 430
#     4  11  25  49  72 101 146 188 245 299 355 429
#     4  11  28  47  74 105 140 192 245 298 363 426
#     4  10  22  43  65 102 138 184 229 296 345 432
#     4  12  25  45  72 107 141 189 237 296 367 430
#     4  11  24  43  68 102 141 187 227 292 360 428
#     4  10  24  44  65  98 141 176 237 286 349 425
#
# _framework density 23.336165000000001
#
# number of rings (size 3 to 8) (size 9 to 14) (size 15 to 20)
#    0.000    1.000    3.750    1.500    7.000    0.000 
#    2.250    0.000    0.000    0.000    0.000    0.000 
#    0.000    0.000    0.000    0.000    0.000    0.000 
#
# Total GULP energy -396731.836350 kJ/mol
# GULP energy per Si atom -12397.869886 kJ/mol
# Density = 2.328305 g / cm^3
# Si number density = 23.336165 Si / 1000 Ang^3
#
#
#
# Elastic Constant Matrix: (Units=GPa)
#
#
# Indices 1 2 3 4 5 6 
#
# 1 45.4241 21.7046 -1.0954 0.0000 0.0000 0.0000
# 2 21.7046 90.3151 36.2522 0.0000 0.0000 0.0000
# 3 -1.0954 36.2522 54.2521 0.0000 0.0000 0.0000
# 4 0.0000 0.0000 0.0000 50.4228 0.0000 0.0000
# 5 0.0000 0.0000 0.0000 0.0000 30.5906 0.0000
# 6 0.0000 0.0000 0.0000 0.0000 0.0000 24.6271
#
#
#
# Elastic Compliance Matrix: (Units=1/GPa)
#
#
# Indices 1 2 3 4 5 6 
#
# 1 0.026465 -0.008985 0.006538 0.000000 0.000000 0.000000
# 2 -0.008985 0.018181 -0.012330 0.000000 0.000000 0.000000
# 3 0.006538 -0.012330 0.026804 0.000000 0.000000 0.000000
# 4 0.000000 0.000000 0.000000 0.019832 0.000000 0.000000
# 5 0.000000 0.000000 0.000000 0.000000 0.032690 0.000000
# 6 0.000000 0.000000 0.000000 0.000000 0.000000 0.040606
#
#
# Mechanical properties :
#
#
# Convention : Reuss Voigt Hill
#
# Bulk Modulus (GPa) = 23.86835 33.74603 28.80719
# Shear Modulus (GPa) = 24.02731 30.00341 27.01536
#
# Velocity S-wave (km/s) = 3.21225 3.58956 3.40613
# Velocity P-wave (km/s) = 4.89983 5.62780 5.27638
#
# Compressibility (1/GPa) = 0.04189648
#
# Stress axis : x y z
#
# Youngs Moduli (GPa) = 37.78522 55.00314 37.30833
#
# Poissons Ratio (x) = 0.49418 -0.24392
# Poissons Ratio (y) = 0.33948 0.46002
# Poissons Ratio (z) = -0.24704 0.67820
#
# Static dielectric constant tensor:
#      x y z
#    x 4.275290 0.000000 0.000000 
#    y 0.000000 4.214410 0.000000 
#    z 0.000000 0.000000 4.360700 
# 
# 
# High freq. dielectric constant tensor:
#      x y z
#    x 1.930690 0.000000 0.000000 
#    y 0.000000 1.918290 0.000000 
#    z 0.000000 0.000000 1.926610 
# 
# From -- ./inp_files/1869.got.cif
#   From: 2010.03.12/outbox.cif.g09.slc.cpg/sg29_1_cif.got.tgz:1869.got - 2010.04.14 03:43:10.
