data_PCOD8168742
_publ_section_title
;
Structure prediction by ZEFSAII (Michael W. Deem and Ramdas Pophale) SiO2 
 PCOD8168742
Probable space group: P C A 21
;
_chemical_formula_sum "Si O2"
_cell_formula_units_Z 20
_cell_length_a 13.298699
_cell_length_b 5.134621
_cell_length_c 14.067138
_cell_angle_alpha 90.000000
_cell_angle_beta 90.000000
_cell_angle_gamma 90.000000
_cell_volume 960.557345
_symmetry_space_group_name_H-M "P C A 21"
_symmetry_group_IT_number 29
_symmetry_cell_setting 'orthorhombic'
loop_
_space_group_symop_operation_xyz
x,y,z
-x,-y,1/2+z
1/2-x,y,1/2+z
1/2+x,-y,z
loop_
_atom_site_type_symbol
_atom_site_label
_atom_site_fract_x
_atom_site_fract_y
_atom_site_fract_z
Si Si1 0.895756 0.584834 0.648080
Si Si2 0.475564 0.541680 0.844337
Si Si3 0.704877 0.079848 0.065218
Si Si4 0.925766 0.228126 0.031542
Si Si5 0.568783 0.035515 0.903807
O O1 0.898213 0.503167 0.758557
O O2 0.848517 0.350363 0.589418
O O3 0.010030 0.629598 0.613475
O O4 0.828119 0.844230 0.634564
O O5 0.553448 0.303080 0.848860
O O6 0.547044 0.797011 0.830772
O O7 0.410104 0.574166 0.941503
O O8 0.823476 0.121699 0.075916
O O9 0.678220 0.015291 0.954319
O O10 0.990305 0.982836 0.992747
#
# Coordination Sequence:
#
# PCOD8168742 Si02
#       5
#     4   4   4   4   4
#     4  11  23  40  63  94 126 159 211 260 306 378
#     4  10  20  41  61  85 130 158 201 260 306 361
#     4  11  21  39  64  89 123 165 208 250 316 371
#     4   9  23  39  66  85 129 163 200 261 316 364
#     4   9  19  39  60  85 118 165 194 257 302 370
#
# _framework density 20.821248000000001
#
# number of rings (size 3 to 8) (size 9 to 14) (size 15 to 20)
#    1.200    0.800    2.000    1.200    2.800    0.000 
#    3.600    0.000    0.000    0.000    0.000    0.000 
#    0.000    0.000    0.000    0.000    0.000    0.000 
#
# Total GULP energy -247824.045239 kJ/mol
# GULP energy per Si atom -12391.202262 kJ/mol
# Density = 2.077386 g / cm^3
# Si number density = 20.821248 Si / 1000 Ang^3
#
#
#
# Elastic Constant Matrix: (Units=GPa)
#
#
# Indices 1 2 3 4 5 6 
#
# 1 103.2685 36.1121 23.7729 0.0000 0.0000 0.0000
# 2 36.1121 135.2742 16.1201 0.0000 0.0000 0.0000
# 3 23.7729 16.1201 75.8446 0.0000 0.0000 0.0000
# 4 0.0000 0.0000 0.0000 31.3588 0.0000 0.0000
# 5 0.0000 0.0000 0.0000 0.0000 10.8767 0.0000
# 6 0.0000 0.0000 0.0000 0.0000 0.0000 21.6644
#
#
#
# Elastic Compliance Matrix: (Units=1/GPa)
#
#
# Indices 1 2 3 4 5 6 
#
# 1 0.011299 -0.002662 -0.002976 0.000000 0.000000 0.000000
# 2 -0.002662 0.008212 -0.000911 0.000000 0.000000 0.000000
# 3 -0.002976 -0.000911 0.014311 0.000000 0.000000 0.000000
# 4 0.000000 0.000000 0.000000 0.031889 0.000000 0.000000
# 5 0.000000 0.000000 0.000000 0.000000 0.091940 0.000000
# 6 0.000000 0.000000 0.000000 0.000000 0.000000 0.046159
#
#
# Mechanical properties :
#
#
# Convention : Reuss Voigt Hill
#
# Bulk Modulus (GPa) = 48.25153 51.82194 50.03674
# Shear Modulus (GPa) = 22.33982 28.67212 25.50597
#
# Velocity S-wave (km/s) = 3.27912 3.71490 3.50379
# Velocity P-wave (km/s) = 6.12873 6.58359 6.36023
#
# Compressibility (1/GPa) = 0.02072473
#
# Stress axis : x y z
#
# Youngs Moduli (GPa) = 88.50046 121.78006 69.87503
#
# Poissons Ratio (x) = 0.32415 0.20795
# Poissons Ratio (y) = 0.23557 0.06365
# Poissons Ratio (z) = 0.26337 0.11094
#
# Static dielectric constant tensor:
#      x y z
#    x 3.398110 0.000000 0.000000 
#    y 0.000000 3.832760 0.000000 
#    z 0.000000 0.000000 3.551260 
# 
# 
# High freq. dielectric constant tensor:
#      x y z
#    x 1.783520 0.000000 0.000000 
#    y 0.000000 1.829550 0.000000 
#    z 0.000000 0.000000 1.796130 
# 
# From -- ./inp_files/4376.got.cif
#   From: 2010.03.12/outbox.cif.g09.slc.cpg/sg29_3_cif.got.tgz:4376.got - 2010.04.14 03:43:10.
