data_PCOD8168589
_publ_section_title
;
Structure prediction by ZEFSAII (Michael W. Deem and Ramdas Pophale) SiO2 
 PCOD8168589
Probable space group: P C A 21
;
_chemical_formula_sum "Si O2"
_cell_formula_units_Z 32
_cell_length_a 24.228286
_cell_length_b 12.869749
_cell_length_c 5.119773
_cell_angle_alpha 90.000000
_cell_angle_beta 90.000000
_cell_angle_gamma 90.000000
_cell_volume 1596.406451
_symmetry_space_group_name_H-M "P C A 21"
_symmetry_group_IT_number 29
_symmetry_cell_setting 'orthorhombic'
loop_
_space_group_symop_operation_xyz
x,y,z
-x,-y,1/2+z
1/2-x,y,1/2+z
1/2+x,-y,z
loop_
_atom_site_type_symbol
_atom_site_label
_atom_site_fract_x
_atom_site_fract_y
_atom_site_fract_z
Si Si1 0.192703 0.436031 0.430750
Si Si2 0.989814 0.934590 0.565702
Si Si3 0.215221 0.194916 0.495437
Si Si4 0.371693 0.056198 0.741947
Si Si5 0.215547 0.962893 0.893294
Si Si6 0.848234 0.240237 0.415042
Si Si7 0.686763 0.472634 0.928835
Si Si8 0.905530 0.166439 0.911385
O O1 0.205308 0.316854 0.482103
O O2 0.249084 0.500356 0.379573
O O3 0.157071 0.485750 0.665612
O O4 0.159872 0.459056 0.162912
O O5 0.929023 0.893820 0.642149
O O6 0.029015 0.839395 0.473907
O O7 0.983085 0.014016 0.323775
O O8 0.237493 0.163167 0.783722
O O9 0.157863 0.138541 0.431375
O O10 0.336538 0.031499 0.481066
O O11 0.382298 0.951580 0.909722
O O12 0.267268 0.987367 0.091043
O O13 0.201557 0.841931 0.934697
O O14 0.821342 0.351022 0.468279
O O15 0.875228 0.234145 0.130133
O O16 0.895388 0.219136 0.631357
#
# Coordination Sequence:
#
# PCOD8168589 Si02
#       8
#     4   4   4   4   4   4   4   4
#     4  10  19  35  52  77 107 143 195 228 256 320
#     4  10  20  37  61  77 109 150 189 241 276 326
#     4  12  22  38  56  82 117 157 186 236 269 325
#     4  10  23  37  57  81 112 155 191 215 284 334
#     4  11  22  33  44  73 113 149 174 217 251 327
#     4  11  22  34  56  80 112 148 189 225 281 340
#     4  10  19  33  55  75 105 147 187 226 276 315
#     4  10  21  39  53  85 113 139 189 240 277 331
#
# _framework density 20.045020999999998
#
# number of rings (size 3 to 8) (size 9 to 14) (size 15 to 20)
#    0.000    1.500    2.500    5.250    3.500    5.000 
#    0.000    0.000    0.000    0.000    0.000    3.500 
#    0.000    0.000    0.000    0.000    0.000    0.000 
#
# Total GULP energy -396690.673957 kJ/mol
# GULP energy per Si atom -12396.583561 kJ/mol
# Density = 1.999940 g / cm^3
# Si number density = 20.045021 Si / 1000 Ang^3
#
#
#
# Elastic Constant Matrix: (Units=GPa)
#
#
# Indices 1 2 3 4 5 6 
#
# 1 88.9306 22.5523 15.9480 0.0000 0.0000 0.0000
# 2 22.5523 49.2068 1.9004 0.0000 0.0000 0.0000
# 3 15.9480 1.9004 128.0523 0.0000 0.0000 0.0000
# 4 0.0000 0.0000 0.0000 28.9176 0.0000 0.0000
# 5 0.0000 0.0000 0.0000 0.0000 27.6549 0.0000
# 6 0.0000 0.0000 0.0000 0.0000 0.0000 16.2242
#
#
#
# Elastic Compliance Matrix: (Units=1/GPa)
#
#
# Indices 1 2 3 4 5 6 
#
# 1 0.013018 -0.005907 -0.001534 0.000000 0.000000 0.000000
# 2 -0.005907 0.023014 0.000394 0.000000 0.000000 0.000000
# 3 -0.001534 0.000394 0.007994 0.000000 0.000000 0.000000
# 4 0.000000 0.000000 0.000000 0.034581 0.000000 0.000000
# 5 0.000000 0.000000 0.000000 0.000000 0.036160 0.000000
# 6 0.000000 0.000000 0.000000 0.000000 0.000000 0.061636
#
#
# Mechanical properties :
#
#
# Convention : Reuss Voigt Hill
#
# Bulk Modulus (GPa) = 33.40719 38.55456 35.98087
# Shear Modulus (GPa) = 24.94081 29.61196 27.27638
#
# Velocity S-wave (km/s) = 3.53120 3.84770 3.69284
# Velocity P-wave (km/s) = 5.77305 6.24624 6.01430
#
# Compressibility (1/GPa) = 0.02993368
#
# Stress axis : x y z
#
# Youngs Moduli (GPa) = 76.81833 43.45094 125.08668
#
# Poissons Ratio (x) = 0.25667 0.19183
# Poissons Ratio (y) = 0.45377 -0.04930
# Poissons Ratio (z) = 0.11781 -0.01713
#
# Static dielectric constant tensor:
#      x y z
#    x 3.440270 0.000000 0.000000 
#    y 0.000000 3.512840 0.000000 
#    z 0.000000 0.000000 4.554500 
# 
# 
# High freq. dielectric constant tensor:
#      x y z
#    x 1.736660 0.000000 0.000000 
#    y 0.000000 1.764320 0.000000 
#    z 0.000000 0.000000 1.820770 
# 
# From -- ./inp_files/690.got.cif
#   From: 2010.03.12/outbox.cif.g09.slc.cpg/sg29_1_cif.got.tgz:690.got - 2010.04.14 03:43:10.
