data_PCOD8168570
_publ_section_title
;
Structure prediction by ZEFSAII (Michael W. Deem and Ramdas Pophale) SiO2 
 PCOD8168570
Probable space group: P C A 21
;
_chemical_formula_sum "Si O2"
_cell_formula_units_Z 32
_cell_length_a 13.932274
_cell_length_b 9.029131
_cell_length_c 13.684145
_cell_angle_alpha 90.000000
_cell_angle_beta 90.000000
_cell_angle_gamma 90.000000
_cell_volume 1721.415180
_symmetry_space_group_name_H-M "P C A 21"
_symmetry_group_IT_number 29
_symmetry_cell_setting 'orthorhombic'
loop_
_space_group_symop_operation_xyz
x,y,z
-x,-y,1/2+z
1/2-x,y,1/2+z
1/2+x,-y,z
loop_
_atom_site_type_symbol
_atom_site_label
_atom_site_fract_x
_atom_site_fract_y
_atom_site_fract_z
Si Si1 0.253682 0.416453 0.861390
Si Si2 0.299115 0.370754 0.578189
Si Si3 0.010671 0.551248 0.589768
Si Si4 0.671499 0.154102 0.248762
Si Si5 0.924545 0.372940 0.876660
Si Si6 0.978622 0.740551 0.195753
Si Si7 0.769663 0.845916 0.219815
Si Si8 0.314130 0.604954 0.197975
O O1 0.361136 0.479364 0.868948
O O2 0.263854 0.267190 0.801711
O O3 0.186219 0.535783 0.806389
O O4 0.203333 0.378225 0.962444
O O5 0.401754 0.419626 0.619694
O O6 0.275501 0.204436 0.615790
O O7 0.220303 0.481336 0.621073
O O8 0.027673 0.620464 0.482547
O O9 0.030640 0.373352 0.603765
O O10 0.078118 0.644095 0.664362
O O11 0.645166 0.227975 0.355361
O O12 0.572121 0.151944 0.185209
O O13 0.746877 0.253566 0.189392
O O14 0.723883 0.998060 0.257303
O O15 0.007182 0.364500 0.792778
O O16 0.885652 0.845662 0.208615
#
# Coordination Sequence:
#
# PCOD8168570 Si02
#       8
#     4   4   4   4   4   4   4   4
#     4  10  18  37  61  87 117 153 203 252 306 353
#     4  11  21  35  62  94 113 159 207 251 301 361
#     4  12  19  35  65  90 117 149 210 256 301 356
#     4   9  22  40  56  87 126 158 193 252 304 367
#     4   9  20  37  62  89 119 149 202 257 301 357
#     4  10  19  36  62  90 115 159 200 250 303 356
#     4  11  21  39  59  82 126 161 194 242 304 376
#     4  10  20  37  59  89 113 156 199 256 304 350
#
# _framework density 18.589357
#
# number of rings (size 3 to 8) (size 9 to 14) (size 15 to 20)
#    0.750    1.000    5.000    1.500    0.000    1.000 
#    2.250    0.000    2.750    0.000    0.000    0.000 
#    0.000    0.000    0.000    0.000    0.000    0.000 
#
# Total GULP energy -396419.797615 kJ/mol
# GULP energy per Si atom -12388.118675 kJ/mol
# Density = 1.854705 g / cm^3
# Si number density = 18.589357 Si / 1000 Ang^3
#
#
#
# Elastic Constant Matrix: (Units=GPa)
#
#
# Indices 1 2 3 4 5 6 
#
# 1 118.1065 42.0996 21.7095 0.0000 0.0000 0.0000
# 2 42.0996 94.3704 15.4785 0.0000 0.0000 0.0000
# 3 21.7095 15.4785 91.1416 0.0000 0.0000 0.0000
# 4 0.0000 0.0000 0.0000 12.4765 0.0000 0.0000
# 5 0.0000 0.0000 0.0000 0.0000 23.5019 0.0000
# 6 0.0000 0.0000 0.0000 0.0000 0.0000 30.8916
#
#
#
# Elastic Compliance Matrix: (Units=1/GPa)
#
#
# Indices 1 2 3 4 5 6 
#
# 1 0.010325 -0.004323 -0.001725 0.000000 0.000000 0.000000
# 2 -0.004323 0.012710 -0.001129 0.000000 0.000000 0.000000
# 3 -0.001725 -0.001129 0.011575 0.000000 0.000000 0.000000
# 4 0.000000 0.000000 0.000000 0.080151 0.000000 0.000000
# 5 0.000000 0.000000 0.000000 0.000000 0.042550 0.000000
# 6 0.000000 0.000000 0.000000 0.000000 0.000000 0.032371
#
#
# Mechanical properties :
#
#
# Convention : Reuss Voigt Hill
#
# Bulk Modulus (GPa) = 49.36906 51.35488 50.36197
# Shear Modulus (GPa) = 23.72055 28.32940 26.02498
#
# Velocity S-wave (km/s) = 3.57603 3.90803 3.74571
# Velocity P-wave (km/s) = 6.60803 6.93177 6.77183
#
# Compressibility (1/GPa) = 0.02025560
#
# Stress axis : x y z
#
# Youngs Moduli (GPa) = 96.85184 78.67641 86.39621
#
# Poissons Ratio (x) = 0.34013 0.14905
# Poissons Ratio (y) = 0.41871 0.09753
# Poissons Ratio (z) = 0.16709 0.08881
#
# Static dielectric constant tensor:
#      x y z
#    x 3.611790 0.000000 0.000000 
#    y 0.000000 3.146860 0.000000 
#    z 0.000000 0.000000 3.378380 
# 
# 
# High freq. dielectric constant tensor:
#      x y z
#    x 1.742720 0.000000 0.000000 
#    y 0.000000 1.683690 0.000000 
#    z 0.000000 0.000000 1.707540 
# 
# From -- ./inp_files/4728.got.cif
#   From: 2010.03.12/outbox.cif.g09.slc.cpg/sg29_3_cif.got.tgz:4728.got - 2010.04.14 03:43:10.
