data_PCOD8168259
_publ_section_title
;
Structure prediction by ZEFSAII (Michael W. Deem and Ramdas Pophale) SiO2 
 PCOD8168259
Probable space group: P M A 2
;
_chemical_formula_sum "Si O2"
_cell_formula_units_Z 32
_cell_length_a 9.071669
_cell_length_b 15.412406
_cell_length_c 11.854657
_cell_angle_alpha 90.000000
_cell_angle_beta 90.000000
_cell_angle_gamma 90.000000
_cell_volume 1657.473636
_symmetry_space_group_name_H-M "P M A 2"
_symmetry_group_IT_number 28
_symmetry_cell_setting 'orthorhombic'
loop_
_space_group_symop_operation_xyz
x,y,z
-x,-y,z
1/2-x,y,z
1/2+x,-y,z
loop_
_atom_site_type_symbol
_atom_site_label
_atom_site_fract_x
_atom_site_fract_y
_atom_site_fract_z
Si Si1 0.922734 0.250000 0.641940
Si Si2 0.423507 0.411879 0.026908
Si Si3 0.078951 0.351445 0.274543
Si Si4 0.575072 0.750000 0.880722
Si Si5 0.576494 0.911880 0.026908
Si Si6 0.921048 0.851446 0.274543
Si Si7 0.076224 0.586081 0.492859
Si Si8 0.076223 0.913919 0.492859
O O1 0.750000 0.249999 0.667495
O O2 0.970718 0.334022 0.571238
O O3 0.970721 0.165978 0.571237
O O4 0.010301 0.250000 0.756928
O O5 0.500000 0.500000 0.986569
O O6 0.250000 0.422983 0.015030
O O7 0.468129 0.390185 0.154655
O O8 0.481253 0.334895 0.946781
O O9 0.250000 0.369326 0.301116
O O10 0.044371 0.250000 0.274160
O O11 0.979280 0.398646 0.366316
O O12 0.750000 0.750000 0.874074
O O13 0.518746 0.834895 0.946782
O O14 0.750000 0.922983 0.015028
O O15 0.531873 0.890185 0.154655
O O16 0.500000 0.000000 0.986569
O O17 0.750000 0.869326 0.301118
O O18 0.020721 0.898646 0.366315
O O19 0.250000 0.572869 0.490161
O O20 0.000000 0.500000 0.543048
O O21 0.250000 0.927130 0.490163
O O22 0.000000 0.000000 0.543048
#
# Coordination Sequence:
#
# PCOD8168259 Si02
#       8
#     4   4   4   4   4   4   4   4
#     4  10  24  43  60  82 116 151 193 246 291 336
#     4  10  21  38  59  87 119 152 189 235 285 341
#     4  10  19  35  61  89 120 155 190 232 288 349
#     4  10  22  41  62  82 112 153 197 238 285 342
#     4  10  21  38  59  87 119 152 189 235 285 341
#     4  10  19  35  61  89 120 155 190 232 288 349
#     4  11  23  40  60  87 120 153 192 240 290 345
#     4  11  23  40  60  87 120 153 192 240 290 345
#
# _framework density 19.306491999999999
#
# number of rings (size 3 to 8) (size 9 to 14) (size 15 to 20)
#    0.000    1.750    2.500    1.500    0.000    7.000 
#    0.000    5.000    0.000    0.000    0.000    0.000 
#    0.000    0.000    0.000    0.000    0.000    0.000 
#
# Total GULP energy -396960.947949 kJ/mol
# GULP energy per Si atom -12405.029623 kJ/mol
# Density = 1.926255 g / cm^3
# Si number density = 19.306492 Si / 1000 Ang^3
#
#
#
# Elastic Constant Matrix: (Units=GPa)
#
#
# Indices 1 2 3 4 5 6 
#
# 1 55.0422 58.1110 48.1027 0.0000 0.0000 0.0000
# 2 58.1110 183.5869 78.7203 0.0000 0.0000 0.0000
# 3 48.1027 78.7203 129.0593 0.0000 0.0000 0.0000
# 4 0.0000 0.0000 0.0000 10.4261 0.0000 0.0000
# 5 0.0000 0.0000 0.0000 0.0000 -7.4828 0.0000
# 6 0.0000 0.0000 0.0000 0.0000 0.0000 35.8691
#
#
#
# Elastic Compliance Matrix: (Units=1/GPa)
#
#
# Indices 1 2 3 4 5 6 
#
# 1 0.032250 -0.006844 -0.007846 0.000000 0.000000 0.000000
# 2 -0.006844 0.008829 -0.002834 0.000000 0.000000 0.000000
# 3 -0.007846 -0.002834 0.012401 0.000000 0.000000 0.000000
# 4 0.000000 0.000000 0.000000 0.095913 0.000000 0.000000
# 5 0.000000 0.000000 0.000000 0.000000 -0.133640 0.000000
# 6 0.000000 0.000000 0.000000 0.000000 0.000000 0.027879
#
#
# Mechanical properties :
#
#
# Convention : Reuss Voigt Hill
#
# Bulk Modulus (GPa) = 54.25263 81.95069 68.10166
# Shear Modulus (GPa) = 58.94542 19.94610 39.44576
#
# Velocity S-wave (km/s) = 5.53152 3.21772 4.52501
# Velocity P-wave (km/s) = 8.30413 7.50629 7.91527
#
# Compressibility (1/GPa) = 0.01843229
#
# Stress axis : x y z
#
# Youngs Moduli (GPa) = 31.00786 113.26805 80.63674
#
# Poissons Ratio (x) = 0.77520 0.63264
# Poissons Ratio (y) = 0.21222 0.22854
# Poissons Ratio (z) = 0.24328 0.32102
#
# Static dielectric constant tensor:
#      x y z
#    x 3.667540 0.000000 0.000000 
#    y 0.000000 3.837690 0.000000 
#    z 0.000000 0.000000 3.463250 
# 
# 
# High freq. dielectric constant tensor:
#      x y z
#    x 1.742560 0.000000 0.000000 
#    y 0.000000 1.772620 0.000000 
#    z 0.000000 0.000000 1.748260 
# 
# From -- ./inp_files/4983.got.cif
#   From: 2010.03.12/outbox.cif.g09.slc.cpg/sg28_3_cif.got.tgz:4983.got - 2010.04.14 03:39:34.
