data_PCOD8168854
_publ_section_title
;
Structure prediction by ZEFSAII (Michael W. Deem and Ramdas Pophale) SiO2 
 PCOD8168854
Probable space group: P C A 21
;
_chemical_formula_sum "Si O2"
_cell_formula_units_Z 28
_cell_length_a 12.878744
_cell_length_b 11.035818
_cell_length_c 9.371459
_cell_angle_alpha 90.000000
_cell_angle_beta 90.000000
_cell_angle_gamma 90.000000
_cell_volume 1331.941803
_symmetry_space_group_name_H-M "P C A 21"
_symmetry_group_IT_number 29
_symmetry_cell_setting 'orthorhombic'
loop_
_space_group_symop_operation_xyz
x,y,z
-x,-y,1/2+z
1/2-x,y,1/2+z
1/2+x,-y,z
loop_
_atom_site_type_symbol
_atom_site_label
_atom_site_fract_x
_atom_site_fract_y
_atom_site_fract_z
Si Si1 0.109446 0.268949 0.670240
Si Si2 0.169809 0.832928 0.534342
Si Si3 0.373374 0.813204 0.359627
Si Si4 0.517587 0.685270 0.958837
Si Si5 0.584635 0.918038 0.434616
Si Si6 0.511142 0.592044 0.426373
Si Si7 0.843744 0.719149 0.727814
O O1 0.109913 0.143449 0.585684
O O2 0.043597 0.370638 0.586170
O O3 0.226352 0.315488 0.692727
O O4 0.053936 0.243232 0.819331
O O5 0.286322 0.817267 0.480909
O O6 0.172887 0.847130 0.705216
O O7 0.101850 0.715192 0.494026
O O8 0.118321 0.944225 0.449387
O O9 0.462106 0.910527 0.399913
O O10 0.421435 0.678284 0.361891
O O11 0.531019 0.543058 0.929591
O O12 0.590634 0.732332 0.084409
O O13 0.648789 0.847693 0.311104
O O14 0.611389 0.609531 0.324441
#
# Coordination Sequence:
#
# PCOD8168854 Si02
#       7
#     4   4   4   4   4   4   4
#     4  10  23  38  69  97 124 182 224 278 349 396
#     4  12  27  43  73 100 136 183 227 277 348 406
#     4  10  26  48  65 103 137 178 227 282 345 401
#     4  12  23  41  70  97 133 184 226 277 347 403
#     4  10  25  45  65  97 146 168 224 290 329 415
#     4  10  23  47  61  98 144 167 229 296 329 413
#     4  10  21  44  65  96 132 174 233 280 337 408
#
# _framework density 21.021940000000001
#
# number of rings (size 3 to 8) (size 9 to 14) (size 15 to 20)
#    0.000    1.714    2.857    2.571    8.000    3.429 
#    0.000    0.000    0.000    0.000    0.000    0.000 
#    0.000    0.000    0.000    0.000    0.000    0.000 
#
# Total GULP energy -347270.153137 kJ/mol
# GULP energy per Si atom -12402.505469 kJ/mol
# Density = 2.097409 g / cm^3
# Si number density = 21.021940 Si / 1000 Ang^3
#
#
#
# Elastic Constant Matrix: (Units=GPa)
#
#
# Indices 1 2 3 4 5 6 
#
# 1 107.0368 13.8891 30.9388 0.0000 0.0000 0.0000
# 2 13.8891 86.7222 22.1193 0.0000 0.0000 0.0000
# 3 30.9388 22.1193 140.7214 0.0000 0.0000 0.0000
# 4 0.0000 0.0000 0.0000 20.1813 0.0000 0.0000
# 5 0.0000 0.0000 0.0000 0.0000 43.5244 0.0000
# 6 0.0000 0.0000 0.0000 0.0000 0.0000 13.2932
#
#
#
# Elastic Compliance Matrix: (Units=1/GPa)
#
#
# Indices 1 2 3 4 5 6 
#
# 1 0.010075 -0.001092 -0.002043 0.000000 0.000000 0.000000
# 2 -0.001092 0.012131 -0.001667 0.000000 0.000000 0.000000
# 3 -0.002043 -0.001667 0.007817 0.000000 0.000000 0.000000
# 4 0.000000 0.000000 0.000000 0.049551 0.000000 0.000000
# 5 0.000000 0.000000 0.000000 0.000000 0.022976 0.000000
# 6 0.000000 0.000000 0.000000 0.000000 0.000000 0.075227
#
#
# Mechanical properties :
#
#
# Convention : Reuss Voigt Hill
#
# Bulk Modulus (GPa) = 48.97465 52.04164 50.50814
# Shear Modulus (GPa) = 25.74830 33.23533 29.49182
#
# Velocity S-wave (km/s) = 3.50355 3.98047 3.74960
# Velocity P-wave (km/s) = 6.30191 6.77755 6.54405
#
# Compressibility (1/GPa) = 0.02041873
#
# Stress axis : x y z
#
# Youngs Moduli (GPa) = 99.25599 82.43257 127.91868
#
# Poissons Ratio (x) = 0.09005 0.26138
# Poissons Ratio (y) = 0.10843 0.21320
# Poissons Ratio (z) = 0.20282 0.13739
#
# Static dielectric constant tensor:
#      x y z
#    x 3.781590 0.000000 0.000000 
#    y 0.000000 3.616210 0.000000 
#    z 0.000000 0.000000 4.005250 
# 
# 
# High freq. dielectric constant tensor:
#      x y z
#    x 1.824490 0.000000 0.000000 
#    y 0.000000 1.804580 0.000000 
#    z 0.000000 0.000000 1.845310 
# 
# From -- ./inp_files/1481.got.cif
#   From: 2010.03.12/outbox.cif.g09.slc.cpg/sg29_1_cif.got.tgz:1481.got - 2010.04.14 03:43:10.
