data_PCOD8168318
_publ_section_title
;
Structure prediction by ZEFSAII (Michael W. Deem and Ramdas Pophale) SiO2 
 PCOD8168318
Probable space group: P M A 2
;
_chemical_formula_sum "Si O2"
_cell_formula_units_Z 30
_cell_length_a 13.592668
_cell_length_b 11.605950
_cell_length_c 9.558712
_cell_angle_alpha 90.000000
_cell_angle_beta 90.000000
_cell_angle_gamma 90.000000
_cell_volume 1507.942499
_symmetry_space_group_name_H-M "P M A 2"
_symmetry_group_IT_number 28
_symmetry_cell_setting 'orthorhombic'
loop_
_space_group_symop_operation_xyz
x,y,z
-x,-y,z
1/2-x,y,z
1/2+x,-y,z
loop_
_atom_site_type_symbol
_atom_site_label
_atom_site_fract_x
_atom_site_fract_y
_atom_site_fract_z
Si Si1 0.355506 0.700674 0.427060
Si Si2 0.635985 0.902623 0.485728
Si Si3 0.135777 0.877136 0.651862
Si Si4 0.393257 0.453793 0.485980
Si Si5 0.140616 0.273674 0.704687
Si Si6 0.868090 0.808864 0.994021
Si Si7 0.500000 0.000000 0.870457
Si Si8 0.551808 0.742443 0.283230
O O1 0.250000 0.756880 0.383117
O O2 0.388712 0.753969 0.578469
O O3 0.330849 0.565229 0.445753
O O4 0.435154 0.721488 0.305015
O O5 0.750000 0.873624 0.463664
O O6 0.586830 0.823038 0.608909
O O7 0.580743 0.868237 0.343124
O O8 0.617058 0.034317 0.523713
O O9 0.250000 0.883653 0.702872
O O10 0.063757 0.908248 0.779498
O O11 0.500000 0.500000 0.513138
O O12 0.359328 0.398950 0.633195
O O13 0.387446 0.357763 0.363947
O O14 0.250000 0.224391 0.717427
O O15 0.102186 0.274244 0.863611
O O16 0.750000 0.825683 0.016150
O O17 0.921870 0.931577 0.967503
O O18 0.917828 0.741182 0.122272
#
# Coordination Sequence:
#
# PCOD8168318 Si02
#       8
#     4   4   4   4   4   4   2   4
#     4  10  21  36  59  88 120 155 197 244 306 368
#     4   9  16  31  57  85 111 144 194 247 294 341
#     4  10  20  34  57  89 119 150 190 242 299 361
#     4   9  19  35  61  88 114 148 198 255 301 347
#     4   9  17  33  56  83 111 145 194 247 289 336
#     4  11  24  39  58  88 121 159 204 245 294 356
#     4  12  22  36  60  82 128 164 190 240 302 366
#     4  10  21  38  57  86 117 155 201 252 296 340
#
# _framework density 19.894659000000001
#
# number of rings (size 3 to 8) (size 9 to 14) (size 15 to 20)
#    0.000    2.133    1.333    2.000    3.733    2.667 
#    0.000    4.667    0.000    0.000    0.000    0.000 
#    0.000    0.000    0.000    0.000    0.000    0.000 
#
# Total GULP energy -371688.665885 kJ/mol
# GULP energy per Si atom -12389.622196 kJ/mol
# Density = 1.984938 g / cm^3
# Si number density = 19.894659 Si / 1000 Ang^3
#
#
#
# Elastic Constant Matrix: (Units=GPa)
#
#
# Indices 1 2 3 4 5 6 
#
# 1 90.7074 26.4742 40.6407 0.0000 0.0000 0.0000
# 2 26.4742 88.4397 42.4457 0.0000 0.0000 0.0000
# 3 40.6407 42.4457 130.1252 0.0000 0.0000 0.0000
# 4 0.0000 0.0000 0.0000 21.4878 0.0000 0.0000
# 5 0.0000 0.0000 0.0000 0.0000 32.3337 0.0000
# 6 0.0000 0.0000 0.0000 0.0000 0.0000 28.7985
#
#
#
# Elastic Compliance Matrix: (Units=1/GPa)
#
#
# Indices 1 2 3 4 5 6 
#
# 1 0.013215 -0.002342 -0.003363 0.000000 0.000000 0.000000
# 2 -0.002342 0.013821 -0.003777 0.000000 0.000000 0.000000
# 3 -0.003363 -0.003777 0.009967 0.000000 0.000000 0.000000
# 4 0.000000 0.000000 0.000000 0.046538 0.000000 0.000000
# 5 0.000000 0.000000 0.000000 0.000000 0.030928 0.000000
# 6 0.000000 0.000000 0.000000 0.000000 0.000000 0.034724
#
#
# Mechanical properties :
#
#
# Convention : Reuss Voigt Hill
#
# Bulk Modulus (GPa) = 55.43505 58.71040 57.07273
# Shear Modulus (GPa) = 28.70767 29.83810 29.27289
#
# Velocity S-wave (km/s) = 3.80278 3.87693 3.84004
# Velocity P-wave (km/s) = 6.87069 7.04383 6.95780
#
# Compressibility (1/GPa) = 0.01803913
#
# Stress axis : x y z
#
# Youngs Moduli (GPa) = 75.67242 72.35491 100.32731
#
# Poissons Ratio (x) = 0.16942 0.33745
# Poissons Ratio (y) = 0.17719 0.37893
# Poissons Ratio (z) = 0.25452 0.27328
#
# Static dielectric constant tensor:
#      x y z
#    x 3.729330 0.000000 0.000000 
#    y 0.000000 4.110180 0.000000 
#    z 0.000000 0.000000 3.393740 
# 
# 
# High freq. dielectric constant tensor:
#      x y z
#    x 1.798260 0.000000 0.000000 
#    y 0.000000 1.765480 0.000000 
#    z 0.000000 0.000000 1.739960 
# 
# From -- ./inp_files/3507.got.cif
#   From: 2010.03.12/outbox.cif.g09.slc.cpg/sg28_2_cif.got.tgz:3507.got - 2010.04.14 03:39:34.
