data_PCOD8168988
_publ_section_title
;
Structure prediction by ZEFSAII (Michael W. Deem and Ramdas Pophale) SiO2 
 PCOD8168988
Probable space group: P C A 21
;
_chemical_formula_sum "Si O2"
_cell_formula_units_Z 32
_cell_length_a 13.015355
_cell_length_b 5.173659
_cell_length_c 19.816975
_cell_angle_alpha 90.000000
_cell_angle_beta 90.000000
_cell_angle_gamma 90.000000
_cell_volume 1334.415815
_symmetry_space_group_name_H-M "P C A 21"
_symmetry_group_IT_number 29
_symmetry_cell_setting 'orthorhombic'
loop_
_space_group_symop_operation_xyz
x,y,z
-x,-y,1/2+z
1/2-x,y,1/2+z
1/2+x,-y,z
loop_
_atom_site_type_symbol
_atom_site_label
_atom_site_fract_x
_atom_site_fract_y
_atom_site_fract_z
Si Si1 0.187758 0.555282 0.112190
Si Si2 0.874719 0.740625 0.146362
Si Si3 0.896238 0.334690 0.410878
Si Si4 0.241040 0.163675 0.917984
Si Si5 0.496994 0.459787 0.534270
Si Si6 0.167678 0.897245 0.537368
Si Si7 0.065994 0.789985 0.228399
Si Si8 0.581525 0.706690 0.313341
O O1 0.264470 0.392763 0.160363
O O2 0.103956 0.366885 0.076084
O O3 0.240653 0.691041 0.047030
O O4 0.129824 0.764654 0.159108
O O5 0.926313 0.583890 0.086748
O O6 0.943777 0.752426 0.213382
O O7 0.857050 0.024224 0.115014
O O8 0.845036 0.618164 0.413687
O O9 0.967615 0.327927 0.477647
O O10 0.969678 0.300709 0.346861
O O11 0.810358 0.114962 0.404813
O O12 0.328482 0.226333 0.864600
O O13 0.294268 0.138778 0.991786
O O14 0.563533 0.221814 0.503207
O O15 0.102700 0.574236 0.281443
O O16 0.083091 0.077034 0.255456
#
# Coordination Sequence:
#
# PCOD8168988 Si02
#       8
#     4   4   4   4   4   4   4   4
#     4  10  23  45  71 111 144 191 244 313 379 456
#     4  10  24  42  71 107 144 191 243 304 374 456
#     4  12  27  47  77 107 148 198 250 311 381 451
#     4  12  28  48  78 113 146 197 253 313 384 451
#     4  10  23  41  71 108 150 187 235 312 386 443
#     4  11  24  42  76 108 151 189 247 316 388 458
#     4  11  28  47  75 100 149 200 250 303 374 439
#     4  12  29  52  71 106 150 203 256 314 362 452
#
# _framework density 23.980530000000002
#
# number of rings (size 3 to 8) (size 9 to 14) (size 15 to 20)
#    0.000    1.000    1.250    3.000   15.750    4.000 
#    0.000    0.000    0.000    0.000    0.000    0.000 
#    0.000    0.000    0.000    0.000    0.000    0.000 
#
# Total GULP energy -396728.445002 kJ/mol
# GULP energy per Si atom -12397.763906 kJ/mol
# Density = 2.392595 g / cm^3
# Si number density = 23.980530 Si / 1000 Ang^3
#
#
#
# Elastic Constant Matrix: (Units=GPa)
#
#
# Indices 1 2 3 4 5 6 
#
# 1 133.6576 37.3882 35.8209 0.0000 0.0000 0.0000
# 2 37.3882 92.9319 16.8226 0.0000 0.0000 0.0000
# 3 35.8209 16.8226 70.1970 0.0000 0.0000 0.0000
# 4 0.0000 0.0000 0.0000 37.9123 0.0000 0.0000
# 5 0.0000 0.0000 0.0000 0.0000 35.6327 0.0000
# 6 0.0000 0.0000 0.0000 0.0000 0.0000 33.1742
#
#
#
# Elastic Compliance Matrix: (Units=1/GPa)
#
#
# Indices 1 2 3 4 5 6 
#
# 1 0.009430 -0.003055 -0.004080 0.000000 0.000000 0.000000
# 2 -0.003055 0.012238 -0.001374 0.000000 0.000000 0.000000
# 3 -0.004080 -0.001374 0.016657 0.000000 0.000000 0.000000
# 4 0.000000 0.000000 0.000000 0.026377 0.000000 0.000000
# 5 0.000000 0.000000 0.000000 0.000000 0.028064 0.000000
# 6 0.000000 0.000000 0.000000 0.000000 0.000000 0.030144
#
#
# Mechanical properties :
#
#
# Convention : Reuss Voigt Hill
#
# Bulk Modulus (GPa) = 46.93239 52.98331 49.95785
# Shear Modulus (GPa) = 34.00669 35.12751 34.56710
#
# Velocity S-wave (km/s) = 3.76985 3.83147 3.80078
# Velocity P-wave (km/s) = 6.20987 6.45878 6.33555
#
# Compressibility (1/GPa) = 0.02130725
#
# Stress axis : x y z
#
# Youngs Moduli (GPa) = 106.04613 81.70968 60.03577
#
# Poissons Ratio (x) = 0.24965 0.24493
# Poissons Ratio (y) = 0.32400 0.08248
# Poissons Ratio (z) = 0.43264 0.11226
#
# Static dielectric constant tensor:
#      x y z
#    x 4.767050 0.000000 0.000000 
#    y 0.000000 4.459290 0.000000 
#    z 0.000000 0.000000 4.250680 
# 
# 
# High freq. dielectric constant tensor:
#      x y z
#    x 1.977830 0.000000 0.000000 
#    y 0.000000 1.946680 0.000000 
#    z 0.000000 0.000000 1.935950 
# 
# From -- ./inp_files/5551.got.cif
#   From: 2010.03.12/outbox.cif.g09.slc.cpg/sg29_3_cif.got.tgz:5551.got - 2010.04.14 03:43:10.
