data_PCOD8168168
_publ_section_title
;
Structure prediction by ZEFSAII (Michael W. Deem and Ramdas Pophale) SiO2 
 PCOD8168168
Probable space group: P M A 2
;
_chemical_formula_sum "Si O2"
_cell_formula_units_Z 28
_cell_length_a 8.917251
_cell_length_b 14.384964
_cell_length_c 12.631418
_cell_angle_alpha 90.000000
_cell_angle_beta 90.000000
_cell_angle_gamma 90.000000
_cell_volume 1620.286739
_symmetry_space_group_name_H-M "P M A 2"
_symmetry_group_IT_number 28
_symmetry_cell_setting 'orthorhombic'
loop_
_space_group_symop_operation_xyz
x,y,z
-x,-y,z
1/2-x,y,z
1/2+x,-y,z
loop_
_atom_site_type_symbol
_atom_site_label
_atom_site_fract_x
_atom_site_fract_y
_atom_site_fract_z
Si Si1 0.925304 0.592730 0.529410
Si Si2 0.071821 0.208363 0.609912
Si Si3 0.572652 0.097678 0.789458
Si Si4 0.424377 0.905250 0.031154
Si Si5 0.425166 0.774145 0.217087
Si Si6 0.072768 0.900485 0.417173
Si Si7 0.426486 0.406644 0.287899
O O1 0.750000 0.576369 0.533604
O O2 0.972905 0.683707 0.595002
O O3 0.979857 0.607948 0.408959
O O4 0.000000 0.500000 0.578469
O O5 0.250000 0.194417 0.606711
O O6 0.003883 0.179069 0.722315
O O7 0.998347 0.145413 0.520242
O O8 0.750000 0.093478 0.768705
O O9 0.500000 0.000000 0.755050
O O10 0.533080 0.120820 0.911017
O O11 0.250000 0.923069 0.043719
O O12 0.476946 0.823473 0.108737
O O13 0.500000 0.000000 0.068245
O O14 0.250000 0.750595 0.217269
O O15 0.467998 0.838293 0.316183
O O16 0.517203 0.679328 0.219234
O O17 0.250000 0.911035 0.433597
O O18 0.000000 0.000000 0.397722
O O19 0.500000 0.500000 0.241357
O O20 0.250000 0.414906 0.278188
#
# Coordination Sequence:
#
# PCOD8168168 Si02
#       7
#     4   4   4   4   4   4   4
#     4   9  19  33  51  74 101 132 166 206 251 301
#     4  11  21  35  52  74 104 135 170 211 254 304
#     4  10  20  35  54  76 101 135 175 216 257 301
#     4   9  19  35  54  76 103 134 174 216 256 301
#     4  10  20  34  52  76 104 136 170 210 256 305
#     4  11  22  33  48  72 104 138 169 203 251 306
#     4  10  19  33  52  76 104 136 171 210 255 304
#
# _framework density 17.280892999999999
#
# number of rings (size 3 to 8) (size 9 to 14) (size 15 to 20)
#    0.000    2.000    1.429    2.571    0.000    3.429 
#    0.000    0.000    0.000    0.857    0.000    2.000 
#    0.000    0.000    0.000    0.000    0.000    0.000 
#
# Total GULP energy -347285.119527 kJ/mol
# GULP energy per Si atom -12403.039983 kJ/mol
# Density = 1.724156 g / cm^3
# Si number density = 17.280893 Si / 1000 Ang^3
#
#
#
# Elastic Constant Matrix: (Units=GPa)
#
#
# Indices 1 2 3 4 5 6 
#
# 1 70.1267 61.7953 38.4501 0.0000 0.0000 0.0000
# 2 61.7953 159.4891 66.3025 0.0000 0.0000 0.0000
# 3 38.4501 66.3025 87.5550 0.0000 0.0000 0.0000
# 4 0.0000 0.0000 0.0000 21.9071 0.0000 0.0000
# 5 0.0000 0.0000 0.0000 0.0000 18.2276 0.0000
# 6 0.0000 0.0000 0.0000 0.0000 0.0000 35.9550
#
#
#
# Elastic Compliance Matrix: (Units=1/GPa)
#
#
# Indices 1 2 3 4 5 6 
#
# 1 0.023005 -0.006879 -0.004893 0.000000 0.000000 0.000000
# 2 -0.006879 0.011208 -0.005466 0.000000 0.000000 0.000000
# 3 -0.004893 -0.005466 0.017710 0.000000 0.000000 0.000000
# 4 0.000000 0.000000 0.000000 0.045647 0.000000 0.000000
# 5 0.000000 0.000000 0.000000 0.000000 0.054862 0.000000
# 6 0.000000 0.000000 0.000000 0.000000 0.000000 0.027813
#
#
# Mechanical properties :
#
#
# Convention : Reuss Voigt Hill
#
# Bulk Modulus (GPa) = 57.32346 72.25183 64.78765
# Shear Modulus (GPa) = 22.67197 25.25946 23.96571
#
# Velocity S-wave (km/s) = 3.62604 3.82736 3.72806
# Velocity P-wave (km/s) = 7.12562 7.83790 7.49023
#
# Compressibility (1/GPa) = 0.01744486
#
# Stress axis : x y z
#
# Youngs Moduli (GPa) = 43.46931 89.22311 56.46600
#
# Poissons Ratio (x) = 0.61378 0.27630
# Poissons Ratio (y) = 0.29903 0.30866
# Poissons Ratio (z) = 0.21271 0.48772
#
# Static dielectric constant tensor:
#      x y z
#    x 3.261110 0.000000 0.000000 
#    y 0.000000 3.301320 0.000000 
#    z 0.000000 0.000000 3.236330 
# 
# 
# High freq. dielectric constant tensor:
#      x y z
#    x 1.676670 0.000000 0.000000 
#    y 0.000000 1.670730 0.000000 
#    z 0.000000 0.000000 1.649890 
# 
# From -- ./inp_files/4780.got.cif
#   From: 2010.03.12/outbox.cif.g09.slc.cpg/sg28_3_cif.got.tgz:4780.got - 2010.04.14 03:39:34.
