data_PCOD8168465
_publ_section_title
;
Structure prediction by ZEFSAII (Michael W. Deem and Ramdas Pophale) SiO2 
 PCOD8168465
Probable space group: P M A 2
;
_chemical_formula_sum "Si O2"
_cell_formula_units_Z 32
_cell_length_a 27.364691
_cell_length_b 8.784458
_cell_length_c 6.472057
_cell_angle_alpha 90.000000
_cell_angle_beta 90.000000
_cell_angle_gamma 90.000000
_cell_volume 1555.778813
_symmetry_space_group_name_H-M "P M A 2"
_symmetry_group_IT_number 28
_symmetry_cell_setting 'orthorhombic'
loop_
_space_group_symop_operation_xyz
x,y,z
-x,-y,z
1/2-x,y,z
1/2+x,-y,z
loop_
_atom_site_type_symbol
_atom_site_label
_atom_site_fract_x
_atom_site_fract_y
_atom_site_fract_z
Si Si1 0.121632 0.942556 0.747570
Si Si2 0.031552 0.859814 0.513469
Si Si3 0.616944 0.706420 0.677334
Si Si4 0.130692 0.530581 0.318032
Si Si5 0.932422 0.210842 0.095119
Si Si6 0.486382 0.334480 0.807784
Si Si7 0.194315 0.449362 0.942558
Si Si8 0.805001 0.285558 0.633961
O O1 0.083586 0.839313 0.622907
O O2 0.175697 0.881134 0.697592
O O3 0.118012 0.111605 0.654150
O O4 0.107637 0.902101 0.987300
O O5 0.042257 0.883687 0.275295
O O6 0.000069 0.708413 0.569432
O O7 0.000000 0.000000 0.601163
O O8 0.609158 0.605566 0.466503
O O9 0.571987 0.677574 0.835126
O O10 0.667807 0.665172 0.785527
O O11 0.090500 0.630259 0.188740
O O12 0.162113 0.645911 0.453829
O O13 0.167076 0.447056 0.160731
O O14 0.979671 0.229847 0.949584
O O15 0.500000 0.500000 0.872250
O O16 0.250000 0.393490 0.973315
O O17 0.192366 0.616244 0.842985
O O18 0.750000 0.271341 0.550275
#
# Coordination Sequence:
#
# PCOD8168465 Si02
#       8
#     4   4   4   4   4   4   4   4
#     4  11  23  43  61  93 130 165 204 267 320 385
#     4  11  23  40  62  89 126 170 208 254 306 377
#     4  11  25  40  65  92 135 163 210 267 329 371
#     4  11  21  42  67  94 119 168 214 269 307 384
#     4  11  24  38  69  89 129 170 221 252 316 382
#     4  11  24  40  60  93 129 166 210 260 308 378
#     4  10  22  42  66  93 122 164 213 263 325 386
#     4  10  21  40  69  94 123 163 211 264 322 384
#
# _framework density 20.568477000000001
#
# number of rings (size 3 to 8) (size 9 to 14) (size 15 to 20)
#    0.000    1.250    3.750    1.875    5.250    4.500 
#    0.000    0.000    0.000    0.000    0.000    0.000 
#    0.000    0.000    0.000    0.000    0.000    0.000 
#
# Total GULP energy -396440.676514 kJ/mol
# GULP energy per Si atom -12388.771141 kJ/mol
# Density = 2.052166 g / cm^3
# Si number density = 20.568477 Si / 1000 Ang^3
#
#
#
# Elastic Constant Matrix: (Units=GPa)
#
#
# Indices 1 2 3 4 5 6 
#
# 1 119.6410 25.5868 27.9418 0.0000 0.0000 0.0000
# 2 25.5868 72.0888 10.5959 0.0000 0.0000 0.0000
# 3 27.9418 10.5959 87.0408 0.0000 0.0000 0.0000
# 4 0.0000 0.0000 0.0000 67.5452 0.0000 0.0000
# 5 0.0000 0.0000 0.0000 0.0000 31.2045 0.0000
# 6 0.0000 0.0000 0.0000 0.0000 0.0000 29.1526
#
#
#
# Elastic Compliance Matrix: (Units=1/GPa)
#
#
# Indices 1 2 3 4 5 6 
#
# 1 0.009641 -0.003021 -0.002727 0.000000 0.000000 0.000000
# 2 -0.003021 0.015071 -0.000865 0.000000 0.000000 0.000000
# 3 -0.002727 -0.000865 0.012470 0.000000 0.000000 0.000000
# 4 0.000000 0.000000 0.000000 0.014805 0.000000 0.000000
# 5 0.000000 0.000000 0.000000 0.000000 0.032047 0.000000
# 6 0.000000 0.000000 0.000000 0.000000 0.000000 0.034302
#
#
# Mechanical properties :
#
#
# Convention : Reuss Voigt Hill
#
# Bulk Modulus (GPa) = 41.74379 45.22439 43.48409
# Shear Modulus (GPa) = 35.82997 39.89020 37.86009
#
# Velocity S-wave (km/s) = 4.17824 4.40862 4.29498
# Velocity P-wave (km/s) = 6.60424 6.92456 6.76630
#
# Compressibility (1/GPa) = 0.02395566
#
# Stress axis : x y z
#
# Youngs Moduli (GPa) = 103.71920 66.35158 80.19463
#
# Poissons Ratio (x) = 0.20046 0.21872
# Poissons Ratio (y) = 0.31336 0.06935
# Poissons Ratio (z) = 0.28287 0.05738
#
# Static dielectric constant tensor:
#      x y z
#    x 3.282940 0.000000 0.000000 
#    y 0.000000 3.506920 0.000000 
#    z 0.000000 0.000000 3.853990 
# 
# 
# High freq. dielectric constant tensor:
#      x y z
#    x 1.813280 0.000000 0.000000 
#    y 0.000000 1.790020 0.000000 
#    z 0.000000 0.000000 1.802800 
# 
# From -- ./inp_files/1929.got.cif
#   From: 2010.03.12/outbox.cif.g09.slc.cpg/sg28_1_cif.got.tgz:1929.got - 2010.04.14 03:39:34.
