data_PCOD8168897
_publ_section_title
;
Structure prediction by ZEFSAII (Michael W. Deem and Ramdas Pophale) SiO2 
 PCOD8168897
Probable space group: P C A 21
;
_chemical_formula_sum "Si O2"
_cell_formula_units_Z 20
_cell_length_a 12.613308
_cell_length_b 7.738319
_cell_length_c 8.402760
_cell_angle_alpha 90.000000
_cell_angle_beta 90.000000
_cell_angle_gamma 90.000000
_cell_volume 820.158120
_symmetry_space_group_name_H-M "P C A 21"
_symmetry_group_IT_number 29
_symmetry_cell_setting 'orthorhombic'
loop_
_space_group_symop_operation_xyz
x,y,z
-x,-y,1/2+z
1/2-x,y,1/2+z
1/2+x,-y,z
loop_
_atom_site_type_symbol
_atom_site_label
_atom_site_fract_x
_atom_site_fract_y
_atom_site_fract_z
Si Si1 0.159027 0.399073 0.446260
Si Si2 0.172449 0.217205 0.774660
Si Si3 0.320650 0.654404 0.551921
Si Si4 0.978136 0.617152 0.526629
Si Si5 0.357334 0.822481 0.242520
O O1 0.149701 0.343474 0.629932
O O2 0.203233 0.243973 0.332240
O O3 0.246317 0.548439 0.430979
O O4 0.046351 0.490151 0.410000
O O5 0.093079 0.257802 0.919180
O O6 0.148614 0.025941 0.713448
O O7 0.402318 0.514114 0.628792
O O8 0.377287 0.789062 0.430430
O O9 0.257686 0.752082 0.689040
O O10 0.048428 0.736884 0.641053
#
# Coordination Sequence:
#
# PCOD8168897 Si02
#       5
#     4   4   4   4   4
#     4  10  22  42  66  92 129 175 216 262 323 394
#     4  11  24  43  67 100 132 169 218 279 331 375
#     4  10  22  42  66  92 129 175 216 262 323 394
#     4  10  22  40  64  96 130 174 220 258 322 404
#     4  11  24  43  67 100 132 169 218 279 331 375
#
# _framework density 24.385541
#
# number of rings (size 3 to 8) (size 9 to 14) (size 15 to 20)
#    0.000    1.600    0.000    6.000    0.000   14.400 
#    0.000   10.000    0.000    0.000    0.000    0.000 
#    0.000    0.000    0.000    0.000    0.000    0.000 
#
# Total GULP energy -247817.226632 kJ/mol
# GULP energy per Si atom -12390.861332 kJ/mol
# Density = 2.433004 g / cm^3
# Si number density = 24.385541 Si / 1000 Ang^3
#
#
#
# Elastic Constant Matrix: (Units=GPa)
#
#
# Indices 1 2 3 4 5 6 
#
# 1 100.3795 59.3591 -2.7908 0.0000 0.0000 0.0000
# 2 59.3591 122.0104 30.1203 0.0000 0.0000 0.0000
# 3 -2.7908 30.1203 76.2552 0.0000 0.0000 0.0000
# 4 0.0000 0.0000 0.0000 35.3190 0.0000 0.0000
# 5 0.0000 0.0000 0.0000 0.0000 31.7570 0.0000
# 6 0.0000 0.0000 0.0000 0.0000 0.0000 36.9135
#
#
#
# Elastic Compliance Matrix: (Units=1/GPa)
#
#
# Indices 1 2 3 4 5 6 
#
# 1 0.014908 -0.008186 0.003779 0.000000 0.000000 0.000000
# 2 -0.008186 0.013576 -0.005662 0.000000 0.000000 0.000000
# 3 0.003779 -0.005662 0.015489 0.000000 0.000000 0.000000
# 4 0.000000 0.000000 0.000000 0.028313 0.000000 0.000000
# 5 0.000000 0.000000 0.000000 0.000000 0.031489 0.000000
# 6 0.000000 0.000000 0.000000 0.000000 0.000000 0.027090
#
#
# Mechanical properties :
#
#
# Convention : Reuss Voigt Hill
#
# Bulk Modulus (GPa) = 41.95522 52.44692 47.20107
# Shear Modulus (GPa) = 31.45676 34.92832 33.19254
#
# Velocity S-wave (km/s) = 3.59552 3.78873 3.69339
# Velocity P-wave (km/s) = 5.87191 6.37914 6.13077
#
# Compressibility (1/GPa) = 0.02383494
#
# Stress axis : x y z
#
# Youngs Moduli (GPa) = 67.07885 73.65830 64.56339
#
# Poissons Ratio (x) = 0.60294 -0.24398
# Poissons Ratio (y) = 0.54909 0.36556
# Poissons Ratio (z) = -0.25348 0.41706
#
# Static dielectric constant tensor:
#      x y z
#    x 4.757390 0.000000 0.000000 
#    y 0.000000 4.306210 0.000000 
#    z 0.000000 0.000000 4.105670 
# 
# 
# High freq. dielectric constant tensor:
#      x y z
#    x 1.971640 0.000000 0.000000 
#    y 0.000000 1.958470 0.000000 
#    z 0.000000 0.000000 1.974310 
# 
# From -- ./inp_files/1641.got.cif
#   From: 2010.03.12/outbox.cif.g09.slc.cpg/sg29_1_cif.got.tgz:1641.got - 2010.04.14 03:43:10.
