data_PCOD8168506
_publ_section_title
;
Structure prediction by ZEFSAII (Michael W. Deem and Ramdas Pophale) SiO2 
 PCOD8168506
Probable space group: P M A 2
;
_chemical_formula_sum "Si O2"
_cell_formula_units_Z 20
_cell_length_a 16.435258
_cell_length_b 5.077344
_cell_length_c 11.035102
_cell_angle_alpha 90.000000
_cell_angle_beta 90.000000
_cell_angle_gamma 90.000000
_cell_volume 920.851217
_symmetry_space_group_name_H-M "P M A 2"
_symmetry_group_IT_number 28
_symmetry_cell_setting 'orthorhombic'
loop_
_space_group_symop_operation_xyz
x,y,z
-x,-y,z
1/2-x,y,z
1/2+x,-y,z
loop_
_atom_site_type_symbol
_atom_site_label
_atom_site_fract_x
_atom_site_fract_y
_atom_site_fract_z
Si Si1 0.591635 0.068602 0.206380
Si Si2 0.444756 0.260457 0.828834
Si Si3 0.407539 0.429880 0.092004
Si Si4 0.911030 0.103357 0.485545
Si Si5 0.657091 0.625785 0.603628
O O1 0.635220 0.289222 0.120912
O O2 0.593862 0.169434 0.343818
O O3 0.500000 0.000000 0.162032
O O4 0.635048 0.788401 0.179479
O O5 0.500000 0.500000 0.787039
O O6 0.375685 0.240384 0.727185
O O7 0.500000 0.000000 0.841402
O O8 0.400207 0.332557 0.954367
O O9 0.500000 0.500000 0.130977
O O10 0.892238 0.367720 0.560586
O O11 0.848533 0.863939 0.507443
O O12 0.000000 0.000000 0.525755
O O13 0.750000 0.539206 0.620810
#
# Coordination Sequence:
#
# PCOD8168506 Si02
#       5
#     4   4   4   4   4
#     4   9  17  30  53  85 114 138 178 237 291 337
#     4  11  21  36  60  86 114 150 196 242 285 346
#     4   9  16  29  51  84 115 139 176 235 293 337
#     4  11  22  39  63  89 116 153 201 247 292 356
#     4  12  25  40  58  84 122 160 198 247 302 352
#
# _framework density 21.719037
#
# number of rings (size 3 to 8) (size 9 to 14) (size 15 to 20)
#    0.000    1.600    0.000    8.400    0.000    3.200 
#    0.000    0.000    0.000    7.200    0.000    0.000 
#    0.000    0.000    0.000    0.000    0.000    0.000 
#
# Total GULP energy -247826.282072 kJ/mol
# GULP energy per Si atom -12391.314104 kJ/mol
# Density = 2.166960 g / cm^3
# Si number density = 21.719037 Si / 1000 Ang^3
#
#
#
# Elastic Constant Matrix: (Units=GPa)
#
#
# Indices 1 2 3 4 5 6 
#
# 1 53.3022 23.2978 36.1798 0.0000 0.0000 0.0000
# 2 23.2978 193.1725 70.1960 0.0000 0.0000 0.0000
# 3 36.1798 70.1960 120.6788 0.0000 0.0000 0.0000
# 4 0.0000 0.0000 0.0000 41.8590 0.0000 0.0000
# 5 0.0000 0.0000 0.0000 0.0000 5.9687 0.0000
# 6 0.0000 0.0000 0.0000 0.0000 0.0000 19.0266
#
#
#
# Elastic Compliance Matrix: (Units=1/GPa)
#
#
# Indices 1 2 3 4 5 6 
#
# 1 0.023573 -0.000349 -0.006864 0.000000 0.000000 0.000000
# 2 -0.000349 0.006569 -0.003717 0.000000 0.000000 0.000000
# 3 -0.006864 -0.003717 0.012506 0.000000 0.000000 0.000000
# 4 0.000000 0.000000 0.000000 0.023890 0.000000 0.000000
# 5 0.000000 0.000000 0.000000 0.000000 0.167542 0.000000
# 6 0.000000 0.000000 0.000000 0.000000 0.000000 0.052558
#
#
# Mechanical properties :
#
#
# Convention : Reuss Voigt Hill
#
# Bulk Modulus (GPa) = 48.10245 69.61119 58.85682
# Shear Modulus (GPa) = 15.85154 29.20286 22.52720
#
# Velocity S-wave (km/s) = 2.70450 3.67082 3.22407
# Velocity P-wave (km/s) = 5.65226 7.07721 6.40449
#
# Compressibility (1/GPa) = 0.02078896
#
# Stress axis : x y z
#
# Youngs Moduli (GPa) = 42.42207 152.22159 79.95942
#
# Poissons Ratio (x) = 0.05306 0.54887
# Poissons Ratio (y) = 0.01479 0.29719
# Poissons Ratio (z) = 0.29120 0.56577
#
# Static dielectric constant tensor:
#      x y z
#    x 3.320290 0.000000 0.000000 
#    y 0.000000 4.499160 0.000000 
#    z 0.000000 0.000000 3.785480 
# 
# 
# High freq. dielectric constant tensor:
#      x y z
#    x 1.783210 0.000000 0.000000 
#    y 0.000000 1.888630 0.000000 
#    z 0.000000 0.000000 1.859880 
# 
# From -- ./inp_files/5657.got.cif
#   From: 2010.03.12/outbox.cif.g09.slc.cpg/sg28_3_cif.got.tgz:5657.got - 2010.04.14 03:39:34.
