data_PCOD8168132
_publ_section_title
;
Structure prediction by ZEFSAII (Michael W. Deem and Ramdas Pophale) SiO2 
 PCOD8168132
Probable space group: P M A 2
;
_chemical_formula_sum "Si O2"
_cell_formula_units_Z 32
_cell_length_a 9.285337
_cell_length_b 14.387166
_cell_length_c 12.360900
_cell_angle_alpha 90.000000
_cell_angle_beta 90.000000
_cell_angle_gamma 90.000000
_cell_volume 1651.288735
_symmetry_space_group_name_H-M "P M A 2"
_symmetry_group_IT_number 28
_symmetry_cell_setting 'orthorhombic'
loop_
_space_group_symop_operation_xyz
x,y,z
-x,-y,z
1/2-x,y,z
1/2+x,-y,z
loop_
_atom_site_type_symbol
_atom_site_label
_atom_site_fract_x
_atom_site_fract_y
_atom_site_fract_z
Si Si1 0.913072 0.416887 0.061350
Si Si2 0.080810 0.909742 0.153380
Si Si3 0.579729 0.912398 0.701149
Si Si4 0.078928 0.400645 0.423865
Si Si5 0.910585 0.339630 0.842456
Si Si6 0.911685 0.129442 0.909527
Si Si7 0.082305 0.292569 0.640975
Si Si8 0.085539 0.717904 0.250251
O O1 0.750000 0.449944 0.055551
O O2 0.927582 0.324117 0.130725
O O3 0.000000 0.500000 0.118292
O O4 0.973216 0.402205 0.939721
O O5 0.250000 0.926809 0.156406
O O6 0.040194 0.825208 0.234362
O O7 0.030945 0.891319 0.030042
O O8 0.000000 0.000000 0.199293
O O9 0.750000 0.927446 0.697057
O O10 0.525697 0.913010 0.825307
O O11 0.533819 0.816176 0.641174
O O12 0.500000 0.000000 0.642648
O O13 0.250000 0.416642 0.412572
O O14 0.038204 0.343354 0.531128
O O15 0.000000 0.500000 0.423685
O O16 0.023903 0.335703 0.327550
O O17 0.750000 0.370747 0.808790
O O18 0.906050 0.238329 0.892868
O O19 0.008960 0.349499 0.737501
O O20 0.750000 0.088489 0.890684
O O21 0.250000 0.297747 0.663270
O O22 0.250000 0.708453 0.293711
#
# Coordination Sequence:
#
# PCOD8168132 Si02
#       8
#     4   4   4   4   4   4   4   4
#     4  10  20  34  53  80 113 147 181 224 278 336
#     4  10  20  34  54  81 115 153 190 231 279 333
#     4  10  19  32  51  79 113 150 188 228 273 326
#     4  11  24  43  65  87 110 142 188 241 292 342
#     4   9  17  32  54  79 111 150 185 222 273 331
#     4   9  16  30  51  76 110 152 190 225 267 322
#     4   9  21  39  57  80 113 146 183 233 282 329
#     4  10  21  40  61  82 114 150 189 236 284 335
#
# _framework density 19.378803999999999
#
# number of rings (size 3 to 8) (size 9 to 14) (size 15 to 20)
#    0.000    2.250    1.250    1.500    0.000    6.000 
#    0.000    3.125    0.000    3.000    0.000    0.000 
#    0.000    0.000    0.000    0.000    0.000    0.000 
#
# Total GULP energy -396677.088810 kJ/mol
# GULP energy per Si atom -12396.159025 kJ/mol
# Density = 1.933470 g / cm^3
# Si number density = 19.378804 Si / 1000 Ang^3
#
#
#
# Elastic Constant Matrix: (Units=GPa)
#
#
# Indices 1 2 3 4 5 6 
#
# 1 71.9947 54.4653 48.2235 0.0000 0.0000 0.0000
# 2 54.4653 121.2483 52.2188 0.0000 0.0000 0.0000
# 3 48.2235 52.2188 94.0190 0.0000 0.0000 0.0000
# 4 0.0000 0.0000 0.0000 19.1710 0.0000 0.0000
# 5 0.0000 0.0000 0.0000 0.0000 25.7613 0.0000
# 6 0.0000 0.0000 0.0000 0.0000 0.0000 29.7556
#
#
#
# Elastic Compliance Matrix: (Units=1/GPa)
#
#
# Indices 1 2 3 4 5 6 
#
# 1 0.025672 -0.007704 -0.008889 0.000000 0.000000 0.000000
# 2 -0.007704 0.013152 -0.003354 0.000000 0.000000 0.000000
# 3 -0.008889 -0.003354 0.017058 0.000000 0.000000 0.000000
# 4 0.000000 0.000000 0.000000 0.052162 0.000000 0.000000
# 5 0.000000 0.000000 0.000000 0.000000 0.038818 0.000000
# 6 0.000000 0.000000 0.000000 0.000000 0.000000 0.033607
#
#
# Mechanical properties :
#
#
# Convention : Reuss Voigt Hill
#
# Bulk Modulus (GPa) = 62.53890 66.34191 64.44040
# Shear Modulus (GPa) = 22.15418 23.76121 22.95770
#
# Velocity S-wave (km/s) = 3.38482 3.50543 3.44565
# Velocity P-wave (km/s) = 6.90057 7.11988 7.01108
#
# Compressibility (1/GPa) = 0.01599005
#
# Stress axis : x y z
#
# Youngs Moduli (GPa) = 38.95340 76.03165 58.62409
#
# Poissons Ratio (x) = 0.58573 0.52109
# Poissons Ratio (y) = 0.30009 0.19660
# Poissons Ratio (z) = 0.34624 0.25498
#
# Static dielectric constant tensor:
#      x y z
#    x 3.520030 0.000000 0.000000 
#    y 0.000000 3.775610 0.000000 
#    z 0.000000 0.000000 3.399390 
# 
# 
# High freq. dielectric constant tensor:
#      x y z
#    x 1.749160 0.000000 0.000000 
#    y 0.000000 1.765840 0.000000 
#    z 0.000000 0.000000 1.732950 
# 
# From -- ./inp_files/5046.got.cif
#   From: 2010.03.12/outbox.cif.g09.slc.cpg/sg28_3_cif.got.tgz:5046.got - 2010.04.14 03:39:34.
