data_PCOD8168382
_publ_section_title
;
Structure prediction by ZEFSAII (Michael W. Deem and Ramdas Pophale) SiO2 
 PCOD8168382
Probable space group: P M A 2
;
_chemical_formula_sum "Si O2"
_cell_formula_units_Z 24
_cell_length_a 8.443821
_cell_length_b 9.397468
_cell_length_c 15.273556
_cell_angle_alpha 90.000000
_cell_angle_beta 90.000000
_cell_angle_gamma 90.000000
_cell_volume 1211.964880
_symmetry_space_group_name_H-M "P M A 2"
_symmetry_group_IT_number 28
_symmetry_cell_setting 'orthorhombic'
loop_
_space_group_symop_operation_xyz
x,y,z
-x,-y,z
1/2-x,y,z
1/2+x,-y,z
loop_
_atom_site_type_symbol
_atom_site_label
_atom_site_fract_x
_atom_site_fract_y
_atom_site_fract_z
Si Si1 0.436711 0.341686 0.646850
Si Si2 0.935718 0.844542 0.308244
Si Si3 0.563340 0.341967 0.156563
Si Si4 0.438095 0.657143 0.829911
Si Si5 0.436907 0.841374 0.994846
Si Si6 0.435159 0.849764 0.496450
O O1 0.500000 0.500000 0.644344
O O2 0.250000 0.332076 0.630212
O O3 0.481291 0.279431 0.742133
O O4 0.531069 0.261983 0.571626
O O5 0.750000 0.844344 0.294015
O O6 0.011834 0.723699 0.248600
O O7 0.976819 0.804155 0.407750
O O8 0.000000 0.000000 0.282629
O O9 0.500000 0.500000 0.146029
O O10 0.750000 0.348383 0.151848
O O11 0.494477 0.244503 0.078125
O O12 0.500000 0.500000 0.852305
O O13 0.250000 0.651381 0.817364
O O14 0.492505 0.761535 0.907165
O O15 0.250000 0.846406 0.999902
O O16 0.500000 0.000000 0.995528
O O17 0.250000 0.860740 0.476241
O O18 0.500000 0.000000 0.530321
#
# Coordination Sequence:
#
# PCOD8168382 Si02
#       6
#     4   4   4   4   4   4
#     4  11  22  38  59  86 117 154 194 239 289 343
#     4  11  22  39  61  87 117 153 192 237 287 342
#     4  11  23  40  60  87 117 152 193 238 288 343
#     4  10  20  37  58  84 114 150 192 238 287 342
#     4  10  23  39  59  85 116 150 191 236 285 341
#     4  11  22  39  61  87 117 153 193 238 287 343
#
# _framework density 19.802553
#
# number of rings (size 3 to 8) (size 9 to 14) (size 15 to 20)
#    0.000    1.333    0.000    8.500    0.000    5.333 
#    0.000    5.000    0.000    0.000    0.000    0.000 
#    0.000    0.000    0.000    0.000    0.000    0.000 
#
# Total GULP energy -297702.721295 kJ/mol
# GULP energy per Si atom -12404.280054 kJ/mol
# Density = 1.975748 g / cm^3
# Si number density = 19.802553 Si / 1000 Ang^3
#
#
#
# Elastic Constant Matrix: (Units=GPa)
#
#
# Indices 1 2 3 4 5 6 
#
# 1 69.7228 25.2282 13.2304 0.0000 0.0000 0.0000
# 2 25.2282 118.2392 74.6807 0.0000 0.0000 0.0000
# 3 13.2304 74.6807 119.5147 0.0000 0.0000 0.0000
# 4 0.0000 0.0000 0.0000 73.0839 0.0000 0.0000
# 5 0.0000 0.0000 0.0000 0.0000 20.7056 0.0000
# 6 0.0000 0.0000 0.0000 0.0000 0.0000 36.2781
#
#
#
# Elastic Compliance Matrix: (Units=1/GPa)
#
#
# Indices 1 2 3 4 5 6 
#
# 1 0.015567 -0.003689 0.000582 0.000000 0.000000 0.000000
# 2 -0.003689 0.014846 -0.008868 0.000000 0.000000 0.000000
# 3 0.000582 -0.008868 0.013844 0.000000 0.000000 0.000000
# 4 0.000000 0.000000 0.000000 0.013683 0.000000 0.000000
# 5 0.000000 0.000000 0.000000 0.000000 0.048296 0.000000
# 6 0.000000 0.000000 0.000000 0.000000 0.000000 0.027565
#
#
# Mechanical properties :
#
#
# Convention : Reuss Voigt Hill
#
# Bulk Modulus (GPa) = 49.24610 59.30616 54.27613
# Shear Modulus (GPa) = 30.39139 38.96934 34.68037
#
# Velocity S-wave (km/s) = 3.92180 4.44091 4.18940
# Velocity P-wave (km/s) = 6.74017 7.50395 7.13229
#
# Compressibility (1/GPa) = 0.02030618
#
# Stress axis : x y z
#
# Youngs Moduli (GPa) = 64.23886 67.35928 72.23225
#
# Poissons Ratio (x) = 0.24848 -0.04202
# Poissons Ratio (y) = 0.23697 0.64057
# Poissons Ratio (z) = -0.03737 0.59736
#
# Static dielectric constant tensor:
#      x y z
#    x 3.690920 0.000000 0.000000 
#    y 0.000000 3.426850 0.000000 
#    z 0.000000 0.000000 3.888130 
# 
# 
# High freq. dielectric constant tensor:
#      x y z
#    x 1.785810 0.000000 0.000000 
#    y 0.000000 1.771490 0.000000 
#    z 0.000000 0.000000 1.788190 
# 
# From -- ./inp_files/6069.got.cif
#   From: 2010.03.12/outbox.cif.g09.slc.cpg/sg28_4_cif.got.tgz:6069.got - 2010.04.14 03:39:34.
